
#######################################################################
#
#                 Cambridge Crystallographic Data Centre
#                                CCDC 
#
#######################################################################
#
# If this CIF has been generated from an entry in the Cambridge 
# Structural Database, then it will include bibliographic, chemical, 
# crystal, experimental, refinement or atomic coordinate data resulting 
# from the CCDC's data processing and validation procedures.
#
#######################################################################

data_GIKMOD11
_chemical_formula_moiety         '(C16 H12 Cu4 O18 S2)n,4n(H2 O1)'
_chemical_name_systematic        
'catena-(bis(\m~6~-5-sulfonatobenzene-1,3-dicarboxylato)-bis(\m~3~-hydroxo)-diaqua-tetra-copper(ii) tetrahydrate)'
_symmetry_cell_setting           monoclinic
_symmetry_space_group_name_H-M   'P 21/n'
_symmetry_Int_Tables_number      14
_space_group_name_Hall           '-P 2yn'
loop_
_symmetry_equiv_pos_site_id
_symmetry_equiv_pos_as_xyz
1 x,y,z
2 1/2-x,1/2+y,1/2-z
3 -x,-y,-z
4 1/2+x,1/2-y,1/2+z
_cell_length_a                   7.3333(14)
_cell_length_b                   18.153(3)
_cell_length_c                   10.1729(19)
_cell_angle_alpha                90
_cell_angle_beta                 94.379(4)
_cell_angle_gamma                90
_cell_volume                     1350.28
_exptl_crystal_colour            blue
_exptl_crystal_description       block
_cell_formula_units_Z            2
loop_
_atom_site_label
_atom_site_type_symbol
_atom_site_fract_x
_atom_site_fract_y
_atom_site_fract_z
Cu1 Cu 0.1328(5) 0.09430(15) 0.7814(3)
Cu2 Cu -0.0451(4) 0.06820(15) 1.0674(3)
S1 S 0.1169(10) 0.4340(4) 1.3091(6)
O1 O 0.048(2) 0.1664(8) 1.0855(19)
O2 O 0.134(2) 0.0345(7) 0.9455(14)
O3 O 0.338(2) 0.5111(10) 0.8384(14)
O4 O 0.114(2) 0.1853(8) 0.8779(19)
O5 O 0.124(3) 0.5124(8) 1.2995(17)
O6 O 0.313(2) 0.4112(8) 0.7103(19)
O7 O 0.276(2) 0.4049(9) 1.3902(18)
O8 O -0.050(2) 0.4045(9) 1.3575(15)
C1 C 0.134(3) 0.3958(13) 1.147(2)
C2 C 0.227(3) 0.4024(14) 0.930(3)
C3 C 0.201(3) 0.3300(16) 0.914(2)
H1 H 0.2292 0.3078 0.8362
C4 C 0.133(3) 0.2880(12) 1.010(2)
C5 C 0.092(3) 0.2049(16) 0.999(3)
C6 C 0.102(3) 0.3197(11) 1.132(2)
H2 H 0.0615 0.2915 1.2001
C7 C 0.195(3) 0.4367(13) 1.044(3)
H3 H 0.2131 0.4872 1.0528
C8 C 0.302(3) 0.4443(16) 0.817(3)
O9 O 0.118(2) 0.1543(8) 0.6204(15)
Cu1B Cu -0.1328(5) -0.09430(15) 1.2186(3)
Cu1A Cu 0.3672(5) -0.40570(15) 0.7186(3)
Cu1A_2 Cu 0.3672(5) 0.59430(15) 0.7186(3)
Cu1C Cu -0.3672(5) -0.59430(15) 1.2814(3)
Cu1C_2 Cu -0.3672(5) 0.40570(15) 1.2814(3)
Cu2B Cu 0.0451(4) -0.06820(15) 0.9326(3)
Cu2A Cu -0.4549(4) -0.43180(15) 0.4326(3)
Cu2A_2 Cu -0.4549(4) -0.43180(15) 1.4326(3)
Cu2C Cu 0.4549(4) 0.43180(15) 0.5674(3)
Cu2C_2 Cu 0.4549(4) 0.43180(15) 1.5674(3)
S1B S -0.1169(10) -0.4340(4) 0.6909(6)
O1B O -0.048(2) -0.1664(8) 0.9145(19)
O2B O -0.134(2) -0.0345(7) 1.0545(14)
O3B O -0.338(2) -0.5111(10) 1.1616(14)
O3A O 0.162(2) 0.0111(10) 0.6616(14)
O3C O -0.162(2) -0.0111(10) 1.3384(14)
O4B O -0.114(2) -0.1853(8) 1.1221(19)
O5B O -0.124(3) -0.5124(8) 0.7005(17)
O6B O -0.313(2) -0.4112(8) 1.2897(19)
O6A O 0.187(2) -0.0888(8) 0.7897(19)
O6C O -0.187(2) 0.0888(8) 1.2103(19)
O7B O -0.276(2) -0.4049(9) 0.6098(18)
O7A O 0.224(2) -0.0951(9) 1.1098(18)
O7C O -0.224(2) 0.0951(9) 0.8902(18)
O8B O 0.050(2) -0.4045(9) 0.6425(15)
O8A O -0.450(2) -0.0955(9) 1.1425(15)
O8C O 0.450(2) 0.0955(9) 0.8575(15)
C1B C -0.134(3) -0.3958(13) 0.853(2)
C2B C -0.227(3) -0.4024(14) 1.070(3)
C3B C -0.201(3) -0.3300(16) 1.086(2)
H1B H -0.2292 -0.3078 1.1638
C4B C -0.133(3) -0.2880(12) 0.990(2)
C5B C -0.092(3) -0.2049(16) 1.001(3)
C6B C -0.102(3) -0.3197(11) 0.868(2)
H2B H -0.0615 -0.2915 0.7999
C7B C -0.195(3) -0.4367(13) 0.956(3)
H3B H -0.2131 -0.4872 0.9472
C8B C -0.302(3) -0.4443(16) 1.183(3)
O9B O -0.118(2) -0.1543(8) 1.3796(15)
O10 O 0.033(3) 0.3024(10) 0.5853(19)
O11 O 0.214(2) 0.1323(10) 0.3635(18)
loop_
_geom_bond_atom_site_label_1
_geom_bond_atom_site_label_2
_geom_bond_site_symmetry_1
_geom_bond_site_symmetry_2
Cu1 O2 1_555 1_555
Cu2 O1 1_555 1_555
S1 O5 1_555 1_555
O1 C5 1_555 1_555
O2 Cu2 1_555 1_555
O3 C8 1_555 1_555
O4 Cu1 1_555 1_555
O6 C8 1_555 1_555
O7 S1 1_555 1_555
O8 S1 1_555 1_555
C1 S1 1_555 1_555
C2 C3 1_555 1_555
C3 H1 1_555 1_555
C4 C3 1_555 1_555
C5 O4 1_555 1_555
C6 C1 1_555 1_555
H2 C6 1_555 1_555
C7 C1 1_555 1_555
H3 C7 1_555 1_555
C8 C2 1_555 1_555
O9 Cu1 1_555 1_555
Cu1B O2B 1_555 1_555
Cu1A O8B 1_555 1_555
Cu1A_2 O3 1_555 1_555
Cu1C O3B 1_555 1_555
Cu1C_2 O8 1_555 1_555
Cu2B O2 1_555 1_555
Cu2A O7B 1_555 1_555
Cu2A_2 O6B 1_555 1_555
Cu2C O6 1_555 1_555
Cu2C_2 O7 1_555 1_555
S1B O5B 1_555 1_555
O1B Cu2B 1_555 1_555
O2B Cu2 1_555 1_555
O3B C8B 1_555 1_555
O3A Cu1 1_555 1_555
O3C Cu1B 1_555 1_555
O4B Cu1B 1_555 1_555
O6B C8B 1_555 1_555
O6A Cu2B 1_555 1_555
O6C Cu2 1_555 1_555
O7B S1B 1_555 1_555
O7A Cu2B 1_555 1_555
O7C Cu2 1_555 1_555
O8B S1B 1_555 1_555
O8A Cu1B 1_555 1_555
O8C Cu1 1_555 1_555
C1B S1B 1_555 1_555
C2B C3B 1_555 1_555
C3B H1B 1_555 1_555
C4B C3B 1_555 1_555
C5B O1B 1_555 1_555
C6B C1B 1_555 1_555
H2B C6B 1_555 1_555
C7B C1B 1_555 1_555
H3B C7B 1_555 1_555
C8B C2B 1_555 1_555
O9B Cu1B 1_555 1_555
C2 C7 1_555 1_555
C4 C5 1_555 1_555
C4 C6 1_555 1_555
Cu2B O2B 1_555 1_555
O4B C5B 1_555 1_555
C2B C7B 1_555 1_555
C4B C5B 1_555 1_555
C4B C6B 1_555 1_555

#END
