
#######################################################################
#
#                 Cambridge Crystallographic Data Centre
#                                CCDC 
#
#######################################################################
#
# If this CIF has been generated from an entry in the Cambridge 
# Structural Database, then it will include bibliographic, chemical, 
# crystal, experimental, refinement or atomic coordinate data resulting 
# from the CCDC's data processing and validation procedures.
#
#######################################################################

data_GIKMOD10
_chemical_formula_moiety         '(C16 H12 Cu4 O18 S2)n,4n(H2 O1)'
_chemical_name_systematic        
'catena-(bis(\m~6~-5-sulfonatobenzene-1,3-dicarboxylato)-bis(\m~3~-hydroxo)-diaqua-tetra-copper(ii) tetrahydrate)'
_symmetry_cell_setting           monoclinic
_symmetry_space_group_name_H-M   'P 21/n'
_symmetry_Int_Tables_number      14
_space_group_name_Hall           '-P 2yn'
loop_
_symmetry_equiv_pos_site_id
_symmetry_equiv_pos_as_xyz
1 x,y,z
2 1/2-x,1/2+y,1/2-z
3 -x,-y,-z
4 1/2+x,1/2-y,1/2+z
_cell_length_a                   7.356(2)
_cell_length_b                   18.208(4)
_cell_length_c                   10.167(2)
_cell_angle_alpha                90
_cell_angle_beta                 94.277(14)
_cell_angle_gamma                90
_cell_volume                     1357.96
_exptl_crystal_colour            blue
_exptl_crystal_description       block
_cell_formula_units_Z            2
loop_
_atom_site_label
_atom_site_type_symbol
_atom_site_fract_x
_atom_site_fract_y
_atom_site_fract_z
Cu1 Cu 0.13398(8) 0.09508(3) 0.78301(5)
Cu2 Cu -0.04142(8) 0.06837(3) 1.06955(5)
S1 S 0.12224(16) 0.43511(6) 1.31028(10)
O1 O 0.0536(5) 0.16825(18) 1.0856(3)
O2 O 0.1281(4) 0.03515(16) 0.9415(3)
O3 O 0.3441(5) 0.51405(18) 0.8386(3)
O4 O 0.1193(5) 0.18682(17) 0.8757(3)
O5 O 0.1354(8) 0.5132(2) 1.3010(4)
O6 O 0.3177(6) 0.41045(19) 0.7158(3)
O7 O 0.2725(6) 0.4025(3) 1.3886(5)
O8 O -0.0484(5) 0.4078(3) 1.3554(4)
C1 C 0.1414(6) 0.3960(2) 1.1527(4)
C2 C 0.2324(7) 0.4047(2) 0.9317(4)
C3 C 0.1993(6) 0.3301(2) 0.9155(4)
H1 H 0.2212 0.3078 0.8359
C4 C 0.1341(6) 0.2880(2) 1.0161(4)
C5 C 0.1000(6) 0.2076(2) 0.9918(4)
C6 C 0.1061(6) 0.3215(2) 1.1370(4)
H2 H 0.0644 0.2942 1.2059
C7 C 0.2025(7) 0.4392(2) 1.0523(4)
H3 H 0.2229 0.4892 1.0643
C8 C 0.3031(6) 0.4473(2) 0.8202(4)
O9 O 0.1179(6) 0.1566(2) 0.6241(3)
Cu1B Cu -0.13398(8) -0.09508(3) 1.21699(5)
Cu1A Cu 0.36602(8) -0.40492(3) 0.71699(5)
Cu1A_2 Cu 0.36602(8) 0.59508(3) 0.71699(5)
Cu1C Cu -0.36602(8) -0.59508(3) 1.28301(5)
Cu1C_2 Cu -0.36602(8) 0.40492(3) 1.28301(5)
Cu2B Cu 0.04142(8) -0.06837(3) 0.93045(5)
Cu2A Cu -0.45858(8) -0.43163(3) 0.43045(5)
Cu2A_2 Cu -0.45858(8) -0.43163(3) 1.43045(5)
Cu2C Cu 0.45858(8) 0.43163(3) 0.56955(5)
Cu2C_2 Cu 0.45858(8) 0.43163(3) 1.56955(5)
S1B S -0.12224(16) -0.43511(6) 0.68972(10)
O1B O -0.0536(5) -0.16825(18) 0.9144(3)
O2B O -0.1281(4) -0.03515(16) 1.0585(3)
O3B O -0.3441(5) -0.51405(18) 1.1614(3)
O3A O 0.1559(5) 0.01405(18) 0.6614(3)
O3C O -0.1559(5) -0.01405(18) 1.3386(3)
O4B O -0.1193(5) -0.18682(17) 1.1243(3)
O5B O -0.1354(8) -0.5132(2) 0.6990(4)
O6B O -0.3177(6) -0.41045(19) 1.2842(3)
O6A O 0.1823(6) -0.08955(19) 0.7842(3)
O6C O -0.1823(6) 0.08955(19) 1.2158(3)
O7B O -0.2725(6) -0.4025(3) 0.6114(5)
O7A O 0.2275(6) -0.0975(3) 1.1114(5)
O7C O -0.2275(6) 0.0975(3) 0.8886(5)
O8B O 0.0484(5) -0.4078(3) 0.6446(4)
O8A O -0.4516(5) -0.0922(3) 1.1446(4)
O8C O 0.4516(5) 0.0922(3) 0.8554(4)
C1B C -0.1414(6) -0.3960(2) 0.8473(4)
C2B C -0.2324(7) -0.4047(2) 1.0683(4)
C3B C -0.1993(6) -0.3301(2) 1.0845(4)
H1B H -0.2212 -0.3078 1.1641
C4B C -0.1341(6) -0.2880(2) 0.9839(4)
C5B C -0.1000(6) -0.2076(2) 1.0082(4)
C6B C -0.1061(6) -0.3215(2) 0.8630(4)
H2B H -0.0644 -0.2942 0.7941
C7B C -0.2025(7) -0.4392(2) 0.9477(4)
H3B H -0.2229 -0.4892 0.9357
C8B C -0.3031(6) -0.4473(2) 1.1798(4)
O9B O -0.1179(6) -0.1566(2) 1.3759(3)
O10 O 0.0379(9) 0.3022(3) 0.5889(6)
O11 O 0.2187(11) 0.1363(5) 0.3657(7)
loop_
_geom_bond_atom_site_label_1
_geom_bond_atom_site_label_2
_geom_bond_site_symmetry_1
_geom_bond_site_symmetry_2
Cu1 O2 1_555 1_555
Cu2 O1 1_555 1_555
S1 O5 1_555 1_555
O1 C5 1_555 1_555
O2 Cu2 1_555 1_555
O3 C8 1_555 1_555
O4 Cu1 1_555 1_555
O6 C8 1_555 1_555
O7 S1 1_555 1_555
O8 S1 1_555 1_555
C1 S1 1_555 1_555
C2 C3 1_555 1_555
C3 H1 1_555 1_555
C4 C3 1_555 1_555
C5 O4 1_555 1_555
C6 C1 1_555 1_555
H2 C6 1_555 1_555
C7 C1 1_555 1_555
H3 C7 1_555 1_555
C8 C2 1_555 1_555
O9 Cu1 1_555 1_555
Cu1B O2B 1_555 1_555
Cu1A O8B 1_555 1_555
Cu1A_2 O3 1_555 1_555
Cu1C O3B 1_555 1_555
Cu1C_2 O8 1_555 1_555
Cu2B O2 1_555 1_555
Cu2A O7B 1_555 1_555
Cu2A_2 O6B 1_555 1_555
Cu2C O6 1_555 1_555
Cu2C_2 O7 1_555 1_555
S1B O5B 1_555 1_555
O1B Cu2B 1_555 1_555
O2B Cu2 1_555 1_555
O3B C8B 1_555 1_555
O3A Cu1 1_555 1_555
O3C Cu1B 1_555 1_555
O4B Cu1B 1_555 1_555
O6B C8B 1_555 1_555
O6A Cu2B 1_555 1_555
O6C Cu2 1_555 1_555
O7B S1B 1_555 1_555
O7A Cu2B 1_555 1_555
O7C Cu2 1_555 1_555
O8B S1B 1_555 1_555
O8A Cu1B 1_555 1_555
O8C Cu1 1_555 1_555
C1B S1B 1_555 1_555
C2B C3B 1_555 1_555
C3B H1B 1_555 1_555
C4B C3B 1_555 1_555
C5B O1B 1_555 1_555
C6B C1B 1_555 1_555
H2B C6B 1_555 1_555
C7B C1B 1_555 1_555
H3B C7B 1_555 1_555
C8B C2B 1_555 1_555
O9B Cu1B 1_555 1_555
C2 C7 1_555 1_555
C4 C5 1_555 1_555
C4 C6 1_555 1_555
Cu2B O2B 1_555 1_555
O4B C5B 1_555 1_555
C2B C7B 1_555 1_555
C4B C5B 1_555 1_555
C4B C6B 1_555 1_555

#END
