
#######################################################################
#
#                 Cambridge Crystallographic Data Centre
#                                CCDC 
#
#######################################################################
#
# If this CIF has been generated from an entry in the Cambridge 
# Structural Database, then it will include bibliographic, chemical, 
# crystal, experimental, refinement or atomic coordinate data resulting 
# from the CCDC's data processing and validation procedures.
#
#######################################################################

data_LUSZOP
_chemical_formula_moiety         '(C16 H12 Cu4 O18 S2)n,3.43n(H2 O1)'
_chemical_name_systematic        
'catena-(bis(\m~6~-5-sulfonatobenzene-1,3-dicarboxylato)-bis(\m~3~-hydroxo)-diaqua-tetra-copper(ii) hydrate)'
_symmetry_cell_setting           monoclinic
_symmetry_space_group_name_H-M   'P 21/n'
_symmetry_Int_Tables_number      14
_space_group_name_Hall           '-P 2yn'
loop_
_symmetry_equiv_pos_site_id
_symmetry_equiv_pos_as_xyz
1 x,y,z
2 1/2-x,1/2+y,1/2-z
3 -x,-y,-z
4 1/2+x,1/2-y,1/2+z
_cell_length_a                   7.3333(14)
_cell_length_b                   18.153(3)
_cell_length_c                   10.1729(19)
_cell_angle_alpha                90
_cell_angle_beta                 94.379(4)
_cell_angle_gamma                90
_cell_volume                     1350.28
_exptl_crystal_colour            blue
_exptl_crystal_description       block
_cell_formula_units_Z            2
loop_
_atom_site_label
_atom_site_type_symbol
_atom_site_fract_x
_atom_site_fract_y
_atom_site_fract_z
Cu1 Cu 0.13443(8) 0.09427(4) 0.78290(5)
Cu2 Cu -0.04401(8) 0.06855(3) 1.06806(5)
S1 S 0.11983(16) 0.43452(8) 1.30896(11)
O1 O 0.0527(5) 0.1678(2) 1.0859(3)
O2 O 0.1296(4) 0.0347(2) 0.9429(3)
O3 O 0.3405(6) 0.5130(2) 0.8365(3)
O4 O 0.1184(5) 0.1858(2) 0.8746(3)
O5 O 0.1282(8) 0.5128(3) 1.2974(5)
O6 O 0.3131(6) 0.4099(2) 0.7138(4)
O7 O 0.2740(6) 0.4032(3) 1.3870(4)
O8 O -0.0498(5) 0.4067(3) 1.3550(4)
C1 C 0.1372(7) 0.3955(3) 1.1503(4)
C2 C 0.2284(7) 0.4045(3) 0.9299(5)
C3 C 0.1957(7) 0.3300(3) 0.9141(5)
H1 H 0.2175 0.3078 0.8344
C4 C 0.1307(7) 0.2869(3) 1.0148(4)
C5 C 0.0977(7) 0.2076(3) 0.9907(4)
C6 C 0.1031(7) 0.3207(3) 1.1347(4)
H2 H 0.0621 0.2933 1.2038
C7 C 0.1993(7) 0.4383(3) 1.0497(4)
H3 H 0.2211 0.4884 1.0619
C8 C 0.3003(7) 0.4464(3) 0.8170(5)
O9 O 0.1177(7) 0.1551(3) 0.6223(4)
Cu1B Cu -0.13443(8) -0.09427(4) 1.21710(5)
Cu1A Cu 0.36557(8) -0.40573(4) 0.71710(5)
Cu1A_2 Cu 0.36557(8) 0.59427(4) 0.71710(5)
Cu1C Cu -0.36557(8) -0.59427(4) 1.28290(5)
Cu1C_2 Cu -0.36557(8) 0.40573(4) 1.28290(5)
Cu2B Cu 0.04401(8) -0.06855(3) 0.93194(5)
Cu2A Cu -0.45599(8) -0.43145(3) 0.43194(5)
Cu2A_2 Cu -0.45599(8) -0.43145(3) 1.43194(5)
Cu2C Cu 0.45599(8) 0.43145(3) 0.56806(5)
Cu2C_2 Cu 0.45599(8) 0.43145(3) 1.56806(5)
S1B S -0.11983(16) -0.43452(8) 0.69104(11)
O1B O -0.0527(5) -0.1678(2) 0.9141(3)
O2B O -0.1296(4) -0.0347(2) 1.0571(3)
O3B O -0.3405(6) -0.5130(2) 1.1635(3)
O3A O 0.1595(6) 0.0130(2) 0.6635(3)
O3C O -0.1595(6) -0.0130(2) 1.3365(3)
O4B O -0.1184(5) -0.1858(2) 1.1254(3)
O5B O -0.1282(8) -0.5128(3) 0.7026(5)
O6B O -0.3131(6) -0.4099(2) 1.2862(4)
O6A O 0.1869(6) -0.0901(2) 0.7862(4)
O6C O -0.1869(6) 0.0901(2) 1.2138(4)
O7B O -0.2740(6) -0.4032(3) 0.6130(4)
O7A O 0.2260(6) -0.0968(3) 1.1130(4)
O7C O -0.2260(6) 0.0968(3) 0.8870(4)
O8B O 0.0498(5) -0.4067(3) 0.6450(4)
O8A O -0.4502(5) -0.0933(3) 1.1450(4)
O8C O 0.4502(5) 0.0933(3) 0.8550(4)
C1B C -0.1372(7) -0.3955(3) 0.8497(4)
C2B C -0.2284(7) -0.4045(3) 1.0701(5)
C3B C -0.1957(7) -0.3300(3) 1.0859(5)
H1B H -0.2175 -0.3078 1.1656
C4B C -0.1307(7) -0.2869(3) 0.9852(4)
C5B C -0.0977(7) -0.2076(3) 1.0093(4)
C6B C -0.1031(7) -0.3207(3) 0.8653(4)
H2B H -0.0621 -0.2933 0.7962
C7B C -0.1993(7) -0.4383(3) 0.9503(4)
H3B H -0.2211 -0.4884 0.9381
C8B C -0.3003(7) -0.4464(3) 1.1830(5)
O9B O -0.1177(7) -0.1551(3) 1.3777(4)
O10 O 0.0387(10) 0.3005(4) 0.5861(6)
O11 O 0.2142(11) 0.1325(5) 0.3639(7)
loop_
_geom_bond_atom_site_label_1
_geom_bond_atom_site_label_2
_geom_bond_site_symmetry_1
_geom_bond_site_symmetry_2
Cu1 O2 1_555 1_555
Cu2 O1 1_555 1_555
S1 O5 1_555 1_555
O1 C5 1_555 1_555
O2 Cu2 1_555 1_555
O3 C8 1_555 1_555
O4 Cu1 1_555 1_555
O6 C8 1_555 1_555
O7 S1 1_555 1_555
O8 S1 1_555 1_555
C1 S1 1_555 1_555
C2 C3 1_555 1_555
C3 H1 1_555 1_555
C4 C3 1_555 1_555
C5 O4 1_555 1_555
C6 C1 1_555 1_555
H2 C6 1_555 1_555
C7 C1 1_555 1_555
H3 C7 1_555 1_555
C8 C2 1_555 1_555
O9 Cu1 1_555 1_555
Cu1B O2B 1_555 1_555
Cu1A O8B 1_555 1_555
Cu1A_2 O3 1_555 1_555
Cu1C O3B 1_555 1_555
Cu1C_2 O8 1_555 1_555
Cu2B O2 1_555 1_555
Cu2A O7B 1_555 1_555
Cu2A_2 O6B 1_555 1_555
Cu2C O6 1_555 1_555
Cu2C_2 O7 1_555 1_555
S1B O5B 1_555 1_555
O1B Cu2B 1_555 1_555
O2B Cu2 1_555 1_555
O3B C8B 1_555 1_555
O3A Cu1 1_555 1_555
O3C Cu1B 1_555 1_555
O4B Cu1B 1_555 1_555
O6B C8B 1_555 1_555
O6A Cu2B 1_555 1_555
O6C Cu2 1_555 1_555
O7B S1B 1_555 1_555
O7A Cu2B 1_555 1_555
O7C Cu2 1_555 1_555
O8B S1B 1_555 1_555
O8A Cu1B 1_555 1_555
O8C Cu1 1_555 1_555
C1B S1B 1_555 1_555
C2B C3B 1_555 1_555
C3B H1B 1_555 1_555
C4B C3B 1_555 1_555
C5B O1B 1_555 1_555
C6B C1B 1_555 1_555
H2B C6B 1_555 1_555
C7B C1B 1_555 1_555
H3B C7B 1_555 1_555
C8B C2B 1_555 1_555
O9B Cu1B 1_555 1_555
C2 C7 1_555 1_555
C4 C5 1_555 1_555
C4 C6 1_555 1_555
Cu2B O2B 1_555 1_555
O4B C5B 1_555 1_555
C2B C7B 1_555 1_555
C4B C5B 1_555 1_555
C4B C6B 1_555 1_555

#END
