
#######################################################################
#
#                 Cambridge Crystallographic Data Centre
#                                CCDC 
#
#######################################################################
#
# If this CIF has been generated from an entry in the Cambridge 
# Structural Database, then it will include bibliographic, chemical, 
# crystal, experimental, refinement or atomic coordinate data resulting 
# from the CCDC's data processing and validation procedures.
#
#######################################################################

data_LUTCEJ
_chemical_formula_moiety         '(C16 H12 Cu4 O18 S2)n,2.68n(H2 O1)'
_chemical_name_systematic        
'catena-(bis(\m~6~-5-sulfonatobenzene-1,3-dicarboxylato)-bis(\m~3~-hydroxo)-diaqua-tetra-copper(ii) hydrate)'
_symmetry_cell_setting           monoclinic
_symmetry_space_group_name_H-M   'P 21/n'
_symmetry_Int_Tables_number      14
_space_group_name_Hall           '-P 2yn'
loop_
_symmetry_equiv_pos_site_id
_symmetry_equiv_pos_as_xyz
1 x,y,z
2 1/2-x,1/2+y,1/2-z
3 -x,-y,-z
4 1/2+x,1/2-y,1/2+z
_cell_length_a                   7.283(3)
_cell_length_b                   18.119(9)
_cell_length_c                   10.262(5)
_cell_angle_alpha                90
_cell_angle_beta                 94.119(8)
_cell_angle_gamma                90
_cell_volume                     1350.68
_exptl_crystal_colour            blue
_exptl_crystal_description       block
_cell_formula_units_Z            2
loop_
_atom_site_label
_atom_site_type_symbol
_atom_site_fract_x
_atom_site_fract_y
_atom_site_fract_z
Cu1 Cu 0.13752(12) 0.09426(4) 0.78576(8)
Cu2 Cu -0.03635(13) 0.06844(4) 1.07077(8)
S1 S 0.1286(3) 0.43513(9) 1.30757(17)
O1 O 0.0582(8) 0.1678(2) 1.0841(5)
O2 O 0.1318(6) 0.0340(2) 0.9423(4)
O3 O 0.3460(8) 0.5137(3) 0.8368(5)
O4 O 0.1276(8) 0.1862(2) 0.8765(5)
O5 O 0.1505(12) 0.5130(3) 1.2972(6)
O6 O 0.3284(9) 0.4104(3) 0.7178(5)
O7 O 0.2765(9) 0.4009(3) 1.3862(6)
O8 O -0.0438(8) 0.4108(4) 1.3502(6)
C1 C 0.1456(10) 0.3960(3) 1.1504(7)
C2 C 0.2353(10) 0.4051(3) 0.9311(6)
C3 C 0.2031(10) 0.3304(3) 0.9153(6)
H1 H 0.2246 0.3083 0.8360
C4 C 0.1392(10) 0.2875(3) 1.0149(6)
C5 C 0.1042(10) 0.2080(3) 0.9918(6)
C6 C 0.1105(10) 0.3213(4) 1.1325(6)
H2 H 0.0672 0.2936 1.2003
C7 C 0.2069(10) 0.4379(3) 1.0499(6)
H3 H 0.2290 0.4881 1.0620
C8 C 0.3095(10) 0.4469(3) 0.8200(6)
O9 O 0.1234(9) 0.1559(3) 0.6256(5)
Cu1B Cu -0.13752(12) -0.09426(4) 1.21424(8)
Cu1A Cu 0.36248(12) -0.40574(4) 0.71424(8)
Cu1A_2 Cu 0.36248(12) 0.59426(4) 0.71424(8)
Cu1C Cu -0.36248(12) -0.59426(4) 1.28576(8)
Cu1C_2 Cu -0.36248(12) 0.40574(4) 1.28576(8)
Cu2B Cu 0.03635(13) -0.06844(4) 0.92923(8)
Cu2A Cu -0.46365(13) -0.43156(4) 0.42923(8)
Cu2A_2 Cu -0.46365(13) -0.43156(4) 1.42923(8)
Cu2C Cu 0.46365(13) 0.43156(4) 0.57077(8)
Cu2C_2 Cu 0.46365(13) 0.43156(4) 1.57077(8)
S1B S -0.1286(3) -0.43513(9) 0.69243(17)
O1B O -0.0582(8) -0.1678(2) 0.9159(5)
O2B O -0.1318(6) -0.0340(2) 1.0577(4)
O3B O -0.3460(8) -0.5137(3) 1.1632(5)
O3A O 0.1540(8) 0.0137(3) 0.6632(5)
O3C O -0.1540(8) -0.0137(3) 1.3368(5)
O4B O -0.1276(8) -0.1862(2) 1.1235(5)
O5B O -0.1505(12) -0.5130(3) 0.7028(6)
O6B O -0.3284(9) -0.4104(3) 1.2822(5)
O6A O 0.1716(9) -0.0896(3) 0.7822(5)
O6C O -0.1716(9) 0.0896(3) 1.2178(5)
O7B O -0.2765(9) -0.4009(3) 0.6138(6)
O7A O 0.2235(9) -0.0991(3) 1.1138(6)
O7C O -0.2235(9) 0.0991(3) 0.8862(6)
O8B O 0.0438(8) -0.4108(4) 0.6498(6)
O8A O -0.4562(8) -0.0892(4) 1.1498(6)
O8C O 0.4562(8) 0.0892(4) 0.8502(6)
C1B C -0.1456(10) -0.3960(3) 0.8496(7)
C2B C -0.2353(10) -0.4051(3) 1.0689(6)
C3B C -0.2031(10) -0.3304(3) 1.0847(6)
H1B H -0.2246 -0.3083 1.1640
C4B C -0.1392(10) -0.2875(3) 0.9851(6)
C5B C -0.1042(10) -0.2080(3) 1.0082(6)
C6B C -0.1105(10) -0.3213(4) 0.8675(6)
H2B H -0.0672 -0.2936 0.7997
C7B C -0.2069(10) -0.4379(3) 0.9501(6)
H3B H -0.2290 -0.4881 0.9380
C8B C -0.3095(10) -0.4469(3) 1.1800(6)
O9B O -0.1234(9) -0.1559(3) 1.3744(5)
O10 O 0.0523(16) 0.2995(5) 0.5811(11)
O11 O 0.215(3) 0.1383(15) 0.3720(18)
loop_
_geom_bond_atom_site_label_1
_geom_bond_atom_site_label_2
_geom_bond_site_symmetry_1
_geom_bond_site_symmetry_2
Cu1 O2 1_555 1_555
Cu2 O1 1_555 1_555
S1 O5 1_555 1_555
O1 C5 1_555 1_555
O2 Cu2 1_555 1_555
O3 C8 1_555 1_555
O4 Cu1 1_555 1_555
O6 C8 1_555 1_555
O7 S1 1_555 1_555
O8 S1 1_555 1_555
C1 S1 1_555 1_555
C2 C3 1_555 1_555
C3 H1 1_555 1_555
C4 C3 1_555 1_555
C5 O4 1_555 1_555
C6 C1 1_555 1_555
H2 C6 1_555 1_555
C7 C1 1_555 1_555
H3 C7 1_555 1_555
C8 C2 1_555 1_555
O9 Cu1 1_555 1_555
Cu1B O2B 1_555 1_555
Cu1A O8B 1_555 1_555
Cu1A_2 O3 1_555 1_555
Cu1C O3B 1_555 1_555
Cu1C_2 O8 1_555 1_555
Cu2B O2 1_555 1_555
Cu2A O7B 1_555 1_555
Cu2A_2 O6B 1_555 1_555
Cu2C O6 1_555 1_555
Cu2C_2 O7 1_555 1_555
S1B O5B 1_555 1_555
O1B Cu2B 1_555 1_555
O2B Cu2 1_555 1_555
O3B C8B 1_555 1_555
O3A Cu1 1_555 1_555
O3C Cu1B 1_555 1_555
O4B Cu1B 1_555 1_555
O6B C8B 1_555 1_555
O6A Cu2B 1_555 1_555
O6C Cu2 1_555 1_555
O7B S1B 1_555 1_555
O7A Cu2B 1_555 1_555
O7C Cu2 1_555 1_555
O8B S1B 1_555 1_555
O8A Cu1B 1_555 1_555
O8C Cu1 1_555 1_555
C1B S1B 1_555 1_555
C2B C3B 1_555 1_555
C3B H1B 1_555 1_555
C4B C3B 1_555 1_555
C5B O1B 1_555 1_555
C6B C1B 1_555 1_555
H2B C6B 1_555 1_555
C7B C1B 1_555 1_555
H3B C7B 1_555 1_555
C8B C2B 1_555 1_555
O9B Cu1B 1_555 1_555
C2 C7 1_555 1_555
C4 C5 1_555 1_555
C4 C6 1_555 1_555
Cu2B O2B 1_555 1_555
O4B C5B 1_555 1_555
C2B C7B 1_555 1_555
C4B C5B 1_555 1_555
C4B C6B 1_555 1_555

#END
