
#######################################################################
#
#                 Cambridge Crystallographic Data Centre
#                                CCDC 
#
#######################################################################
#
# If this CIF has been generated from an entry in the Cambridge 
# Structural Database, then it will include bibliographic, chemical, 
# crystal, experimental, refinement or atomic coordinate data resulting 
# from the CCDC's data processing and validation procedures.
#
#######################################################################

data_WOJGEI
_chemical_name_common            'ZIF-90 unknown solvate'
_chemical_formula_moiety         '(C8 H6 N4 O2 Zn1)n'
_chemical_name_systematic        
"catena-[bis(\m~2~-2-Formylimidazolato-N,N')-zinc(ii) unknown solvate]"
_symmetry_cell_setting           cubic
_symmetry_space_group_name_H-M   'I -4 3 m'
_symmetry_Int_Tables_number      217
_space_group_name_Hall           'I -4 2 3'
loop_
_symmetry_equiv_pos_site_id
_symmetry_equiv_pos_as_xyz
1 x,y,z
2 -x,-y,z
3 -x,y,-z
4 x,-y,-z
5 z,x,y
6 z,-x,-y
7 -z,-x,y
8 -z,x,-y
9 y,z,x
10 -y,z,-x
11 y,-z,-x
12 -y,-z,x
13 y,x,z
14 -y,-x,z
15 y,-x,-z
16 -y,x,-z
17 x,z,y
18 -x,z,-y
19 -x,-z,y
20 x,-z,-y
21 z,y,x
22 z,-y,-x
23 -z,y,-x
24 -z,-y,x
25 1/2+x,1/2+y,1/2+z
26 1/2-x,1/2-y,1/2+z
27 1/2-x,1/2+y,1/2-z
28 1/2+x,1/2-y,1/2-z
29 1/2+z,1/2+x,1/2+y
30 1/2+z,1/2-x,1/2-y
31 1/2-z,1/2-x,1/2+y
32 1/2-z,1/2+x,1/2-y
33 1/2+y,1/2+z,1/2+x
34 1/2-y,1/2+z,1/2-x
35 1/2+y,1/2-z,1/2-x
36 1/2-y,1/2-z,1/2+x
37 1/2+y,1/2+x,1/2+z
38 1/2-y,1/2-x,1/2+z
39 1/2+y,1/2-x,1/2-z
40 1/2-y,1/2+x,1/2-z
41 1/2+x,1/2+z,1/2+y
42 1/2-x,1/2+z,1/2-y
43 1/2-x,1/2-z,1/2+y
44 1/2+x,1/2-z,1/2-y
45 1/2+z,1/2+y,1/2+x
46 1/2+z,1/2-y,1/2-x
47 1/2-z,1/2+y,1/2-x
48 1/2-z,1/2-y,1/2+x
_cell_length_a                   17.2715(4)
_cell_length_b                   17.2715(4)
_cell_length_c                   17.2715(4)
_cell_angle_alpha                90
_cell_angle_beta                 90
_cell_angle_gamma                90
_cell_volume                     5152.17
_exptl_crystal_colour            red
_exptl_crystal_description       cubic
_cell_formula_units_Z            12
loop_
_atom_site_label
_atom_site_type_symbol
_atom_site_fract_x
_atom_site_fract_y
_atom_site_fract_z
_atom_site_U_iso_or_equiv
_atom_site_thermal_displace_type
Zn1 Zn 1.0000 0.5000 0.2500 0.1390 Uani
N1 N 0.9143(12) 0.4677(10) 0.1845(11) 0.1240 Uiso
C1 C 0.8747(6) 0.4867(10) 0.1253(6) 0.0413 Uani
C2 C 0.8974(12) 0.5674(10) 0.1026(12) 0.1170 Uiso
O1 O 0.8856(13) 0.6129(9) 0.0514(11) 0.0880 Uiso
C3 C 0.8603(17) 0.4063(17) 0.1898(16) 0.1740 Uiso
H1 H 0.8627 0.3680 0.2292 0.2080 Uiso
Zn1V Zn 0.7500 0.5000 0.0000 0.1390 Uani
Zn1T Zn 1.2500 0.5000 0.0000 0.1390 Uani
N1V N 0.8155(11) 0.4677(10) 0.0857(12) 0.1240 Uiso
N1A N 1.0857(12) 0.5323(10) 0.1845(11) 0.1240 Uiso
N1U N 1.1845(11) 0.5323(10) 0.0857(12) 0.1240 Uiso
N1LA N 0.9677(10) 0.5857(12) 0.3155(11) 0.1240 Uiso
N1MA N 1.0323(10) 0.4143(12) 0.3155(11) 0.1240 Uiso
C1A C 1.1253(6) 0.5133(10) 0.1253(6) 0.0413 Uani
C2A C 1.1026(12) 0.4326(10) 0.1026(12) 0.1170 Uiso
O1V O 0.9486(11) 0.6129(9) 0.1144(13) 0.0880 Uiso
O1A O 1.1144(13) 0.3871(9) 0.0514(11) 0.0880 Uiso
O1U O 1.0514(11) 0.3871(9) 0.1144(13) 0.0880 Uiso
C3V C 0.8102(16) 0.4063(17) 0.1397(17) 0.1740 Uiso
C3A C 1.1397(17) 0.5937(17) 0.1898(16) 0.1740 Uiso
C3U C 1.1898(16) 0.5937(17) 0.1397(17) 0.1740 Uiso
H1V H 0.7708 0.3680 0.1373 0.2080 Uiso
H1A H 1.1373 0.6320 0.2292 0.2080 Uiso
H1U H 1.2292 0.6320 0.1373 0.2080 Uiso
H2? H 0.9300 0.5900 0.1050 0.1410 Uiso
loop_
_atom_site_aniso_label
_atom_site_aniso_U_11
_atom_site_aniso_U_22
_atom_site_aniso_U_33
_atom_site_aniso_U_23
_atom_site_aniso_U_13
_atom_site_aniso_U_12
Zn1 0.068(4) 0.068(4) 0.281(9) 0.000 0.000 0.000
C1 0.046(7) 0.032(15) 0.046(7) 0.015(5) 0.012(9) -0.015(5)
Zn1V 0.281 0.068 0.068 0 0 0
Zn1T 0.281 0.068 0.068 0 0 0
C1A 0.046 0.032 0.046 -0.015 -0.012 -0.015
loop_
_geom_bond_atom_site_label_1
_geom_bond_atom_site_label_2
_geom_bond_site_symmetry_1
_geom_bond_site_symmetry_2
Zn1 N1 1_555 1_555
N1 C1 1_555 1_555
C1 C2 1_555 1_555
C2 O1 1_555 1_555
C3 N1 1_555 1_555
H1 C3 1_555 1_555
Zn1V N1V 1_555 1_555
Zn1T N1U 1_555 1_555
N1V C1 1_555 1_555
N1A Zn1 1_555 1_555
N1U C1A 1_555 1_555
N1LA Zn1 1_555 1_555
N1MA Zn1 1_555 1_555
C1A N1A 1_555 1_555
C2A C1A 1_555 1_555
O1V C2 1_555 1_555
O1A C2A 1_555 1_555
O1U C2A 1_555 1_555
C3V C3 1_555 1_555
C3A N1A 1_555 1_555
C3U N1U 1_555 1_555
H1V C3V 1_555 1_555
H1A C3A 1_555 1_555
H1U C3U 1_555 1_555
N1V C3V 1_555 1_555
C3A C3U 1_555 1_555

#END
