
#######################################################################
#
#                 Cambridge Crystallographic Data Centre
#                                CCDC 
#
#######################################################################
#
# If this CIF has been generated from an entry in the Cambridge 
# Structural Database, then it will include bibliographic, chemical, 
# crystal, experimental, refinement or atomic coordinate data resulting 
# from the CCDC's data processing and validation procedures.
#
#######################################################################

data_KULWAR
_chemical_formula_moiety         '(C78 H74 N2 O21 Zn4)n,2n(H2 O1)'
_chemical_name_systematic        
"catena-(tris(\m~4~-4,4'-((4-t-Butyl-1,2-phenylene)bis(oxy))dibenzoato)-(\m~4~-oxo)-bis(dimethylformamide)-tetra-zinc dihydrate)"
_symmetry_cell_setting           monoclinic
_symmetry_space_group_name_H-M   'P 21/c'
_symmetry_Int_Tables_number      14
_space_group_name_Hall           '-P 2ybc'
loop_
_symmetry_equiv_pos_site_id
_symmetry_equiv_pos_as_xyz
1 x,y,z
2 -x,1/2+y,1/2-z
3 -x,-y,-z
4 x,1/2-y,1/2+z
_cell_length_a                   11.801(3)
_cell_length_b                   33.733(10)
_cell_length_c                   25.650(8)
_cell_angle_alpha                90
_cell_angle_beta                 99.893(6)
_cell_angle_gamma                90
_cell_volume                     10059
_exptl_crystal_colour            colorless
_exptl_crystal_description       block
_cell_formula_units_Z            4
loop_
_atom_site_label
_atom_site_type_symbol
_atom_site_fract_x
_atom_site_fract_y
_atom_site_fract_z
_atom_site_U_iso_or_equiv
_atom_site_thermal_displace_type
C1 C -0.1153(10) 0.4184(3) 0.3527(4) 0.0612 Uani
C2 C -0.1943(8) 0.3994(3) 0.3855(4) 0.0565 Uani
C3 C -0.3085(9) 0.3885(3) 0.3630(4) 0.0707 Uani
H1 H -0.3325 0.3927 0.3270 0.0850 Uiso
C4 C -0.3847(10) 0.3723(3) 0.3909(4) 0.0860 Uani
H2 H -0.4592 0.3655 0.3753 0.1030 Uiso
C5 C -0.3444(10) 0.3667(3) 0.4432(5) 0.0775 Uani
C6 C -0.2326(13) 0.3768(3) 0.4670(4) 0.1003 Uani
H3 H -0.2094 0.3725 0.5031 0.1200 Uiso
C7 C -0.1560(9) 0.3928(3) 0.4380(4) 0.0731 Uani
H4 H -0.0810 0.3989 0.4536 0.0880 Uiso
C8 C -0.5326(13) 0.3536(4) 0.4655(5) 0.0935 Uani
C9 C -0.5819(12) 0.3904(5) 0.4556(5) 0.0995 Uani
C10 C -0.7090(10) 0.3930(4) 0.4460(4) 0.1016 Uani
H5 H -0.7477 0.4169 0.4381 0.1220 Uiso
C11 C -0.7646(14) 0.3587(4) 0.4493(5) 0.1266 Uani
H6 H -0.8443 0.3607 0.4450 0.1520 Uiso
C12 C -0.7215(11) 0.3204(4) 0.4584(5) 0.0948 Uani
C13 C -0.6073(11) 0.3214(4) 0.4665(5) 0.1159 Uani
H7 H -0.5713 0.2970 0.4741 0.1390 Uiso
C14 C -0.7993(11) 0.2887(4) 0.4603(5) 0.1878 Uani
C15 C -0.8761(13) 0.2847(6) 0.4073(5) 0.2521 Uani
H8 H -0.9290 0.2632 0.4084 0.3750 Uiso
H9 H -0.9183 0.3089 0.3990 0.3750 Uiso
H10 H -0.8301 0.2794 0.3806 0.3750 Uiso
C16 C -0.8756(14) 0.2933(5) 0.5009(6) 0.2818 Uani
H11 H -0.9254 0.2707 0.4996 0.4240 Uiso
H12 H -0.8293 0.2952 0.5354 0.4240 Uiso
H13 H -0.9210 0.3169 0.4936 0.4240 Uiso
C17 C -0.7340(17) 0.2502(5) 0.4707(9) 0.3934 Uani
H14 H -0.7873 0.2289 0.4720 0.5940 Uiso
H15 H -0.6908 0.2454 0.4429 0.5940 Uiso
H16 H -0.6824 0.2519 0.5039 0.5940 Uiso
C18 C 0.1857(10) 0.3856(3) 0.2719(5) 0.0807 Uani
C19 C 0.2613(7) 0.3502(2) 0.2768(3) 0.1358 Uani
C20 C 0.2790(8) 0.3305(3) 0.2312(3) 0.1534 Uani
H17 H 0.2445 0.3398 0.1982 0.1840 Uiso
C21 C 0.3483(8) 0.2970(2) 0.2351(3) 0.1640 Uani
H18 H 0.3601 0.2838 0.2047 0.1970 Uiso
C22 C 0.3999(7) 0.2831(2) 0.2846(4) 0.1977 Uani
C23 C 0.3822(6) 0.3028(2) 0.3301(3) 0.0803 Uani
H19 H 0.4167 0.2935 0.3632 0.0960 Uiso
C24 C 0.3129(6) 0.3363(2) 0.3262(3) 0.0822 Uani
H20 H 0.3010 0.3495 0.3567 0.0990 Uiso
C25 C 0.2209(9) 0.5024(4) 0.1817(4) 0.0749 Uani
C26 C 0.3021(10) 0.5123(3) 0.1450(4) 0.0856 Uani
C27 C 0.4004(11) 0.5341(4) 0.1624(5) 0.1292 Uani
H21 H 0.4118 0.5448 0.1964 0.1550 Uiso
C28 C 0.4866(13) 0.5408(5) 0.1290(5) 0.1622 Uani
H22 H 0.5569 0.5530 0.1408 0.1950 Uiso
C29 C 0.4538(12) 0.5272(5) 0.0786(5) 0.1347 Uani
C30 C 0.3589(11) 0.5060(4) 0.0620(5) 0.1080 Uani
H23 H 0.3427 0.4971 0.0272 0.1300 Uiso
C31 C 0.2868(10) 0.4975(3) 0.0958(4) 0.0942 Uani
H24 H 0.2244 0.4809 0.0847 0.1130 Uiso
C32 C 0.7343(9) 0.5467(2) 0.0634(3) 0.1382 Uani
H25 H 0.7568 0.5212 0.0746 0.1660 Uiso
C33 C 0.6182(7) 0.5563(3) 0.0514(3) 0.1180 Uani
C34 C 0.5847(6) 0.5944(4) 0.0348(3) 0.1204 Uani
C35 C 0.6673(9) 0.6229(3) 0.0302(3) 0.1491 Uani
H26 H 0.6449 0.6484 0.0191 0.1790 Uiso
C36 C 0.7834(8) 0.6134(3) 0.0423(3) 0.1459 Uani
H27 H 0.8387 0.6325 0.0392 0.1750 Uiso
C37 C 0.8170(5) 0.5753(3) 0.0589(3) 0.0836 Uani
C38 C 0.1524(8) 0.1062(2) 0.2816(3) 0.0882 Uani
C39 C 0.0955(6) 0.1416(3) 0.2873(4) 0.1293 Uani
H28 H 0.0157 0.1428 0.2787 0.1550 Uiso
C40 C 0.1577(9) 0.1751(2) 0.3061(5) 0.1914 Uani
H29 H 0.1197 0.1988 0.3099 0.2280 Uiso
C41 C 0.2769(9) 0.1733(3) 0.3190(5) 0.2112 Uani
C42 C 0.3339(6) 0.1379(3) 0.3132(5) 0.1923 Uani
H30 H 0.4136 0.1367 0.3218 0.2300 Uiso
C43 C 0.2716(8) 0.1044(2) 0.2945(4) 0.1335 Uani
H31 H 0.3097 0.0807 0.2906 0.1600 Uiso
C44 C 0.5092(15) 0.2334(3) 0.3355(4) 0.1935 Uani
C45 C 0.6197(12) 0.2393(3) 0.3633(6) 0.2003 Uani
H32 H 0.6708 0.2556 0.3494 0.2410 Uiso
C46 C 0.6540(7) 0.2210(3) 0.4120(6) 0.2012 Uani
C47 C 0.5777(12) 0.1967(3) 0.4328(4) 0.2342 Uani
H33 H 0.6007 0.1844 0.4654 0.2810 Uiso
C48 C 0.4672(9) 0.1907(3) 0.4050(6) 0.2401 Uani
H34 H 0.4162 0.1745 0.4189 0.2880 Uiso
C49 C 0.4329(9) 0.2091(4) 0.3563(6) 0.2445 Uani
C50 C 0.9469(14) 0.5666(5) 0.0663(6) 0.2252 Uani
C51 C 1.0095(15) 0.5989(5) 0.0969(7) 0.2645 Uani
H35 H 1.0003 0.6228 0.0764 0.3970 Uiso
H36 H 0.9795 0.6027 0.1290 0.3970 Uiso
H37 H 1.0897 0.5923 0.1053 0.3970 Uiso
C52 C 0.9744(11) 0.5628(6) 0.0116(5) 0.2756 Uani
H38 H 0.9312 0.5413 -0.0065 0.4150 Uiso
H39 H 0.9546 0.5870 -0.0075 0.4150 Uiso
H40 H 1.0552 0.5578 0.0138 0.4150 Uiso
C53 C 0.957(2) 0.5279(5) 0.0956(8) 0.3543 Uani
H41 H 0.9144 0.5079 0.0739 0.5300 Uiso
H42 H 1.0362 0.5203 0.1040 0.5300 Uiso
H43 H 0.9261 0.5308 0.1277 0.5300 Uiso
C54 C 0.1758(8) 0.5601(3) -0.1583(5) 0.0694 Uani
C55 C 0.2610(10) 0.5732(3) -0.1114(5) 0.1008 Uani
C56 C 0.2210(11) 0.5885(4) -0.0658(6) 0.1281 Uani
H44 H 0.1422 0.5902 -0.0660 0.1540 Uiso
C57 C 0.2960(13) 0.6006(5) -0.0215(7) 0.1670 Uani
H45 H 0.2704 0.6112 0.0079 0.2010 Uiso
C58 C 0.4138(13) 0.5961(4) -0.0235(8) 0.1488 Uani
C59 C 0.4581(10) 0.5788(4) -0.0673(6) 0.1269 Uani
H46 H 0.5366 0.5770 -0.0676 0.1530 Uiso
C60 C 0.3799(9) 0.5656(3) -0.1074(5) 0.0917 Uani
H47 H 0.4047 0.5507 -0.1338 0.1100 Uiso
C61 C -0.2301(8) 0.4866(4) 0.6250(4) 0.0608 Uani
C62 C -0.3133(8) 0.4688(3) 0.5801(4) 0.0669 Uani
C63 C -0.3834(8) 0.4376(3) 0.5869(4) 0.0767 Uani
H48 H -0.3802 0.4263 0.6202 0.0930 Uiso
C64 C -0.4594(9) 0.4230(3) 0.5438(5) 0.0807 Uani
H49 H -0.5114 0.4030 0.5480 0.0970 Uiso
C65 C -0.4555(10) 0.4385(4) 0.4963(5) 0.0733 Uani
C66 C -0.3899(9) 0.4682(3) 0.4876(4) 0.0778 Uani
H50 H -0.3931 0.4780 0.4535 0.0930 Uiso
C67 C -0.3185(9) 0.4845(3) 0.5278(4) 0.0715 Uani
H51 H -0.2725 0.5058 0.5219 0.0860 Uiso
C68 C 0.0891(9) 0.0688(3) 0.2648(4) 0.0557 Uani
C69 C -0.1458(12) 0.5310(4) 0.3634(5) 0.1060 Uani
H52 H -0.2178 0.5363 0.3435 0.1280 Uiso
C70 C -0.0312(17) 0.5282(6) 0.4434(6) 0.2738 Uani
H53 H -0.0426 0.5005 0.4495 0.4080 Uiso
H54 H -0.0228 0.5423 0.4764 0.4080 Uiso
H55 H 0.0370 0.5316 0.4281 0.4080 Uiso
C71 C -0.2081(14) 0.5692(4) 0.4326(7) 0.2101 Uani
H56 H -0.2147 0.5951 0.4168 0.3150 Uiso
H57 H -0.1752 0.5715 0.4694 0.3150 Uiso
H58 H -0.2830 0.5574 0.4292 0.3150 Uiso
C72 C -0.3833(10) 0.4682(3) 0.2671(4) 0.0840 Uani
H59 H -0.3669 0.4453 0.2496 0.1010 Uiso
C73 C -0.5675(9) 0.4387(4) 0.2718(6) 0.1600 Uani
H60 H -0.5421 0.4164 0.2941 0.2400 Uiso
H61 H -0.5738 0.4310 0.2353 0.2400 Uiso
H62 H -0.6413 0.4474 0.2784 0.2400 Uiso
C74 C -0.5105(10) 0.5030(4) 0.3151(6) 0.1504 Uani
H63 H -0.4949 0.4954 0.3516 0.2250 Uiso
H64 H -0.5903 0.5099 0.3054 0.2250 Uiso
H65 H -0.4638 0.5254 0.3097 0.2250 Uiso
N1 N -0.4848(8) 0.4709(3) 0.2832(4) 0.0990 Uani
N2 N -0.1338(13) 0.5443(4) 0.4058(5) 0.1305 Uani
O1 O -0.0141(5) 0.42345(18) 0.3736(2) 0.0684 Uani
O2 O -0.1575(6) 0.42856(19) 0.3065(3) 0.0758 Uani
O3 O -0.4112(7) 0.3502(2) 0.4780(3) 0.0988 Uani
O4 O 0.2090(5) 0.54325(19) -0.1957(3) 0.0692 Uani
O5 O 0.0720(6) 0.5685(2) -0.1554(3) 0.0892 Uani
O6 O 0.1456(6) 0.0385(2) 0.2690(3) 0.0885 Uani
O7 O 0.2211(5) 0.5249(2) 0.2225(2) 0.0800 Uani
O8 O 0.1574(6) 0.4732(2) 0.1699(3) 0.0783 Uani
O9 O 0.5314(9) 0.5306(3) 0.0424(4) 0.1596 Uani
O10 O -0.2143(5) 0.46565(19) 0.6652(3) 0.0644 Uani
O11 O -0.1882(5) 0.5196(2) 0.6169(2) 0.0705 Uani
O12 O -0.5289(6) 0.4244(2) 0.4511(3) 0.0891 Uani
O13 O 0.1411(7) 0.3967(2) 0.2278(3) 0.0942 Uani
O14 O 0.1815(5) 0.40402(17) 0.3131(2) 0.0668 Uani
O15 O 0.4748(12) 0.2510(3) 0.2904(4) 0.2191 Uani
O16 O 0.3255(12) 0.2080(3) 0.3365(9) 0.4077 Uani
O17 O -0.3098(5) 0.4950(2) 0.2746(3) 0.0816 Uani
O18 O -0.0865(6) 0.5122(2) 0.3401(3) 0.0853 Uani
O19 O 0.0280(4) 0.47518(16) 0.2688(2) 0.0553 Uani
O20 O 0.4751(8) 0.6058(4) 0.0245(5) 0.2017 Uani
O21 O -0.0167(6) 0.07218(17) 0.2493(3) 0.0763 Uani
Zn1 Zn -0.14239(8) 0.48391(3) 0.26477(4) 0.0590 Uani
Zn2 Zn 0.08432(8) 0.44816(3) 0.33185(4) 0.0553 Uani
Zn3 Zn 0.05593(9) 0.44540(3) 0.20858(4) 0.0604 Uani
Zn4 Zn 0.10568(9) 0.52553(3) 0.26876(4) 0.0588 Uani
C75 C 0.7640(19) 0.2281(5) 0.4488(9) 0.2987 Uani
C76 C 0.844(2) 0.2028(6) 0.4234(10) 0.2806 Uani
H66 H 0.9201 0.2045 0.4434 0.4220 Uiso
H67 H 0.8182 0.1757 0.4224 0.4220 Uiso
H68 H 0.8440 0.2119 0.3879 0.4220 Uiso
C77 C 0.8135(16) 0.2688(4) 0.4506(10) 0.3580 Uani
H69 H 0.8840 0.2696 0.4757 0.5370 Uiso
H70 H 0.8287 0.2759 0.4162 0.5370 Uiso
H71 H 0.7598 0.2873 0.4611 0.5370 Uiso
C78 C 0.780(4) 0.2142(8) 0.5056(10) 0.7201 Uani
H72 H 0.8554 0.2212 0.5235 1.0790 Uiso
H73 H 0.7233 0.2266 0.5231 1.0790 Uiso
H74 H 0.7707 0.1859 0.5064 1.0790 Uiso
O4B O -0.2090(5) 0.45675(19) 0.1957(3) 0.0692 Uani
O5B O -0.0720(6) 0.4315(2) 0.1554(3) 0.0892 Uani
O6A O -0.1456(6) 0.5385(2) 0.2310(3) 0.0885 Uani
O10B O 0.2143(5) 0.53435(19) 0.3348(3) 0.0644 Uani
O11B O 0.1882(5) 0.4804(2) 0.3831(2) 0.0705 Uani
O21A O 0.0167(6) 0.57218(17) 0.2507(3) 0.0763 Uani
Zn1A Zn 0.14239(8) -0.01609(3) 0.23523(4) 0.0590 Uani
Zn1B Zn 0.14239(8) 0.51609(3) -0.26477(4) 0.0590 Uani
Zn2B Zn -0.08432(8) 0.55184(3) 0.66815(4) 0.0553 Uani
Zn3B Zn -0.05593(9) 0.55460(3) -0.20858(4) 0.0604 Uani
Zn4A Zn -0.10568(9) 0.02553(3) 0.23124(4) 0.0588 Uani
Zn4B Zn -0.10568(9) 0.47447(3) 0.73124(4) 0.0588 Uani
O22 O 0.7683(16) 0.6328(6) 0.8948(5) 0.3510 Uani
O23 O 0.3173(15) 0.6382(6) 0.2420(8) 0.3624 Uani
loop_
_atom_site_aniso_label
_atom_site_aniso_U_11
_atom_site_aniso_U_22
_atom_site_aniso_U_33
_atom_site_aniso_U_23
_atom_site_aniso_U_13
_atom_site_aniso_U_12
C1 0.064(8) 0.068(7) 0.054(7) -0.021(6) 0.017(8) -0.016(6)
C2 0.065(7) 0.066(7) 0.039(6) -0.009(5) 0.010(6) -0.016(5)
C3 0.075(8) 0.082(8) 0.057(7) -0.001(5) 0.017(7) -0.026(6)
C4 0.097(10) 0.113(10) 0.049(7) 0.009(6) 0.015(8) -0.034(7)
C5 0.071(8) 0.070(8) 0.098(11) -0.012(7) 0.033(9) -0.026(6)
C6 0.144(13) 0.108(10) 0.050(7) 0.007(6) 0.020(10) -0.003(9)
C7 0.071(8) 0.094(8) 0.057(7) 0.003(6) 0.019(7) -0.018(6)
C8 0.099(9) 0.111(9) 0.067(7) -0.023(7) 0.004(7) -0.074(7)
C9 0.091(11) 0.149(14) 0.065(8) -0.049(9) 0.032(9) -0.060(10)
C10 0.067(9) 0.179(14) 0.051(7) -0.032(8) -0.012(8) -0.028(8)
C11 0.155(15) 0.149(15) 0.089(10) -0.033(10) 0.058(11) -0.055(12)
C12 0.088(8) 0.124(8) 0.071(6) -0.018(6) 0.010(7) -0.067(8)
C13 0.125(8) 0.143(8) 0.078(6) -0.024(6) 0.013(7) -0.056(7)
C14 0.187(16) 0.257(19) 0.118(13) -0.050(13) 0.022(13) -0.178(15)
C15 0.23(2) 0.32(3) 0.20(2) -0.019(18) 0.019(19) -0.20(2)
C16 0.26(2) 0.38(3) 0.25(2) -0.02(2) 0.17(2) -0.19(2)
C17 0.62(5) 0.139(19) 0.49(5) -0.10(2) 0.29(5) -0.19(2)
C18 0.095(8) 0.086(7) 0.060(6) -0.023(6) 0.010(7) 0.024(6)
C19 0.174(6) 0.116(6) 0.109(5) -0.036(5) 0.001(5) 0.066(5)
C20 0.195(6) 0.131(6) 0.121(5) -0.035(5) -0.010(6) 0.079(5)
C21 0.207(7) 0.140(6) 0.129(6) -0.033(5) -0.016(6) 0.086(5)
C22 0.275(11) 0.168(9) 0.133(8) -0.022(8) -0.013(9) 0.162(8)
C23 0.081(8) 0.057(7) 0.092(8) -0.015(6) -0.016(7) -0.016(6)
C24 0.096(7) 0.059(6) 0.097(7) -0.022(5) 0.032(6) 0.005(5)
C25 0.046(7) 0.139(11) 0.047(7) 0.010(7) 0.029(7) 0.008(7)
C26 0.064(8) 0.134(10) 0.059(7) -0.017(7) 0.011(8) -0.023(7)
C27 0.102(11) 0.207(15) 0.085(9) -0.047(9) 0.034(10) -0.063(10)
C28 0.143(15) 0.282(19) 0.070(9) -0.048(11) 0.042(11) -0.088(13)
C29 0.095(11) 0.268(18) 0.056(8) -0.036(10) 0.055(9) -0.080(11)
C30 0.084(10) 0.180(13) 0.063(8) -0.035(8) 0.021(9) -0.026(9)
C31 0.074(8) 0.158(11) 0.053(7) -0.041(7) 0.018(8) -0.015(7)
C32 0.112(12) 0.160(14) 0.162(15) 0.026(10) 0.078(13) 0.007(10)
C33 0.045(7) 0.206(16) 0.111(12) -0.070(11) 0.036(9) -0.045(10)
C34 0.077(9) 0.196(12) 0.079(8) -0.032(8) -0.013(8) -0.040(8)
C35 0.110(8) 0.234(11) 0.100(7) 0.021(7) 0.009(8) -0.021(8)
C36 0.098(9) 0.239(12) 0.103(8) 0.030(8) 0.024(9) -0.009(9)
C37 0.055(8) 0.161(12) 0.035(6) 0.003(7) 0.008(7) 0.013(7)
C38 0.075 0.065 0.118 0.044 -0.002 0.005
C39 0.087 0.081 0.197 0.005 -0.04 -0.012
C40 0.133 0.069 0.33 -0.007 -0.079 0.009
C41 0.102 0.063 0.42 0.018 -0.092 -0.03
C42 0.077 0.073 0.38 0.022 -0.093 0.02
C43 0.061 0.062 0.258 0.029 -0.028 0.001
C44 0.264(12) 0.157(10) 0.145(11) 0.008(9) -0.006(10) 0.156(9)
C45 0.200(15) 0.092(12) 0.31(2) 0.057(13) 0.047(13) 0.073(11)
C46 0.094(11) 0.066(11) 0.39(3) 0.038(12) -0.110(14) -0.020(8)
C47 0.122(10) 0.110(10) 0.42(2) 0.040(11) -0.096(12) -0.006(8)
C48 0.116(9) 0.114(9) 0.43(2) 0.044(9) -0.123(11) 0.011(7)
C49 0.127(10) 0.108(11) 0.43(2) 0.037(10) -0.146(11) 0.029(8)
C50 0.165(18) 0.25(2) 0.31(2) -0.14(2) 0.18(2) -0.079(15)
C51 0.175(15) 0.306(18) 0.302(18) -0.105(15) 0.011(15) -0.056(14)
C52 0.066(11) 0.62(4) 0.154(16) -0.02(2) 0.056(14) -0.010(16)
C53 0.32(2) 0.38(2) 0.36(2) 0.044(17) 0.050(18) 0.058(17)
C54 0.034 0.078 0.089 -0.012 -0.01 -0.009
C55 0.073 0.122 0.1 -0.083 -0.006 0.006
C56 0.083 0.182 0.11 -0.066 -0.01 0.015
C57 0.095 0.223 0.163 -0.112 -0.034 0.014
C58 0.07 0.172 0.173 -0.092 -0.068 0.027
C59 0.045 0.216 0.106 -0.04 -0.026 0.007
C60 0.04 0.141 0.081 -0.022 -0.027 0.006
C61 0.033 0.102 0.047 -0.017 0.006 0.01
C62 0.047 0.093 0.058 -0.033 0.001 -0.006
C63 0.065 0.108 0.058 -0.022 0.013 -0.045
C64 0.057 0.113 0.071 -0.021 0.008 -0.04
C65 0.051 0.099 0.059 -0.043 -0.021 -0.006
C66 0.072 0.115 0.042 -0.036 -0.003 -0.014
C67 0.061 0.098 0.047 -0.027 -0.015 0
C68 0.055 0.054 0.056 0 0.004 -0.016
C69 0.116(12) 0.125(12) 0.079(9) -0.062(8) 0.022(10) -0.035(9)
C70 0.36(4) 0.33(3) 0.134(17) -0.119(18) 0.05(2) 0.02(3)
C71 0.26(2) 0.194(17) 0.220(18) -0.079(14) 0.165(19) 0.006(14)
C72 0.050(7) 0.114(10) 0.087(9) -0.030(7) 0.009(7) 0.006(7)
C73 0.042(7) 0.203(15) 0.218(18) 0.057(12) -0.026(10) -0.058(9)
C74 0.078(10) 0.235(17) 0.149(13) -0.059(12) 0.050(11) 0.028(10)
N1 0.043(6) 0.142(9) 0.109(8) -0.003(7) 0.005(6) 0.004(6)
N2 0.163(13) 0.142(11) 0.090(9) -0.025(9) 0.032(10) 0.021(9)
O1 0.045(4) 0.101(5) 0.055(4) 0.001(4) -0.003(4) -0.008(4)
O2 0.067(5) 0.089(5) 0.076(5) -0.015(4) 0.025(5) -0.028(4)
O3 0.100(7) 0.114(6) 0.086(6) 0.001(4) 0.026(6) -0.020(5)
O4 0.045 0.099 0.058 -0.022 -0.007 -0.003
O5 0.046 0.134 0.077 -0.048 -0.019 0.023
O6 0.075 0.066 0.113 -0.007 -0.016 0.005
O7 0.064(5) 0.132(6) 0.046(4) -0.027(4) 0.015(4) -0.009(4)
O8 0.064(5) 0.104(6) 0.066(5) -0.022(4) 0.009(4) -0.024(4)
O9 0.166(10) 0.215(11) 0.113(8) -0.053(7) 0.067(9) -0.059(8)
O10 0.046 0.093 0.05 -0.008 -0.004 -0.016
O11 0.062 0.085 0.061 -0.02 0.001 -0.021
O12 0.07 0.113 0.073 -0.029 -0.02 -0.021
O13 0.123(7) 0.097(6) 0.049(4) -0.024(4) -0.024(5) 0.050(5)
O14 0.055(4) 0.075(5) 0.070(4) -0.028(4) 0.010(4) -0.001(3)
O15 0.292(10) 0.190(8) 0.157(8) -0.027(6) -0.013(8) 0.173(7)
O16 0.205(13) 0.086(9) 0.79(4) -0.025(14) -0.316(19) 0.007(9)
O17 0.042(4) 0.096(6) 0.107(6) -0.034(4) 0.013(5) -0.008(4)
O18 0.072(5) 0.105(6) 0.083(5) -0.043(4) 0.025(5) -0.003(4)
O19 0.033(3) 0.078(4) 0.054(4) -0.020(3) 0.005(3) 0.000(3)
O20 0.089 0.313 0.168 -0.161 -0.077 0.06
O21 0.055 0.074 0.091 0.013 -0.013 0.002
Zn1 0.0352(6) 0.0733(8) 0.0669(8) -0.0147(6) 0.0044(6) -0.0042(5)
Zn2 0.0390(6) 0.0740(8) 0.0512(7) -0.0183(6) 0.0027(6) -0.0048(5)
Zn3 0.0419(6) 0.0818(9) 0.0534(7) -0.0194(6) -0.0033(6) 0.0004(6)
Zn4 0.0410(6) 0.0751(8) 0.0571(7) -0.0157(6) -0.0004(6) -0.0068(5)
C75 0.17(2) 0.17(2) 0.49(4) -0.08(2) -0.13(2) 0.003(17)
C76 0.204(17) 0.271(18) 0.34(2) -0.033(16) -0.029(16) 0.021(14)
C77 0.20(2) 0.086(14) 0.69(5) 0.00(2) -0.20(3) -0.007(13)
C78 0.61(8) 0.71(8) 0.66(7) 0.39(7) -0.40(8) -0.40(6)
O4B 0.045 0.099 0.058 -0.022 -0.007 -0.003
O5B 0.046 0.134 0.077 -0.048 -0.019 0.023
O6A 0.075 0.066 0.113 0.007 -0.016 -0.005
O10B 0.046 0.093 0.05 -0.008 -0.004 -0.016
O11B 0.062 0.085 0.061 -0.02 0.001 -0.021
O21A 0.055 0.074 0.091 -0.013 -0.013 -0.002
Zn1A 0.0352 0.0733 0.0669 0.0147 0.0044 0.0042
Zn1B 0.0352 0.0733 0.0669 -0.0147 0.0044 -0.0042
Zn2B 0.039 0.074 0.0512 -0.0183 0.0027 -0.0048
Zn3B 0.0419 0.0818 0.0534 -0.0194 -0.0033 0.0004
Zn4A 0.041 0.0751 0.0571 0.0157 -0.0004 0.0068
Zn4B 0.041 0.0751 0.0571 -0.0157 -0.0004 -0.0068
O22 0.45(3) 0.50(3) 0.128(10) 0.096(13) 0.120(16) 0.14(2)
O23 0.32(2) 0.45(3) 0.35(2) -0.123(19) 0.15(2) -0.077(18)
loop_
_geom_bond_atom_site_label_1
_geom_bond_atom_site_label_2
_geom_bond_site_symmetry_1
_geom_bond_site_symmetry_2
C1 C2 1_555 1_555
C2 C3 1_555 1_555
C3 H1 1_555 1_555
C4 C3 1_555 1_555
H2 C4 1_555 1_555
C5 C4 1_555 1_555
C6 C5 1_555 1_555
H3 C6 1_555 1_555
C7 C2 1_555 1_555
H4 C7 1_555 1_555
C8 C9 1_555 1_555
C9 C10 1_555 1_555
C10 H5 1_555 1_555
C11 C10 1_555 1_555
H6 C11 1_555 1_555
C12 C11 1_555 1_555
C13 C8 1_555 1_555
H7 C13 1_555 1_555
C14 C12 1_555 1_555
C15 C14 1_555 1_555
H8 C15 1_555 1_555
H9 C15 1_555 1_555
H10 C15 1_555 1_555
C16 C14 1_555 1_555
H11 C16 1_555 1_555
H12 C16 1_555 1_555
H13 C16 1_555 1_555
C17 C14 1_555 1_555
H14 C17 1_555 1_555
H15 C17 1_555 1_555
H16 C17 1_555 1_555
C18 C19 1_555 1_555
C19 C20 1_555 1_555
C20 H17 1_555 1_555
C21 C20 1_555 1_555
H18 C21 1_555 1_555
C22 C21 1_555 1_555
C23 C22 1_555 1_555
H19 C23 1_555 1_555
C24 C19 1_555 1_555
H20 C24 1_555 1_555
C25 C26 1_555 1_555
C26 C27 1_555 1_555
C27 H21 1_555 1_555
C28 C27 1_555 1_555
H22 C28 1_555 1_555
C29 C28 1_555 1_555
C30 C29 1_555 1_555
H23 C30 1_555 1_555
C31 C26 1_555 1_555
H24 C31 1_555 1_555
C32 H25 1_555 1_555
C33 C32 1_555 1_555
C34 C33 1_555 1_555
C35 C34 1_555 1_555
H26 C35 1_555 1_555
C36 C35 1_555 1_555
H27 C36 1_555 1_555
C37 C32 1_555 1_555
C38 C39 1_555 1_555
C39 H28 1_555 1_555
C40 C39 1_555 1_555
H29 C40 1_555 1_555
C41 C40 1_555 1_555
C42 C41 1_555 1_555
H30 C42 1_555 1_555
C43 C38 1_555 1_555
H31 C43 1_555 1_555
C44 C45 1_555 1_555
C45 H32 1_555 1_555
C46 C45 1_555 1_555
C47 C46 1_555 1_555
H33 C47 1_555 1_555
C48 C47 1_555 1_555
H34 C48 1_555 1_555
C49 C44 1_555 1_555
C50 C37 1_555 1_555
C51 C50 1_555 1_555
H35 C51 1_555 1_555
H36 C51 1_555 1_555
H37 C51 1_555 1_555
C52 C50 1_555 1_555
H38 C52 1_555 1_555
H39 C52 1_555 1_555
H40 C52 1_555 1_555
C53 C50 1_555 1_555
H41 C53 1_555 1_555
H42 C53 1_555 1_555
H43 C53 1_555 1_555
C54 C55 1_555 1_555
C55 C56 1_555 1_555
C56 H44 1_555 1_555
C57 C56 1_555 1_555
H45 C57 1_555 1_555
C58 C57 1_555 1_555
C59 C58 1_555 1_555
H46 C59 1_555 1_555
C60 C55 1_555 1_555
H47 C60 1_555 1_555
C61 C62 1_555 1_555
C62 C63 1_555 1_555
C63 H48 1_555 1_555
C64 C63 1_555 1_555
H49 C64 1_555 1_555
C65 C64 1_555 1_555
C66 C65 1_555 1_555
H50 C66 1_555 1_555
C67 C62 1_555 1_555
H51 C67 1_555 1_555
C68 C38 1_555 1_555
C69 H52 1_555 1_555
C70 H53 1_555 1_555
H54 C70 1_555 1_555
H55 C70 1_555 1_555
C71 H56 1_555 1_555
H57 C71 1_555 1_555
H58 C71 1_555 1_555
C72 H59 1_555 1_555
C73 H60 1_555 1_555
H61 C73 1_555 1_555
H62 C73 1_555 1_555
C74 H63 1_555 1_555
H64 C74 1_555 1_555
H65 C74 1_555 1_555
N1 C72 1_555 1_555
N2 C69 1_555 1_555
O1 C1 1_555 1_555
O2 C1 1_555 1_555
O3 C5 1_555 1_555
O4 C54 1_555 1_555
O5 C54 1_555 1_555
O6 C68 1_555 1_555
O7 C25 1_555 1_555
O8 C25 1_555 1_555
O9 C29 1_555 1_555
O10 C61 1_555 1_555
O11 C61 1_555 1_555
O12 C9 1_555 1_555
O13 C18 1_555 1_555
O14 C18 1_555 1_555
O15 C22 1_555 1_555
O16 C41 1_555 1_555
O17 C72 1_555 1_555
O18 C69 1_555 1_555
O19 Zn1 1_555 1_555
O20 C34 1_555 1_555
O21 C68 1_555 1_555
Zn1 O2 1_555 1_555
Zn2 O1 1_555 1_555
Zn3 O8 1_555 1_555
Zn4 O7 1_555 1_555
C75 C46 1_555 1_555
C76 C75 1_555 1_555
H66 C76 1_555 1_555
H67 C76 1_555 1_555
H68 C76 1_555 1_555
C77 C75 1_555 1_555
H69 C77 1_555 1_555
H70 C77 1_555 1_555
H71 C77 1_555 1_555
C78 C75 1_555 1_555
H72 C78 1_555 1_555
H73 C78 1_555 1_555
H74 C78 1_555 1_555
O4B Zn1 1_555 1_555
O5B Zn3 1_555 1_555
O6A Zn1 1_555 1_555
O10B Zn4 1_555 1_555
O11B Zn2 1_555 1_555
O21A Zn4 1_555 1_555
Zn1A O6 1_555 1_555
Zn1B O4 1_555 1_555
Zn2B O11 1_555 1_555
Zn3B O5 1_555 1_555
Zn4A O21 1_555 1_555
Zn4B O10 1_555 1_555
C6 C7 1_555 1_555
C8 O3 1_555 1_555
C12 C13 1_555 1_555
C23 C24 1_555 1_555
C30 C31 1_555 1_555
C33 O9 1_555 1_555
C36 C37 1_555 1_555
C42 C43 1_555 1_555
C44 O15 1_555 1_555
C48 C49 1_555 1_555
C49 O16 1_555 1_555
C58 O20 1_555 1_555
C59 C60 1_555 1_555
C65 O12 1_555 1_555
C66 C67 1_555 1_555
C70 N2 1_555 1_555
C71 N2 1_555 1_555
C73 N1 1_555 1_555
C74 N1 1_555 1_555
O13 Zn3 1_555 1_555
O14 Zn2 1_555 1_555
O17 Zn1 1_555 1_555
O18 Zn1 1_555 1_555
O19 Zn2 1_555 1_555
O19 Zn3 1_555 1_555
O19 Zn4 1_555 1_555

#END
