
#######################################################################
#
#                 Cambridge Crystallographic Data Centre
#                                CCDC 
#
#######################################################################
#
# If this CIF has been generated from an entry in the Cambridge 
# Structural Database, then it will include bibliographic, chemical, 
# crystal, experimental, refinement or atomic coordinate data resulting 
# from the CCDC's data processing and validation procedures.
#
#######################################################################

data_HANKUE
_chemical_name_common            CPM-15-Cd
_chemical_formula_moiety         '(C2 H8 N1 1+)n,n(C63 H45 Cd3 In6 O56 1-)'
_chemical_name_systematic        
'catena-[Dimethylammonium (\m~6~-benzene-1,3,5-tricarboxylato)-hexakis(\m~4~-benzene-1,3,5-tricarboxylato)-bis(\m~3~-oxo)-dodeca-aqua-tetra-cadmium-penta-indium unknown solvate]'
_symmetry_cell_setting           cubic
_symmetry_space_group_name_H-M   'F d -3 m'
_symmetry_Int_Tables_number      227
_space_group_name_Hall           '-F 4vw 2vw 3'
loop_
_symmetry_equiv_pos_site_id
_symmetry_equiv_pos_as_xyz
1 x,y,z
2 3/4-x,1/4-y,1/2+z
3 1/4-x,1/2+y,3/4-z
4 1/2+x,3/4-y,1/4-z
5 z,x,y
6 1/2+z,3/4-x,1/4-y
7 3/4-z,1/4-x,1/2+y
8 1/4-z,1/2+x,3/4-y
9 y,z,x
10 1/4-y,1/2+z,3/4-x
11 1/2+y,3/4-z,1/4-x
12 3/4-y,1/4-z,1/2+x
13 3/4+y,1/4+x,1/2-z
14 -y,-x,-z
15 1/4+y,1/2-x,3/4+z
16 1/2-y,3/4+x,1/4+z
17 3/4+x,1/4+z,1/2-y
18 1/2-x,3/4+z,1/4+y
19 -x,-z,-y
20 1/4+x,1/2-z,3/4+y
21 3/4+z,1/4+y,1/2-x
22 1/4+z,1/2-y,3/4+x
23 1/2-z,3/4+y,1/4+x
24 -z,-y,-x
25 x,1/2+y,1/2+z
26 3/4-x,3/4-y,z
27 1/4-x,y,1/4-z
28 1/2+x,1/4-y,3/4-z
29 z,1/2+x,1/2+y
30 1/2+z,1/4-x,3/4-y
31 3/4-z,3/4-x,y
32 1/4-z,x,1/4-y
33 y,1/2+z,1/2+x
34 1/4-y,z,1/4-x
35 1/2+y,1/4-z,3/4-x
36 3/4-y,3/4-z,x
37 3/4+y,3/4+x,-z
38 -y,1/2-x,1/2-z
39 1/4+y,-x,1/4+z
40 1/2-y,1/4+x,3/4+z
41 3/4+x,3/4+z,-y
42 1/2-x,1/4+z,3/4+y
43 -x,1/2-z,1/2-y
44 1/4+x,-z,1/4+y
45 3/4+z,3/4+y,-x
46 1/4+z,-y,1/4+x
47 1/2-z,1/4+y,3/4+x
48 -z,1/2-y,1/2-x
49 1/2+x,y,1/2+z
50 1/4-x,1/4-y,z
51 3/4-x,1/2+y,1/4-z
52 x,3/4-y,3/4-z
53 1/2+z,x,1/2+y
54 z,3/4-x,3/4-y
55 1/4-z,1/4-x,y
56 3/4-z,1/2+x,1/4-y
57 1/2+y,z,1/2+x
58 3/4-y,1/2+z,1/4-x
59 y,3/4-z,3/4-x
60 1/4-y,1/4-z,x
61 1/4+y,1/4+x,-z
62 1/2-y,-x,1/2-z
63 3/4+y,1/2-x,1/4+z
64 -y,3/4+x,3/4+z
65 1/4+x,1/4+z,-y
66 -x,3/4+z,3/4+y
67 1/2-x,-z,1/2-y
68 3/4+x,1/2-z,1/4+y
69 1/4+z,1/4+y,-x
70 3/4+z,1/2-y,1/4+x
71 -z,3/4+y,3/4+x
72 1/2-z,-y,1/2-x
73 1/2+x,1/2+y,z
74 1/4-x,3/4-y,1/2+z
75 3/4-x,y,3/4-z
76 x,1/4-y,1/4-z
77 1/2+z,1/2+x,y
78 z,1/4-x,1/4-y
79 1/4-z,3/4-x,1/2+y
80 3/4-z,x,3/4-y
81 1/2+y,1/2+z,x
82 3/4-y,z,3/4-x
83 y,1/4-z,1/4-x
84 1/4-y,3/4-z,1/2+x
85 1/4+y,3/4+x,1/2-z
86 1/2-y,1/2-x,-z
87 3/4+y,-x,3/4+z
88 -y,1/4+x,1/4+z
89 1/4+x,3/4+z,1/2-y
90 -x,1/4+z,1/4+y
91 1/2-x,1/2-z,-y
92 3/4+x,-z,3/4+y
93 1/4+z,3/4+y,1/2-x
94 3/4+z,-y,3/4+x
95 -z,1/4+y,1/4+x
96 1/2-z,1/2-y,-x
97 -x,-y,-z
98 1/4+x,3/4+y,1/2-z
99 3/4+x,1/2-y,1/4+z
100 1/2-x,1/4+y,3/4+z
101 -z,-x,-y
102 1/2-z,1/4+x,3/4+y
103 1/4+z,3/4+x,1/2-y
104 3/4+z,1/2-x,1/4+y
105 -y,-z,-x
106 3/4+y,1/2-z,1/4+x
107 1/2-y,1/4+z,3/4+x
108 1/4+y,3/4+z,1/2-x
109 1/4-y,3/4-x,1/2+z
110 y,x,z
111 3/4-y,1/2+x,1/4-z
112 1/2+y,1/4-x,3/4-z
113 1/4-x,3/4-z,1/2+y
114 1/2+x,1/4-z,3/4-y
115 x,z,y
116 3/4-x,1/2+z,1/4-y
117 1/4-z,3/4-y,1/2+x
118 3/4-z,1/2+y,1/4-x
119 1/2+z,1/4-y,3/4-x
120 z,y,x
121 -x,1/2-y,1/2-z
122 1/4+x,1/4+y,-z
123 3/4+x,-y,3/4+z
124 1/2-x,3/4+y,1/4+z
125 -z,1/2-x,1/2-y
126 1/2-z,3/4+x,1/4+y
127 1/4+z,1/4+x,-y
128 3/4+z,-x,3/4+y
129 -y,1/2-z,1/2-x
130 3/4+y,-z,3/4+x
131 1/2-y,3/4+z,1/4+x
132 1/4+y,1/4+z,-x
133 1/4-y,1/4-x,z
134 y,1/2+x,1/2+z
135 3/4-y,x,3/4-z
136 1/2+y,3/4-x,1/4-z
137 1/4-x,1/4-z,y
138 1/2+x,3/4-z,1/4-y
139 x,1/2+z,1/2+y
140 3/4-x,z,3/4-y
141 1/4-z,1/4-y,x
142 3/4-z,y,3/4-x
143 1/2+z,3/4-y,1/4-x
144 z,1/2+y,1/2+x
145 1/2-x,-y,1/2-z
146 3/4+x,3/4+y,-z
147 1/4+x,1/2-y,3/4+z
148 -x,1/4+y,1/4+z
149 1/2-z,-x,1/2-y
150 -z,1/4+x,1/4+y
151 3/4+z,3/4+x,-y
152 1/4+z,1/2-x,3/4+y
153 1/2-y,-z,1/2-x
154 1/4+y,1/2-z,3/4+x
155 -y,1/4+z,1/4+x
156 3/4+y,3/4+z,-x
157 3/4-y,3/4-x,z
158 1/2+y,x,1/2+z
159 1/4-y,1/2+x,3/4-z
160 y,1/4-x,1/4-z
161 3/4-x,3/4-z,y
162 x,1/4-z,1/4-y
163 1/2+x,z,1/2+y
164 1/4-x,1/2+z,3/4-y
165 3/4-z,3/4-y,x
166 1/4-z,1/2+y,3/4-x
167 z,1/4-y,1/4-x
168 1/2+z,y,1/2+x
169 1/2-x,1/2-y,-z
170 3/4+x,1/4+y,1/2-z
171 1/4+x,-y,1/4+z
172 -x,3/4+y,3/4+z
173 1/2-z,1/2-x,-y
174 -z,3/4+x,3/4+y
175 3/4+z,1/4+x,1/2-y
176 1/4+z,-x,1/4+y
177 1/2-y,1/2-z,-x
178 1/4+y,-z,1/4+x
179 -y,3/4+z,3/4+x
180 3/4+y,1/4+z,1/2-x
181 3/4-y,1/4-x,1/2+z
182 1/2+y,1/2+x,z
183 1/4-y,x,1/4-z
184 y,3/4-x,3/4-z
185 3/4-x,1/4-z,1/2+y
186 x,3/4-z,3/4-y
187 1/2+x,1/2+z,y
188 1/4-x,z,1/4-y
189 3/4-z,1/4-y,1/2+x
190 1/4-z,y,1/4-x
191 z,3/4-y,3/4-x
192 1/2+z,1/2+y,x
_cell_length_a                   50.5711(11)
_cell_length_b                   50.5711(11)
_cell_length_c                   50.5711(11)
_cell_angle_alpha                90
_cell_angle_beta                 90
_cell_angle_gamma                90
_cell_volume                     129332
_exptl_crystal_colour            colorless
_exptl_crystal_description       block
_cell_formula_units_Z            32
loop_
_atom_site_label
_atom_site_type_symbol
_atom_site_fract_x
_atom_site_fract_y
_atom_site_fract_z
_atom_site_U_iso_or_equiv
_atom_site_thermal_displace_type
O11 O 0.04934(14) 1.04934(14) 0.04934(14) 0.0050 Uani
O14 O -0.0018(19) 1.0792(13) 0.1708(13) 0.1540 Uiso
In1 In -0.12028(2) 1.12028(2) 0.0000 0.0532 Uani
In2 In -0.322103(15) 1.072103(15) 0.02235(2) 0.0341 Uani
Cd2 Cd 0.05576(5) 1.05576(5) 0.10667(7) 0.1686 Uani
O1 O -0.1065(3) 1.0975(2) 0.0334(2) 0.0903 Uani
O2 O -0.0711(3) 1.1195(3) 0.0215(3) 0.1343 Uani
O3 O 0.0159(3) 1.0585(3) 0.0901(4) 0.1457 Uani
O4 O -0.16128(17) 1.10572(19) 0.01137(19) 0.0610 Uani
O5 O -0.15541(19) 1.12651(18) -0.02597(17) 0.0630 Uani
O6 O -0.28444(17) 1.07789(17) 0.00322(17) 0.0567 Uani
O7 O -0.30496(17) 1.05496(17) 0.05496(17) 0.0240 Uani
O8 O -0.36202(15) 1.06984(17) 0.03935(18) 0.0553 Uani
O9 O 0.0744(3) 1.0744(3) 0.0744(3) 0.0730 Uani
C1 C -0.0830(5) 1.1027(3) 0.0353(4) 0.0880 Uani
C2 C -0.0804(5) 1.0707(4) 0.0707(4) 0.0970 Uani
C3 C -0.0664(4) 1.0870(3) 0.0534(3) 0.0867 Uani
C4 C -0.0387(3) 1.0879(3) 0.0558(4) 0.0890 Uani
C5 C -0.0249(6) 1.0726(4) 0.0726(4) 0.1000 Uani
C6 C 0.0031(5) 1.0706(5) 0.0706(5) 0.1273 Uani
C7 C -0.1701(3) 1.1147(3) -0.0102(3) 0.0597 Uani
C8 C -0.2068(2) 1.1142(4) -0.0432(2) 0.0513 Uani
C9 C -0.1986(2) 1.1101(2) -0.0182(2) 0.0450 Uani
C10 C -0.2162(2) 1.0981(2) 0.0001(2) 0.0433 Uani
C11 C -0.2412(2) 1.0929(3) -0.0088(2) 0.0437 Uani
C12 C -0.2614(2) 1.0805(3) 0.0114(2) 0.0503 Uani
C13 C -0.3716(3) 1.0587(2) 0.0587(2) 0.0380 Uani
C14 C -0.3960(3) 1.0691(2) 0.0691(2) 0.0370 Uani
C15 C -0.4073(2) 1.0927(2) 0.0589(3) 0.0507 Uani
O10 O -0.33958(14) 1.08958(14) -0.0161(2) 0.0387 Uani
O12 O 0.0422(4) 1.0422(4) 0.1429(6) 0.1870 Uiso
O13 O 0.0491(3) 1.0897(3) 0.1278(3) 0.1500 Uiso
In1ZC In -0.12028(2) 1.0000 0.12028(2) 0.0532 Uani
In1VC In 0.0000 1.12028(2) -0.12028(2) 0.0532 Uani
In1WD In -0.2500 1.12028(2) -0.12972(2) 0.0532 Uani
In1XE In -0.12028(2) 1.2500 0.12972(2) 0.0532 Uani
In1OE In -0.37028(2) 0.87028(2) 0.0000 0.0532 Uani
In1CC In -0.37028(2) 1.0000 -0.12972(2) 0.0532 Uani
In1RC In 0.12028(2) 0.87972(2) 0.0000 0.0532 Uani
In1D In 0.0000 0.87972(2) 0.12028(2) 0.0532 Uani
In2DA In -0.27235(2) 1.072103(15) 0.072103(15) 0.0341 Uani
In2M In -0.072103(15) 1.322103(15) -0.02235(2) 0.0341 Uani
In2CC In -0.322103(15) 1.02235(2) 0.072103(15) 0.0341 Uani
In2XB In -0.47765(2) 1.177897(15) 0.072103(15) 0.0341 Uani
In2WA In -0.427897(15) 1.177897(15) 0.02235(2) 0.0341 Uani
In2DB In -0.427897(15) 1.02235(2) 0.177897(15) 0.0341 Uani
In2E In -0.47765(2) 1.072103(15) 0.177897(15) 0.0341 Uani
In2LB In -0.072103(15) 1.27235(2) -0.072103(15) 0.0341 Uani
Cd2H Cd 0.05576(5) 1.10667(7) 0.05576(5) 0.1686 Uani
Cd2M Cd -0.05576(5) 0.94424(5) -0.10667(7) 0.1686 Uani
Cd2D Cd 0.10667(7) 1.05576(5) 0.05576(5) 0.1686 Uani
Cd2W Cd -0.10667(7) 0.94424(5) -0.05576(5) 0.1686 Uani
O1JD O -0.1065(3) 1.0334(2) 0.0975(2) 0.0903 Uani
O1M O -0.0975(2) 1.1065(3) -0.0334(2) 0.0903 Uani
O1VC O -0.0334(2) 1.1065(3) -0.0975(2) 0.0903 Uani
O1ED O 0.0975(2) 0.8935(3) 0.0334(2) 0.0903 Uani
O1D O 0.0334(2) 0.8935(3) 0.0975(2) 0.0903 Uani
O1ZC O -0.0975(2) 0.9666(2) 0.1065(3) 0.0903 Uani
O1OD O 0.0334(2) 1.0975(2) -0.1065(3) 0.0903 Uani
O2JD O -0.0711(3) 1.0215(3) 0.1195(3) 0.1343 Uani
O2M O -0.1195(3) 1.0711(3) -0.0215(3) 0.1343 Uani
O2VC O -0.0215(3) 1.0711(3) -0.1195(3) 0.1343 Uani
O2ED O 0.1195(3) 0.9289(3) 0.0215(3) 0.1343 Uani
O2D O 0.0215(3) 0.9289(3) 0.1195(3) 0.1343 Uani
O2ZC O -0.1195(3) 0.9785(3) 0.0711(3) 0.1343 Uani
O2OD O 0.0215(3) 1.1195(3) -0.0711(3) 0.1343 Uani
O3JD O 0.0159(3) 1.0901(4) 0.0585(3) 0.1457 Uani
O3M O -0.0585(3) 0.9841(3) -0.0901(4) 0.1457 Uani
O3VC O -0.0901(4) 0.9841(3) -0.0585(3) 0.1457 Uani
O3ED O 0.0585(3) 1.0159(3) 0.0901(4) 0.1457 Uani
O3D O 0.0901(4) 1.0159(3) 0.0585(3) 0.1457 Uani
O3H O 0.0585(3) 1.0901(4) 0.0159(3) 0.1457 Uani
O3RC O -0.0159(3) 0.9415(3) -0.0901(4) 0.1457 Uani
O4KE O -0.26137(19) 1.10572(19) -0.08872(17) 0.0610 Uani
O4M O -0.10572(19) 1.16128(17) -0.01137(19) 0.0610 Uani
O4XE O -0.10572(19) 1.26137(19) 0.08872(17) 0.0610 Uani
O4ZE O -0.35572(19) 0.91128(17) 0.01137(19) 0.0610 Uani
O4CC O -0.35572(19) 1.01137(19) -0.08872(17) 0.0610 Uani
O4JD O -0.16128(17) 1.01137(19) 0.10572(19) 0.0610 Uani
O4ZC O -0.10572(19) 0.98863(19) 0.16128(17) 0.0610 Uani
O4VC O -0.01137(19) 1.16128(17) -0.10572(19) 0.0610 Uani
O4OD O 0.01137(19) 1.10572(19) -0.16128(17) 0.0610 Uani
O5KE O -0.22403(17) 1.12651(18) -0.09459(19) 0.0630 Uani
O5M O -0.12651(18) 1.15541(19) 0.02597(17) 0.0630 Uani
O5XE O -0.12651(18) 1.22403(17) 0.09459(19) 0.0630 Uani
O5ZE O -0.37651(18) 0.90541(19) -0.02597(17) 0.0630 Uani
O5CC O -0.37651(18) 0.97403(17) -0.09459(19) 0.0630 Uani
O5JD O -0.15541(19) 0.97403(17) 0.12651(18) 0.0630 Uani
O5ZC O -0.12651(18) 1.02597(17) 0.15541(19) 0.0630 Uani
O5VC O 0.02597(17) 1.15541(19) -0.12651(18) 0.0630 Uani
O5OD O -0.02597(17) 1.12651(18) -0.15541(19) 0.0630 Uani
O6KE O -0.25322(17) 1.07789(17) 0.03444(17) 0.0567 Uani
O6M O -0.07789(17) 1.28444(17) -0.00322(17) 0.0567 Uani
O6XE O -0.07789(17) 1.25322(17) -0.03444(17) 0.0567 Uani
O6ZE O -0.32789(17) 1.03444(17) 0.00322(17) 0.0567 Uani
O6CC O -0.32789(17) 1.00322(17) 0.03444(17) 0.0567 Uani
O6DA O -0.25322(17) 1.03444(17) 0.07789(17) 0.0567 Uani
O6QD O -0.03444(17) 1.32789(17) -0.00322(17) 0.0567 Uani
O7M O -0.05496(17) 1.30496(17) -0.05496(17) 0.0240 Uani
O8JD O -0.36202(15) 1.03935(18) 0.06984(17) 0.0553 Uani
O8XB O -0.46065(18) 1.13798(15) 0.06984(17) 0.0553 Uani
O8YF O -0.43016(17) 1.13798(15) 0.03935(18) 0.0553 Uani
O8DB O -0.43016(17) 1.03935(18) 0.13798(15) 0.0553 Uani
O8KF O -0.46065(18) 1.06984(17) 0.13798(15) 0.0553 Uani
O8ZE O -0.31984(17) 1.11202(15) 0.03935(18) 0.0553 Uani
O8KE O -0.28935(18) 1.06984(17) 0.11202(15) 0.0553 Uani
O8DA O -0.28935(18) 1.11202(15) 0.06984(17) 0.0553 Uani
O8M O -0.06984(17) 1.36202(15) -0.03935(18) 0.0553 Uani
O8QD O -0.11202(15) 1.31984(17) -0.03935(18) 0.0553 Uani
O9M O -0.0744(3) 0.9256(3) -0.0744(3) 0.0730 Uani
C1JD C -0.0830(5) 1.0353(4) 0.1027(3) 0.0880 Uani
C1M C -0.1027(3) 1.0830(5) -0.0353(4) 0.0880 Uani
C1VC C -0.0353(4) 1.0830(5) -0.1027(3) 0.0880 Uani
C1ED C 0.1027(3) 0.9170(5) 0.0353(4) 0.0880 Uani
C1D C 0.0353(4) 0.9170(5) 0.1027(3) 0.0880 Uani
C2M C -0.0707(4) 1.0804(5) -0.0707(4) 0.0970 Uani
C2D C 0.0707(4) 0.9196(5) 0.0707(4) 0.0970 Uani
C3JD C -0.0664(4) 1.0534(3) 0.0870(3) 0.0867 Uani
C3M C -0.0870(3) 1.0664(4) -0.0534(3) 0.0867 Uani
C3VC C -0.0534(3) 1.0664(4) -0.0870(3) 0.0867 Uani
C3ED C 0.0870(3) 0.9336(4) 0.0534(3) 0.0867 Uani
C3D C 0.0534(3) 0.9336(4) 0.0870(3) 0.0867 Uani
C4JD C -0.0387(3) 1.0558(4) 0.0879(3) 0.0890 Uani
C4M C -0.0879(3) 1.0387(3) -0.0558(4) 0.0890 Uani
C4VC C -0.0558(4) 1.0387(3) -0.0879(3) 0.0890 Uani
C4ED C 0.0879(3) 0.9613(3) 0.0558(4) 0.0890 Uani
C4D C 0.0558(4) 0.9613(3) 0.0879(3) 0.0890 Uani
C5M C -0.0726(4) 1.0249(6) -0.0726(4) 0.1000 Uani
C5D C 0.0726(4) 0.9751(6) 0.0726(4) 0.1000 Uani
C6M C -0.0706(5) 0.9969(5) -0.0706(5) 0.1273 Uani
C6D C 0.0706(5) 1.0031(5) 0.0706(5) 0.1273 Uani
C7KE C -0.2398(3) 1.1147(3) -0.0799(3) 0.0597 Uani
C7M C -0.1147(3) 1.1701(3) 0.0102(3) 0.0597 Uani
C7XE C -0.1147(3) 1.2398(3) 0.0799(3) 0.0597 Uani
C7ZE C -0.3647(3) 0.9201(3) -0.0102(3) 0.0597 Uani
C7CC C -0.3647(3) 0.9898(3) -0.0799(3) 0.0597 Uani
C8M C -0.1142(4) 1.2068(2) 0.0432(2) 0.0513 Uani
C8CC C -0.3642(4) 0.9568(2) -0.0432(2) 0.0513 Uani
C9KE C -0.2318(2) 1.1101(2) -0.0514(2) 0.0450 Uani
C9M C -0.1101(2) 1.1986(2) 0.0182(2) 0.0450 Uani
C9XE C -0.1101(2) 1.2318(2) 0.0514(2) 0.0450 Uani
C9ZE C -0.3601(2) 0.9486(2) -0.0182(2) 0.0450 Uani
C9CC C -0.3601(2) 0.9818(2) -0.0514(2) 0.0450 Uani
C10KE C -0.2501(2) 1.0981(2) -0.0338(2) 0.0433 Uani
C10M C -0.0981(2) 1.2162(2) -0.0001(2) 0.0433 Uani
C10XE C -0.0981(2) 1.2501(2) 0.0338(2) 0.0433 Uani
C10ZE C -0.3481(2) 0.9662(2) 0.0001(2) 0.0433 Uani
C10CC C -0.3481(2) 1.0001(2) -0.0338(2) 0.0433 Uani
C11M C -0.0929(3) 1.2412(2) 0.0088(2) 0.0437 Uani
C11CC C -0.3429(3) 0.9912(2) -0.0088(2) 0.0437 Uani
C12M C -0.0805(3) 1.2614(2) -0.0114(2) 0.0503 Uani
C12CC C -0.3305(3) 1.0114(2) 0.0114(2) 0.0503 Uani
C13XB C -0.4413(2) 1.1284(3) 0.0587(2) 0.0380 Uani
C13DB C -0.4413(2) 1.0587(2) 0.1284(3) 0.0380 Uani
C14XB C -0.4309(2) 1.1040(3) 0.0691(2) 0.0370 Uani
C14DB C -0.4309(2) 1.0691(2) 0.1040(3) 0.0370 Uani
C15XB C -0.4411(3) 1.0927(2) 0.0927(2) 0.0507 Uani
C15DB C -0.4073(2) 1.0589(3) 0.0927(2) 0.0507 Uani
O10DA O -0.2339(2) 1.08958(14) 0.08958(14) 0.0387 Uani
O10M O -0.08958(14) 1.33958(14) 0.0161(2) 0.0387 Uani
O12H O 0.0422(4) 1.1429(6) 0.0422(4) 0.1870 Uiso
O12M O -0.0422(4) 0.9578(4) -0.1429(6) 0.1870 Uiso
O13ED O 0.0897(3) 1.0491(3) 0.1278(3) 0.1500 Uiso
O13JD O 0.0491(3) 1.1278(3) 0.0897(3) 0.1500 Uiso
O13H O 0.0897(3) 1.1278(3) 0.0491(3) 0.1500 Uiso
O13M O -0.0897(3) 0.9509(3) -0.1278(3) 0.1500 Uiso
O13RC O -0.0491(3) 0.9103(3) -0.1278(3) 0.1500 Uiso
Cd1? Cd -0.322103(15) 1.072103(15) 0.02235(2) 0.0341 Uani
loop_
_atom_site_aniso_label
_atom_site_aniso_U_11
_atom_site_aniso_U_22
_atom_site_aniso_U_33
_atom_site_aniso_U_23
_atom_site_aniso_U_13
_atom_site_aniso_U_12
O11 0.005(3) 0.005(3) 0.005(3) 0.003(3) 0.003(3) 0.003(3)
In1 0.0484(6) 0.0484(6) 0.0628(10) 0.0032(4) 0.0032(4) -0.0135(6)
In2 0.0352(5) 0.0352(5) 0.0320(7) -0.0022(4) 0.0022(4) 0.0011(5)
Cd2 0.1674(18) 0.1674(18) 0.171(3) -0.0105(17) -0.0105(17) 0.005(2)
O1 0.081(8) 0.104(9) 0.086(8) 0.012(7) -0.021(7) -0.010(7)
O2 0.114(12) 0.171(15) 0.118(12) 0.040(11) -0.008(9) 0.039(11)
O3 0.073(10) 0.131(13) 0.233(19) 0.018(13) 0.022(11) 0.018(8)
O4 0.047(6) 0.076(7) 0.060(6) 0.025(5) 0.007(5) -0.010(5)
O5 0.066(6) 0.075(7) 0.048(5) 0.005(5) 0.009(5) -0.025(5)
O6 0.044(5) 0.065(6) 0.061(6) -0.001(5) 0.018(5) -0.020(5)
O7 0.024(4) 0.024(4) 0.024(4) -0.004(4) 0.004(4) 0.004(4)
O8 0.034(5) 0.069(6) 0.063(6) 0.014(5) 0.011(4) -0.004(4)
O9 0.073(7) 0.073(7) 0.073(7) -0.006(7) -0.006(7) -0.006(7)
C1 0.129(19) 0.054(11) 0.081(13) 0.005(9) 0.021(13) -0.008(11)
C2 0.085(18) 0.103(12) 0.103(12) 0.004(17) -0.012(11) -0.012(11)
C3 0.097(14) 0.085(12) 0.078(12) 0.034(10) -0.003(10) -0.004(11)
C4 0.065(11) 0.085(12) 0.117(15) -0.002(11) 0.022(10) -0.027(10)
C5 0.12(2) 0.090(13) 0.090(13) 0.074(16) -0.011(14) -0.011(14)
C6 0.042(17) 0.17(2) 0.17(2) 0.05(3) 0.043(14) 0.043(14)
C7 0.063(10) 0.048(8) 0.068(10) 0.002(8) 0.011(8) -0.010(7)
C8 0.049(7) 0.056(12) 0.049(7) 0.006(6) 0.031(10) -0.006(6)
C9 0.039(7) 0.048(7) 0.048(8) 0.008(6) 0.015(6) -0.007(6)
C10 0.043(8) 0.035(7) 0.052(8) -0.012(6) 0.006(6) 0.008(6)
C11 0.035(6) 0.061(12) 0.035(6) 0.006(5) 0.021(8) -0.006(5)
C12 0.059(8) 0.033(10) 0.059(8) -0.001(5) 0.035(11) 0.001(5)
C13 0.038(10) 0.038(6) 0.038(6) 0.014(8) 0.007(6) 0.007(6)
C14 0.039(10) 0.036(6) 0.036(6) -0.002(8) -0.003(5) -0.003(5)
C15 0.058(8) 0.058(8) 0.036(10) 0.000(6) 0.000(6) -0.019(10)
O10 0.038(4) 0.038(4) 0.040(6) 0.013(4) -0.013(4) 0.002(5)
In1ZC 0.0484 0.0628 0.0484 0.0032 -0.0135 0.0032
In1VC 0.0628 0.0484 0.0484 -0.0135 0.0032 0.0032
In1WD 0.0628 0.0484 0.0484 0.0135 0.0032 -0.0032
In1XE 0.0484 0.0628 0.0484 0.0032 0.0135 -0.0032
In1OE 0.0484 0.0484 0.0628 -0.0032 -0.0032 -0.0135
In1CC 0.0484 0.0628 0.0484 -0.0032 -0.0135 -0.0032
In1RC 0.0484 0.0484 0.0628 0.0032 0.0032 -0.0135
In1D 0.0628 0.0484 0.0484 -0.0135 0.0032 0.0032
In2DA 0.032 0.0352 0.0352 -0.0011 0.0022 0.0022
In2M 0.0352 0.0352 0.032 0.0022 -0.0022 0.0011
In2CC 0.0352 0.032 0.0352 -0.0022 0.0011 0.0022
In2XB 0.032 0.0352 0.0352 0.0011 -0.0022 0.0022
In2WA 0.0352 0.0352 0.032 0.0022 -0.0022 0.0011
In2DB 0.0352 0.032 0.0352 0.0022 0.0011 -0.0022
In2E 0.032 0.0352 0.0352 0.0011 0.0022 -0.0022
In2LB 0.0352 0.032 0.0352 0.0022 -0.0011 0.0022
Cd2H 0.1674 0.171 0.1674 -0.0105 0.005 -0.0105
Cd2M 0.1674 0.1674 0.171 -0.0105 -0.0105 0.005
Cd2D 0.171 0.1674 0.1674 0.005 -0.0105 -0.0105
Cd2W 0.171 0.1674 0.1674 0.005 -0.0105 -0.0105
O1JD 0.081 0.086 0.104 0.012 -0.01 -0.021
O1M 0.104 0.081 0.086 -0.021 0.012 -0.01
O1VC 0.086 0.081 0.104 -0.01 0.012 -0.021
O1ED 0.104 0.081 0.086 -0.021 0.012 -0.01
O1D 0.086 0.081 0.104 -0.01 0.012 -0.021
O1ZC 0.104 0.086 0.081 -0.021 -0.01 0.012
O1OD 0.086 0.104 0.081 -0.01 -0.021 0.012
O2JD 0.114 0.118 0.171 0.04 0.039 -0.008
O2M 0.171 0.114 0.118 -0.008 0.04 0.039
O2VC 0.118 0.114 0.171 0.039 0.04 -0.008
O2ED 0.171 0.114 0.118 -0.008 0.04 0.039
O2D 0.118 0.114 0.171 0.039 0.04 -0.008
O2ZC 0.171 0.118 0.114 -0.008 0.039 0.04
O2OD 0.118 0.171 0.114 0.039 -0.008 0.04
O3JD 0.073 0.233 0.131 0.018 0.018 0.022
O3M 0.131 0.073 0.233 0.022 0.018 0.018
O3VC 0.233 0.073 0.131 0.018 0.018 0.022
O3ED 0.131 0.073 0.233 0.022 0.018 0.018
O3D 0.233 0.073 0.131 0.018 0.018 0.022
O3H 0.131 0.233 0.073 0.022 0.018 0.018
O3RC 0.073 0.131 0.233 0.018 0.022 0.018
O4KE 0.06 0.076 0.047 0.01 0.007 -0.025
O4M 0.076 0.047 0.06 0.007 0.025 -0.01
O4XE 0.076 0.06 0.047 0.007 0.01 -0.025
O4ZE 0.076 0.047 0.06 -0.007 -0.025 -0.01
O4CC 0.076 0.06 0.047 -0.007 -0.01 -0.025
O4JD 0.047 0.06 0.076 0.025 -0.01 0.007
O4ZC 0.076 0.06 0.047 0.007 -0.01 0.025
O4VC 0.06 0.047 0.076 -0.01 0.025 0.007
O4OD 0.06 0.076 0.047 -0.01 0.007 0.025
O5KE 0.048 0.075 0.066 0.025 0.009 -0.005
O5M 0.075 0.066 0.048 0.009 0.005 -0.025
O5XE 0.075 0.048 0.066 0.009 0.025 -0.005
O5ZE 0.075 0.066 0.048 -0.009 -0.005 -0.025
O5CC 0.075 0.048 0.066 -0.009 -0.025 -0.005
O5JD 0.066 0.048 0.075 0.005 -0.025 0.009
O5ZC 0.075 0.048 0.066 0.009 -0.025 0.005
O5VC 0.048 0.066 0.075 -0.025 0.005 0.009
O5OD 0.048 0.075 0.066 -0.025 0.009 0.005
O6KE 0.061 0.065 0.044 0.02 0.018 0.001
O6M 0.065 0.044 0.061 0.018 -0.001 -0.02
O6XE 0.065 0.061 0.044 0.018 0.02 0.001
O6ZE 0.065 0.044 0.061 -0.018 0.001 -0.02
O6CC 0.065 0.061 0.044 -0.018 -0.02 0.001
O6DA 0.061 0.044 0.065 0.02 0.001 0.018
O6QD 0.044 0.065 0.061 0.001 -0.018 -0.02
O7M 0.024 0.024 0.024 0.004 -0.004 0.004
O8JD 0.034 0.063 0.069 0.014 -0.004 0.011
O8XB 0.063 0.034 0.069 -0.004 0.014 0.011
O8YF 0.069 0.034 0.063 0.011 0.014 -0.004
O8DB 0.069 0.063 0.034 0.011 -0.004 0.014
O8KF 0.063 0.069 0.034 -0.004 0.011 0.014
O8ZE 0.069 0.034 0.063 -0.011 -0.014 -0.004
O8KE 0.063 0.069 0.034 0.004 0.011 -0.014
O8DA 0.063 0.034 0.069 0.004 -0.014 0.011
O8M 0.069 0.034 0.063 0.011 0.014 -0.004
O8QD 0.034 0.069 0.063 -0.014 -0.011 -0.004
O9M 0.073 0.073 0.073 -0.006 -0.006 -0.006
C1JD 0.129 0.081 0.054 0.005 -0.008 0.021
C1M 0.054 0.129 0.081 0.021 0.005 -0.008
C1VC 0.081 0.129 0.054 -0.008 0.005 0.021
C1ED 0.054 0.129 0.081 0.021 0.005 -0.008
C1D 0.081 0.129 0.054 -0.008 0.005 0.021
C2M 0.103 0.085 0.103 -0.012 0.004 -0.012
C2D 0.103 0.085 0.103 -0.012 0.004 -0.012
C3JD 0.097 0.078 0.085 0.034 -0.004 -0.003
C3M 0.085 0.097 0.078 -0.003 0.034 -0.004
C3VC 0.078 0.097 0.085 -0.004 0.034 -0.003
C3ED 0.085 0.097 0.078 -0.003 0.034 -0.004
C3D 0.078 0.097 0.085 -0.004 0.034 -0.003
C4JD 0.065 0.117 0.085 -0.002 -0.027 0.022
C4M 0.085 0.065 0.117 0.022 -0.002 -0.027
C4VC 0.117 0.065 0.085 -0.027 -0.002 0.022
C4ED 0.085 0.065 0.117 0.022 -0.002 -0.027
C4D 0.117 0.065 0.085 -0.027 -0.002 0.022
C5M 0.09 0.12 0.09 -0.011 0.074 -0.011
C5D 0.09 0.12 0.09 -0.011 0.074 -0.011
C6M 0.17 0.042 0.17 0.043 0.05 0.043
C6D 0.17 0.042 0.17 0.043 0.05 0.043
C7KE 0.068 0.048 0.063 0.01 0.011 -0.002
C7M 0.048 0.063 0.068 0.011 0.002 -0.01
C7XE 0.048 0.068 0.063 0.011 0.01 -0.002
C7ZE 0.048 0.063 0.068 -0.011 -0.002 -0.01
C7CC 0.048 0.068 0.063 -0.011 -0.01 -0.002
C8M 0.056 0.049 0.049 0.031 0.006 -0.006
C8CC 0.056 0.049 0.049 -0.031 -0.006 -0.006
C9KE 0.048 0.048 0.039 0.007 0.015 -0.008
C9M 0.048 0.039 0.048 0.015 0.008 -0.007
C9XE 0.048 0.048 0.039 0.015 0.007 -0.008
C9ZE 0.048 0.039 0.048 -0.015 -0.008 -0.007
C9CC 0.048 0.048 0.039 -0.015 -0.007 -0.008
C10KE 0.052 0.035 0.043 -0.008 0.006 0.012
C10M 0.035 0.043 0.052 0.006 -0.012 0.008
C10XE 0.035 0.052 0.043 0.006 -0.008 0.012
C10ZE 0.035 0.043 0.052 -0.006 0.012 0.008
C10CC 0.035 0.052 0.043 -0.006 0.008 0.012
C11M 0.061 0.035 0.035 0.021 0.006 -0.006
C11CC 0.061 0.035 0.035 -0.021 -0.006 -0.006
C12M 0.033 0.059 0.059 0.035 -0.001 0.001
C12CC 0.033 0.059 0.059 -0.035 0.001 0.001
C13XB 0.038 0.038 0.038 0.007 0.014 0.007
C13DB 0.038 0.038 0.038 0.007 0.007 0.014
C14XB 0.036 0.039 0.036 -0.003 -0.002 -0.003
C14DB 0.036 0.036 0.039 -0.003 -0.003 -0.002
C15XB 0.036 0.058 0.058 -0.019 0 0
C15DB 0.058 0.036 0.058 0 -0.019 0
O10DA 0.04 0.038 0.038 -0.002 -0.013 -0.013
O10M 0.038 0.038 0.04 -0.013 0.013 0.002
Cd1? 0.0352(5) 0.0352(5) 0.0320(7) -0.0022(4) 0.0022(4) 0.0011(5)
loop_
_geom_bond_atom_site_label_1
_geom_bond_atom_site_label_2
_geom_bond_site_symmetry_1
_geom_bond_site_symmetry_2
In1 O1 1_555 1_555
In2 O6 1_555 1_555
Cd2 O3 1_555 1_555
O1 C1 1_555 1_555
O2 In1 1_555 1_555
O3 C6 1_555 1_555
O4 In1 1_555 1_555
O5 In1 1_555 1_555
O6 C12 1_555 1_555
O7 In2 1_555 1_555
O8 In2 1_555 1_555
O9 Cd2 1_555 1_555
C1 O2 1_555 1_555
C2 C3 1_555 1_555
C3 C1 1_555 1_555
C4 C3 1_555 1_555
C5 C4 1_555 1_555
C6 C5 1_555 1_555
C7 O4 1_555 1_555
C8 C9 1_555 1_555
C9 C7 1_555 1_555
C10 C9 1_555 1_555
C11 C10 1_555 1_555
C12 C11 1_555 1_555
C13 O8 1_555 1_555
C14 C13 1_555 1_555
C15 C14 1_555 1_555
O10 In2 1_555 1_555
O12 Cd2 1_555 1_555
O13 Cd2 1_555 1_555
In1ZC O1JD 1_555 1_555
In1VC O1VC 1_555 1_555
In1WD O4KE 1_555 1_555
In1XE O4XE 1_555 1_555
In1OE O4ZE 1_555 1_555
In1CC O4CC 1_555 1_555
In1RC O1ED 1_555 1_555
In1D O1D 1_555 1_555
In2DA O7 1_555 1_555
In2M O6M 1_555 1_555
In2CC O7 1_555 1_555
In2XB O8XB 1_555 1_555
In2WA O8YF 1_555 1_555
In2DB O8DB 1_555 1_555
In2E O8KF 1_555 1_555
In2LB O6XE 1_555 1_555
Cd2H O9 1_555 1_555
Cd2M O3M 1_555 1_555
Cd2D O9 1_555 1_555
Cd2W O3VC 1_555 1_555
O1JD C1JD 1_555 1_555
O1M In1 1_555 1_555
O1VC C1VC 1_555 1_555
O1ED C1ED 1_555 1_555
O1D C1D 1_555 1_555
O1ZC In1ZC 1_555 1_555
O1OD In1VC 1_555 1_555
O2JD In1ZC 1_555 1_555
O2M In1 1_555 1_555
O2VC In1VC 1_555 1_555
O2ED In1RC 1_555 1_555
O2D In1D 1_555 1_555
O2ZC In1ZC 1_555 1_555
O2OD In1VC 1_555 1_555
O3JD C6 1_555 1_555
O3M C6M 1_555 1_555
O3VC C6M 1_555 1_555
O3ED Cd2 1_555 1_555
O3D Cd2D 1_555 1_555
O3H Cd2H 1_555 1_555
O3RC Cd2M 1_555 1_555
O4KE C7KE 1_555 1_555
O4M In1 1_555 1_555
O4XE C7XE 1_555 1_555
O4ZE C7ZE 1_555 1_555
O4CC C7CC 1_555 1_555
O4JD In1ZC 1_555 1_555
O4ZC In1ZC 1_555 1_555
O4VC In1VC 1_555 1_555
O4OD In1VC 1_555 1_555
O5KE In1WD 1_555 1_555
O5M In1 1_555 1_555
O5XE In1XE 1_555 1_555
O5ZE In1OE 1_555 1_555
O5CC In1CC 1_555 1_555
O5JD In1ZC 1_555 1_555
O5ZC In1ZC 1_555 1_555
O5VC In1VC 1_555 1_555
O5OD In1VC 1_555 1_555
O6KE C12 1_555 1_555
O6M C12M 1_555 1_555
O6XE C12M 1_555 1_555
O6ZE In2 1_555 1_555
O6CC In2CC 1_555 1_555
O6DA In2DA 1_555 1_555
O6QD In2M 1_555 1_555
O7M In2M 1_555 1_555
O8JD C13 1_555 1_555
O8XB C13XB 1_555 1_555
O8YF C13XB 1_555 1_555
O8DB C13DB 1_555 1_555
O8KF C13DB 1_555 1_555
O8ZE In2 1_555 1_555
O8KE In2DA 1_555 1_555
O8DA In2DA 1_555 1_555
O8M In2M 1_555 1_555
O8QD In2M 1_555 1_555
O9M Cd2M 1_555 1_555
C1JD O2JD 1_555 1_555
C1M O1M 1_555 1_555
C1VC O2VC 1_555 1_555
C1ED O2ED 1_555 1_555
C1D O2D 1_555 1_555
C2M C3M 1_555 1_555
C2D C3ED 1_555 1_555
C3JD C2 1_555 1_555
C3M C1M 1_555 1_555
C3VC C1VC 1_555 1_555
C3ED C1ED 1_555 1_555
C3D C1D 1_555 1_555
C4JD C5 1_555 1_555
C4M C3M 1_555 1_555
C4VC C3VC 1_555 1_555
C4ED C3ED 1_555 1_555
C4D C3D 1_555 1_555
C5M C4M 1_555 1_555
C5D C4ED 1_555 1_555
C6M C5M 1_555 1_555
C6D O3ED 1_555 1_555
C7KE O5KE 1_555 1_555
C7M O4M 1_555 1_555
C7XE O5XE 1_555 1_555
C7ZE O5ZE 1_555 1_555
C7CC O5CC 1_555 1_555
C8M C9M 1_555 1_555
C8CC C9ZE 1_555 1_555
C9KE C8 1_555 1_555
C9M C7M 1_555 1_555
C9XE C7XE 1_555 1_555
C9ZE C7ZE 1_555 1_555
C9CC C7CC 1_555 1_555
C10KE C11 1_555 1_555
C10M C9M 1_555 1_555
C10XE C9XE 1_555 1_555
C10ZE C9ZE 1_555 1_555
C10CC C9CC 1_555 1_555
C11M C10M 1_555 1_555
C11CC C10ZE 1_555 1_555
C12M C11M 1_555 1_555
C12CC O6ZE 1_555 1_555
C13XB C14XB 1_555 1_555
C13DB C14DB 1_555 1_555
C14XB C15 1_555 1_555
C14DB C15XB 1_555 1_555
C15XB C14XB 1_555 1_555
C15DB C14 1_555 1_555
O10DA In2DA 1_555 1_555
O10M In2M 1_555 1_555
O12H Cd2H 1_555 1_555
O12M Cd2M 1_555 1_555
O13ED Cd2 1_555 1_555
O13JD Cd2H 1_555 1_555
O13H Cd2H 1_555 1_555
O13M Cd2M 1_555 1_555
O13RC Cd2M 1_555 1_555
O5 C7 1_555 1_555
In2DA O6KE 1_555 1_555
In2CC O8JD 1_555 1_555
In2LB O7M 1_555 1_555
Cd2H O3JD 1_555 1_555
Cd2W O9M 1_555 1_555
O2M C1M 1_555 1_555
O3D C6D 1_555 1_555
O5M C7M 1_555 1_555
O6CC C12CC 1_555 1_555
C1JD C3JD 1_555 1_555
C2M C3VC 1_555 1_555
C2D C3D 1_555 1_555
C3JD C4JD 1_555 1_555
C4VC C5M 1_555 1_555
C4D C5D 1_555 1_555
C5D C6D 1_555 1_555
C7KE C9KE 1_555 1_555
C8M C9XE 1_555 1_555
C8CC C9CC 1_555 1_555
C9KE C10KE 1_555 1_555
C10XE C11M 1_555 1_555
C10CC C11CC 1_555 1_555
C11CC C12CC 1_555 1_555
C14DB C15DB 1_555 1_555

#END
