
#######################################################################
#
#                 Cambridge Crystallographic Data Centre
#                                CCDC 
#
#######################################################################
#
# If this CIF has been generated from an entry in the Cambridge 
# Structural Database, then it will include bibliographic, chemical, 
# crystal, experimental, refinement or atomic coordinate data resulting 
# from the CCDC's data processing and validation procedures.
#
#######################################################################

data_VORHER
_chemical_name_common            HNUST-4
_chemical_formula_moiety         '(C75 H54 Cu6 N6 O36)n'
_chemical_name_systematic        
"catena-[tris(\m-5,5'-((5-methyl-1,3-phenylene)bis(carbonylimino))diisophthalato)-hexa-aqua-hexa-copper unknown solvate]"
_symmetry_cell_setting           tetragonal
_symmetry_space_group_name_H-M   'I 4/m m m'
_symmetry_Int_Tables_number      139
_space_group_name_Hall           '-I 4 2'
loop_
_symmetry_equiv_pos_site_id
_symmetry_equiv_pos_as_xyz
1 x,y,z
2 -y,x,z
3 -x,-y,z
4 y,-x,z
5 x,-y,-z
6 y,x,-z
7 -x,y,-z
8 -y,-x,-z
9 1/2+x,1/2+y,1/2+z
10 1/2-y,1/2+x,1/2+z
11 1/2-x,1/2-y,1/2+z
12 1/2+y,1/2-x,1/2+z
13 1/2+x,1/2-y,1/2-z
14 1/2+y,1/2+x,1/2-z
15 1/2-x,1/2+y,1/2-z
16 1/2-y,1/2-x,1/2-z
17 -x,-y,-z
18 y,-x,-z
19 x,y,-z
20 -y,x,-z
21 -x,y,z
22 -y,-x,z
23 x,-y,z
24 y,x,z
25 1/2-x,1/2-y,1/2-z
26 1/2+y,1/2-x,1/2-z
27 1/2+x,1/2+y,1/2-z
28 1/2-y,1/2+x,1/2-z
29 1/2-x,1/2+y,1/2+z
30 1/2-y,1/2-x,1/2+z
31 1/2+x,1/2-y,1/2+z
32 1/2+y,1/2+x,1/2+z
_cell_length_a                   29.627(3)
_cell_length_b                   29.627(3)
_cell_length_c                   29.627
_cell_angle_alpha                90
_cell_angle_beta                 90
_cell_angle_gamma                90
_cell_volume                     26005.4
_exptl_crystal_colour            blue
_exptl_crystal_description       block
_cell_formula_units_Z            8
loop_
_atom_site_label
_atom_site_type_symbol
_atom_site_fract_x
_atom_site_fract_y
_atom_site_fract_z
_atom_site_U_iso_or_equiv
_atom_site_thermal_displace_type
O1 O 0.2802(11) 0.0609(10) 0.3961(10) 0.1570 Uani
Cu1 Cu 0.17844(4) 0.17844(4) 0.25768(6) 0.0454 Uani
Cu2 Cu 0.13220(4) 0.13220(4) 0.19742(6) 0.0450 Uani
Cu3 Cu 0.35308(8) 0.0000 0.0000 0.0503 Uani
Cu4 Cu 0.26384(8) 0.0000 0.0000 0.0528 Uani
O2 O 0.2706(2) 0.0469(3) 0.0464(2) 0.0670 Uani
O3 O 0.3466(3) 0.0462(3) 0.0458(2) 0.0690 Uani
O4 O 0.2292(2) 0.1637(3) 0.2181(2) 0.0593 Uani
O5 O 0.1898(2) 0.1245(3) 0.1670(3) 0.0603 Uani
O6 O 0.1869(3) 0.1206(2) 0.2881(3) 0.0603 Uani
O7 O 0.1477(3) 0.0811(2) 0.2356(3) 0.0630 Uani
O8 O 0.4382(8) 0.1512(10) 0.1236(6) 0.1177 Uani
O9 O 0.2176(4) 0.2176(4) 0.3035(6) 0.1203 Uani
O10 O 0.0939(4) 0.0939(4) 0.1492(6) 0.1803 Uani
O11 O 0.4254(5) 0.0000 0.0000 0.1223 Uani
O12 O 0.1912(7) 0.0000 0.0000 0.1893 Uani
N1 N 0.3912(4) 0.1537(5) 0.1703(5) 0.0957 Uani
N2 N 0.2416(5) 0.0000 0.3961(5) 0.0753 Uani
H1 H 0.2366 -0.0257 0.4115 0.0910 Uiso
C1 C 0.3086(4) 0.0588(4) 0.0603(3) 0.0573 Uani
C2 C 0.3089(4) 0.0928(4) 0.0988(4) 0.0597 Uani
C3 C 0.2684(3) 0.1027(4) 0.1207(3) 0.0537 Uani
H2 H 0.2413 0.0911 0.1100 0.0650 Uiso
C4 C 0.2695(3) 0.1305(4) 0.1589(3) 0.0497 Uani
C5 C 0.3096(4) 0.1472(4) 0.1748(4) 0.0560 Uani
H3 H 0.3098 0.1658 0.2000 0.0670 Uiso
C6 C 0.3497(4) 0.1365(5) 0.1535(4) 0.0683 Uani
C7 C 0.4299(8) 0.1567(10) 0.1634(7) 0.0687 Uani
C8 C 0.4608(4) 0.1945(5) 0.2418(6) 0.0917 Uani
H4 H 0.4332 0.2007 0.2555 0.1100 Uiso
C9 C 0.4622(6) 0.1705(6) 0.2011(7) 0.1140 Uani
C10 C 0.5000 0.1587(9) 0.1838(9) 0.0997 Uani
H5 H 0.5000 0.1411 0.1578 0.1190 Uiso
C11 C 0.5000 0.2088(7) 0.2613(5) 0.0830 Uani
C12 C 0.5000 0.2349(5) 0.3037(4) 0.0550 Uani
C13 C 0.2264(3) 0.1403(4) 0.1835(4) 0.0533 Uani
C14 C 0.1715(4) 0.0839(4) 0.2706(4) 0.0563 Uani
C15 C 0.1823(4) 0.0404(3) 0.2941(4) 0.0550 Uani
C16 C 0.2060(4) 0.0409(4) 0.3349(4) 0.0607 Uani
H6 H 0.2142 0.0681 0.3483 0.0730 Uiso
C17 C 0.1700(6) 0.0000 0.2752(5) 0.0583 Uani
H7 H 0.1530 0.0000 0.2489 0.0700 Uiso
C18 C 0.2173(6) 0.0000 0.3552(5) 0.0577 Uani
C19 C 0.3321(8) 0.0000 0.4596(4) 0.2003 Uani
H8 H 0.3474 0.0000 0.4322 0.2410 Uiso
C20 C 0.2856(7) 0.0000 0.4596(4) 0.1343 Uani
C21 C 0.3496(4) 0.1085(4) 0.1158(4) 0.0687 Uani
H9 H 0.3766 0.1004 0.1021 0.0820 Uiso
C22 C 0.2612(10) 0.0000 0.5000 0.1337 Uani
H10 H 0.2298 0.0000 0.5000 0.1620 Uiso
C23 C 0.2700(11) 0.0262(9) 0.4182(10) 0.1093 Uani
C24 C 0.4064(6) 0.0000 0.5000 0.0550 Uani
C25 C 0.3570(7) 0.0000 0.5000 0.1610 Uani
O1D O 0.2802(11) -0.0609(10) 0.6039(10) 0.1570 Uani
O6D O 0.1869(3) -0.1206(2) 0.7119(3) 0.0603 Uani
O7D O 0.1477(3) -0.0811(2) 0.7644(3) 0.0630 Uani
N2D N 0.2416(5) 0.0000 0.6039(5) 0.0753 Uani
H1D H 0.2366 0.0257 0.5885 0.0910 Uiso
C14D C 0.1715(4) -0.0839(4) 0.7294(4) 0.0563 Uani
C15D C 0.1823(4) -0.0404(3) 0.7059(4) 0.0550 Uani
C16D C 0.2060(4) -0.0409(4) 0.6651(4) 0.0607 Uani
H6D H 0.2142 -0.0681 0.6517 0.0730 Uiso
C17D C 0.1700(6) 0.0000 0.7248(5) 0.0583 Uani
H7D H 0.1530 0.0000 0.7511 0.0700 Uiso
C18D C 0.2173(6) 0.0000 0.6448(5) 0.0577 Uani
C19D C 0.3321(8) 0.0000 0.5404(4) 0.2003 Uani
H8D H 0.3474 0.0000 0.5678 0.2410 Uiso
C20D C 0.2856(7) 0.0000 0.5404(4) 0.1343 Uani
C23D C 0.2700(11) -0.0262(9) 0.5818(10) 0.1093 Uani
O1R O 0.2802(11) 0.0609(10) 0.6039(10) 0.1570 Uani
O6R O 0.1869(3) 0.1206(2) 0.7119(3) 0.0603 Uani
O7R O 0.1477(3) 0.0811(2) 0.7644(3) 0.0630 Uani
H1R H 0.2366 -0.0257 0.5885 0.0910 Uiso
C14R C 0.1715(4) 0.0839(4) 0.7294(4) 0.0563 Uani
C15R C 0.1823(4) 0.0404(3) 0.7059(4) 0.0550 Uani
C16R C 0.2060(4) 0.0409(4) 0.6651(4) 0.0607 Uani
H6R H 0.2142 0.0681 0.6517 0.0730 Uiso
C23R C 0.2700(11) 0.0262(9) 0.5818(10) 0.1093 Uani
O1V O 0.2802(11) -0.0609(10) 0.3961(10) 0.1570 Uani
O6V O 0.1869(3) -0.1206(2) 0.2881(3) 0.0603 Uani
O7V O 0.1477(3) -0.0811(2) 0.2356(3) 0.0630 Uani
H1V H 0.2366 0.0257 0.4115 0.0910 Uiso
C14V C 0.1715(4) -0.0839(4) 0.2706(4) 0.0563 Uani
C15V C 0.1823(4) -0.0404(3) 0.2941(4) 0.0550 Uani
C16V C 0.2060(4) -0.0409(4) 0.3349(4) 0.0607 Uani
H6V H 0.2142 -0.0681 0.3483 0.0730 Uiso
C23V C 0.2700(11) -0.0262(9) 0.4182(10) 0.1093 Uani
O2T O 0.7294(2) 0.0469(3) 0.0464(2) 0.0670 Uani
O3T O 0.6534(3) 0.0462(3) 0.0458(2) 0.0690 Uani
O4T O 0.7708(2) 0.1637(3) 0.2181(2) 0.0593 Uani
O5T O 0.8102(2) 0.1245(3) 0.1670(3) 0.0603 Uani
O8T O 0.5618(8) 0.1512(10) 0.1236(6) 0.1177 Uani
N1T N 0.6088(4) 0.1537(5) 0.1703(5) 0.0957 Uani
C1T C 0.6914(4) 0.0588(4) 0.0603(3) 0.0573 Uani
C2T C 0.6911(4) 0.0928(4) 0.0988(4) 0.0597 Uani
C3T C 0.7316(3) 0.1027(4) 0.1207(3) 0.0537 Uani
H2T H 0.7587 0.0911 0.1100 0.0650 Uiso
C4T C 0.7305(3) 0.1305(4) 0.1589(3) 0.0497 Uani
C5T C 0.6904(4) 0.1472(4) 0.1748(4) 0.0560 Uani
H3T H 0.6902 0.1658 0.2000 0.0670 Uiso
C6T C 0.6503(4) 0.1365(5) 0.1535(4) 0.0683 Uani
C7T C 0.5701(8) 0.1567(10) 0.1634(7) 0.0687 Uani
C8T C 0.5392(4) 0.1945(5) 0.2418(6) 0.0917 Uani
H4T H 0.5668 0.2007 0.2555 0.1100 Uiso
C9T C 0.5378(6) 0.1705(6) 0.2011(7) 0.1140 Uani
C13T C 0.7736(3) 0.1403(4) 0.1835(4) 0.0533 Uani
C21T C 0.6504(4) 0.1085(4) 0.1158(4) 0.0687 Uani
H9T H 0.6234 0.1004 0.1021 0.0820 Uiso
O2B O 0.7294(2) -0.0469(3) 0.0464(2) 0.0670 Uani
O3B O 0.6534(3) -0.0462(3) 0.0458(2) 0.0690 Uani
O4B O 0.7708(2) -0.1637(3) 0.2181(2) 0.0593 Uani
O5B O 0.8102(2) -0.1245(3) 0.1670(3) 0.0603 Uani
O8B O 0.5618(8) -0.1512(10) 0.1236(6) 0.1177 Uani
N1B N 0.6088(4) -0.1537(5) 0.1703(5) 0.0957 Uani
C1B C 0.6914(4) -0.0588(4) 0.0603(3) 0.0573 Uani
C2B C 0.6911(4) -0.0928(4) 0.0988(4) 0.0597 Uani
C3B C 0.7316(3) -0.1027(4) 0.1207(3) 0.0537 Uani
H2B H 0.7587 -0.0911 0.1100 0.0650 Uiso
C4B C 0.7305(3) -0.1305(4) 0.1589(3) 0.0497 Uani
C5B C 0.6904(4) -0.1472(4) 0.1748(4) 0.0560 Uani
H3B H 0.6902 -0.1658 0.2000 0.0670 Uiso
C6B C 0.6503(4) -0.1365(5) 0.1535(4) 0.0683 Uani
C7B C 0.5701(8) -0.1567(10) 0.1634(7) 0.0687 Uani
C8B C 0.5392(4) -0.1945(5) 0.2418(6) 0.0917 Uani
H4B H 0.5668 -0.2007 0.2555 0.1100 Uiso
C9B C 0.5378(6) -0.1705(6) 0.2011(7) 0.1140 Uani
C10B C 0.5000 -0.1587(9) 0.1838(9) 0.0997 Uani
H5B H 0.5000 -0.1411 0.1578 0.1190 Uiso
C11B C 0.5000 -0.2088(7) 0.2613(5) 0.0830 Uani
C12B C 0.5000 -0.2349(5) 0.3037(4) 0.0550 Uani
C13B C 0.7736(3) -0.1403(4) 0.1835(4) 0.0533 Uani
C21B C 0.6504(4) -0.1085(4) 0.1158(4) 0.0687 Uani
H9B H 0.6234 -0.1004 0.1021 0.0820 Uiso
O2V O 0.2706(2) -0.0469(3) 0.0464(2) 0.0670 Uani
O3V O 0.3466(3) -0.0462(3) 0.0458(2) 0.0690 Uani
O4V O 0.2292(2) -0.1637(3) 0.2181(2) 0.0593 Uani
O5V O 0.1898(2) -0.1245(3) 0.1670(3) 0.0603 Uani
O8V O 0.4382(8) -0.1512(10) 0.1236(6) 0.1177 Uani
N1V N 0.3912(4) -0.1537(5) 0.1703(5) 0.0957 Uani
C1V C 0.3086(4) -0.0588(4) 0.0603(3) 0.0573 Uani
C2V C 0.3089(4) -0.0928(4) 0.0988(4) 0.0597 Uani
C3V C 0.2684(3) -0.1027(4) 0.1207(3) 0.0537 Uani
H2V H 0.2413 -0.0911 0.1100 0.0650 Uiso
C4V C 0.2695(3) -0.1305(4) 0.1589(3) 0.0497 Uani
C5V C 0.3096(4) -0.1472(4) 0.1748(4) 0.0560 Uani
H3V H 0.3098 -0.1658 0.2000 0.0670 Uiso
C6V C 0.3497(4) -0.1365(5) 0.1535(4) 0.0683 Uani
C7V C 0.4299(8) -0.1567(10) 0.1634(7) 0.0687 Uani
C8V C 0.4608(4) -0.1945(5) 0.2418(6) 0.0917 Uani
H4V H 0.4332 -0.2007 0.2555 0.1100 Uiso
C9V C 0.4622(6) -0.1705(6) 0.2011(7) 0.1140 Uani
C13V C 0.2264(3) -0.1403(4) 0.1835(4) 0.0533 Uani
C21V C 0.3496(4) -0.1085(4) 0.1158(4) 0.0687 Uani
H9V H 0.3766 -0.1004 0.1021 0.0820 Uiso
Cu1D Cu 0.17844(4) -0.17844(4) 0.74232(6) 0.0454 Uani
O9D O 0.2176(4) -0.2176(4) 0.6965(6) 0.1203 Uani
Cu2D Cu 0.13220(4) -0.13220(4) 0.80258(6) 0.0450 Uani
O10D O 0.0939(4) -0.0939(4) 0.8508(6) 0.1803 Uani
Cu1A Cu 0.82156(4) 0.17844(4) 0.25768(6) 0.0454 Uani
Cu1B Cu 0.82156(4) -0.17844(4) 0.25768(6) 0.0454 Uani
Cu1C Cu 0.17844(4) -0.17844(4) 0.25768(6) 0.0454 Uani
Cu1E Cu 0.17844(4) 0.17844(4) 0.74232(6) 0.0454 Uani
Cu2A Cu 0.86780(4) 0.13220(4) 0.19742(6) 0.0450 Uani
Cu2B Cu 0.86780(4) -0.13220(4) 0.19742(6) 0.0450 Uani
Cu2C Cu 0.13220(4) -0.13220(4) 0.19742(6) 0.0450 Uani
Cu2E Cu 0.13220(4) 0.13220(4) 0.80258(6) 0.0450 Uani
Cu3B Cu 0.64692(8) 0.0000 0.0000 0.0503 Uani
Cu4B Cu 0.73616(8) 0.0000 0.0000 0.0528 Uani
O2D O 0.2706(2) -0.0469(3) -0.0464(2) 0.0670 Uani
O2R O 0.2706(2) 0.0469(3) -0.0464(2) 0.0670 Uani
O3D O 0.3466(3) -0.0462(3) -0.0458(2) 0.0690 Uani
O3R O 0.3466(3) 0.0462(3) -0.0458(2) 0.0690 Uani
O4D O 0.2292(2) -0.1637(3) 0.7819(2) 0.0593 Uani
O4Q O 0.1637(3) -0.2292(2) 0.7819(2) 0.0593 Uani
O4W O 0.1637(3) 0.2292(2) 0.2181(2) 0.0593 Uani
O5D O 0.1898(2) -0.1245(3) 0.8330(3) 0.0603 Uani
O5Q O 0.1245(3) -0.1898(2) 0.8330(3) 0.0603 Uani
O5W O 0.1245(3) 0.1898(2) 0.1670(3) 0.0603 Uani
O6Q O 0.1206(2) -0.1869(3) 0.7119(3) 0.0603 Uani
O6W O 0.1206(2) 0.1869(3) 0.2881(3) 0.0603 Uani
O7Q O 0.0811(2) -0.1477(3) 0.7644(3) 0.0630 Uani
O7W O 0.0811(2) 0.1477(3) 0.2356(3) 0.0630 Uani
H11? H 0.4695 0.2415 0.3123 0.0820 Uiso
H12? H 0.5162 0.2627 0.2993 0.0820 Uiso
H13? H 0.5144 0.2177 0.3270 0.0820 Uiso
H14? H 0.4172 -0.0007 0.5305 0.0820 Uiso
H15? H 0.4172 0.0268 0.4853 0.0820 Uiso
O13? O 0.3834(7) 0.1385(7) 0.2337(6) 0.1003 Uani
C26? C 0.4053(10) 0.1552(8) 0.2021(9) 0.0663 Uani
loop_
_atom_site_aniso_label
_atom_site_aniso_U_11
_atom_site_aniso_U_22
_atom_site_aniso_U_33
_atom_site_aniso_U_23
_atom_site_aniso_U_13
_atom_site_aniso_U_12
O1 0.157(11) 0.157(11) 0.157(11) 0.0001(16) 0.0000(16) -0.0001(16)
Cu1 0.0394(7) 0.0394(7) 0.0575(11) -0.0090(5) -0.0090(5) 0.0040(7)
Cu2 0.0392(7) 0.0392(7) 0.0565(11) -0.0091(5) -0.0091(5) 0.0047(7)
Cu3 0.0336(13) 0.0788(19) 0.0385(13) 0.000 0.000 0.000
Cu4 0.0358(13) 0.085(2) 0.0376(13) 0.000 0.000 0.000
O2 0.045(4) 0.103(7) 0.053(4) -0.018(4) 0.002(3) 0.006(4)
O3 0.048(5) 0.098(6) 0.061(5) -0.024(4) 0.007(4) 0.003(4)
O4 0.042(4) 0.073(5) 0.063(5) -0.013(4) 0.002(3) -0.003(4)
O5 0.042(4) 0.075(5) 0.064(5) -0.015(4) -0.003(3) 0.000(4)
O6 0.073(5) 0.038(4) 0.070(5) -0.001(3) -0.017(4) 0.004(4)
O7 0.073(5) 0.040(4) 0.076(5) 0.000(4) -0.014(4) 0.000(4)
O8 0.092(14) 0.20(3) 0.061(11) -0.033(14) 0.008(11) -0.056(16)
O9 0.104(7) 0.104(7) 0.153(14) -0.045(8) -0.045(8) 0.019(9)
O10 0.222(17) 0.222(17) 0.097(12) -0.032(7) -0.032(7) -0.139(19)
O11 0.017(8) 0.16(2) 0.19(2) 0.000 0.000 0.000
O12 0.038(11) 0.13(2) 0.40(5) 0.000 0.000 0.000
N1 0.049(6) 0.109(10) 0.129(11) -0.051(9) -0.012(7) -0.006(6)
N2 0.082(11) 0.069(10) 0.075(10) 0.000 -0.009(8) 0.000
C1 0.050(7) 0.086(8) 0.036(5) 0.002(5) -0.003(5) -0.003(6)
C2 0.046(6) 0.074(8) 0.059(6) -0.010(6) 0.004(5) 0.000(5)
C3 0.039(5) 0.064(7) 0.058(6) -0.004(5) -0.010(5) 0.002(5)
C4 0.042(6) 0.060(6) 0.047(6) -0.005(5) -0.005(4) 0.002(5)
C5 0.051(6) 0.066(7) 0.051(6) -0.012(5) 0.003(5) 0.002(5)
C6 0.044(6) 0.093(9) 0.068(7) -0.009(7) -0.006(6) 0.006(6)
C7 0.063(12) 0.11(2) 0.033(11) -0.007(11) 0.025(10) 0.005(14)
C8 0.037(7) 0.102(11) 0.136(14) -0.020(10) 0.017(8) 0.001(7)
C9 0.101(12) 0.082(10) 0.159(16) 0.012(11) -0.095(12) -0.026(9)
C10 0.100(7) 0.100(7) 0.099(7) 0.0001(16) 0.000 0.000
C11 0.097(14) 0.103(14) 0.049(9) -0.027(9) 0.000 0.000
C12 0.058 0.052 0.055 -0.006 0.000 0.000
C13 0.037(6) 0.056(6) 0.067(7) -0.008(5) -0.008(5) 0.017(5)
C14 0.052(6) 0.049(6) 0.068(7) -0.010(5) -0.009(5) 0.011(5)
C15 0.061(7) 0.043(6) 0.061(6) -0.005(5) -0.006(5) 0.005(5)
C16 0.067(7) 0.051(6) 0.064(7) -0.006(5) -0.013(6) -0.005(5)
C17 0.060(10) 0.054(9) 0.061(9) 0.000 -0.006(8) 0.000
C18 0.074(11) 0.048(9) 0.051(8) 0.000 -0.003(8) 0.000
C19 0.201(14) 0.231(14) 0.169(14) 0.000 -0.0003(16) 0.000
C20 0.134(9) 0.135(9) 0.134(9) 0.000 -0.0001(16) 0.000
C21 0.044(6) 0.088(9) 0.074(8) -0.021(7) 0.010(5) -0.008(6)
C22 0.17(4) 0.17(4) 0.061(19) 0.000 0.000 0.000
C23 0.102 0.091 0.135 -0.016 -0.072 -0.013
C24 0.058 0.052 0.055 0.000 0.000 0.000
C25 0.093(12) 0.21(3) 0.18(2) 0.000 0.000 0.000
O1D 0.157 0.157 0.157 0.0001 0 0.0001
O6D 0.073 0.038 0.07 -0.001 0.017 -0.004
O7D 0.073 0.04 0.076 0 0.014 0
N2D 0.082 0.069 0.075 0 0.009 0
C14D 0.052 0.049 0.068 -0.01 0.009 -0.011
C15D 0.061 0.043 0.061 -0.005 0.006 -0.005
C16D 0.067 0.051 0.064 -0.006 0.013 0.005
C17D 0.06 0.054 0.061 0 0.006 0
C18D 0.074 0.048 0.051 0 0.003 0
C19D 0.201 0.231 0.169 0 0.0003 0
C20D 0.134 0.135 0.134 0 0.0001 0
C23D 0.102 0.091 0.135 -0.016 0.072 0.013
O1R 0.157 0.157 0.157 -0.0001 0 -0.0001
O6R 0.073 0.038 0.07 0.001 0.017 0.004
O7R 0.073 0.04 0.076 0 0.014 0
C14R 0.052 0.049 0.068 0.01 0.009 0.011
C15R 0.061 0.043 0.061 0.005 0.006 0.005
C16R 0.067 0.051 0.064 0.006 0.013 -0.005
C23R 0.102 0.091 0.135 0.016 0.072 -0.013
O1V 0.157 0.157 0.157 -0.0001 0 0.0001
O6V 0.073 0.038 0.07 0.001 -0.017 -0.004
O7V 0.073 0.04 0.076 0 -0.014 0
C14V 0.052 0.049 0.068 0.01 -0.009 -0.011
C15V 0.061 0.043 0.061 0.005 -0.006 -0.005
C16V 0.067 0.051 0.064 0.006 -0.013 0.005
C23V 0.102 0.091 0.135 0.016 -0.072 0.013
O2T 0.045 0.103 0.053 -0.018 -0.002 -0.006
O3T 0.048 0.098 0.061 -0.024 -0.007 -0.003
O4T 0.042 0.073 0.063 -0.013 -0.002 0.003
O5T 0.042 0.075 0.064 -0.015 0.003 0
O8T 0.092 0.2 0.061 -0.033 -0.008 0.056
N1T 0.049 0.109 0.129 -0.051 0.012 0.006
C1T 0.05 0.086 0.036 0.002 0.003 0.003
C2T 0.046 0.074 0.059 -0.01 -0.004 0
C3T 0.039 0.064 0.058 -0.004 0.01 -0.002
C4T 0.042 0.06 0.047 -0.005 0.005 -0.002
C5T 0.051 0.066 0.051 -0.012 -0.003 -0.002
C6T 0.044 0.093 0.068 -0.009 0.006 -0.006
C7T 0.063 0.11 0.033 -0.007 -0.025 -0.005
C8T 0.037 0.102 0.136 -0.02 -0.017 -0.001
C9T 0.101 0.082 0.159 0.012 0.095 0.026
C13T 0.037 0.056 0.067 -0.008 0.008 -0.017
C21T 0.044 0.088 0.074 -0.021 -0.01 0.008
O2B 0.045 0.103 0.053 0.018 -0.002 0.006
O3B 0.048 0.098 0.061 0.024 -0.007 0.003
O4B 0.042 0.073 0.063 0.013 -0.002 -0.003
O5B 0.042 0.075 0.064 0.015 0.003 0
O8B 0.092 0.2 0.061 0.033 -0.008 -0.056
N1B 0.049 0.109 0.129 0.051 0.012 -0.006
C1B 0.05 0.086 0.036 -0.002 0.003 -0.003
C2B 0.046 0.074 0.059 0.01 -0.004 0
C3B 0.039 0.064 0.058 0.004 0.01 0.002
C4B 0.042 0.06 0.047 0.005 0.005 0.002
C5B 0.051 0.066 0.051 0.012 -0.003 0.002
C6B 0.044 0.093 0.068 0.009 0.006 0.006
C7B 0.063 0.11 0.033 0.007 -0.025 0.005
C8B 0.037 0.102 0.136 0.02 -0.017 0.001
C9B 0.101 0.082 0.159 -0.012 0.095 -0.026
C10B 0.1 0.1 0.099 -0.0001 0 0
C11B 0.097 0.103 0.049 0.027 0 0
C12B 0.058 0.052 0.055 0.006 0 0
C13B 0.037 0.056 0.067 0.008 0.008 0.017
C21B 0.044 0.088 0.074 0.021 -0.01 -0.008
O2V 0.045 0.103 0.053 0.018 0.002 -0.006
O3V 0.048 0.098 0.061 0.024 0.007 -0.003
O4V 0.042 0.073 0.063 0.013 0.002 0.003
O5V 0.042 0.075 0.064 0.015 -0.003 0
O8V 0.092 0.2 0.061 0.033 0.008 0.056
N1V 0.049 0.109 0.129 0.051 -0.012 0.006
C1V 0.05 0.086 0.036 -0.002 -0.003 0.003
C2V 0.046 0.074 0.059 0.01 0.004 0
C3V 0.039 0.064 0.058 0.004 -0.01 -0.002
C4V 0.042 0.06 0.047 0.005 -0.005 -0.002
C5V 0.051 0.066 0.051 0.012 0.003 -0.002
C6V 0.044 0.093 0.068 0.009 -0.006 -0.006
C7V 0.063 0.11 0.033 0.007 0.025 -0.005
C8V 0.037 0.102 0.136 0.02 0.017 -0.001
C9V 0.101 0.082 0.159 -0.012 -0.095 0.026
C13V 0.037 0.056 0.067 0.008 -0.008 -0.017
C21V 0.044 0.088 0.074 0.021 0.01 0.008
Cu1D 0.0394 0.0394 0.0575 -0.009 0.009 -0.004
O9D 0.104 0.104 0.153 -0.045 0.045 -0.019
Cu2D 0.0392 0.0392 0.0565 -0.0091 0.0091 -0.0047
O10D 0.222 0.222 0.097 -0.032 0.032 0.139
Cu1A 0.0394 0.0394 0.0575 -0.009 0.009 -0.004
Cu1B 0.0394 0.0394 0.0575 0.009 0.009 0.004
Cu1C 0.0394 0.0394 0.0575 0.009 -0.009 -0.004
Cu1E 0.0394 0.0394 0.0575 0.009 0.009 0.004
Cu2A 0.0392 0.0392 0.0565 -0.0091 0.0091 -0.0047
Cu2B 0.0392 0.0392 0.0565 0.0091 0.0091 0.0047
Cu2C 0.0392 0.0392 0.0565 0.0091 -0.0091 -0.0047
Cu2E 0.0392 0.0392 0.0565 0.0091 0.0091 0.0047
Cu3B 0.0336 0.0788 0.0385 0 0 0
Cu4B 0.0358 0.085 0.0376 0 0 0
O2D 0.045 0.103 0.053 -0.018 -0.002 -0.006
O2R 0.045 0.103 0.053 0.018 -0.002 0.006
O3D 0.048 0.098 0.061 -0.024 -0.007 -0.003
O3R 0.048 0.098 0.061 0.024 -0.007 0.003
O4D 0.042 0.073 0.063 -0.013 -0.002 0.003
O4Q 0.073 0.042 0.063 0.002 0.013 0.003
O4W 0.073 0.042 0.063 0.002 -0.013 -0.003
O5D 0.042 0.075 0.064 -0.015 0.003 0
O5Q 0.075 0.042 0.064 -0.003 0.015 0
O5W 0.075 0.042 0.064 -0.003 -0.015 0
O6Q 0.038 0.073 0.07 -0.017 0.001 -0.004
O6W 0.038 0.073 0.07 -0.017 -0.001 0.004
O7Q 0.04 0.073 0.076 -0.014 0 0
O7W 0.04 0.073 0.076 -0.014 0 0
O13? 0.083(14) 0.126(18) 0.092(15) -0.013(12) 0.030(11) -0.028(12)
C26? 0.076(18) 0.059(15) 0.064(13) -0.004(12) 0.027(12) -0.025(13)
loop_
_geom_bond_atom_site_label_1
_geom_bond_atom_site_label_2
_geom_bond_site_symmetry_1
_geom_bond_site_symmetry_2
O1 C23 1_555 1_555
Cu1 O4 1_555 1_555
Cu2 O5 1_555 1_555
Cu3 O3 1_555 1_555
Cu4 O2 1_555 1_555
O2 C1 1_555 1_555
O3 C1 1_555 1_555
O4 C13 1_555 1_555
O5 C13 1_555 1_555
O6 Cu1 1_555 1_555
O7 Cu2 1_555 1_555
O8 C7 1_555 1_555
O9 Cu1 1_555 1_555
O10 Cu2 1_555 1_555
O11 Cu3 1_555 1_555
O12 Cu4 1_555 1_555
N1 C6 1_555 1_555
N2 H1 1_555 1_555
H1 C23V 1_555 1_555
C1 C2 1_555 1_555
C2 C3 1_555 1_555
C3 H2 1_555 1_555
C4 C3 1_555 1_555
C5 C4 1_555 1_555
H3 C5 1_555 1_555
C6 C5 1_555 1_555
C7 N1 1_555 1_555
C8 H4 1_555 1_555
C9 C7 1_555 1_555
C10 C9 1_555 1_555
H5 C10 1_555 1_555
C11 C8 1_555 1_555
C12 C11 1_555 1_555
C13 C4 1_555 1_555
C14 O6 1_555 1_555
C15 C14 1_555 1_555
C16 C15 1_555 1_555
H6 C16 1_555 1_555
C17 C15 1_555 1_555
H7 C17 1_555 1_555
C18 N2 1_555 1_555
C19 H8 1_555 1_555
C20 C19 1_555 1_555
C21 C2 1_555 1_555
H9 C21 1_555 1_555
C22 C20 1_555 1_555
H10 C22 1_555 1_555
C23 N2 1_555 1_555
C24 C25 1_555 1_555
C25 C19 1_555 1_555
O1D C23D 1_555 1_555
O6D C14D 1_555 1_555
O7D C14D 1_555 1_555
N2D H1D 1_555 1_555
H1D C23R 1_555 1_555
C14D C15D 1_555 1_555
C15D C16D 1_555 1_555
C16D H6D 1_555 1_555
C17D C15D 1_555 1_555
H7D C17D 1_555 1_555
C18D N2D 1_555 1_555
C19D C25 1_555 1_555
H8D C19D 1_555 1_555
C20D C22 1_555 1_555
C23D N2D 1_555 1_555
O1R C23R 1_555 1_555
O6R C14R 1_555 1_555
O7R C14R 1_555 1_555
H1R N2D 1_555 1_555
C14R C15R 1_555 1_555
C15R C17D 1_555 1_555
C16R C18D 1_555 1_555
H6R C16R 1_555 1_555
C23R N2D 1_555 1_555
O1V C23V 1_555 1_555
O6V C14V 1_555 1_555
O7V C14V 1_555 1_555
H1V N2 1_555 1_555
C14V C15V 1_555 1_555
C15V C17 1_555 1_555
C16V C18 1_555 1_555
H6V C16V 1_555 1_555
C23V N2 1_555 1_555
O2T C1T 1_555 1_555
O3T C1T 1_555 1_555
O4T C13T 1_555 1_555
O5T C13T 1_555 1_555
O8T C7T 1_555 1_555
N1T C6T 1_555 1_555
C1T C2T 1_555 1_555
C2T C3T 1_555 1_555
C3T H2T 1_555 1_555
C4T C3T 1_555 1_555
C5T C4T 1_555 1_555
H3T C5T 1_555 1_555
C6T C5T 1_555 1_555
C7T N1T 1_555 1_555
C8T C11 1_555 1_555
H4T C8T 1_555 1_555
C9T C10 1_555 1_555
C13T C4T 1_555 1_555
C21T C2T 1_555 1_555
H9T C21T 1_555 1_555
O2B C1B 1_555 1_555
O3B C1B 1_555 1_555
O4B C13B 1_555 1_555
O5B C13B 1_555 1_555
O8B C7B 1_555 1_555
N1B C6B 1_555 1_555
C1B C2B 1_555 1_555
C2B C3B 1_555 1_555
C3B H2B 1_555 1_555
C4B C3B 1_555 1_555
C5B C4B 1_555 1_555
H3B C5B 1_555 1_555
C6B C5B 1_555 1_555
C7B N1B 1_555 1_555
C8B H4B 1_555 1_555
C9B C7B 1_555 1_555
C10B C9B 1_555 1_555
H5B C10B 1_555 1_555
C11B C8B 1_555 1_555
C12B C11B 1_555 1_555
C13B C4B 1_555 1_555
C21B C2B 1_555 1_555
H9B C21B 1_555 1_555
O2V Cu4 1_555 1_555
O3V Cu3 1_555 1_555
O4V C13V 1_555 1_555
O5V C13V 1_555 1_555
O8V C7V 1_555 1_555
N1V C6V 1_555 1_555
C1V O2V 1_555 1_555
C2V C1V 1_555 1_555
C3V C2V 1_555 1_555
H2V C3V 1_555 1_555
C4V C3V 1_555 1_555
C5V C4V 1_555 1_555
H3V C5V 1_555 1_555
C6V C5V 1_555 1_555
C7V N1V 1_555 1_555
C8V C11B 1_555 1_555
H4V C8V 1_555 1_555
C9V C10B 1_555 1_555
C13V C4V 1_555 1_555
C21V C2V 1_555 1_555
H9V C21V 1_555 1_555
Cu1D O6D 1_555 1_555
O9D Cu1D 1_555 1_555
Cu2D O7D 1_555 1_555
O10D Cu2D 1_555 1_555
Cu1A O4T 1_555 1_555
Cu1B O4B 1_555 1_555
Cu1C O6V 1_555 1_555
Cu1E O6R 1_555 1_555
Cu2A O5T 1_555 1_555
Cu2B O5B 1_555 1_555
Cu2C O7V 1_555 1_555
Cu2E O7R 1_555 1_555
Cu3B O3T 1_555 1_555
Cu4B O2T 1_555 1_555
O2D Cu4 1_555 1_555
O2R Cu4 1_555 1_555
O3D Cu3 1_555 1_555
O3R Cu3 1_555 1_555
O4D Cu1D 1_555 1_555
O4Q Cu1D 1_555 1_555
O4W Cu1 1_555 1_555
O5D Cu2D 1_555 1_555
O5Q Cu2D 1_555 1_555
O5W Cu2 1_555 1_555
O6Q Cu1D 1_555 1_555
O6W Cu1 1_555 1_555
O7Q Cu2D 1_555 1_555
O7W Cu2 1_555 1_555
O7 C14 1_555 1_555
C6 C21 1_555 1_555
C8 C9 1_555 1_555
C16 C18 1_555 1_555
C20 C23 1_555 1_555
C20 C23V 1_555 1_555
C23 H1V 1_555 1_555
C23 C23V 1_555 1_555
C16D C18D 1_555 1_555
C19D C20D 1_555 1_555
C20D C23D 1_555 1_555
C20D C23R 1_555 1_555
C23D H1R 1_555 1_555
C23D C23R 1_555 1_555
C15R C16R 1_555 1_555
C15V C16V 1_555 1_555
C6T C21T 1_555 1_555
C7T C9T 1_555 1_555
C8T C9T 1_555 1_555
O2B Cu4B 1_555 1_555
O3B Cu3B 1_555 1_555
C6B C21B 1_555 1_555
C8B C9B 1_555 1_555
O3V C1V 1_555 1_555
O4V Cu1C 1_555 1_555
O5V Cu2C 1_555 1_555
C6V C21V 1_555 1_555
C7V C9V 1_555 1_555
C8V C9V 1_555 1_555

#END
