
#######################################################################
#
#                 Cambridge Crystallographic Data Centre
#                                CCDC 
#
#######################################################################
#
# If this CIF has been generated from an entry in the Cambridge 
# Structural Database, then it will include bibliographic, chemical, 
# crystal, experimental, refinement or atomic coordinate data resulting 
# from the CCDC's data processing and validation procedures.
#
#######################################################################

data_LULXOG
_chemical_formula_moiety         '(C16 H8 Co1 Li2 O8)n,2n(H2 O1)'
_chemical_name_systematic        
'catena-(bis(\m~6~-isophthalato)-cobalt(ii)-di-lithium(i) dihydrate)'
_symmetry_cell_setting           orthorhombic
_symmetry_space_group_name_H-M   'C 2 2 21'
_symmetry_Int_Tables_number      20
_space_group_name_Hall           'C 2c 2'
loop_
_symmetry_equiv_pos_site_id
_symmetry_equiv_pos_as_xyz
1 x,y,z
2 -x,-y,1/2+z
3 -x,y,1/2-z
4 x,-y,-z
5 1/2+x,1/2+y,z
6 1/2-x,1/2-y,1/2+z
7 1/2-x,1/2+y,1/2-z
8 1/2+x,1/2-y,-z
_cell_length_a                   12.024(3)
_cell_length_b                   15.032(4)
_cell_length_c                   12.948(3)
_cell_angle_alpha                90
_cell_angle_beta                 90
_cell_angle_gamma                90
_cell_volume                     2340.28
_exptl_crystal_colour            violet
_exptl_crystal_description       needle
_cell_formula_units_Z            4
loop_
_atom_site_label
_atom_site_type_symbol
_atom_site_fract_x
_atom_site_fract_y
_atom_site_fract_z
Co1 Co 0.5000 0.56435(3) 0.7500
O1 O 0.3377(3) 0.4203(2) 0.72071(19)
O2 O 0.4316(2) 0.48210(18) 0.8484(2)
O3 O 0.1031(2) 0.15251(18) 0.8076(2)
O4 O 0.1357(3) 0.08251(18) 0.9545(2)
C1 C 0.3225(4) 0.3562(3) 0.8876(3)
C2 C 0.2548(3) 0.2872(2) 0.8567(3)
H1 H 0.2326 0.2827 0.7865
C3 C 0.2187(4) 0.2242(3) 0.9282(3)
C4 C 0.2269(8) 0.2441(6) 1.0350(7)
H2 H 0.1875 0.2097 1.0845
C5 C 0.2935(9) 0.3149(7) 1.0661(8)
H3 H 0.3110 0.3225 1.1371
C6 C 0.3342(9) 0.3740(7) 0.9939(7)
H4 H 0.3701 0.4269 1.0159
C10 C 0.3664(3) 0.4236(3) 0.8123(3)
C11 C 0.1477(3) 0.1476(2) 0.8952(3)
Li1 Li 0.4056(11) 0.4596(8) 0.5896(9)
Co1D Co 0.0000 0.06435(3) 0.7500
Co1D_2 Co 1.0000 0.06435(3) 0.7500
O1B O 0.6623(3) 0.4203(2) 0.77929(19)
O2B O 0.5684(2) 0.48210(18) 0.6516(2)
O3B O 0.8969(2) 0.15251(18) 0.6924(2)
O3D O 0.6031(2) 0.65251(18) 0.8076(2)
O3F O 0.3969(2) 0.65251(18) 0.6924(2)
O4B O 0.8643(3) 0.08251(18) 0.5455(2)
O4F O 0.3643(3) 0.58251(18) 0.5455(2)
O4E O 0.3643(3) 0.41749(18) 0.4545(2)
O4D O 0.6357(3) 0.58251(18) 0.9545(2)
O4G O 0.6357(3) 0.41749(18) 1.0455(2)
C1B C 0.6775(4) 0.3562(3) 0.6124(3)
C2B C 0.7452(3) 0.2872(2) 0.6433(3)
H1B H 0.7674 0.2827 0.7135
C3B C 0.7813(4) 0.2242(3) 0.5718(3)
C4B C 0.7731(8) 0.2441(6) 0.4650(7)
H2B H 0.8125 0.2097 0.4155
C5B C 0.7065(9) 0.3149(7) 0.4339(8)
H3B H 0.6890 0.3225 0.3629
C6B C 0.6658(9) 0.3740(7) 0.5061(7)
H4B H 0.6299 0.4269 0.4841
C10B C 0.6336(3) 0.4236(3) 0.6877(3)
C11B C 0.8523(3) 0.1476(2) 0.6048(3)
Li1B Li 0.5944(11) 0.4596(8) 0.9104(9)
Li1F Li 0.0944(11) -0.0404(8) 0.9104(9)
Li1E Li 0.0944(11) 0.0404(8) 1.0896(9)
Li1D Li 0.9056(11) -0.0404(8) 0.5896(9)
Li1G Li 0.9056(11) 0.0404(8) 0.4104(9)
H8 H 0.1115 0.4933 0.6246
O6 O 0.140(2) 0.4539(16) 0.593(2)
H11 H 0.0897 0.4278 0.5585
C7? C 0.2710(8) 0.2226(6) 1.0274(6)
H5? H 0.2552 0.1754 1.0738
C8? C 0.3428(8) 0.2874(6) 1.0561(7)
H6? H 0.3721 0.2879 1.1242
C9? C 0.3739(8) 0.3539(6) 0.9857(6)
H7? H 0.4287 0.3967 1.0037
Li2? Li 0.3029(15) 0.4638(11) 0.5877(10)
O5? O 0.145(2) 0.4949(16) 0.567(2)
H9? H 0.1067 0.5128 0.5161
H10? H 0.1065 0.4649 0.6497
O7? O 0.0000 0.3354(14) 0.7500
H12? H 0.0301 0.3408 0.6909
O8? O 0.186(6) 0.087(6) 0.945(7)
H13? H 0.2127 0.1140 0.9971
O9? O 0.0000 0.675(4) 0.7500
H14? H 0.0000 0.6189 0.7500
O10? O -0.104(6) 0.547(5) 0.648(5)
H15? H -0.0643 0.5077 0.6178
O11? O 0.098(9) 0.557(8) 0.714(8)
O12? O -0.001(12) 0.586(7) 0.659(8)
loop_
_geom_bond_atom_site_label_1
_geom_bond_atom_site_label_2
_geom_bond_site_symmetry_1
_geom_bond_site_symmetry_2
Co1 O2 1_555 1_555
O1 C10 1_555 1_555
O2 C10 1_555 1_555
O3 C11 1_555 1_555
O4 C11 1_555 1_555
C1 C2 1_555 1_555
C2 H1 1_555 1_555
C3 C2 1_555 1_555
C4 C3 1_555 1_555
H2 C4 1_555 1_555
C5 C4 1_555 1_555
H3 C5 1_555 1_555
C6 C1 1_555 1_555
H4 C6 1_555 1_555
C10 C1 1_555 1_555
C11 C3 1_555 1_555
Li1 O1 1_555 1_555
H8 O6 1_555 1_555
O6 H11 1_555 1_555
Co1D O3 1_555 1_555
Co1D_2 O3B 1_555 1_555
O1B C10B 1_555 1_555
O2B Co1 1_555 1_555
O3B C11B 1_555 1_555
O3D Co1 1_555 1_555
O3F Co1 1_555 1_555
O4B C11B 1_555 1_555
O4F Li1 1_555 1_555
O4E Li1 1_555 1_555
O4D Li1B 1_555 1_555
O4G Li1B 1_555 1_555
C1B C2B 1_555 1_555
C2B H1B 1_555 1_555
C3B C2B 1_555 1_555
C4B C3B 1_555 1_555
H2B C4B 1_555 1_555
C5B C4B 1_555 1_555
H3B C5B 1_555 1_555
C6B C1B 1_555 1_555
H4B C6B 1_555 1_555
C10B O2B 1_555 1_555
C11B C3B 1_555 1_555
Li1B O2 1_555 1_555
Li1F O4 1_555 1_555
Li1E O4 1_555 1_555
Li1D O4B 1_555 1_555
Li1G O4B 1_555 1_555
C5 C6 1_555 1_555
Li1 O2B 1_555 1_555
O1B Li1B 1_555 1_555
C1B C10B 1_555 1_555
C5B C6B 1_555 1_555

#END
