
#######################################################################
#
#                 Cambridge Crystallographic Data Centre
#                                CCDC 
#
#######################################################################
#
# If this CIF has been generated from an entry in the Cambridge 
# Structural Database, then it will include bibliographic, chemical, 
# crystal, experimental, refinement or atomic coordinate data resulting 
# from the CCDC's data processing and validation procedures.
#
#######################################################################

data_UWAFOO
_chemical_formula_moiety         
'(C78 H48 N2 O13 Zn4)n,19n(C4 H9 N1 O1),4n(H2 O1)'
_chemical_name_systematic        
"catena-(bis(\m~6~-4',4'',4'''-Nitrilotribiphenyl-4-carboxylato)-(\m~4~-oxo)-tetra-zinc N,N-dimethylacetamide solvate tetrahydrate)"
_symmetry_cell_setting           cubic
_symmetry_space_group_name_H-M   'P a -3'
_symmetry_Int_Tables_number      205
_space_group_name_Hall           '-P 2ac 2ab 3'
loop_
_symmetry_equiv_pos_site_id
_symmetry_equiv_pos_as_xyz
1 x,y,z
2 1/2-x,-y,1/2+z
3 1/2+x,1/2-y,-z
4 -x,1/2+y,1/2-z
5 y,z,x
6 1/2-y,-z,1/2+x
7 1/2+y,1/2-z,-x
8 -y,1/2+z,1/2-x
9 z,x,y
10 -z,1/2+x,1/2-y
11 1/2-z,-x,1/2+y
12 1/2+z,1/2-x,-y
13 -x,-y,-z
14 1/2+x,y,1/2-z
15 1/2-x,1/2+y,z
16 x,1/2-y,1/2+z
17 -y,-z,-x
18 1/2+y,z,1/2-x
19 1/2-y,1/2+z,x
20 y,1/2-z,1/2+x
21 -z,-x,-y
22 z,1/2-x,1/2+y
23 1/2+z,x,1/2-y
24 1/2-z,1/2+x,y
_cell_length_a                   32.6570(9)
_cell_length_b                   32.6570(9)
_cell_length_c                   32.6570(9)
_cell_angle_alpha                90
_cell_angle_beta                 90
_cell_angle_gamma                90
_cell_volume                     34828
_exptl_crystal_colour            yellow
_exptl_crystal_description       prism
_cell_formula_units_Z            8
loop_
_atom_site_label
_atom_site_type_symbol
_atom_site_fract_x
_atom_site_fract_y
_atom_site_fract_z
Zn1 Zn 0.80082(2) 0.76728(2) 0.72240(2)
C1 C 0.7726(2) 0.7142(3) 0.6519(3)
C2 C 0.7678(2) 0.67640(19) 0.5879(2)
H1 H 0.7432 0.6665 0.5984
O1 O 0.79763(14) 0.74146(15) 0.66919(19)
O2 O 0.75073(9) 0.75073(9) 0.75073(9)
O3 O 0.74091(13) 0.70192(16) 0.66448(14)
N1 N 0.8762(2) 0.6238(2) 0.3762(2)
O4 O 0.80418(18) 0.82631(18) 0.71931(16)
O5 O 0.7457(2) 0.8515(2) 0.74560(16)
C3 C 0.8299(3) 0.9035(3) 0.6958(3)
H2 H 0.8479 0.8817 0.6928
C4 C 0.7913(2) 0.8975(3) 0.7139(2)
C5 C 0.7899(2) 0.7025(2) 0.6104(2)
C6 C 0.7664(3) 0.9290(2) 0.7201(3)
H3 H 0.7411 0.9251 0.7326
C7 C 0.7785(3) 0.8569(3) 0.7282(3)
C8 C 0.8272(3) 0.7176(3) 0.5950(3)
H4 H 0.8433 0.7351 0.6106
Zn2 Zn 0.71640(2) 0.71640(2) 0.71640(2)
N2 N 0.86541(17) 1.13459(17) 0.63459(17)
C9 C 0.8614(2) 0.6368(3) 0.4150(2)
C10 C 0.8174(2) 0.6762(2) 0.5334(2)
C11 C 0.8202(3) 0.6411(3) 0.4214(2)
H5 H 0.8015 0.6356 0.4006
C12 C 0.8821(2) 1.0662(2) 0.6590(2)
H6 H 0.9100 1.07 0.6576
C13 C 0.8329(2) 0.6636(2) 0.4927(2)
C14 C 0.8139(2) 1.0857(2) 0.6518(2)
H7 H 0.7943 1.1051 0.6449
C15 C 0.8006(2) 1.0467(2) 0.6657(3)
H8 H 0.7728 1.0412 0.6682
C16 C 0.7784(3) 0.9683(3) 0.7076(3)
H9 H 0.7610 0.990 0.7124
C17 C 0.7807(2) 0.6635(2) 0.5490(2)
H10 H 0.7641 0.6462 0.5337
C18 C 0.8068(3) 0.6538(2) 0.4598(2)
H11 H 0.779 0.6560 0.464
C19 C 0.8407(3) 0.9419(3) 0.6826(3)
H12 H 0.8657 0.9455 0.6695
C20 C 0.8877(3) 0.6464(2) 0.4449(3)
H13 H 0.92 0.6442 0.4400
C21 C 0.8289(2) 1.0170(3) 0.6753(2)
C22 C 0.8691(2) 1.0278(3) 0.6721(3)
H14 H 0.8888 1.0086 0.6792
C23 C 0.85450(18) 1.0957(2) 0.6483(2)
C24 C 0.8737(2) 0.6604(3) 0.4846(3)
H15 H 0.8927 0.6671 0.5048
C25 C 0.8155(2) 0.9750(3) 0.6883(2)
C26 C 0.8394(3) 0.7057(3) 0.5559(3)
H16 H 0.8626 0.7175 0.5444
Zn1E Zn 0.73272(2) 0.27760(2) 0.30082(2)
Zn1K Zn 1.22240(2) 0.69918(2) 0.23272(2)
Zn1H Zn 0.72240(2) 0.80082(2) 0.76728(2)
Zn1D Zn 0.76728(2) 0.72240(2) 0.80082(2)
Zn1G Zn 1.23272(2) 1.22240(2) 0.69918(2)
Zn1C Zn 1.19918(2) 1.26728(2) 0.77760(2)
Zn1J Zn 0.77760(2) 1.19918(2) 0.26728(2)
Zn1E_2 Zn 0.73272(2) 1.27760(2) 0.30082(2)
C1E C 0.7858(3) 0.3481(3) 0.2726(2)
C1K C 1.1519(3) 0.7274(2) 0.2858(3)
C2E C 0.82360(19) 0.4121(2) 0.2678(2)
C2K C 1.0879(2) 0.7322(2) 0.32360(19)
H1E H 0.8335 0.4016 0.2432
H1K H 1.0984 0.7568 0.3335
O1E O 0.75854(15) 0.33081(19) 0.29763(14)
O1K O 1.16919(19) 0.70237(14) 0.25854(15)
O2A O 0.74927(9) 0.24927(9) 0.25073(9)
O2B O 1.25073(9) 0.74927(9) 0.24927(9)
O3E O 0.79808(16) 0.33552(14) 0.24091(13)
O3K O 1.16448(14) 0.75909(13) 0.29808(16)
O3D O 0.70192(16) 0.66448(14) 0.74091(13)
O3H O 0.66448(14) 0.74091(13) 0.70192(16)
O4G O 1.17369(18) 1.21931(16) 0.69582(18)
O4J O 0.78069(16) 1.19582(18) 0.32631(18)
O4E O 0.67369(18) 0.28069(16) 0.30418(18)
O4K O 1.21931(16) 0.69582(18) 0.17369(18)
O5G O 1.1485(2) 1.24560(16) 0.7543(2)
O5J O 0.75440(16) 1.2543(2) 0.3515(2)
O5D O 0.8515(2) 0.74560(16) 0.7457(2)
O5J_2 O 0.75440(16) 0.2543(2) 0.3515(2)
O5B O 1.2457(2) 0.6485(2) 0.25440(16)
C3G C 1.0965(3) 1.1958(3) 0.6701(3)
C3J C 0.8042(3) 1.1701(3) 0.4035(3)
H2G H 1.1183 1.1928 0.6521
H2J H 0.8072 1.1521 0.3817
C4G C 1.1025(3) 1.2139(2) 0.7087(2)
C4J C 0.7861(2) 1.2087(2) 0.3975(3)
C5E C 0.7975(2) 0.3896(2) 0.2899(2)
C5K C 1.1104(2) 0.7101(2) 0.2975(2)
C6G C 1.0710(2) 1.2201(3) 0.7336(3)
C6J C 0.7799(3) 1.2336(3) 0.4290(2)
H3G H 1.0749 1.2326 0.7589
H3J H 0.7674 1.2589 0.4251
C7G C 1.1431(3) 1.2282(3) 0.7215(3)
C7J C 0.7718(3) 1.2215(3) 0.3569(3)
C8E C 0.7824(3) 0.4050(3) 0.3272(3)
C8K C 1.0950(3) 0.6728(3) 0.2824(3)
H4E H 0.7649 0.3894 0.3433
H4K H 1.1106 0.6567 0.2649
Zn2A Zn 0.78360(2) 0.28360(2) 0.21640(2)
Zn2B Zn 1.21640(2) 0.78360(2) 0.28360(2)
C9E C 0.8632(3) 0.5850(2) 0.3614(2)
C9K C 0.9150(2) 0.6386(2) 0.3632(3)
C10E C 0.8238(2) 0.4666(2) 0.3174(2)
C10K C 1.0334(2) 0.6826(2) 0.3238(2)
C11E C 0.8589(3) 0.5786(2) 0.3202(3)
C11K C 0.9214(2) 0.6798(3) 0.3589(3)
H5E H 0.8644 0.5994 0.3015
H5K H 0.9006 0.6985 0.3644
C12G C 0.9338(2) 1.1590(2) 0.6179(2)
C12J C 0.8410(2) 1.1179(2) 0.5662(2)
H6G H 0.93 1.1576 0.5900
H6J H 0.8424 1.0900 0.57
C13E C 0.8364(2) 0.5073(2) 0.3329(2)
C13K C 0.9927(2) 0.6671(2) 0.3364(2)
C14G C 0.9143(2) 1.1518(2) 0.6861(2)
C14J C 0.8482(2) 1.1861(2) 0.5857(2)
H7G H 0.8949 1.1449 0.7057
H7J H 0.8551 1.2057 0.6051
C15G C 0.9533(2) 1.1657(3) 0.6994(2)
C15J C 0.8343(3) 1.1994(2) 0.5467(2)
H8G H 0.9588 1.1682 0.7272
H8J H 0.8318 1.2272 0.5412
C16G C 1.0317(3) 1.2076(3) 0.7216(3)
C16J C 0.7924(3) 1.2216(3) 0.4683(3)
H9G H 1.010 1.2124 0.7390
H9J H 0.7876 1.2390 0.490
C17E C 0.8365(2) 0.4510(2) 0.2807(2)
C17K C 1.0490(2) 0.7193(2) 0.3365(2)
H10E H 0.8538 0.4663 0.2641
H10K H 1.0337 0.7359 0.3538
C18E C 0.8462(2) 0.5402(2) 0.3068(3)
C18K C 0.9598(2) 0.6932(3) 0.3462(2)
H11E H 0.8440 0.536 0.279
H11K H 0.964 0.721 0.3440
C19G C 1.0581(3) 1.1826(3) 0.6593(3)
C19J C 0.8174(3) 1.1593(3) 0.4419(3)
H12G H 1.0545 1.1695 0.6343
H12J H 0.8305 1.1343 0.4455
C20E C 0.8536(2) 0.5551(3) 0.3877(3)
C20K C 0.9449(3) 0.6123(3) 0.3536(2)
H13E H 0.8558 0.5600 0.42
H13K H 0.9400 0.58 0.3558
C21G C 0.9830(3) 1.1753(2) 0.6711(2)
C21J C 0.8247(2) 1.1711(2) 0.5170(3)
C22G C 0.9722(3) 1.1721(3) 0.6309(2)
C22J C 0.8279(3) 1.1309(2) 0.5278(3)
H14G H 0.9914 1.1792 0.6112
H14J H 0.8208 1.1112 0.5086
C23G C 0.9043(2) 1.1483(2) 0.64550(18)
C23J C 0.8517(2) 1.14550(18) 0.5957(2)
C24E C 0.8396(3) 0.5154(3) 0.3737(2)
C24K C 0.9846(3) 0.6263(2) 0.3396(3)
H15E H 0.8329 0.4952 0.3927
H15K H 1.0048 0.6073 0.3329
C25G C 1.0250(3) 1.1883(2) 0.6845(2)
C25J C 0.8117(2) 1.1845(2) 0.4750(3)
C26E C 0.7943(3) 0.4441(3) 0.3394(3)
C26K C 1.0559(3) 0.6606(3) 0.2943(3)
H16E H 0.7825 0.4556 0.3626
H16K H 1.0444 0.6374 0.2825
loop_
_geom_bond_atom_site_label_1
_geom_bond_atom_site_label_2
_geom_bond_site_symmetry_1
_geom_bond_site_symmetry_2
Zn1 O1 1_555 1_555
C1 O1 1_555 1_555
C2 H1 1_555 1_555
O2 Zn1 1_555 1_555
O3 C1 1_555 1_555
N1 C9 1_555 1_555
O4 Zn1 1_555 1_555
O5 C7 1_555 1_555
C3 H2 1_555 1_555
C4 C3 1_555 1_555
C5 C1 1_555 1_555
C6 C4 1_555 1_555
H3 C6 1_555 1_555
C7 O4 1_555 1_555
C8 C5 1_555 1_555
H4 C8 1_555 1_555
Zn2 O2 1_555 1_555
N2 C23 1_555 1_555
C9 C11 1_555 1_555
C10 C13 1_555 1_555
C11 H5 1_555 1_555
C12 H6 1_555 1_555
C13 C18 1_555 1_555
C14 H7 1_555 1_555
C15 C14 1_555 1_555
H8 C15 1_555 1_555
C16 C6 1_555 1_555
H9 C16 1_555 1_555
C17 C2 1_555 1_555
H10 C17 1_555 1_555
C18 C11 1_555 1_555
H11 C18 1_555 1_555
C19 C3 1_555 1_555
H12 C19 1_555 1_555
C20 C9 1_555 1_555
H13 C20 1_555 1_555
C21 C15 1_555 1_555
C22 C12 1_555 1_555
H14 C22 1_555 1_555
C23 C12 1_555 1_555
C24 C13 1_555 1_555
H15 C24 1_555 1_555
C25 C16 1_555 1_555
C26 C8 1_555 1_555
H16 C26 1_555 1_555
Zn1E O1E 1_555 1_555
Zn1K O1K 1_555 1_555
Zn1H O2 1_555 1_555
Zn1D O2 1_555 1_555
Zn1G O4G 1_555 1_555
Zn1C O5G 1_555 1_555
Zn1J O4J 1_555 1_555
Zn1E_2 O5J 1_555 1_555
C1E O1E 1_555 1_555
C1K O1K 1_555 1_555
C2E H1E 1_555 1_555
C2K H1K 1_555 1_555
O2A Zn1E 1_555 1_555
O2B Zn1K 1_555 1_555
O3E C1E 1_555 1_555
O3K C1K 1_555 1_555
O3D Zn2 1_555 1_555
O3H Zn2 1_555 1_555
O4G C7G 1_555 1_555
O4J C7J 1_555 1_555
O4E Zn1E 1_555 1_555
O4K Zn1K 1_555 1_555
O5G C7G 1_555 1_555
O5J C7J 1_555 1_555
O5D Zn1 1_555 1_555
O5J_2 Zn1E 1_555 1_555
O5B Zn1K 1_555 1_555
C3G H2G 1_555 1_555
C3J H2J 1_555 1_555
C4G C3G 1_555 1_555
C4J C3J 1_555 1_555
C5E C1E 1_555 1_555
C5K C1K 1_555 1_555
C6G C4G 1_555 1_555
C6J C4J 1_555 1_555
H3G C6G 1_555 1_555
H3J C6J 1_555 1_555
C7G C4G 1_555 1_555
C7J C4J 1_555 1_555
C8E C5E 1_555 1_555
C8K C5K 1_555 1_555
H4E C8E 1_555 1_555
H4K C8K 1_555 1_555
Zn2A O2A 1_555 1_555
Zn2B O2B 1_555 1_555
C9E N1 1_555 1_555
C9K N1 1_555 1_555
C10E C13E 1_555 1_555
C10K C13K 1_555 1_555
C11E C9E 1_555 1_555
C11K C9K 1_555 1_555
H5E C11E 1_555 1_555
H5K C11K 1_555 1_555
C12G H6G 1_555 1_555
C12J H6J 1_555 1_555
C13E C18E 1_555 1_555
C13K C18K 1_555 1_555
C14G H7G 1_555 1_555
C14J H7J 1_555 1_555
C15G C14G 1_555 1_555
C15J C14J 1_555 1_555
H8G C15G 1_555 1_555
H8J C15J 1_555 1_555
C16G C6G 1_555 1_555
C16J C6J 1_555 1_555
H9G C16G 1_555 1_555
H9J C16J 1_555 1_555
C17E C2E 1_555 1_555
C17K C2K 1_555 1_555
H10E C17E 1_555 1_555
H10K C17K 1_555 1_555
C18E C11E 1_555 1_555
C18K C11K 1_555 1_555
H11E C18E 1_555 1_555
H11K C18K 1_555 1_555
C19G C3G 1_555 1_555
C19J C3J 1_555 1_555
H12G C19G 1_555 1_555
H12J C19J 1_555 1_555
C20E C9E 1_555 1_555
C20K C9K 1_555 1_555
H13E C20E 1_555 1_555
H13K C20K 1_555 1_555
C21G C15G 1_555 1_555
C21J C15J 1_555 1_555
C22G C12G 1_555 1_555
C22J C12J 1_555 1_555
H14G C22G 1_555 1_555
H14J C22J 1_555 1_555
C23G N2 1_555 1_555
C23J N2 1_555 1_555
C24E C13E 1_555 1_555
C24K C13K 1_555 1_555
H15E C24E 1_555 1_555
H15K C24K 1_555 1_555
C25G C16G 1_555 1_555
C25J C16J 1_555 1_555
C26E C8E 1_555 1_555
C26K C8K 1_555 1_555
H16E C26E 1_555 1_555
H16K C26K 1_555 1_555
C2 C5 1_555 1_555
O3 Zn2 1_555 1_555
O5 Zn1H 1_555 1_555
C4 C7 1_555 1_555
C10 C17 1_555 1_555
C10 C26 1_555 1_555
C14 C23 1_555 1_555
C19 C25 1_555 1_555
C20 C24 1_555 1_555
C21 C22 1_555 1_555
C21 C25 1_555 1_555
C2E C5E 1_555 1_555
C2K C5K 1_555 1_555
O3E Zn2A 1_555 1_555
O3K Zn2B 1_555 1_555
C10E C17E 1_555 1_555
C10E C26E 1_555 1_555
C10K C17K 1_555 1_555
C10K C26K 1_555 1_555
C12G C23G 1_555 1_555
C12J C23J 1_555 1_555
C14G C23G 1_555 1_555
C14J C23J 1_555 1_555
C19G C25G 1_555 1_555
C19J C25J 1_555 1_555
C20E C24E 1_555 1_555
C20K C24K 1_555 1_555
C21G C22G 1_555 1_555
C21G C25G 1_555 1_555
C21J C22J 1_555 1_555
C21J C25J 1_555 1_555

#END
