
#######################################################################
#
#                 Cambridge Crystallographic Data Centre
#                                CCDC 
#
#######################################################################
#
# If this CIF has been generated from an entry in the Cambridge 
# Structural Database, then it will include bibliographic, chemical, 
# crystal, experimental, refinement or atomic coordinate data resulting 
# from the CCDC's data processing and validation procedures.
#
#######################################################################

data_UDIHOF
_chemical_formula_moiety         
'(C48 H30 N6 Ni3 O16 2-)n,2n(H3 O1 1+),5n(C3 H7 N1 O1)'
_chemical_name_systematic        
'catena-(bis(Oxonium) bis(\m~6~-1,3,5-triazine-2,4,6-tricarboxylato)-(\m~3~-oxo)-triaqua-tri-nickel(ii) dimethylformamide solvate)'
_symmetry_cell_setting           monoclinic
_symmetry_space_group_name_H-M   'C 2/m'
_symmetry_Int_Tables_number      12
_space_group_name_Hall           '-C 2y'
loop_
_symmetry_equiv_pos_site_id
_symmetry_equiv_pos_as_xyz
1 x,y,z
2 1/2+x,1/2+y,z
3 -x,y,-z
4 1/2-x,1/2+y,-z
5 -x,-y,-z
6 1/2-x,1/2-y,-z
7 x,-y,z
8 1/2+x,1/2-y,z
_cell_length_a                   30.175(3)
_cell_length_b                   21.108(3)
_cell_length_c                   16.762(2)
_cell_angle_alpha                90
_cell_angle_beta                 123.188(2)
_cell_angle_gamma                90
_cell_volume                     8934.76
_exptl_crystal_colour            'light green'
_exptl_crystal_description       block
_cell_formula_units_Z            4
loop_
_atom_site_label
_atom_site_type_symbol
_atom_site_fract_x
_atom_site_fract_y
_atom_site_fract_z
Ni1 Ni 0.100347(15) 0.5000 0.02915(3)
Ni2 Ni 0.223086(18) 0.5000 0.04689(3)
Ni3 Ni 0.601310(17) 0.0000 0.82564(3)
O1 O 0.14963(7) 0.43187(10) 0.12656(14)
O2 O 0.55849(14) 0.0000 0.6753(2)
O3 O 0.22715(9) 0.43095(13) 0.13918(16)
O4 O 0.06228(11) 0.5000 0.1045(2)
O5 O 0.54737(7) 0.06862(9) 0.94131(13)
O6 O 0.30810(17) 0.5000 0.1311(3)
O7 O 0.55058(9) 0.07028(13) 0.81197(16)
O8 O 0.14886(8) 0.43214(13) 0.82208(17)
O9 O 0.22728(9) 0.43179(12) 0.96207(15)
O10 O 0.14273(7) 0.5000 -0.03099(13)
N1 N 0.33523(10) 0.27830(12) 0.58743(17)
N2 N 0.33551(10) 0.27920(13) 0.72949(17)
N3 N 0.26692(10) 0.33151(13) 0.59047(18)
C1 C 0.19733(12) 0.41949(14) 0.1680(2)
C2 C 0.22153(11) 0.38826(15) 0.26482(19)
C3 C 0.26934(13) 0.35413(18) 0.3077(2)
H1 H 0.2864 0.3492 0.2758
C4 C 0.29121(13) 0.32761(17) 0.3983(2)
H2 H 0.3218 0.3033 0.4252
C5 C 0.26733(12) 0.33762(15) 0.4476(2)
C6 C 0.21975(14) 0.36988(18) 0.4033(2)
H3 H 0.2027 0.3750 0.4353
C7 C 0.19688(12) 0.39456(17) 0.3132(2)
H4 H 0.1646 0.4156 0.2848
C8 C 0.29119(12) 0.31354(14) 0.5470(2)
C9 C 0.53251(10) 0.08719(14) 0.8602(2)
C10 C 0.26639(13) 0.33640(15) 0.7327(2)
C11 C 0.29411(16) 0.3372(2) 0.8308(2)
H5 H 0.3280 0.3200 0.8664
C12 C 0.42138(14) 0.19558(17) 0.8163(2)
H6 H 0.4055 0.2076 0.8483
C13 C 0.40213(12) 0.21900(16) 0.7264(2)
C14 C 0.42534(15) 0.1990(2) 0.6797(3)
H7 H 0.4123 0.2132 0.6181
C15 C 0.46834(16) 0.1575(2) 0.7236(3)
H8 H 0.4840 0.1449 0.6914
C16 C 0.35499(12) 0.26149(15) 0.6782(2)
C17 C 0.19704(13) 0.42032(16) 0.8749(2)
C18 C 0.22114(13) 0.38866(16) 0.8260(2)
C19 C 0.19318(15) 0.3849(2) 0.7289(3)
H9 H 0.1587 0.4003 0.6934
C20 C 0.27189(15) 0.3636(2) 0.8768(2)
H10 H 0.2914 0.3645 0.9431
C21 C 0.21500(16) 0.3586(3) 0.6816(3)
H11 H 0.1949 0.3561 0.6154
C22 C 0.46355(13) 0.15478(16) 0.8594(2)
H12 H 0.4760 0.1401 0.9205
C23 C 0.48793(10) 0.13496(14) 0.8139(2)
C24 C 0.29020(13) 0.31351(16) 0.6809(2)
Ni1A Ni 0.600347(15) 0.0000 1.02915(3)
Ni1A_2 Ni 0.600347(15) 1.0000 1.02915(3)
Ni2_2 Ni 0.223086(18) 0.5000 1.04689(3)
Ni3A Ni 0.101310(17) 0.5000 0.82564(3)
Ni3A_2 Ni 0.101310(17) 0.5000 -0.17436(3)
Ni3_2 Ni 0.601310(17) 1.0000 0.82564(3)
O1F O 0.14963(7) 0.56813(10) 0.12656(14)
O3F O 0.22715(9) 0.56905(13) 0.13918(16)
O5F O 0.54737(7) 0.93138(9) 0.94131(13)
O5A O 0.04737(7) 0.56862(9) -0.05869(13)
O5G O 0.04737(7) 0.43138(9) -0.05869(13)
O7F O 0.55058(9) 0.92972(13) 0.81197(16)
O7F_2 O 0.55058(9) -0.07028(13) 0.81197(16)
O8F O 0.14886(8) 0.56786(13) 0.82208(17)
O8A O 0.64886(8) -0.06786(13) 0.82208(17)
O8G O 0.64886(8) 0.06786(13) 0.82208(17)
O9F O 0.22728(9) 0.56821(12) 0.96207(15)
O9_2 O 0.22728(9) 0.43179(12) -0.03793(15)
O9F_2 O 0.22728(9) 0.56821(12) -0.03793(15)
O10A O 0.64273(7) 0.0000 0.96901(13)
N1F N 0.33523(10) 0.72170(12) 0.58743(17)
N2F N 0.33551(10) 0.72080(13) 0.72949(17)
N3F N 0.26692(10) 0.66849(13) 0.59047(18)
C1F C 0.19733(12) 0.58051(14) 0.1680(2)
C2F C 0.22153(11) 0.61174(15) 0.26482(19)
C3F C 0.26934(13) 0.64587(18) 0.3077(2)
H1F H 0.2864 0.6508 0.2758
C4F C 0.29121(13) 0.67239(17) 0.3983(2)
H2F H 0.3218 0.6967 0.4252
C5F C 0.26733(12) 0.66238(15) 0.4476(2)
C6F C 0.21975(14) 0.63012(18) 0.4033(2)
H3F H 0.2027 0.6250 0.4353
C7F C 0.19688(12) 0.60544(17) 0.3132(2)
H4F H 0.1646 0.5844 0.2848
C8F C 0.29119(12) 0.68646(14) 0.5470(2)
C9F C 0.53251(10) 0.91281(14) 0.8602(2)
C10F C 0.26639(13) 0.66360(15) 0.7327(2)
C11F C 0.29411(16) 0.6628(2) 0.8308(2)
H5F H 0.3280 0.6800 0.8664
C12F C 0.42138(14) 0.80442(17) 0.8163(2)
H6F H 0.4055 0.7924 0.8483
C13F C 0.40213(12) 0.78100(16) 0.7264(2)
C14F C 0.42534(15) 0.8010(2) 0.6797(3)
H7F H 0.4123 0.7868 0.6181
C15F C 0.46834(16) 0.8425(2) 0.7236(3)
H8F H 0.4840 0.8551 0.6914
C16F C 0.35499(12) 0.73851(15) 0.6782(2)
C17F C 0.19704(13) 0.57968(16) 0.8749(2)
C18F C 0.22114(13) 0.61134(16) 0.8260(2)
C19F C 0.19318(15) 0.6151(2) 0.7289(3)
H9F H 0.1587 0.5997 0.6934
C20F C 0.27189(15) 0.6364(2) 0.8768(2)
H10F H 0.2914 0.6355 0.9431
C21F C 0.21500(16) 0.6414(3) 0.6816(3)
H11F H 0.1949 0.6439 0.6154
C22F C 0.46355(13) 0.84522(16) 0.8594(2)
H12F H 0.4760 0.8599 0.9205
C23F C 0.48793(10) 0.86504(14) 0.8139(2)
C24F C 0.29020(13) 0.68649(16) 0.6809(2)
loop_
_geom_bond_atom_site_label_1
_geom_bond_atom_site_label_2
_geom_bond_site_symmetry_1
_geom_bond_site_symmetry_2
Ni1 O1 1_555 1_555
Ni2 O3 1_555 1_555
Ni3 O2 1_555 1_555
O1 C1 1_555 1_555
O3 C1 1_555 1_555
O4 Ni1 1_555 1_555
O5 C9 1_555 1_555
O6 Ni2 1_555 1_555
O7 Ni3 1_555 1_555
O8 C17 1_555 1_555
O9 C17 1_555 1_555
O10 Ni1 1_555 1_555
N1 C8 1_555 1_555
N2 C16 1_555 1_555
N3 C8 1_555 1_555
C1 C2 1_555 1_555
C2 C3 1_555 1_555
C3 H1 1_555 1_555
C4 C3 1_555 1_555
H2 C4 1_555 1_555
C5 C4 1_555 1_555
C6 C5 1_555 1_555
H3 C6 1_555 1_555
C7 C2 1_555 1_555
H4 C7 1_555 1_555
C8 C5 1_555 1_555
C9 O7 1_555 1_555
C10 C11 1_555 1_555
C11 H5 1_555 1_555
C12 H6 1_555 1_555
C13 C12 1_555 1_555
C14 C13 1_555 1_555
H7 C14 1_555 1_555
C15 C14 1_555 1_555
H8 C15 1_555 1_555
C16 N1 1_555 1_555
C17 C18 1_555 1_555
C18 C19 1_555 1_555
C19 H9 1_555 1_555
C20 C11 1_555 1_555
H10 C20 1_555 1_555
C21 C10 1_555 1_555
H11 C21 1_555 1_555
C22 C12 1_555 1_555
H12 C22 1_555 1_555
C23 C9 1_555 1_555
C24 N2 1_555 1_555
Ni1A O5 1_555 1_555
Ni1A_2 O5F 1_555 1_555
Ni2_2 O9 1_555 1_555
Ni3A O8 1_555 1_555
Ni3A_2 O10 1_555 1_555
Ni3_2 O7F 1_555 1_555
O1F Ni1 1_555 1_555
O3F Ni2 1_555 1_555
O5F C9F 1_555 1_555
O5A Ni1 1_555 1_555
O5G Ni1 1_555 1_555
O7F C9F 1_555 1_555
O7F_2 Ni3 1_555 1_555
O8F Ni3A 1_555 1_555
O8A Ni3 1_555 1_555
O8G Ni3 1_555 1_555
O9F Ni2_2 1_555 1_555
O9_2 Ni2 1_555 1_555
O9F_2 Ni2 1_555 1_555
O10A Ni3 1_555 1_555
N1F C8F 1_555 1_555
N2F C16F 1_555 1_555
N3F C8F 1_555 1_555
C1F O1F 1_555 1_555
C2F C1F 1_555 1_555
C3F C2F 1_555 1_555
H1F C3F 1_555 1_555
C4F C3F 1_555 1_555
H2F C4F 1_555 1_555
C5F C4F 1_555 1_555
C6F C5F 1_555 1_555
H3F C6F 1_555 1_555
C7F C2F 1_555 1_555
H4F C7F 1_555 1_555
C8F C5F 1_555 1_555
C9F C23F 1_555 1_555
C10F C11F 1_555 1_555
C11F H5F 1_555 1_555
C12F H6F 1_555 1_555
C13F C12F 1_555 1_555
C14F C13F 1_555 1_555
H7F C14F 1_555 1_555
C15F C14F 1_555 1_555
H8F C15F 1_555 1_555
C16F N1F 1_555 1_555
C17F O8F 1_555 1_555
C18F C17F 1_555 1_555
C19F C18F 1_555 1_555
H9F C19F 1_555 1_555
C20F C11F 1_555 1_555
H10F C20F 1_555 1_555
C21F C10F 1_555 1_555
H11F C21F 1_555 1_555
C22F C12F 1_555 1_555
H12F C22F 1_555 1_555
C23F C15F 1_555 1_555
C24F N2F 1_555 1_555
Ni2 O10 1_555 1_555
N3 C24 1_555 1_555
C6 C7 1_555 1_555
C10 C24 1_555 1_555
C13 C16 1_555 1_555
C15 C23 1_555 1_555
C18 C20 1_555 1_555
C19 C21 1_555 1_555
C22 C23 1_555 1_555
Ni1A O10A 1_555 1_555
O3F C1F 1_555 1_555
O9F C17F 1_555 1_555
N3F C24F 1_555 1_555
C6F C7F 1_555 1_555
C10F C24F 1_555 1_555
C13F C16F 1_555 1_555
C18F C20F 1_555 1_555
C19F C21F 1_555 1_555
C22F C23F 1_555 1_555

#END
