
#######################################################################
#
#                 Cambridge Crystallographic Data Centre
#                                CCDC 
#
#######################################################################
#
# If this CIF has been generated from an entry in the Cambridge 
# Structural Database, then it will include bibliographic, chemical, 
# crystal, experimental, refinement or atomic coordinate data resulting 
# from the CCDC's data processing and validation procedures.
#
#######################################################################

data_QUJRUK
_chemical_formula_moiety         '(C9 H5 Cu1 N5 O4)n'
_chemical_name_systematic        
'catena-[(\m-5-(5-amino-1H-tetrazol-1-yl)isophthalato)-copper unknown solvate]'
_symmetry_cell_setting           orthorhombic
_symmetry_space_group_name_H-M   'P b c n'
_symmetry_Int_Tables_number      60
_space_group_name_Hall           '-P 2n 2ab'
loop_
_symmetry_equiv_pos_site_id
_symmetry_equiv_pos_as_xyz
1 x,y,z
2 1/2-x,1/2-y,1/2+z
3 1/2+x,1/2-y,-z
4 -x,y,1/2-z
5 -x,-y,-z
6 1/2+x,1/2+y,1/2-z
7 1/2-x,1/2+y,z
8 x,-y,1/2+z
_cell_length_a                   12.1905(11)
_cell_length_b                   14.4177(13)
_cell_length_c                   20.4894(19)
_cell_angle_alpha                90
_cell_angle_beta                 90
_cell_angle_gamma                90
_cell_volume                     3601.2
_exptl_crystal_colour            green
_exptl_crystal_description       block
_cell_formula_units_Z            8
loop_
_atom_site_label
_atom_site_type_symbol
_atom_site_fract_x
_atom_site_fract_y
_atom_site_fract_z
_atom_site_U_iso_or_equiv
_atom_site_thermal_displace_type
C1 C 0.1411(5) 0.3672(4) 0.4462(3) 0.0377 Uani
C2 C 0.2430(5) 0.3752(4) 0.5559(3) 0.0423 Uani
C3 C 0.1758(5) 0.4420(5) 0.5885(3) 0.0473 Uani
H1 H 0.1298 0.4818 0.5655 0.0570 Uiso
C4 C 0.1825(5) 0.4448(4) 0.6561(3) 0.0390 Uani
C5 C 0.2511(4) 0.3823(4) 0.6896(3) 0.0383 Uani
H2 H 0.2529 0.3829 0.7349 0.0460 Uiso
C6 C 0.3149(5) 0.3210(4) 0.6562(3) 0.0377 Uani
C7 C 0.3113(5) 0.3203(5) 0.5882(3) 0.0447 Uani
H3 H 0.3575 0.2807 0.5652 0.0540 Uiso
C8 C 0.3864(5) 0.2553(4) 0.6932(3) 0.0347 Uani
C9 C 0.1124(5) 0.5133(4) 0.6932(3) 0.0327 Uani
Cu1 Cu 0.07196(6) 0.63494(5) 0.79985(4) 0.0278 Uani
N1 N 0.1767(4) 0.3649(3) 0.3860(2) 0.0353 Uani
N2 N 0.2898(5) 0.3675(4) 0.3872(3) 0.0547 Uani
N3 N 0.3254(5) 0.3703(4) 0.4463(3) 0.0490 Uani
N4 N 0.2315(5) 0.3706(3) 0.4861(2) 0.0447 Uani
N5 N 0.0362(5) 0.3666(4) 0.4690(3) 0.0617 Uani
H4 H -0.0179 0.3643 0.4421 0.0740 Uiso
H5 H 0.0240 0.3684 0.5104 0.0740 Uiso
O1 O 0.4696(3) 0.2246(3) 0.66187(19) 0.0413 Uani
O2 O 0.3557(3) 0.2331(3) 0.74834(19) 0.0403 Uani
O3 O 0.1460(3) 0.5386(3) 0.74760(19) 0.0383 Uani
O4 O 0.0258(3) 0.5390(3) 0.66489(19) 0.0403 Uani
Cu1C Cu -0.07196(6) 0.63494(5) 0.70015(4) 0.0278 Uani
Cu1E Cu 0.57196(6) 0.13494(5) 0.70015(4) 0.0278 Uani
Cu1F Cu 0.42804(6) 0.13494(5) 0.79985(4) 0.0278 Uani
Cu1G Cu 0.07196(6) 0.36506(5) 0.29985(4) 0.0278 Uani
N1G N 0.1767(4) 0.6351(3) 0.8860(2) 0.0353 Uani
O1E O -0.0304(3) 0.7246(3) 0.83813(19) 0.0413 Uani
O2F O 0.1443(3) 0.7331(3) 0.74834(19) 0.0403 Uani
O4C O -0.0258(3) 0.5390(3) 0.83511(19) 0.0403 Uani
loop_
_atom_site_aniso_label
_atom_site_aniso_U_11
_atom_site_aniso_U_22
_atom_site_aniso_U_33
_atom_site_aniso_U_23
_atom_site_aniso_U_13
_atom_site_aniso_U_12
C1 0.037(3) 0.043(3) 0.033(3) -0.004(2) -0.008(2) 0.015(3)
C2 0.046(3) 0.055(4) 0.026(3) 0.003(2) -0.006(2) 0.021(3)
C3 0.064(4) 0.049(4) 0.029(3) -0.007(3) -0.012(3) 0.021(3)
C4 0.056(4) 0.034(3) 0.027(3) 0.003(2) -0.005(2) 0.007(3)
C5 0.032(3) 0.065(4) 0.018(3) 0.001(2) -0.0036(19) 0.011(3)
C6 0.049(3) 0.028(3) 0.036(3) 0.005(2) -0.001(2) 0.004(2)
C7 0.053(4) 0.044(4) 0.037(3) -0.006(3) 0.007(3) 0.007(3)
C8 0.040(3) 0.023(3) 0.041(4) -0.005(2) -0.002(2) 0.005(2)
C9 0.048(3) 0.026(3) 0.024(3) -0.001(2) -0.003(2) 0.007(2)
Cu1 0.0323(5) 0.0260(5) 0.0250(5) 0.0000(3) 0.0012(3) -0.0005(3)
N1 0.038(3) 0.047(3) 0.021(2) -0.0002(19) -0.0006(18) 0.008(2)
N2 0.065(4) 0.068(4) 0.031(3) 0.000(2) -0.004(3) 0.031(3)
N3 0.051(3) 0.069(4) 0.027(3) -0.001(2) -0.005(2) 0.019(3)
N4 0.060(3) 0.053(3) 0.021(3) -0.0029(19) 0.001(2) 0.030(3)
N5 0.045(3) 0.099(5) 0.041(3) -0.007(3) -0.004(3) 0.001(3)
O1 0.044(2) 0.048(2) 0.032(2) 0.0050(17) 0.0016(17) 0.0158(19)
O2 0.053 0.041 0.027 0.0064 0.0047 0.0108
O3 0.045(2) 0.033(2) 0.037(2) -0.0055(16) -0.0046(18) 0.0098(17)
O4 0.045(2) 0.041(2) 0.035(2) -0.0151(17) -0.0042(18) 0.0149(19)
Cu1C 0.0323 0.026 0.025 0 0.0012 0.0005
Cu1E 0.0323 0.026 0.025 0 -0.0012 -0.0005
Cu1F 0.0323 0.026 0.025 0 -0.0012 0.0005
Cu1G 0.0323 0.026 0.025 0 0.0012 0.0005
N1G 0.038 0.047 0.021 0.0002 -0.0006 -0.008
O1E 0.044 0.048 0.032 -0.005 -0.0016 0.0158
O2F 0.053 0.041 0.027 0.0064 -0.0047 -0.0108
O4C 0.045 0.041 0.035 0.0151 -0.0042 -0.0149
loop_
_geom_bond_atom_site_label_1
_geom_bond_atom_site_label_2
_geom_bond_site_symmetry_1
_geom_bond_site_symmetry_2
C1 N1 1_555 1_555
C2 C3 1_555 1_555
C3 H1 1_555 1_555
C4 C3 1_555 1_555
C5 C4 1_555 1_555
H2 C5 1_555 1_555
C6 C5 1_555 1_555
C7 C2 1_555 1_555
H3 C7 1_555 1_555
C8 C6 1_555 1_555
C9 C4 1_555 1_555
Cu1 O3 1_555 1_555
N1 N2 1_555 1_555
N2 N3 1_555 1_555
N3 N4 1_555 1_555
N4 C1 1_555 1_555
N5 C1 1_555 1_555
H4 N5 1_555 1_555
H5 N5 1_555 1_555
O1 C8 1_555 1_555
O2 C8 1_555 1_555
O3 C9 1_555 1_555
O4 C9 1_555 1_555
Cu1C Cu1 1_555 1_555
Cu1E O1 1_555 1_555
Cu1F O2 1_555 1_555
Cu1G N1 1_555 1_555
N1G Cu1 1_555 1_555
O1E Cu1 1_555 1_555
O2F Cu1 1_555 1_555
O4C Cu1 1_555 1_555
C2 N4 1_555 1_555
C6 C7 1_555 1_555
O4 Cu1C 1_555 1_555
Cu1E Cu1F 1_555 1_555

#END
