
#######################################################################
#
#                 Cambridge Crystallographic Data Centre
#                                CCDC 
#
#######################################################################
#
# If this CIF has been generated from an entry in the Cambridge 
# Structural Database, then it will include bibliographic, chemical, 
# crystal, experimental, refinement or atomic coordinate data resulting 
# from the CCDC's data processing and validation procedures.
#
#######################################################################

data_WIRNAO
_chemical_formula_moiety         '(C10 H10 Cu2 N4 O2)n,n(C6 H6)'
_chemical_name_systematic        
'catena-((\m~4~-Benzodi-imidazolato)-bis(\m~2~-methoxo)-di-copper benzene solvate)'
_symmetry_cell_setting           monoclinic
_symmetry_space_group_name_H-M   'C 2/m'
_symmetry_Int_Tables_number      12
_space_group_name_Hall           '-C 2y'
loop_
_symmetry_equiv_pos_site_id
_symmetry_equiv_pos_as_xyz
1 x,y,z
2 -x,y,-z
3 1/2+x,1/2+y,z
4 1/2-x,1/2+y,-z
5 -x,-y,-z
6 x,-y,z
7 1/2-x,1/2-y,-z
8 1/2+x,1/2-y,z
_cell_length_a                   16.377(3)
_cell_length_b                   12.209(2)
_cell_length_c                   10.2681(18)
_cell_angle_alpha                90
_cell_angle_beta                 127.226(2)
_cell_angle_gamma                90
_cell_volume                     1634.77
_cell_formula_units_Z            4
loop_
_atom_site_label
_atom_site_type_symbol
_atom_site_fract_x
_atom_site_fract_y
_atom_site_fract_z
Cu1 Cu 0.46137(4) 0.5000 0.82284(7)
O1 O 0.5000 0.5966(3) 1.0000
N1 N 0.4214(2) 0.3807(2) 0.6686(4)
C1 C 0.5000 0.7136(4) 1.0000
C2 C 0.4778(3) 0.3247(3) 0.6372(4)
C3 C 0.3299(3) 0.3226(3) 0.5895(4)
N2 N 0.4332(2) 0.2347(2) 0.5450(4)
H1 H 0.5449 0.3471 0.6773
C4 C 0.3369(3) 0.2316(3) 0.5115(4)
C5 C 0.2426(3) 0.3432(3) 0.5804(4)
Cu2 Cu 0.5000 0.12436(5) 0.5000
H2 H 0.2379 0.4040 0.6334
O2 O 0.4657(3) 0.0000 0.5746(4)
C6 C 0.4692(4) 0.0000 0.7174(7)
N1F N 0.0786(2) 0.1193(2) 0.3314(4)
C2F C 0.0222(3) 0.1753(3) 0.3628(4)
C3F C 0.1701(3) 0.1774(3) 0.4105(4)
N2F N 0.0668(2) 0.2653(2) 0.4550(4)
H1F H -0.0449 0.1529 0.3227
C4F C 0.1631(3) 0.2684(3) 0.4885(4)
C5F C 0.2574(3) 0.1568(3) 0.4196(4)
H2F H 0.2621 0.0960 0.3666
Cu1A Cu 0.53863(4) 0.5000 1.17716(7)
Cu1C Cu 0.03863(4) 0.0000 0.17716(7)
O1D O 0.5000 0.4034(3) 1.0000
N1E N 0.4214(2) 0.6193(2) 0.6686(4)
N2A N 0.5668(2) 0.2347(2) 0.4550(4)
Cu2D Cu 0.5000 -0.12436(5) 0.5000
Cu2F Cu 0.0000 0.37564(5) 0.5000
O2A O 0.5343(3) 0.0000 0.4254(4)
C7 C 0.2538(4) 0.1123(5) 0.9094(7)
H3 H 0.2552 0.1901 0.9114
C8 C 0.2308(4) 0.0555(5) 1.0006(7)
H4 H 0.2151 0.0944 1.0630
C9 C 0.2746(3) 0.0559(4) 0.8158(5)
H5 H 0.2889 0.0948 0.7516
C7E C 0.2538(4) -0.1123(5) 0.9094(7)
H3E H 0.2552 -0.1901 0.9114
C8E C 0.2308(4) -0.0555(5) 1.0006(7)
H4E H 0.2151 -0.0944 1.0630
C9E C 0.2746(3) -0.0559(4) 0.8158(5)
H5E H 0.2889 -0.0948 0.7516
H6? H 0.4104 0.0410 0.6949
H7? H 0.4664 -0.0756 0.7467
H8? H 0.5330 0.0345 0.8082
H9? H 0.5447 0.7403 0.9734
H10? H 0.4300 0.7403 0.9182
H11? H 0.5252 0.7403 1.1084
loop_
_geom_bond_atom_site_label_1
_geom_bond_atom_site_label_2
_geom_bond_site_symmetry_1
_geom_bond_site_symmetry_2
Cu1 O1 1_555 1_555
O1 C1 1_555 1_555
N1 Cu1 1_555 1_555
C2 N1 1_555 1_555
C3 N1 1_555 1_555
N2 C2 1_555 1_555
H1 C2 1_555 1_555
C4 C3 1_555 1_555
C5 C3 1_555 1_555
Cu2 N2 1_555 1_555
H2 C5 1_555 1_555
O2 Cu2 1_555 1_555
C6 O2 1_555 1_555
C7 H3 1_555 1_555
C8 C7 1_555 1_555
H4 C8 1_555 1_555
C9 C7 1_555 1_555
H5 C9 1_555 1_555
N1F C2F 1_555 1_555
C2F N2F 1_555 1_555
C3F N1F 1_555 1_555
N2F C4F 1_555 1_555
H1F C2F 1_555 1_555
C4F C5 1_555 1_555
C5F C4 1_555 1_555
H2F C5F 1_555 1_555
Cu1A O1 1_555 1_555
Cu1C N1F 1_555 1_555
O1D Cu1 1_555 1_555
N1E Cu1 1_555 1_555
N2A Cu2 1_555 1_555
Cu2D O2 1_555 1_555
Cu2F N2F 1_555 1_555
O2A Cu2 1_555 1_555
C7E H3E 1_555 1_555
C8E C8 1_555 1_555
H4E C8E 1_555 1_555
C9E C9 1_555 1_555
H5E C9E 1_555 1_555
N2 C4 1_555 1_555
C3F C4F 1_555 1_555
C3F C5F 1_555 1_555
Cu1A O1D 1_555 1_555
Cu2D O2A 1_555 1_555
C7E C8E 1_555 1_555
C7E C9E 1_555 1_555

#END
