
#######################################################################
#
#                 Cambridge Crystallographic Data Centre
#                                CCDC 
#
#######################################################################
#
# If this CIF has been generated from an entry in the Cambridge 
# Structural Database, then it will include bibliographic, chemical, 
# crystal, experimental, refinement or atomic coordinate data resulting 
# from the CCDC's data processing and validation procedures.
#
#######################################################################

data_LUKLIN
_chemical_formula_moiety         '(C42 H24 Cu3 O15)n'
_chemical_name_systematic        
catena-(bis(\m~6~-triphenylene-2,6,10-tricarboxylato)-tri-aqua-tri-copper)
_symmetry_cell_setting           cubic
_symmetry_space_group_name_H-M   'F 4 3 2'
_symmetry_Int_Tables_number      209
_space_group_name_Hall           'F 4 2 3'
loop_
_symmetry_equiv_pos_site_id
_symmetry_equiv_pos_as_xyz
1 x,y,z
2 -y,x,z
3 -x,-y,z
4 y,-x,z
5 x,-z,y
6 x,-y,-z
7 x,z,-y
8 z,y,-x
9 -x,y,-z
10 -z,y,x
11 z,x,y
12 y,z,x
13 -y,-z,x
14 z,-x,-y
15 -y,z,-x
16 -z,-x,y
17 -z,x,-y
18 y,-z,-x
19 y,x,-z
20 -y,-x,-z
21 -x,z,y
22 -x,-z,-y
23 z,-y,x
24 -z,-y,-x
25 x,1/2+y,1/2+z
26 -y,1/2+x,1/2+z
27 -x,1/2-y,1/2+z
28 y,1/2-x,1/2+z
29 x,1/2-z,1/2+y
30 x,1/2-y,1/2-z
31 x,1/2+z,1/2-y
32 z,1/2+y,1/2-x
33 -x,1/2+y,1/2-z
34 -z,1/2+y,1/2+x
35 z,1/2+x,1/2+y
36 y,1/2+z,1/2+x
37 -y,1/2-z,1/2+x
38 z,1/2-x,1/2-y
39 -y,1/2+z,1/2-x
40 -z,1/2-x,1/2+y
41 -z,1/2+x,1/2-y
42 y,1/2-z,1/2-x
43 y,1/2+x,1/2-z
44 -y,1/2-x,1/2-z
45 -x,1/2+z,1/2+y
46 -x,1/2-z,1/2-y
47 z,1/2-y,1/2+x
48 -z,1/2-y,1/2-x
49 1/2+x,y,1/2+z
50 1/2-y,x,1/2+z
51 1/2-x,-y,1/2+z
52 1/2+y,-x,1/2+z
53 1/2+x,-z,1/2+y
54 1/2+x,-y,1/2-z
55 1/2+x,z,1/2-y
56 1/2+z,y,1/2-x
57 1/2-x,y,1/2-z
58 1/2-z,y,1/2+x
59 1/2+z,x,1/2+y
60 1/2+y,z,1/2+x
61 1/2-y,-z,1/2+x
62 1/2+z,-x,1/2-y
63 1/2-y,z,1/2-x
64 1/2-z,-x,1/2+y
65 1/2-z,x,1/2-y
66 1/2+y,-z,1/2-x
67 1/2+y,x,1/2-z
68 1/2-y,-x,1/2-z
69 1/2-x,z,1/2+y
70 1/2-x,-z,1/2-y
71 1/2+z,-y,1/2+x
72 1/2-z,-y,1/2-x
73 1/2+x,1/2+y,z
74 1/2-y,1/2+x,z
75 1/2-x,1/2-y,z
76 1/2+y,1/2-x,z
77 1/2+x,1/2-z,y
78 1/2+x,1/2-y,-z
79 1/2+x,1/2+z,-y
80 1/2+z,1/2+y,-x
81 1/2-x,1/2+y,-z
82 1/2-z,1/2+y,x
83 1/2+z,1/2+x,y
84 1/2+y,1/2+z,x
85 1/2-y,1/2-z,x
86 1/2+z,1/2-x,-y
87 1/2-y,1/2+z,-x
88 1/2-z,1/2-x,y
89 1/2-z,1/2+x,-y
90 1/2+y,1/2-z,-x
91 1/2+y,1/2+x,-z
92 1/2-y,1/2-x,-z
93 1/2-x,1/2+z,y
94 1/2-x,1/2-z,-y
95 1/2+z,1/2-y,x
96 1/2-z,1/2-y,-x
_cell_length_a                   37.230(9)
_cell_length_b                   37.230(9)
_cell_length_c                   37.230(9)
_cell_angle_alpha                90
_cell_angle_beta                 90
_cell_angle_gamma                90
_cell_volume                     51603.5
_exptl_crystal_colour            blue
_exptl_crystal_description       block
_cell_formula_units_Z            16
loop_
_atom_site_label
_atom_site_type_symbol
_atom_site_fract_x
_atom_site_fract_y
_atom_site_fract_z
_atom_site_U_iso_or_equiv
_atom_site_thermal_displace_type
Cu1 Cu 0.225802(16) 0.225802(16) 0.5000 0.0939 Uani
O1 O 0.19512(14) 0.24709(13) 0.46388(14) 0.1140 Uani
C1 C 0.18587(17) 0.28780(18) 0.42175(15) 0.0870 Uani
O2 O 0.23486(13) 0.29174(8) 0.45945(11) 0.0804 Uani
C2 C 0.1965(2) 0.31769(15) 0.40203(17) 0.1273 Uani
H1 H 0.2176 0.3305 0.4087 0.1530 Uiso
O3 O 0.1840(2) 0.1840(2) 0.5000 2.0000 Uiso
H2 H 0.1638 0.1861 0.4845 2.4000 Uiso
C3 C 0.17659(16) 0.32888(15) 0.37270(11) 0.0733 Uani
C4 C 0.14475(16) 0.31060(13) 0.36318(15) 0.0787 Uani
C5 C 0.13348(15) 0.28076(17) 0.38357(16) 0.1053 Uani
H3 H 0.1120 0.2684 0.3776 0.1260 Uiso
C6 C 0.15428(16) 0.26960(19) 0.41264(14) 0.1057 Uani
H4 H 0.1469 0.2494 0.4264 0.1270 Uiso
C7 C 0.2074(2) 0.2754(2) 0.4524(2) 0.1057 Uani
Cu1IC Cu 0.0000 0.274198(16) 0.225802(16) 0.0939 Uani
Cu1JB Cu 0.274198(16) 0.5000 0.274198(16) 0.0939 Uani
Cu1VB Cu 0.274198(16) 0.274198(16) 0.5000 0.0939 Uani
Cu1CB Cu 0.0000 0.225802(16) 0.274198(16) 0.0939 Uani
Cu1D Cu 0.225802(16) 0.5000 0.225802(16) 0.0939 Uani
Cu1HC Cu 0.274198(16) 0.0000 0.774198(16) 0.0939 Uani
Cu1BA Cu 0.225802(16) 0.0000 0.725802(16) 0.0939 Uani
Cu1MA Cu 0.5000 0.274198(16) 0.725802(16) 0.0939 Uani
Cu1G Cu 0.5000 0.225802(16) 0.774198(16) 0.0939 Uani
O1IC O 0.03612(14) 0.30488(14) 0.24709(13) 0.1140 Uani
O1JB O 0.25291(13) 0.46388(14) 0.30488(14) 0.1140 Uani
O1R O 0.24709(13) 0.19512(14) 0.53612(14) 0.1140 Uani
O1OC O 0.30488(14) 0.03612(14) 0.75291(13) 0.1140 Uani
O1TA O 0.46388(14) 0.25291(13) 0.69512(14) 0.1140 Uani
O1PC O -0.03612(14) 0.25291(13) 0.19512(14) 0.1140 Uani
O1QB O 0.30488(14) 0.53612(14) 0.25291(13) 0.1140 Uani
C1IC C 0.07825(15) 0.31413(17) 0.28780(18) 0.0870 Uani
C1JB C 0.21220(18) 0.42175(15) 0.31413(17) 0.0870 Uani
C1R C 0.28780(18) 0.18587(17) 0.57825(15) 0.0870 Uani
C1OC C 0.31413(17) 0.07825(15) 0.71220(18) 0.0870 Uani
C1TA C 0.42175(15) 0.21220(18) 0.68587(17) 0.0870 Uani
O2IC O 0.04055(11) 0.26514(13) 0.29174(8) 0.0804 Uani
O2JB O 0.20826(8) 0.45945(11) 0.26514(13) 0.0804 Uani
O2R O 0.29174(8) 0.23486(13) 0.54055(11) 0.0804 Uani
O2OC O 0.26514(13) 0.04055(11) 0.70826(8) 0.0804 Uani
O2TA O 0.45945(11) 0.20826(8) 0.73486(13) 0.0804 Uani
O2VB O 0.26514(13) 0.20826(8) 0.45945(11) 0.0804 Uani
O2MC O 0.20826(8) 0.26514(13) 0.54055(11) 0.0804 Uani
O2LB O 0.04055(11) 0.23486(13) 0.20826(8) 0.0804 Uani
O2CB O -0.04055(11) 0.29174(8) 0.26514(13) 0.0804 Uani
O2K O 0.29174(8) 0.45945(11) 0.23486(13) 0.0804 Uani
O2D O 0.23486(13) 0.54055(11) 0.29174(8) 0.0804 Uani
C2IC C 0.09797(17) 0.3035(2) 0.31769(15) 0.1273 Uani
C2JB C 0.18231(15) 0.40203(17) 0.3035(2) 0.1273 Uani
C2R C 0.31769(15) 0.1965(2) 0.59797(17) 0.1273 Uani
C2OC C 0.3035(2) 0.09797(17) 0.68231(15) 0.1273 Uani
C2TA C 0.40203(17) 0.18231(15) 0.6965(2) 0.1273 Uani
H1JB H 0.1695 0.4087 0.2824 0.1530 Uiso
H1IC H 0.0913 0.2824 0.3305 0.1530 Uiso
H1R H 0.3305 0.2176 0.5913 0.1530 Uiso
H1TA H 0.4087 0.1695 0.7176 0.1530 Uiso
H1OC H 0.2824 0.0913 0.6695 0.1530 Uiso
O3IC O 0.0000 0.3160(2) 0.1840(2) 2.0000 Uiso
O3JB O 0.3160(2) 0.5000 0.3160(2) 2.0000 Uiso
H2R H 0.1861 0.1638 0.5155 2.4000 Uiso
H2IC H 0.0155 0.3362 0.1861 2.4000 Uiso
H2PC H -0.0155 0.3139 0.1638 2.4000 Uiso
H2JB H 0.3139 0.4845 0.3362 2.4000 Uiso
H2QB H 0.3362 0.5155 0.3139 2.4000 Uiso
C3IC C 0.12730(11) 0.32341(16) 0.32888(15) 0.0733 Uani
C3JB C 0.17112(15) 0.37270(11) 0.32341(16) 0.0733 Uani
C3R C 0.32888(15) 0.17659(16) 0.62730(11) 0.0733 Uani
C3OC C 0.32341(16) 0.12730(11) 0.67112(15) 0.0733 Uani
C3TA C 0.37270(11) 0.17112(15) 0.67659(16) 0.0733 Uani
C4IC C 0.13682(15) 0.35525(16) 0.31060(13) 0.0787 Uani
C4JB C 0.18940(13) 0.36318(15) 0.35525(16) 0.0787 Uani
C4R C 0.31060(13) 0.14475(16) 0.63682(15) 0.0787 Uani
C4OC C 0.35525(16) 0.13682(15) 0.68940(13) 0.0787 Uani
C4TA C 0.36318(15) 0.18940(13) 0.64475(16) 0.0787 Uani
C5IC C 0.11643(16) 0.36652(15) 0.28076(17) 0.1053 Uani
C5JB C 0.21924(17) 0.38357(16) 0.36652(15) 0.1053 Uani
C5R C 0.28076(17) 0.13348(15) 0.61643(16) 0.1053 Uani
C5OC C 0.36652(15) 0.11643(16) 0.71924(17) 0.1053 Uani
C5TA C 0.38357(16) 0.21924(17) 0.63348(15) 0.1053 Uani
H3JB H 0.2316 0.3776 0.3880 0.1260 Uiso
H3IC H 0.1224 0.3880 0.2684 0.1260 Uiso
H3R H 0.2684 0.1120 0.6224 0.1260 Uiso
H3TA H 0.3776 0.2316 0.6120 0.1260 Uiso
H3OC H 0.3880 0.1224 0.7316 0.1260 Uiso
C6IC C 0.08736(14) 0.34572(16) 0.26960(19) 0.1057 Uani
C6JB C 0.23040(19) 0.41264(14) 0.34572(16) 0.1057 Uani
C6R C 0.26960(19) 0.15428(16) 0.58736(14) 0.1057 Uani
C6OC C 0.34572(16) 0.08736(14) 0.73040(19) 0.1057 Uani
C6TA C 0.41264(14) 0.23040(19) 0.65428(16) 0.1057 Uani
H4JB H 0.2506 0.4264 0.3531 0.1270 Uiso
H4IC H 0.0736 0.3531 0.2494 0.1270 Uiso
H4R H 0.2494 0.1469 0.5736 0.1270 Uiso
H4TA H 0.4264 0.2506 0.6469 0.1270 Uiso
H4OC H 0.3531 0.0736 0.7506 0.1270 Uiso
C7IC C 0.0476(2) 0.2926(2) 0.2754(2) 0.1057 Uani
C7JB C 0.2246(2) 0.4524(2) 0.2926(2) 0.1057 Uani
C7R C 0.2754(2) 0.2074(2) 0.5476(2) 0.1057 Uani
C7OC C 0.2926(2) 0.0476(2) 0.7246(2) 0.1057 Uani
C7TA C 0.4524(2) 0.2246(2) 0.7074(2) 0.1057 Uani
loop_
_atom_site_aniso_label
_atom_site_aniso_U_11
_atom_site_aniso_U_22
_atom_site_aniso_U_33
_atom_site_aniso_U_23
_atom_site_aniso_U_13
_atom_site_aniso_U_12
Cu1 0.1054(6) 0.1054(6) 0.0710(6) 0.0003(6) -0.0003(6) -0.0344(5)
O1 0.113(3) 0.124(4) 0.105(3) -0.005(3) 0.001(3) -0.007(3)
C1 0.100(4) 0.101(4) 0.060(3) -0.048(3) 0.023(3) -0.025(3)
O2 0.137(3) 0.0303(17) 0.074(3) 0.0175(16) 0.033(3) -0.025(2)
C2 0.217(8) 0.060(4) 0.105(5) -0.028(3) -0.032(5) 0.007(4)
C3 0.098(4) 0.076(4) 0.046(2) 0.011(3) -0.024(3) -0.010(3)
C4 0.089(4) 0.072(3) 0.075(4) 0.006(3) 0.014(3) -0.024(3)
C5 0.073(3) 0.134(5) 0.109(4) 0.046(4) -0.031(3) -0.034(3)
C6 0.103(4) 0.157(6) 0.057(3) 0.052(4) -0.002(3) -0.044(4)
C7 0.091(5) 0.109(5) 0.117(6) 0.012(4) 0.015(4) -0.006(4)
Cu1IC 0.071 0.1054 0.1054 0.0344 -0.0003 -0.0003
Cu1JB 0.1054 0.071 0.1054 0.0003 -0.0344 -0.0003
Cu1VB 0.1054 0.1054 0.071 -0.0003 0.0003 -0.0344
Cu1CB 0.071 0.1054 0.1054 0.0344 0.0003 0.0003
Cu1D 0.1054 0.071 0.1054 -0.0003 -0.0344 0.0003
Cu1HC 0.1054 0.071 0.1054 0.0003 -0.0344 -0.0003
Cu1BA 0.1054 0.071 0.1054 -0.0003 -0.0344 0.0003
Cu1MA 0.071 0.1054 0.1054 0.0344 -0.0003 -0.0003
Cu1G 0.071 0.1054 0.1054 0.0344 0.0003 0.0003
O1IC 0.105 0.113 0.124 0.007 0.005 0.001
O1JB 0.124 0.105 0.113 -0.001 -0.007 0.005
O1R 0.124 0.113 0.105 -0.001 0.005 -0.007
O1OC 0.113 0.105 0.124 -0.005 -0.007 0.001
O1TA 0.105 0.124 0.113 0.007 0.001 0.005
O1PC 0.105 0.124 0.113 0.007 0.001 0.005
O1QB 0.113 0.105 0.124 -0.005 -0.007 0.001
C1IC 0.06 0.1 0.101 0.025 0.048 0.023
C1JB 0.101 0.06 0.1 -0.023 -0.025 0.048
C1R 0.101 0.1 0.06 -0.023 0.048 -0.025
C1OC 0.1 0.06 0.101 -0.048 -0.025 0.023
C1TA 0.06 0.101 0.1 0.025 0.023 0.048
O2IC 0.074 0.137 0.0303 0.025 -0.0175 0.033
O2JB 0.0303 0.074 0.137 -0.033 -0.025 -0.0175
O2R 0.0303 0.137 0.074 -0.033 -0.0175 -0.025
O2OC 0.137 0.074 0.0303 0.0175 -0.025 0.033
O2TA 0.074 0.0303 0.137 0.025 0.033 -0.0175
O2VB 0.137 0.0303 0.074 -0.0175 -0.033 -0.025
O2MC 0.0303 0.137 0.074 0.033 0.0175 -0.025
O2LB 0.074 0.137 0.0303 0.025 0.0175 -0.033
O2CB 0.074 0.0303 0.137 0.025 -0.033 0.0175
O2K 0.0303 0.074 0.137 0.033 -0.025 0.0175
O2D 0.137 0.074 0.0303 -0.0175 -0.025 -0.033
C2IC 0.105 0.217 0.06 -0.007 0.028 -0.032
C2JB 0.06 0.105 0.217 0.032 0.007 0.028
C2R 0.06 0.217 0.105 0.032 0.028 0.007
C2OC 0.217 0.105 0.06 -0.028 0.007 -0.032
C2TA 0.105 0.06 0.217 -0.007 -0.032 0.028
C3IC 0.046 0.098 0.076 0.01 -0.011 -0.024
C3JB 0.076 0.046 0.098 0.024 -0.01 -0.011
C3R 0.076 0.098 0.046 0.024 -0.011 -0.01
C3OC 0.098 0.046 0.076 0.011 -0.01 -0.024
C3TA 0.046 0.076 0.098 0.01 -0.024 -0.011
C4IC 0.075 0.089 0.072 0.024 -0.006 0.014
C4JB 0.072 0.075 0.089 -0.014 -0.024 -0.006
C4R 0.072 0.089 0.075 -0.014 -0.006 -0.024
C4OC 0.089 0.075 0.072 0.006 -0.024 0.014
C4TA 0.075 0.072 0.089 0.024 0.014 -0.006
C5IC 0.109 0.073 0.134 0.034 -0.046 -0.031
C5JB 0.134 0.109 0.073 0.031 -0.034 -0.046
C5R 0.134 0.073 0.109 0.031 -0.046 -0.034
C5OC 0.073 0.109 0.134 0.046 -0.034 -0.031
C5TA 0.109 0.134 0.073 0.034 -0.031 -0.046
C6IC 0.057 0.103 0.157 0.044 -0.052 -0.002
C6JB 0.157 0.057 0.103 0.002 -0.044 -0.052
C6R 0.157 0.103 0.057 0.002 -0.052 -0.044
C6OC 0.103 0.057 0.157 0.052 -0.044 -0.002
C6TA 0.057 0.157 0.103 0.044 -0.002 -0.052
C7IC 0.117 0.091 0.109 0.006 -0.012 0.015
C7JB 0.109 0.117 0.091 -0.015 -0.006 -0.012
C7R 0.109 0.091 0.117 -0.015 -0.012 -0.006
C7OC 0.091 0.117 0.109 0.012 -0.006 0.015
C7TA 0.117 0.109 0.091 0.006 0.015 -0.012
loop_
_geom_bond_atom_site_label_1
_geom_bond_atom_site_label_2
_geom_bond_site_symmetry_1
_geom_bond_site_symmetry_2
Cu1 O1 1_555 1_555
O1 C7 1_555 1_555
C1 C2 1_555 1_555
O2 C7 1_555 1_555
C2 H1 1_555 1_555
O3 Cu1 1_555 1_555
H2 O3 1_555 1_555
C3 C2 1_555 1_555
C4 C3 1_555 1_555
C5 C4 1_555 1_555
H3 C5 1_555 1_555
C6 C1 1_555 1_555
H4 C6 1_555 1_555
C7 C1 1_555 1_555
Cu1IC Cu1CB 1_555 1_555
Cu1JB Cu1D 1_555 1_555
Cu1VB Cu1 1_555 1_555
Cu1CB O2IC 1_555 1_555
Cu1D O2JB 1_555 1_555
Cu1HC Cu1BA 1_555 1_555
Cu1BA O2OC 1_555 1_555
Cu1MA Cu1G 1_555 1_555
Cu1G O2TA 1_555 1_555
O1IC Cu1IC 1_555 1_555
O1JB Cu1JB 1_555 1_555
O1R Cu1 1_555 1_555
O1OC Cu1HC 1_555 1_555
O1TA Cu1MA 1_555 1_555
O1PC Cu1IC 1_555 1_555
O1QB Cu1JB 1_555 1_555
C1IC C2IC 1_555 1_555
C1JB C2JB 1_555 1_555
C1R C2R 1_555 1_555
C1OC C2OC 1_555 1_555
C1TA C2TA 1_555 1_555
O2IC C7IC 1_555 1_555
O2JB C7JB 1_555 1_555
O2R Cu1VB 1_555 1_555
O2OC C7OC 1_555 1_555
O2TA C7TA 1_555 1_555
O2VB Cu1 1_555 1_555
O2MC Cu1 1_555 1_555
O2LB Cu1IC 1_555 1_555
O2CB Cu1IC 1_555 1_555
O2K Cu1JB 1_555 1_555
O2D Cu1JB 1_555 1_555
C2IC H1IC 1_555 1_555
C2JB H1JB 1_555 1_555
C2R H1R 1_555 1_555
C2OC H1OC 1_555 1_555
C2TA H1TA 1_555 1_555
O3IC Cu1IC 1_555 1_555
O3JB Cu1JB 1_555 1_555
H2R O3 1_555 1_555
H2IC O3IC 1_555 1_555
H2PC O3IC 1_555 1_555
H2JB O3JB 1_555 1_555
H2QB O3JB 1_555 1_555
C3IC C4 1_555 1_555
C3JB C2JB 1_555 1_555
C3R C2R 1_555 1_555
C3OC C2OC 1_555 1_555
C3TA C2TA 1_555 1_555
C4IC C3IC 1_555 1_555
C4JB C3 1_555 1_555
C4R C3R 1_555 1_555
C4OC C3OC 1_555 1_555
C4TA C3R 1_555 1_555
C5IC C4IC 1_555 1_555
C5JB C4JB 1_555 1_555
C5R C4R 1_555 1_555
C5OC C4OC 1_555 1_555
C5TA C4TA 1_555 1_555
H3JB C5JB 1_555 1_555
H3IC C5IC 1_555 1_555
H3R C5R 1_555 1_555
H3TA C5TA 1_555 1_555
H3OC C5OC 1_555 1_555
C6IC C1IC 1_555 1_555
C6JB C1JB 1_555 1_555
C6R C1R 1_555 1_555
C6OC C1OC 1_555 1_555
C6TA C1TA 1_555 1_555
H4JB C6JB 1_555 1_555
H4IC C6IC 1_555 1_555
H4R C6R 1_555 1_555
H4TA C6TA 1_555 1_555
H4OC C6OC 1_555 1_555
C7IC O1IC 1_555 1_555
C7JB O1JB 1_555 1_555
C7R O1R 1_555 1_555
C7OC O1OC 1_555 1_555
C7TA O1TA 1_555 1_555
O2 Cu1VB 1_555 1_555
C5 C6 1_555 1_555
C1IC C7IC 1_555 1_555
C1JB C7JB 1_555 1_555
C1R C7R 1_555 1_555
C1OC C7OC 1_555 1_555
C1TA C7TA 1_555 1_555
O2R C7R 1_555 1_555
C2IC C3IC 1_555 1_555
C3JB C4IC 1_555 1_555
C3JB C4JB 1_555 1_555
C3OC C4R 1_555 1_555
C3TA C4OC 1_555 1_555
C3TA C4TA 1_555 1_555
C5IC C6IC 1_555 1_555
C5JB C6JB 1_555 1_555
C5R C6R 1_555 1_555
C5OC C6OC 1_555 1_555
C5TA C6TA 1_555 1_555

#END
