
#######################################################################
#
#                 Cambridge Crystallographic Data Centre
#                                CCDC 
#
#######################################################################
#
# If this CIF has been generated from an entry in the Cambridge 
# Structural Database, then it will include bibliographic, chemical, 
# crystal, experimental, refinement or atomic coordinate data resulting 
# from the CCDC's data processing and validation procedures.
#
#######################################################################

data_RAYKUZ
_chemical_formula_moiety         '(C32 H22 N4 O7 Zn1)n'
_chemical_name_systematic        
catena-[(\m~2~-N,N'-Di(pyridin-4-yl)biphenyl-4,4'-dicarboxamido)-(\m~2~-5-hydroxyisophthalato)-zinc]
_symmetry_cell_setting           hexagonal
_symmetry_space_group_name_H-M   'P 62 2 2'
_symmetry_Int_Tables_number      180
_space_group_name_Hall           'P 62 2 (0 0 4)'
loop_
_symmetry_equiv_pos_site_id
_symmetry_equiv_pos_as_xyz
1 x,y,z
2 x-y,x,1/3+z
3 -y,x-y,2/3+z
4 -x,-y,z
5 -x+y,-x,1/3+z
6 y,-x+y,2/3+z
7 -y,-x,2/3-z
8 x-y,-y,-z
9 x,x-y,1/3-z
10 y,x,2/3-z
11 -x+y,y,-z
12 -x,-x+y,1/3-z
_cell_length_a                   16.5744(2)
_cell_length_b                   16.5744(2)
_cell_length_c                   25.2582(9)
_cell_angle_alpha                90
_cell_angle_beta                 90
_cell_angle_gamma                120
_cell_volume                     6009.09
_exptl_crystal_colour            colorless
_exptl_crystal_description       block
_cell_formula_units_Z            6
loop_
_atom_site_label
_atom_site_type_symbol
_atom_site_fract_x
_atom_site_fract_y
_atom_site_fract_z
_atom_site_U_iso_or_equiv
_atom_site_thermal_displace_type
C1 C 0.4140(2) 0.6730(2) 0.07010(15) 0.0727 Uani
C2 C 0.4649(2) 0.7167(3) 0.12021(16) 0.0827 Uani
C3 C 0.4179(3) 0.70896(16) 0.1667 0.0720 Uani
H1 H 0.3531 0.6766 0.1667 0.0860 Uiso
C4 C 0.5644(3) 0.7666(4) 0.12094(18) 0.1354 Uani
H2 H 0.5978 0.7728 0.0901 0.1620 Uiso
C5 C 0.1229(3) 0.4626(3) 0.06905(15) 0.0948 Uani
H3 H 0.1680 0.4917 0.0951 0.1140 Uiso
C6 C 0.0341(2) 0.4011(3) 0.08498(16) 0.1022 Uani
H4 H 0.0202 0.3871 0.1206 0.1220 Uiso
C7 C -0.03561(19) 0.3596(2) 0.04640(14) 0.0624 Uani
C8 C -0.0122(2) 0.3835(2) -0.00430(13) 0.0715 Uani
H5 H -0.0573 0.3602 -0.0307 0.0860 Uiso
C9 C 0.0817(3) 0.4445(3) -0.01680(14) 0.0860 Uani
H6 H 0.0974 0.4581 -0.0523 0.1030 Uiso
C10 C -0.1641(3) 0.2481(3) 0.10309(15) 0.0974 Uani
C11 C -0.2648(2) 0.1799(2) 0.10505(15) 0.0730 Uani
C12 C 0.6095(4) 0.80475(19) 0.1667 0.1693 Uani
C13 C -0.3031(4) 0.1273(5) 0.1466(2) 0.2138 Uani
H7 H -0.2665 0.1372 0.1765 0.2560 Uiso
C14 C -0.3239(3) 0.1705(3) 0.0689(2) 0.1419 Uani
H8 H -0.3043 0.2094 0.0394 0.1700 Uiso
C15 C -0.4193(3) 0.1004(4) 0.0742(3) 0.1552 Uani
H9 H -0.4608 0.1006 0.0496 0.1860 Uiso
C16 C -0.3952(4) 0.0580(5) 0.1480(2) 0.2120 Uani
H10 H -0.4170 0.0238 0.1792 0.2550 Uiso
C17 C -0.4529(2) 0.0371(2) 0.11001(14) 0.0683 Uani
N1 N 0.14933(15) 0.48399(17) 0.01853(10) 0.0590 Uani
N2 N -0.12783(18) 0.29603(19) 0.05828(11) 0.0713 Uani
H11 H -0.1672 0.2860 0.0334 0.0860 Uiso
O1 O 0.32911(15) 0.62026(16) 0.07144(9) 0.0745 Uani
O2 O 0.46073(18) 0.69257(17) 0.02750(11) 0.1009 Uani
O3 O -0.1147(2) 0.2633(3) 0.14178(12) 0.1862 Uani
O4 O 0.7038(3) 0.85191(15) 0.1667 0.2448 Uani
Zn1 Zn 0.28567(2) 0.57134(4) 0.0000 0.0573 Uani
C1H C 0.4140(2) 0.7410(3) 0.26323(15) 0.0727 Uani
C2H C 0.4649(2) 0.7482(4) 0.21312(16) 0.0827 Uani
C4H C 0.5644(3) 0.7978(5) 0.21239(18) 0.1354 Uani
H2H H 0.5978 0.8250 0.2432 0.1620 Uiso
C5C C -1.1229(3) -0.4626(3) 0.06905(15) 0.0948 Uani
H3C H -1.1680 -0.4917 0.0951 0.1140 Uiso
C6C C -1.0341(2) -0.4011(3) 0.08498(16) 0.1022 Uani
H4C H -1.0202 -0.3871 0.1206 0.1220 Uiso
C7C C -0.96439(19) -0.3596(2) 0.04640(14) 0.0624 Uani
C8C C -0.9878(2) -0.3835(2) -0.00430(13) 0.0715 Uani
H5C H -0.9427 -0.3602 -0.0307 0.0860 Uiso
C9C C -1.0817(3) -0.4445(3) -0.01680(14) 0.0860 Uani
H6C H -1.0974 -0.4581 -0.0523 0.1030 Uiso
C10C C -0.8359(3) -0.2481(3) 0.10309(15) 0.0974 Uani
C11C C -0.7352(2) -0.1799(2) 0.10505(15) 0.0730 Uani
C13C C -0.6969(4) -0.1273(5) 0.1466(2) 0.2138 Uani
H7C H -0.7335 -0.1372 0.1765 0.2560 Uiso
C14C C -0.6761(3) -0.1705(3) 0.0689(2) 0.1419 Uani
H8C H -0.6957 -0.2094 0.0394 0.1700 Uiso
C15C C -0.5807(3) -0.1004(4) 0.0742(3) 0.1552 Uani
H9C H -0.5392 -0.1006 0.0496 0.1860 Uiso
C16C C -0.6048(4) -0.0580(5) 0.1480(2) 0.2120 Uani
H10C H -0.5830 -0.0238 0.1792 0.2550 Uiso
C17C C -0.5471(2) -0.0371(2) 0.11001(14) 0.0683 Uani
N1C N -1.14933(15) -0.48399(17) 0.01853(10) 0.0590 Uani
N1J N 0.33466(23) 0.48399(17) -0.01853(10) 0.0590 Uani
N2C N -0.87217(18) -0.29603(19) 0.05828(11) 0.0713 Uani
H11C H -0.8328 -0.2860 0.0334 0.0860 Uiso
O1H O 0.32911(15) 0.70885(22) 0.26189(9) 0.0745 Uani
O1J O 0.29115(22) 0.62026(16) -0.07144(9) 0.0745 Uani
O2H O 0.46073(18) 0.76816(25) 0.30583(11) 0.1009 Uani
O3C O -0.8853(2) -0.2633(3) 0.14178(12) 0.1862 Uani
Zn1D Zn 0.28567(4) 0.71433(2) 0.3333 0.0573 Uani
Zn1C Zn -1.28567(2) -0.57134(4) 0.0000 0.0573 Uani
loop_
_atom_site_aniso_label
_atom_site_aniso_U_11
_atom_site_aniso_U_22
_atom_site_aniso_U_33
_atom_site_aniso_U_23
_atom_site_aniso_U_13
_atom_site_aniso_U_12
C1 0.0686(17) 0.0641(16) 0.093(3) -0.0123(17) 0.0221(19) 0.0388(13)
C2 0.0484(16) 0.078(2) 0.109(3) -0.038(2) 0.0078(18) 0.0221(15)
C3 0.034(2) 0.070(2) 0.100(3) -0.048(3) 0.000 0.0169(12)
C4 0.051(2) 0.143(3) 0.165(4) -0.077(3) 0.031(2) 0.013(2)
C5 0.053(2) 0.122(4) 0.067(2) 0.006(2) -0.0078(19) 0.012(2)
C6 0.050(2) 0.130(4) 0.060(2) 0.023(2) -0.0007(19) -0.005(2)
C7 0.0375(16) 0.0651(19) 0.069(2) 0.0142(18) -0.0032(16) 0.0139(14)
C8 0.0549(18) 0.0750(19) 0.060(2) 0.0052(19) -0.006(2) 0.0141(15)
C9 0.084(2) 0.085(2) 0.062(2) 0.004(2) 0.001(2) 0.022(2)
C10 0.056(2) 0.117(3) 0.071(2) 0.026(2) -0.015(2) 0.007(2)
C11 0.0404(19) 0.068(2) 0.075(2) 0.007(2) -0.0122(18) 0.0003(16)
C12 0.032(3) 0.212(5) 0.204(6) -0.153(5) 0.000 0.0160(16)
C13 0.079(3) 0.241(7) 0.128(4) 0.065(5) -0.013(3) -0.065(4)
C14 0.058(3) 0.087(3) 0.223(6) 0.054(4) -0.025(3) -0.007(2)
C15 0.060(3) 0.125(4) 0.235(6) 0.070(4) -0.021(3) 0.012(3)
C16 0.091(4) 0.243(7) 0.128(4) 0.082(4) 0.010(3) -0.047(5)
C17 0.0478(18) 0.0508(18) 0.090(2) 0.0117(18) -0.0041(18) 0.0125(13)
N1 0.0437(13) 0.0607(15) 0.0656(18) 0.0031(13) -0.0002(13) 0.0208(11)
N2 0.0469(14) 0.0737(17) 0.0687(18) 0.0049(16) -0.0161(14) 0.0116(13)
O1 0.0528(12) 0.0799(13) 0.0731(14) -0.0240(12) 0.0033(11) 0.0200(10)
O2 0.1092(17) 0.0856(15) 0.1040(19) -0.0078(14) 0.0390(15) 0.0457(12)
O3 0.074(2) 0.249(4) 0.0852(19) 0.056(2) -0.0246(18) -0.032(3)
O4 0.035(2) 0.331(7) 0.270(6) -0.168(5) 0.000 0.0177(12)
Zn1 0.0528(2) 0.0562(3) 0.0640(3) 0.000 0.0103(3) 0.02809(17)
C1H 0.0686 0.0551 0.093 -0.0344 -0.0221 0.0298
C2H 0.0484 0.0822 0.109 -0.0458 -0.0078 0.0263
C4H 0.051 0.168 0.165 -0.108 -0.031 0.038
C5C 0.053 0.122 0.067 -0.006 0.0078 0.012
C6C 0.05 0.13 0.06 -0.023 0.0007 -0.005
C7C 0.0375 0.0651 0.069 -0.0142 0.0032 0.0139
C8C 0.0549 0.075 0.06 -0.0052 0.006 0.0141
C9C 0.084 0.085 0.062 -0.004 -0.001 0.022
C10C 0.056 0.117 0.071 -0.026 0.015 0.007
C11C 0.0404 0.068 0.075 -0.007 0.0122 0.0003
C13C 0.079 0.241 0.128 -0.065 0.013 -0.065
C14C 0.058 0.087 0.223 -0.054 0.025 -0.007
C15C 0.06 0.125 0.235 -0.07 0.021 0.012
C16C 0.091 0.243 0.128 -0.082 -0.01 -0.047
C17C 0.0478 0.0508 0.09 -0.0117 0.0041 0.0125
N1C 0.0437 0.0607 0.0656 -0.0031 0.0002 0.0208
N1J 0.0628 0.0607 0.0656 -0.0031 -0.0033 0.0399
N2C 0.0469 0.0737 0.0687 -0.0049 0.0161 0.0116
O1H 0.0528 0.0927 0.0731 -0.0273 -0.0033 0.0328
O1J 0.0927 0.0799 0.0731 0.024 0.0273 0.0599
O2H 0.1092 0.1034 0.104 -0.0468 -0.039 0.0635
O3C 0.074 0.249 0.0852 -0.056 0.0246 -0.032
Zn1D 0.05282 0.0528 0.064 -0.0103 -0.0103 0.02471
Zn1C 0.0528 0.0562 0.064 0 -0.0103 0.02809
loop_
_geom_bond_atom_site_label_1
_geom_bond_atom_site_label_2
_geom_bond_site_symmetry_1
_geom_bond_site_symmetry_2
C1 C2 1_555 1_555
C2 C3 1_555 1_555
C3 H1 1_555 1_555
C4 C2 1_555 1_555
H2 C4 1_555 1_555
C5 H3 1_555 1_555
C6 C5 1_555 1_555
H4 C6 1_555 1_555
C7 C6 1_555 1_555
C8 C7 1_555 1_555
H5 C8 1_555 1_555
C9 C8 1_555 1_555
H6 C9 1_555 1_555
C10 C11 1_555 1_555
C11 C13 1_555 1_555
C12 C4 1_555 1_555
C13 H7 1_555 1_555
C14 C11 1_555 1_555
H8 C14 1_555 1_555
C15 C14 1_555 1_555
H9 C15 1_555 1_555
C16 C13 1_555 1_555
H10 C16 1_555 1_555
C17 C15 1_555 1_555
N1 C5 1_555 1_555
N2 C7 1_555 1_555
H11 N2 1_555 1_555
O1 C1 1_555 1_555
O2 C1 1_555 1_555
O3 C10 1_555 1_555
O4 C12 1_555 1_555
Zn1 N1 1_555 1_555
C1H C2H 1_555 1_555
C2H C3 1_555 1_555
C4H C12 1_555 1_555
H2H C4H 1_555 1_555
C5C H3C 1_555 1_555
C6C C5C 1_555 1_555
H4C C6C 1_555 1_555
C7C C6C 1_555 1_555
C8C C7C 1_555 1_555
H5C C8C 1_555 1_555
C9C C8C 1_555 1_555
H6C C9C 1_555 1_555
C10C C11C 1_555 1_555
C11C C13C 1_555 1_555
C13C H7C 1_555 1_555
C14C C11C 1_555 1_555
H8C C14C 1_555 1_555
C15C C14C 1_555 1_555
H9C C15C 1_555 1_555
C16C C13C 1_555 1_555
H10C C16C 1_555 1_555
C17C C17 1_555 1_555
N1C C5C 1_555 1_555
N1J Zn1 1_555 1_555
N2C C7C 1_555 1_555
H11C N2C 1_555 1_555
O1H C1H 1_555 1_555
O1J Zn1 1_555 1_555
O2H C1H 1_555 1_555
O3C C10C 1_555 1_555
Zn1D O1H 1_555 1_555
Zn1C N1C 1_555 1_555
C9 N1 1_555 1_555
C10 N2 1_555 1_555
C16 C17 1_555 1_555
O1 Zn1 1_555 1_555
C2H C4H 1_555 1_555
C9C N1C 1_555 1_555
C10C N2C 1_555 1_555
C15C C17C 1_555 1_555
C16C C17C 1_555 1_555

#END
