
#######################################################################
#
#                 Cambridge Crystallographic Data Centre
#                                CCDC 
#
#######################################################################
#
# If this CIF has been generated from an entry in the Cambridge 
# Structural Database, then it will include bibliographic, chemical, 
# crystal, experimental, refinement or atomic coordinate data resulting 
# from the CCDC's data processing and validation procedures.
#
#######################################################################

data_RAYLUA
_chemical_formula_moiety         '(C33 H22 N4 O8 Zn1)n'
_chemical_name_systematic        
catena-[(\m~2~-N,N'-Di(pyridin-4-yl)biphenyl-4,4'-dicarboxamido)-(\m~2~-5-carboxyisophthalato)-zinc]
_symmetry_cell_setting           hexagonal
_symmetry_space_group_name_H-M   'P 64 2 2'
_symmetry_Int_Tables_number      181
_space_group_name_Hall           'P 64 2 (0 0 2)'
loop_
_symmetry_equiv_pos_site_id
_symmetry_equiv_pos_as_xyz
1 x,y,z
2 x-y,x,2/3+z
3 -y,x-y,1/3+z
4 -x,-y,z
5 -x+y,-x,2/3+z
6 y,-x+y,1/3+z
7 -y,-x,1/3-z
8 x-y,-y,-z
9 x,x-y,2/3-z
10 y,x,1/3-z
11 -x+y,y,-z
12 -x,-x+y,2/3-z
_cell_length_a                   16.5097(2)
_cell_length_b                   16.5097(2)
_cell_length_c                   25.4661(5)
_cell_angle_alpha                90
_cell_angle_beta                 90
_cell_angle_gamma                120
_cell_volume                     6011.34
_exptl_crystal_colour            colorless
_exptl_crystal_description       block
_cell_formula_units_Z            6
loop_
_atom_site_label
_atom_site_type_symbol
_atom_site_fract_x
_atom_site_fract_y
_atom_site_fract_z
_atom_site_U_iso_or_equiv
_atom_site_thermal_displace_type
C1 C 0.7399(5) 0.4162(5) 0.0967(2) 0.0596 Uani
C2 C 0.7096(3) 0.4192(6) 0.0000 0.0576 Uani
H1 H 0.6771 0.3541 0.0000 0.0690 Uiso
C3 C 0.5093(5) -0.4508(4) 0.0552(2) 0.0628 Uani
C4 C 0.6029(5) -0.0354(4) 0.1204(2) 0.0560 Uani
C5 C 0.5487(6) -0.2672(4) 0.0608(3) 0.0661 Uani
C6 C 0.7466(5) 0.4665(4) 0.0464(3) 0.0669 Uani
C7 C 0.6082(6) -0.0095(5) 0.1706(2) 0.0774 Uani
H2 H 0.5921 -0.0538 0.1970 0.0920 Uiso
C8 C 0.6374(6) 0.0827(5) 0.1838(2) 0.0823 Uani
H3 H 0.6395 0.0985 0.2190 0.1000 Uiso
C9 C 0.5738(8) -0.1665(5) 0.0613(3) 0.0934 Uani
C10 C 0.5063(8) -0.3270(6) 0.1005(4) 0.1000 Uani
H4 H 0.4929 -0.3074 0.1319 0.1190 Uiso
C11 C 0.6548(6) 0.1226(5) 0.0985(2) 0.0751 Uani
H5 H 0.6678 0.1672 0.0726 0.0910 Uiso
C12 C 0.6293(7) 0.0345(5) 0.0829(3) 0.0900 Uani
H6 H 0.6296 0.0211 0.0475 0.1080 Uiso
C13 C 0.4837(9) -0.4181(6) 0.0930(4) 0.1227 Uani
H7 H 0.4454 -0.4608 0.1183 0.1470 Uiso
C14 C 0.5606(13) -0.3023(8) 0.0156(4) 0.1621 Uani
H8 H 0.5838 -0.2648 -0.0141 0.1940 Uiso
C15 C 0.7904(10) 0.5625(5) 0.0470(4) 0.1426 Uani
H9 H 0.8097 0.5947 0.0787 0.1710 Uiso
C16 C 0.5373(14) -0.3963(7) 0.0143(4) 0.1726 Uani
H10 H 0.5420 -0.4212 -0.0176 0.2060 Uiso
C17 C 0.8058(4) 0.6116(8) 0.0000 0.2138 Uani
C18 C 0.8597(6) 0.7194(11) 0.0000 0.3449 Uani
N1 N 0.6622(3) 0.1489(3) 0.14774(18) 0.0536 Uani
N2 N 0.5727(5) -0.1284(3) 0.10820(19) 0.0661 Uani
H11 H 0.5502 -0.1670 0.1340 0.0790 Uiso
O1 O 0.7068(3) 0.3297(3) 0.09516(16) 0.0637 Uani
O2 O 0.7662(4) 0.4627(4) 0.13858(19) 0.0829 Uani
O3 O 0.5991(10) -0.1181(5) 0.0221(2) 0.2196 Uani
O4 O 0.9087(16) 0.7605(7) 0.0366(4) 0.3600 Uani
Zn1 Zn 0.71280(3) 0.28720(3) 0.1667 0.0471 Uani
C1J C 0.6763(7) 0.4162(5) -0.0967(2) 0.0596 Uani
C3C C 0.4907(5) -0.5492(4) 0.0552(2) 0.0628 Uani
C4C C 0.3971(5) -0.9646(4) 0.1204(2) 0.0560 Uani
C5C C 0.4513(6) -0.7328(4) 0.0608(3) 0.0661 Uani
C6J C 0.7199(6) 0.4665(4) -0.0464(3) 0.0669 Uani
C7C C 0.3918(6) -0.9905(5) 0.1706(2) 0.0774 Uani
H2C H 0.4079 -0.9462 0.1970 0.0920 Uiso
C8C C 0.3626(6) -1.0827(5) 0.1838(2) 0.0823 Uani
H3C H 0.3605 -1.0985 0.2190 0.1000 Uiso
C9C C 0.4262(8) -0.8335(5) 0.0613(3) 0.0934 Uani
C10C C 0.4937(8) -0.6730(6) 0.1005(4) 0.1000 Uani
H4C H 0.5071 -0.6926 0.1319 0.1190 Uiso
C11C C 0.3452(6) -1.1226(5) 0.0985(2) 0.0751 Uani
H5C H 0.3322 -1.1672 0.0726 0.0910 Uiso
C12C C 0.3707(7) -1.0345(5) 0.0829(3) 0.0900 Uani
H6C H 0.3704 -1.0211 0.0475 0.1080 Uiso
C13C C 0.5163(9) -0.5819(6) 0.0930(4) 0.1227 Uani
H7C H 0.5546 -0.5392 0.1183 0.1470 Uiso
C14C C 0.4394(13) -0.6977(8) 0.0156(4) 0.1621 Uani
H8C H 0.4162 -0.7352 -0.0141 0.1940 Uiso
C15J C 0.7721(11) 0.5625(5) -0.0470(4) 0.1426 Uani
H9J H 0.7850 0.5947 -0.0787 0.1710 Uiso
C16C C 0.4627(14) -0.6037(7) 0.0143(4) 0.1726 Uani
H10C H 0.4580 -0.5788 -0.0176 0.2060 Uiso
N1C N 0.3378(3) -1.1489(3) 0.14774(18) 0.0536 Uani
N1F N 0.8511(3) 0.3378(3) 0.18559(18) 0.0536 Uani
N2C N 0.4273(5) -0.8716(3) 0.10820(19) 0.0661 Uani
H11C H 0.4498 -0.8330 0.1340 0.0790 Uiso
O1J O 0.6229(4) 0.3297(3) -0.09516(16) 0.0637 Uani
O1F O 0.6703(3) 0.2932(3) 0.23817(16) 0.0637 Uani
O2J O 0.6965(6) 0.4627(4) -0.13858(19) 0.0829 Uani
O3C O 0.4009(10) -0.8819(5) 0.0221(2) 0.2196 Uani
O4J O 0.8518(17) 0.7605(7) -0.0366(4) 0.3600 Uani
Zn1D Zn 0.57440(4) 0.28720(3) -0.1666 0.0471 Uani
Zn1I Zn 0.28720(3) -1.28720(3) 0.1666 0.0471 Uani
loop_
_atom_site_aniso_label
_atom_site_aniso_U_11
_atom_site_aniso_U_22
_atom_site_aniso_U_33
_atom_site_aniso_U_23
_atom_site_aniso_U_13
_atom_site_aniso_U_12
C1 0.056(4) 0.064(4) 0.056(3) -0.016(3) -0.023(3) 0.028(3)
C2 0.061(4) 0.038(4) 0.066(5) 0.000 -0.024(4) 0.019(2)
C3 0.071(4) 0.052(4) 0.071(4) 0.002(3) 0.004(3) 0.035(3)
C4 0.073(4) 0.042(3) 0.056(3) 0.005(2) 0.012(3) 0.031(3)
C5 0.094(5) 0.050(4) 0.057(4) 0.000(3) 0.008(3) 0.038(4)
C6 0.076(5) 0.040(3) 0.074(4) -0.007(3) -0.032(4) 0.021(3)
C7 0.119(6) 0.054(4) 0.055(3) 0.010(3) 0.005(4) 0.040(4)
C8 0.127(7) 0.056(4) 0.047(3) 0.004(3) 0.004(4) 0.033(4)
C9 0.168(9) 0.053(4) 0.063(4) 0.009(4) 0.031(5) 0.058(5)
C10 0.158(9) 0.063(5) 0.092(5) 0.014(4) 0.040(6) 0.065(6)
C11 0.125(7) 0.050(4) 0.040(3) 0.004(3) 0.008(4) 0.036(4)
C12 0.161(8) 0.044(4) 0.050(3) 0.004(3) 0.023(4) 0.040(4)
C13 0.208(13) 0.072(6) 0.100(6) 0.024(5) 0.055(7) 0.079(8)
C14 0.33(2) 0.090(7) 0.089(6) 0.006(5) 0.034(9) 0.122(11)
C15 0.212(13) 0.042(4) 0.133(8) -0.022(5) -0.110(9) 0.033(6)
C16 0.38(2) 0.077(6) 0.087(6) -0.002(5) 0.019(9) 0.134(11)
C17 0.36(3) 0.037(6) 0.136(13) 0.000 -0.134(18) 0.018(3)
C18 0.62(7) 0.042(8) 0.18(2) 0.000 -0.17(4) 0.021(4)
N1 0.053(3) 0.050(3) 0.054(3) 0.001(2) 0.000(2) 0.023(2)
N2 0.091(4) 0.043(3) 0.061(3) 0.014(2) 0.018(3) 0.031(3)
O1 0.079(3) 0.060(3) 0.051(2) 0.0026(19) -0.013(2) 0.034(3)
O2 0.090(4) 0.095(4) 0.070(3) -0.026(3) -0.030(3) 0.051(3)
O3 0.53(2) 0.086(5) 0.064(3) 0.031(3) 0.082(7) 0.170(9)
O4 0.61(3) 0.076(6) 0.200(13) -0.030(6) -0.136(18) 0.026(13)
Zn1 0.0468(4) 0.0468(4) 0.0439(5) -0.0043(3) -0.0043(3) 0.0205(4)
C1J 0.064 0.064 0.056 0.016 -0.007 0.036
C3C 0.071 0.052 0.071 -0.002 -0.004 0.035
C4C 0.073 0.042 0.056 -0.005 -0.012 0.031
C5C 0.094 0.05 0.057 0 -0.008 0.038
C6J 0.074 0.04 0.074 0.007 -0.025 0.019
C7C 0.119 0.054 0.055 -0.01 -0.005 0.04
C8C 0.127 0.056 0.047 -0.004 -0.004 0.033
C9C 0.168 0.053 0.063 -0.009 -0.031 0.058
C10C 0.158 0.063 0.092 -0.014 -0.04 0.065
C11C 0.125 0.05 0.04 -0.004 -0.008 0.036
C12C 0.161 0.044 0.05 -0.004 -0.023 0.04
C13C 0.208 0.072 0.1 -0.024 -0.055 0.079
C14C 0.33 0.09 0.089 -0.006 -0.034 0.122
C15J 0.188 0.042 0.133 0.022 -0.088 0.009
C16C 0.38 0.077 0.087 0.002 -0.019 0.134
N1C 0.053 0.05 0.054 -0.001 0 0.023
N1F 0.05 0.053 0.054 0 0.001 0.023
N2C 0.091 0.043 0.061 -0.014 -0.018 0.031
O1J 0.071 0.06 0.051 -0.0026 -0.0156 0.026
O1F 0.06 0.079 0.051 -0.013 0.0026 0.034
O2J 0.083 0.095 0.07 0.026 -0.004 0.044
O3C 0.53 0.086 0.064 -0.031 -0.082 0.17
O4J 0.634 0.076 0.2 0.03 -0.106 0.05
Zn1D 0.0526 0.0468 0.0439 0.0043 -6.16826e-19 0.0263
Zn1I 0.0468 0.0468 0.0439 0.0043 0.0043 0.0205
loop_
_geom_bond_atom_site_label_1
_geom_bond_atom_site_label_2
_geom_bond_site_symmetry_1
_geom_bond_site_symmetry_2
C1 C6 1_555 1_555
C2 H1 1_555 1_555
C3 C13 1_555 1_555
C4 C7 1_555 1_555
C5 C9 1_555 1_555
C6 C2 1_555 1_555
C7 H2 1_555 1_555
C8 C7 1_555 1_555
H3 C8 1_555 1_555
C9 N2 1_555 1_555
C10 C5 1_555 1_555
H4 C10 1_555 1_555
C11 H5 1_555 1_555
C12 C4 1_555 1_555
H6 C12 1_555 1_555
C13 C10 1_555 1_555
H7 C13 1_555 1_555
C14 C5 1_555 1_555
H8 C14 1_555 1_555
C15 C6 1_555 1_555
H9 C15 1_555 1_555
C16 C3 1_555 1_555
H10 C16 1_555 1_555
C17 C15 1_555 1_555
C18 C17 1_555 1_555
N1 C8 1_555 1_555
N2 C4 1_555 1_555
H11 N2 1_555 1_555
O1 C1 1_555 1_555
O2 C1 1_555 1_555
O3 C9 1_555 1_555
O4 C18 1_555 1_555
Zn1 N1 1_555 1_555
C1J C6J 1_555 1_555
C3C C3 1_555 1_555
C4C C7C 1_555 1_555
C5C C9C 1_555 1_555
C6J C2 1_555 1_555
C7C H2C 1_555 1_555
C8C C7C 1_555 1_555
H3C C8C 1_555 1_555
C9C N2C 1_555 1_555
C10C C5C 1_555 1_555
H4C C10C 1_555 1_555
C11C H5C 1_555 1_555
C12C C4C 1_555 1_555
H6C C12C 1_555 1_555
C13C C3C 1_555 1_555
H7C C13C 1_555 1_555
C14C C5C 1_555 1_555
H8C C14C 1_555 1_555
C15J C17 1_555 1_555
H9J C15J 1_555 1_555
C16C C3C 1_555 1_555
H10C C16C 1_555 1_555
N1C C8C 1_555 1_555
N1F Zn1 1_555 1_555
N2C C4C 1_555 1_555
H11C N2C 1_555 1_555
O1J C1J 1_555 1_555
O1F Zn1 1_555 1_555
O2J C1J 1_555 1_555
O3C C9C 1_555 1_555
O4J C18 1_555 1_555
Zn1D O1J 1_555 1_555
Zn1I N1C 1_555 1_555
C11 C12 1_555 1_555
C11 N1 1_555 1_555
C14 C16 1_555 1_555
O1 Zn1 1_555 1_555
C6J C15J 1_555 1_555
C10C C13C 1_555 1_555
C11C C12C 1_555 1_555
C11C N1C 1_555 1_555
C14C C16C 1_555 1_555

#END
