
#######################################################################
#
#                 Cambridge Crystallographic Data Centre
#                                CCDC 
#
#######################################################################
#
# If this CIF has been generated from an entry in the Cambridge 
# Structural Database, then it will include bibliographic, chemical, 
# crystal, experimental, refinement or atomic coordinate data resulting 
# from the CCDC's data processing and validation procedures.
#
#######################################################################

data_RAYLAG
_chemical_formula_moiety         '(C32 H23 N5 O6 Zn1)n'
_chemical_name_systematic        
catena-[(\m~2~-N,N'-Di(pyridin-4-yl)biphenyl-4,4'-dicarboxamido)-(\m~2~-5-aminoisophthalato)-zinc]
_symmetry_cell_setting           hexagonal
_symmetry_space_group_name_H-M   'P 64 2 2'
_symmetry_Int_Tables_number      181
_space_group_name_Hall           'P 64 2 (0 0 2)'
loop_
_symmetry_equiv_pos_site_id
_symmetry_equiv_pos_as_xyz
1 x,y,z
2 -y,x-y,1/3+z
3 -x+y,-x,2/3+z
4 -x,-y,z
5 y,-x+y,1/3+z
6 x-y,x,2/3+z
7 y,x,1/3-z
8 x-y,-y,-z
9 -x,-x+y,2/3-z
10 -y,-x,1/3-z
11 -x+y,y,-z
12 x,x-y,2/3-z
_cell_length_a                   16.5764(3)
_cell_length_b                   16.5764(3)
_cell_length_c                   25.2504(11)
_cell_angle_alpha                90
_cell_angle_beta                 90
_cell_angle_gamma                120
_cell_volume                     6008.68
_exptl_crystal_colour            colorless
_exptl_crystal_description       block
_cell_formula_units_Z            6
loop_
_atom_site_label
_atom_site_type_symbol
_atom_site_fract_x
_atom_site_fract_y
_atom_site_fract_z
_atom_site_U_iso_or_equiv
_atom_site_thermal_displace_type
C1 C 0.25850(15) 0.67337(15) 0.06963(10) 0.0721 Uani
C2 C 0.25094(15) 0.71598(14) 0.12080(11) 0.0825 Uani
C3 C 0.29116(10) 0.70884(10) 0.1667 0.0722 Uani
H1 H 0.3236 0.6764 0.1667 0.0870 Uiso
C4 C 0.20428(15) 0.76661(18) 0.12060(14) 0.1440 Uani
H2 H 0.1796 0.7742 0.0892 0.1730 Uiso
C5 C 0.19464(14) 0.80536(14) 0.1667 0.1679 Uani
C6 C 0.36159(17) 0.44445(17) -0.01760(9) 0.0783 Uani
H3 H 0.3583 0.4574 -0.0531 0.0940 Uiso
C7 C 0.39514(15) 0.38438(15) -0.00485(9) 0.0727 Uani
H4 H 0.4170 0.3615 -0.0315 0.0870 Uiso
C8 C 0.39577(14) 0.35930(13) 0.04675(9) 0.0619 Uani
C9 C 0.36474(16) 0.39946(16) 0.08479(10) 0.0963 Uani
H5 H 0.3633 0.3850 0.1205 0.1160 Uiso
C10 C 0.33659(17) 0.46040(17) 0.06838(10) 0.0915 Uani
H6 H 0.3177 0.4875 0.0942 0.1100 Uiso
C11 C 0.41176(18) 0.24851(17) 0.10297(10) 0.0929 Uani
C12 C 0.44414(16) 0.17873(15) 0.10518(10) 0.0750 Uani
C13 C 0.4942(2) 0.17007(19) 0.07038(17) 0.1311 Uani
H7 H 0.5148 0.2109 0.0418 0.1570 Uiso
C14 C 0.5197(2) 0.1018(2) 0.07326(19) 0.1427 Uani
H8 H 0.5605 0.1018 0.0480 0.1710 Uiso
C15 C 0.48838(15) 0.03728(14) 0.11031(10) 0.0673 Uani
C16 C 0.4455(2) 0.0527(2) 0.14736(16) 0.2092 Uani
H9 H 0.4258 0.0131 0.1765 0.2510 Uiso
C17 C 0.4271(3) 0.1245(2) 0.14647(15) 0.2131 Uani
H10 H 0.4014 0.1354 0.1765 0.2560 Uiso
N1 N 0.33445(11) 0.48346(11) 0.01812(7) 0.0606 Uani
N2 N 0.42469(6) 0.29695(2) 0.05803(4) 0.0670 Uani
H11 H 0.4548 0.2876 0.0333 0.0800 Uiso
N3 N 0.14571(6) 0.85396(2) 0.16667(4) 0.2235 Uani
H12 H 0.1397 0.8780 0.1956 0.2680 Uiso
O1 O 0.29071(6) 0.62064(2) 0.07173(4) 0.0765 Uani
O2 O 0.23239(6) 0.69234(2) 0.02760(4) 0.1005 Uani
O3 O 0.37875(6) 0.26358(2) 0.14157(4) 0.1986 Uani
Zn1 Zn 0.28593(6) 0.57195(2) 0.00001(4) 0.0558 Uani
C1I C 0.32663(15) 0.74150(15) 0.26370(10) 0.0721 Uani
C2I C 0.28402(14) 0.74906(15) 0.21253(11) 0.0825 Uani
C4I C 0.23339(18) 0.79572(15) 0.21273(14) 0.1440 Uani
H2I H 0.2258 0.8204 0.2441 0.1730 Uiso
C6C C 0.63841(17) -0.44445(17) -0.01760(9) 0.0783 Uani
H3C H 0.6417 -0.4574 -0.0531 0.0940 Uiso
C7C C 0.60486(15) -0.38438(15) -0.00485(9) 0.0727 Uani
H4C H 0.5830 -0.3615 -0.0315 0.0870 Uiso
C8C C 0.60423(14) -0.35930(13) 0.04675(9) 0.0619 Uani
C9C C 0.63526(16) -0.39946(16) 0.08479(10) 0.0963 Uani
H5C H 0.6367 -0.3850 0.1205 0.1160 Uiso
C10C C 0.66341(17) -0.46040(17) 0.06838(10) 0.0915 Uani
H6C H 0.6823 -0.4875 0.0942 0.1100 Uiso
C11C C 0.58824(18) -0.24851(17) 0.10297(10) 0.0929 Uani
C12C C 0.55586(16) -0.17873(15) 0.10518(10) 0.0750 Uani
C13C C 0.5058(2) -0.17007(19) 0.07038(17) 0.1311 Uani
H7C H 0.4852 -0.2109 0.0418 0.1570 Uiso
C14C C 0.4803(2) -0.1018(2) 0.07326(19) 0.1427 Uani
H8C H 0.4395 -0.1018 0.0480 0.1710 Uiso
C15C C 0.51162(15) -0.03728(14) 0.11031(10) 0.0673 Uani
C16C C 0.5545(2) -0.0527(2) 0.14736(16) 0.2092 Uani
H9C H 0.5742 -0.0131 0.1765 0.2510 Uiso
C17C C 0.5729(3) -0.1245(2) 0.14647(15) 0.2131 Uani
H10C H 0.5986 -0.1354 0.1765 0.2560 Uiso
N1C N 0.66555(11) -0.48346(11) 0.01812(7) 0.0606 Uani
N1J N 0.14901(16) 0.48346(11) -0.01812(7) 0.0606 Uani
N2C N 0.57531(6) -0.29695(2) 0.05803(4) 0.0670 Uani
H11C H 0.5452 -0.2876 0.0333 0.0800 Uiso
H12I H 0.1220 0.8603 0.1377 0.2680 Uiso
O1I O 0.37936(2) 0.70929(6) 0.26160(4) 0.0765 Uani
O1J O 0.32993(6) 0.62064(2) -0.07173(4) 0.0765 Uani
O2I O 0.30766(2) 0.76761(6) 0.30573(4) 0.1005 Uani
O3C O 0.62125(6) -0.26358(2) 0.14157(4) 0.1986 Uani
Zn1A Zn 0.42805(2) 0.71398(6) 0.33334(4) 0.0558 Uani
Zn1G Zn 0.71398(6) -0.57195(2) -0.00001(4) 0.0558 Uani
loop_
_atom_site_aniso_label
_atom_site_aniso_U_11
_atom_site_aniso_U_22
_atom_site_aniso_U_33
_atom_site_aniso_U_23
_atom_site_aniso_U_13
_atom_site_aniso_U_12
C1 0.0648(10) 0.0627(10) 0.0915(15) -0.0215(10) -0.0389(10) 0.0340(8)
C2 0.0781(9) 0.0700(10) 0.1166(17) -0.0414(11) -0.0522(11) 0.0500(7)
C3 0.0691(7) 0.0691(7) 0.097(2) -0.0312(15) -0.0312(15) 0.0484(9)
C4 0.1661(11) 0.1496(12) 0.197(2) -0.0933(15) -0.1263(14) 0.1395(8)
C5 0.2055(10) 0.2055(10) 0.203(4) -0.129(3) -0.129(3) 0.1855(12)
C6 0.1057(13) 0.0870(12) 0.0595(13) 0.0039(10) 0.0037(11) 0.0612(9)
C7 0.0931(11) 0.0784(10) 0.0650(13) 0.0010(11) 0.0129(11) 0.0566(8)
C8 0.0773(10) 0.0623(9) 0.0620(12) 0.0053(9) 0.0123(9) 0.0468(7)
C9 0.1771(14) 0.1246(11) 0.0542(13) 0.0167(10) 0.0186(11) 0.1256(9)
C10 0.1536(12) 0.1167(11) 0.0632(14) 0.0000(10) 0.0122(12) 0.1119(8)
C11 0.1529(13) 0.1090(11) 0.0703(15) 0.0079(10) 0.0194(13) 0.1055(8)
C12 0.1075(12) 0.0746(9) 0.0703(14) 0.0076(9) 0.0156(11) 0.0660(8)
C13 0.1573(18) 0.0840(12) 0.188(3) 0.0576(16) 0.074(2) 0.0873(11)
C14 0.1275(15) 0.1140(15) 0.229(4) 0.064(2) 0.076(2) 0.0922(11)
C15 0.0680(10) 0.0447(8) 0.0933(15) 0.0045(10) 0.0079(11) 0.0313(7)
C16 0.425(2) 0.2592(15) 0.125(2) 0.0834(16) 0.090(2) 0.3073(11)
C17 0.445(2) 0.2612(17) 0.112(2) 0.0812(16) 0.101(2) 0.3108(13)
N1 0.0695(8) 0.0637(8) 0.0622(10) 0.0059(7) 0.0004(8) 0.0434(6)
N2 0.0851(8) 0.0707(8) 0.0689(10) -0.0003(8) 0.0107(9) 0.0567(6)
N3 0.2935(10) 0.2935(10) 0.248(5) -0.124(5) -0.124(5) 0.2702(12)
O1 0.0903(8) 0.0821(8) 0.0728(9) -0.0237(7) -0.0294(7) 0.0549(6)
O2 0.1058(10) 0.0870(10) 0.1023(13) -0.0044(9) -0.0471(10) 0.0433(8)
O3 0.4233(14) 0.2560(10) 0.0953(12) 0.0700(9) 0.1017(12) 0.3039(8)
Zn1 0.05101(12) 0.05584(19) 0.06208(17) 0.000 -0.01006(14) 0.02792(10)
C1I 0.0627 0.0648 0.0915 -0.0389 -0.0215 0.034
C2I 0.07 0.0781 0.1166 -0.0522 -0.0414 0.05
C4I 0.1496 0.1661 0.197 -0.1263 -0.0933 0.1395
C6C 0.1057 0.087 0.0595 -0.0039 -0.0037 0.0612
C7C 0.0931 0.0784 0.065 -0.001 -0.0129 0.0566
C8C 0.0773 0.0623 0.062 -0.0053 -0.0123 0.0468
C9C 0.1771 0.1246 0.0542 -0.0167 -0.0186 0.1256
C10C 0.1536 0.1167 0.0632 0 -0.0122 0.1119
C11C 0.1529 0.109 0.0703 -0.0079 -0.0194 0.1055
C12C 0.1075 0.0746 0.0703 -0.0076 -0.0156 0.066
C13C 0.1573 0.084 0.188 -0.0576 -0.074 0.0873
C14C 0.1275 0.114 0.229 -0.064 -0.076 0.0922
C15C 0.068 0.0447 0.0933 -0.0045 -0.0079 0.0313
C16C 0.425 0.2592 0.125 -0.0834 -0.09 0.3073
C17C 0.445 0.2612 0.112 -0.0812 -0.101 0.3108
N1C 0.0695 0.0637 0.0622 -0.0059 -0.0004 0.0434
N1J 0.0464 0.0637 0.0622 -0.0059 -0.0055 0.0203
N2C 0.0851 0.0707 0.0689 0.0003 -0.0107 0.0567
O1I 0.0821 0.0903 0.0728 -0.0294 -0.0237 0.0549
O1J 0.0626 0.0821 0.0728 0.0237 -0.0057 0.0272
O2I 0.087 0.1058 0.1023 -0.0471 -0.0044 0.0433
O3C 0.4233 0.256 0.0953 -0.07 -0.1017 0.3039
Zn1A 0.05584 0.05101 0.06208 -0.01006 0 0.02792
Zn1G 0.05101 0.05584 0.06208 0 0.01006 0.02792
loop_
_geom_bond_atom_site_label_1
_geom_bond_atom_site_label_2
_geom_bond_site_symmetry_1
_geom_bond_site_symmetry_2
C1 C2 1_555 1_555
C2 C3 1_555 1_555
C3 H1 1_555 1_555
C4 C2 1_555 1_555
H2 C4 1_555 1_555
C5 C4 1_555 1_555
C6 H3 1_555 1_555
C7 C6 1_555 1_555
H4 C7 1_555 1_555
C8 C7 1_555 1_555
C9 C8 1_555 1_555
H5 C9 1_555 1_555
C10 C9 1_555 1_555
H6 C10 1_555 1_555
C11 C12 1_555 1_555
C12 C13 1_555 1_555
C13 H7 1_555 1_555
C14 C13 1_555 1_555
H8 C14 1_555 1_555
C15 C14 1_555 1_555
C16 C15 1_555 1_555
H9 C16 1_555 1_555
C17 C12 1_555 1_555
H10 C17 1_555 1_555
N1 C6 1_555 1_555
N2 C8 1_555 1_555
H11 N2 1_555 1_555
N3 C5 1_555 1_555
H12 N3 1_555 1_555
O1 C1 1_555 1_555
O2 C1 1_555 1_555
O3 C11 1_555 1_555
Zn1 N1 1_555 1_555
C1I C2I 1_555 1_555
C2I C3 1_555 1_555
C4I C5 1_555 1_555
H2I C4I 1_555 1_555
C6C H3C 1_555 1_555
C7C C6C 1_555 1_555
H4C C7C 1_555 1_555
C8C C7C 1_555 1_555
C9C C8C 1_555 1_555
H5C C9C 1_555 1_555
C10C C9C 1_555 1_555
H6C C10C 1_555 1_555
C11C C12C 1_555 1_555
C12C C13C 1_555 1_555
C13C H7C 1_555 1_555
C14C C13C 1_555 1_555
H8C C14C 1_555 1_555
C15C C15 1_555 1_555
C16C C15C 1_555 1_555
H9C C16C 1_555 1_555
C17C C12C 1_555 1_555
H10C C17C 1_555 1_555
N1C C6C 1_555 1_555
N1J Zn1 1_555 1_555
N2C C8C 1_555 1_555
H11C N2C 1_555 1_555
H12I N3 1_555 1_555
O1I C1I 1_555 1_555
O1J Zn1 1_555 1_555
O2I C1I 1_555 1_555
O3C C11C 1_555 1_555
Zn1A O1I 1_555 1_555
Zn1G N1C 1_555 1_555
C10 N1 1_555 1_555
C11 N2 1_555 1_555
C16 C17 1_555 1_555
O1 Zn1 1_555 1_555
C2I C4I 1_555 1_555
C10C N1C 1_555 1_555
C11C N2C 1_555 1_555
C14C C15C 1_555 1_555
C16C C17C 1_555 1_555

#END
