
#######################################################################
#
#                 Cambridge Crystallographic Data Centre
#                                CCDC 
#
#######################################################################
#
# If this CIF has been generated from an entry in the Cambridge 
# Structural Database, then it will include bibliographic, chemical, 
# crystal, experimental, refinement or atomic coordinate data resulting 
# from the CCDC's data processing and validation procedures.
#
#######################################################################

data_XIJJEH
_chemical_name_common            NPC-5
_chemical_formula_moiety         '(C132 H116 Co14 O70)n'
_chemical_name_systematic        
'catena-[tetrakis(\m~12~-benzene-2,4,6-trimethyl-1,3,5-tris(benzene-3,5-dicarboxylato))-docosakis(aqua)-tetradeca-cobalt unknown solvate]'
_symmetry_cell_setting           cubic
_symmetry_space_group_name_H-M   'F m -3 m'
_symmetry_Int_Tables_number      225
_space_group_name_Hall           '-F 4 2 3'
loop_
_symmetry_equiv_pos_site_id
_symmetry_equiv_pos_as_xyz
1 x,y,z
2 -x,-y,z
3 -x,y,-z
4 x,-y,-z
5 z,x,y
6 z,-x,-y
7 -z,-x,y
8 -z,x,-y
9 y,z,x
10 -y,z,-x
11 y,-z,-x
12 -y,-z,x
13 y,x,-z
14 -y,-x,-z
15 y,-x,z
16 -y,x,z
17 x,z,-y
18 -x,z,y
19 -x,-z,-y
20 x,-z,y
21 z,y,-x
22 z,-y,x
23 -z,y,x
24 -z,-y,-x
25 x,1/2+y,1/2+z
26 -x,1/2-y,1/2+z
27 -x,1/2+y,1/2-z
28 x,1/2-y,1/2-z
29 z,1/2+x,1/2+y
30 z,1/2-x,1/2-y
31 -z,1/2-x,1/2+y
32 -z,1/2+x,1/2-y
33 y,1/2+z,1/2+x
34 -y,1/2+z,1/2-x
35 y,1/2-z,1/2-x
36 -y,1/2-z,1/2+x
37 y,1/2+x,1/2-z
38 -y,1/2-x,1/2-z
39 y,1/2-x,1/2+z
40 -y,1/2+x,1/2+z
41 x,1/2+z,1/2-y
42 -x,1/2+z,1/2+y
43 -x,1/2-z,1/2-y
44 x,1/2-z,1/2+y
45 z,1/2+y,1/2-x
46 z,1/2-y,1/2+x
47 -z,1/2+y,1/2+x
48 -z,1/2-y,1/2-x
49 1/2+x,y,1/2+z
50 1/2-x,-y,1/2+z
51 1/2-x,y,1/2-z
52 1/2+x,-y,1/2-z
53 1/2+z,x,1/2+y
54 1/2+z,-x,1/2-y
55 1/2-z,-x,1/2+y
56 1/2-z,x,1/2-y
57 1/2+y,z,1/2+x
58 1/2-y,z,1/2-x
59 1/2+y,-z,1/2-x
60 1/2-y,-z,1/2+x
61 1/2+y,x,1/2-z
62 1/2-y,-x,1/2-z
63 1/2+y,-x,1/2+z
64 1/2-y,x,1/2+z
65 1/2+x,z,1/2-y
66 1/2-x,z,1/2+y
67 1/2-x,-z,1/2-y
68 1/2+x,-z,1/2+y
69 1/2+z,y,1/2-x
70 1/2+z,-y,1/2+x
71 1/2-z,y,1/2+x
72 1/2-z,-y,1/2-x
73 1/2+x,1/2+y,z
74 1/2-x,1/2-y,z
75 1/2-x,1/2+y,-z
76 1/2+x,1/2-y,-z
77 1/2+z,1/2+x,y
78 1/2+z,1/2-x,-y
79 1/2-z,1/2-x,y
80 1/2-z,1/2+x,-y
81 1/2+y,1/2+z,x
82 1/2-y,1/2+z,-x
83 1/2+y,1/2-z,-x
84 1/2-y,1/2-z,x
85 1/2+y,1/2+x,-z
86 1/2-y,1/2-x,-z
87 1/2+y,1/2-x,z
88 1/2-y,1/2+x,z
89 1/2+x,1/2+z,-y
90 1/2-x,1/2+z,y
91 1/2-x,1/2-z,-y
92 1/2+x,1/2-z,y
93 1/2+z,1/2+y,-x
94 1/2+z,1/2-y,x
95 1/2-z,1/2+y,x
96 1/2-z,1/2-y,-x
97 -x,-y,-z
98 x,y,-z
99 x,-y,z
100 -x,y,z
101 -z,-x,-y
102 -z,x,y
103 z,x,-y
104 z,-x,y
105 -y,-z,-x
106 y,-z,x
107 -y,z,x
108 y,z,-x
109 -y,-x,z
110 y,x,z
111 -y,x,-z
112 y,-x,-z
113 -x,-z,y
114 x,-z,-y
115 x,z,y
116 -x,z,-y
117 -z,-y,x
118 -z,y,-x
119 z,-y,-x
120 z,y,x
121 -x,1/2-y,1/2-z
122 x,1/2+y,1/2-z
123 x,1/2-y,1/2+z
124 -x,1/2+y,1/2+z
125 -z,1/2-x,1/2-y
126 -z,1/2+x,1/2+y
127 z,1/2+x,1/2-y
128 z,1/2-x,1/2+y
129 -y,1/2-z,1/2-x
130 y,1/2-z,1/2+x
131 -y,1/2+z,1/2+x
132 y,1/2+z,1/2-x
133 -y,1/2-x,1/2+z
134 y,1/2+x,1/2+z
135 -y,1/2+x,1/2-z
136 y,1/2-x,1/2-z
137 -x,1/2-z,1/2+y
138 x,1/2-z,1/2-y
139 x,1/2+z,1/2+y
140 -x,1/2+z,1/2-y
141 -z,1/2-y,1/2+x
142 -z,1/2+y,1/2-x
143 z,1/2-y,1/2-x
144 z,1/2+y,1/2+x
145 1/2-x,-y,1/2-z
146 1/2+x,y,1/2-z
147 1/2+x,-y,1/2+z
148 1/2-x,y,1/2+z
149 1/2-z,-x,1/2-y
150 1/2-z,x,1/2+y
151 1/2+z,x,1/2-y
152 1/2+z,-x,1/2+y
153 1/2-y,-z,1/2-x
154 1/2+y,-z,1/2+x
155 1/2-y,z,1/2+x
156 1/2+y,z,1/2-x
157 1/2-y,-x,1/2+z
158 1/2+y,x,1/2+z
159 1/2-y,x,1/2-z
160 1/2+y,-x,1/2-z
161 1/2-x,-z,1/2+y
162 1/2+x,-z,1/2-y
163 1/2+x,z,1/2+y
164 1/2-x,z,1/2-y
165 1/2-z,-y,1/2+x
166 1/2-z,y,1/2-x
167 1/2+z,-y,1/2-x
168 1/2+z,y,1/2+x
169 1/2-x,1/2-y,-z
170 1/2+x,1/2+y,-z
171 1/2+x,1/2-y,z
172 1/2-x,1/2+y,z
173 1/2-z,1/2-x,-y
174 1/2-z,1/2+x,y
175 1/2+z,1/2+x,-y
176 1/2+z,1/2-x,y
177 1/2-y,1/2-z,-x
178 1/2+y,1/2-z,x
179 1/2-y,1/2+z,x
180 1/2+y,1/2+z,-x
181 1/2-y,1/2-x,z
182 1/2+y,1/2+x,z
183 1/2-y,1/2+x,-z
184 1/2+y,1/2-x,-z
185 1/2-x,1/2-z,y
186 1/2+x,1/2-z,-y
187 1/2+x,1/2+z,y
188 1/2-x,1/2+z,-y
189 1/2-z,1/2-y,x
190 1/2-z,1/2+y,-x
191 1/2+z,1/2-y,-x
192 1/2+z,1/2+y,x
_cell_length_a                   38.757(2)
_cell_length_b                   38.757(2)
_cell_length_c                   38.757(2)
_cell_angle_alpha                90
_cell_angle_beta                 90
_cell_angle_gamma                90
_cell_volume                     58217.1
_exptl_crystal_colour            blue
_exptl_crystal_description       block
_cell_formula_units_Z            8
loop_
_atom_site_label
_atom_site_type_symbol
_atom_site_fract_x
_atom_site_fract_y
_atom_site_fract_z
Co1 Co 1.0000 0.19781(5) 0.0000
Co2 Co 1.0000 0.27284(5) 0.0000
Co3 Co 0.87406(3) 0.37406(3) 0.12594(3)
Co4 Co 0.82049(3) 0.32049(3) 0.17951(3)
O1 O 0.96365(14) 0.2631(2) 0.03635(14)
O2 O 0.96392(14) 0.2055(2) 0.03608(14)
O3 O 0.84999(14) 0.29515(18) 0.15001(14)
O4 O 0.88464(17) 0.32516(19) 0.11536(17)
O5 O 1.0000 0.1461(3) 0.0000
O6 O 1.0000 0.3247(3) 0.0000
O7 O 0.8774(13) 0.4288(6) 0.1226(13)
C1 C 0.9533(2) 0.2338(3) 0.0467(2)
C2 C 0.92588(14) 0.2353(2) 0.07412(14)
C3 C 0.91375(17) 0.2037(2) 0.08625(17)
H1 H 0.9226 0.1832 0.0774
C4 C 0.88744(17) 0.2026(3) 0.11256(17)
C5 C 0.87545(16) 0.2338(3) 0.12455(16)
H2 H 0.8585 0.2341 0.1415
C6 C 0.8878(2) 0.2644(2) 0.1122(2)
C7 C 0.91306(17) 0.2657(2) 0.08694(17)
H3 H 0.9212 0.2868 0.0788
C8 C 0.8731(2) 0.2990(4) 0.1269(2)
C9 C 0.87315(15) 0.1696(2) 0.12685(15)
C10 C 0.84529(17) 0.15471(17) 0.1115(2)
C11 C 0.8282(2) 0.1718(2) 0.0796(3)
O8 O 0.7917(2) 0.2917(2) 0.2083(2)
H4 H 0.860902 0.439385 0.139098
O1F O 0.96365(14) 0.03635(14) 0.2631(2)
O2F O 0.96392(14) 0.03608(14) 0.2055(2)
O3F O 0.84999(14) 0.15001(14) 0.29515(18)
O4F O 0.88464(17) 0.11536(17) 0.32516(19)
C1F C 0.9533(2) 0.0467(2) 0.2338(3)
C2F C 0.92588(14) 0.07412(14) 0.2353(2)
C3F C 0.91375(17) 0.08625(17) 0.2037(2)
H1F H 0.9226 0.0774 0.1832
C4F C 0.88744(17) 0.11256(17) 0.2026(3)
C5F C 0.87545(16) 0.12455(16) 0.2338(3)
H2F H 0.8585 0.1415 0.2341
C6F C 0.8878(2) 0.1122(2) 0.2644(2)
C7F C 0.91306(17) 0.08694(17) 0.2657(2)
H3F H 0.9212 0.0788 0.2868
C8F C 0.8731(2) 0.1269(2) 0.2990(4)
C9F C 0.87315(15) 0.12685(15) 0.1696(2)
C10F C 0.8885(2) 0.15471(17) 0.15471(17)
C11F C 0.9204(3) 0.1718(2) 0.1718(2)
O1I O 0.7369(2) 0.03635(14) 0.03635(14)
O2I O 0.7945(2) 0.03608(14) 0.03608(14)
O3I O 0.70485(18) 0.15001(14) 0.15001(14)
O4I O 0.67484(19) 0.11536(17) 0.11536(17)
C1I C 0.7662(3) 0.0467(2) 0.0467(2)
C2I C 0.7647(2) 0.07412(14) 0.07412(14)
C3I C 0.7963(2) 0.08625(17) 0.08625(17)
H1I H 0.8168 0.0774 0.0774
C4I C 0.7974(3) 0.11256(17) 0.11256(17)
C5I C 0.7662(3) 0.12455(16) 0.12455(16)
H2I H 0.7659 0.1415 0.1415
C6I C 0.7356(2) 0.1122(2) 0.1122(2)
C7I C 0.7343(2) 0.08694(17) 0.08694(17)
H3I H 0.7132 0.0788 0.0788
C8I C 0.7010(4) 0.1269(2) 0.1269(2)
C9I C 0.8304(2) 0.12685(15) 0.12685(15)
C10I C 0.84529(17) 0.1115(2) 0.15471(17)
C11I C 0.8282(2) 0.0796(3) 0.1718(2)
Co3B Co 1.12594(3) 0.37406(3) -0.12594(3)
Co4B Co 1.17951(3) 0.32049(3) -0.17951(3)
O1B O 1.03635(14) 0.2631(2) -0.03635(14)
O2B O 1.03608(14) 0.2055(2) -0.03608(14)
O3B O 1.15001(14) 0.29515(18) -0.15001(14)
O4B O 1.11536(17) 0.32516(19) -0.11536(17)
O7B O 1.1226(13) 0.4288(6) -0.1226(13)
C1B C 1.0467(2) 0.2338(3) -0.0467(2)
C2B C 1.07412(14) 0.2353(2) -0.07412(14)
C3B C 1.08625(17) 0.2037(2) -0.08625(17)
H1B H 1.0774 0.1832 -0.0774
C4B C 1.11256(17) 0.2026(3) -0.11256(17)
C5B C 1.12455(16) 0.2338(3) -0.12455(16)
H2B H 1.1415 0.2341 -0.1415
C6B C 1.1122(2) 0.2644(2) -0.1122(2)
C7B C 1.08694(17) 0.2657(2) -0.08694(17)
H3B H 1.0788 0.2868 -0.0788
C8B C 1.1269(2) 0.2990(4) -0.1269(2)
C9B C 1.12685(15) 0.1696(2) -0.12685(15)
C10B C 1.15471(17) 0.15471(17) -0.1115(2)
C11B C 1.1718(2) 0.1718(2) -0.0796(3)
O8B O 1.2083(2) 0.2917(2) -0.2083(2)
H4B H 1.139098 0.439385 -0.139098
O1E O 1.03635(14) 0.03635(14) -0.2631(2)
O2E O 1.03608(14) 0.03608(14) -0.2055(2)
O3E O 1.15001(14) 0.15001(14) -0.29515(18)
O4E O 1.11536(17) 0.11536(17) -0.32516(19)
C1E C 1.0467(2) 0.0467(2) -0.2338(3)
C2E C 1.07412(14) 0.07412(14) -0.2353(2)
C3E C 1.08625(17) 0.08625(17) -0.2037(2)
H1E H 1.0774 0.0774 -0.1832
C4E C 1.11256(17) 0.11256(17) -0.2026(3)
C5E C 1.12455(16) 0.12455(16) -0.2338(3)
H2E H 1.1415 0.1415 -0.2341
C6E C 1.1122(2) 0.1122(2) -0.2644(2)
C7E C 1.08694(17) 0.08694(17) -0.2657(2)
H3E H 1.0788 0.0788 -0.2868
C8E C 1.1269(2) 0.1269(2) -0.2990(4)
C9E C 1.12685(15) 0.12685(15) -0.1696(2)
C10E C 1.1115(2) 0.15471(17) -0.15471(17)
C11E C 1.0796(3) 0.1718(2) -0.1718(2)
O1H O 1.2631(2) 0.03635(14) -0.03635(14)
O2H O 1.2055(2) 0.03608(14) -0.03608(14)
O3H O 1.29515(18) 0.15001(14) -0.15001(14)
O4H O 1.32516(19) 0.11536(17) -0.11536(17)
C1H C 1.2338(3) 0.0467(2) -0.0467(2)
C2H C 1.2353(2) 0.07412(14) -0.07412(14)
C3H C 1.2037(2) 0.08625(17) -0.08625(17)
H1H H 1.1832 0.0774 -0.0774
C4H C 1.2026(3) 0.11256(17) -0.11256(17)
C5H C 1.2338(3) 0.12455(16) -0.12455(16)
H2H H 1.2341 0.1415 -0.1415
C6H C 1.2644(2) 0.1122(2) -0.1122(2)
C7H C 1.2657(2) 0.08694(17) -0.08694(17)
H3H H 1.2868 0.0788 -0.0788
C8H C 1.2990(4) 0.1269(2) -0.1269(2)
C9H C 1.1696(2) 0.12685(15) -0.12685(15)
C10H C 1.15471(17) 0.1115(2) -0.15471(17)
C11H C 1.1718(2) 0.0796(3) -0.1718(2)
Co1D Co 1.0000 0.0000 0.19781(5)
Co2D Co 1.0000 0.0000 0.27284(5)
O1D O 1.03635(14) -0.03635(14) 0.2631(2)
O2D O 1.03608(14) -0.03608(14) 0.2055(2)
O3D O 1.15001(14) -0.15001(14) 0.29515(18)
O4D O 1.11536(17) -0.11536(17) 0.32516(19)
O5D O 1.0000 0.0000 0.1461(3)
O6D O 1.0000 0.0000 0.3247(3)
C1D C 1.0467(2) -0.0467(2) 0.2338(3)
C2D C 1.07412(14) -0.07412(14) 0.2353(2)
C3D C 1.08625(17) -0.08625(17) 0.2037(2)
H1D H 1.0774 -0.0774 0.1832
C4D C 1.11256(17) -0.11256(17) 0.2026(3)
C5D C 1.12455(16) -0.12455(16) 0.2338(3)
H2D H 1.1415 -0.1415 0.2341
C6D C 1.1122(2) -0.1122(2) 0.2644(2)
C7D C 1.08694(17) -0.08694(17) 0.2657(2)
H3D H 1.0788 -0.0788 0.2868
C8D C 1.1269(2) -0.1269(2) 0.2990(4)
C9D C 1.12685(15) -0.12685(15) 0.1696(2)
C10D C 1.1115(2) -0.15471(17) 0.15471(17)
C11D C 1.0796(3) -0.1718(2) 0.1718(2)
O1J O 1.2631(2) -0.03635(14) 0.03635(14)
O2J O 1.2055(2) -0.03608(14) 0.03608(14)
O3J O 1.29515(18) -0.15001(14) 0.15001(14)
O4J O 1.32516(19) -0.11536(17) 0.11536(17)
C1J C 1.2338(3) -0.0467(2) 0.0467(2)
C2J C 1.2353(2) -0.07412(14) 0.07412(14)
C3J C 1.2037(2) -0.08625(17) 0.08625(17)
H1J H 1.1832 -0.0774 0.0774
C4J C 1.2026(3) -0.11256(17) 0.11256(17)
C5J C 1.2338(3) -0.12455(16) 0.12455(16)
H2J H 1.2341 -0.1415 0.1415
C6J C 1.2644(2) -0.1122(2) 0.1122(2)
C7J C 1.2657(2) -0.08694(17) 0.08694(17)
H3J H 1.2868 -0.0788 0.0788
C8J C 1.2990(4) -0.1269(2) 0.1269(2)
C9J C 1.1696(2) -0.12685(15) 0.12685(15)
C10J C 1.15471(17) -0.1115(2) 0.15471(17)
C11J C 1.1718(2) -0.0796(3) 0.1718(2)
O1A O 1.03635(14) -0.2631(2) 0.03635(14)
O2A O 1.03608(14) -0.2055(2) 0.03608(14)
O3A O 1.15001(14) -0.29515(18) 0.15001(14)
O4A O 1.11536(17) -0.32516(19) 0.11536(17)
C1A C 1.0467(2) -0.2338(3) 0.0467(2)
C2A C 1.07412(14) -0.2353(2) 0.07412(14)
C3A C 1.08625(17) -0.2037(2) 0.08625(17)
H1A H 1.0774 -0.1832 0.0774
C4A C 1.11256(17) -0.2026(3) 0.11256(17)
C5A C 1.12455(16) -0.2338(3) 0.12455(16)
H2A H 1.1415 -0.2341 0.1415
C6A C 1.1122(2) -0.2644(2) 0.1122(2)
C7A C 1.08694(17) -0.2657(2) 0.08694(17)
H3A H 1.0788 -0.2868 0.0788
C8A C 1.1269(2) -0.2990(4) 0.1269(2)
C9A C 1.12685(15) -0.1696(2) 0.12685(15)
C10A C 1.15471(17) -0.15471(17) 0.1115(2)
C11A C 1.1718(2) -0.1718(2) 0.0796(3)
Co1E Co 1.0000 0.0000 -0.19781(5)
Co2E Co 1.0000 0.0000 -0.27284(5)
O5E O 1.0000 0.0000 -0.1461(3)
O6E O 1.0000 0.0000 -0.3247(3)
Co3F Co 0.87406(3) 0.12594(3) 0.37406(3)
Co4F Co 0.82049(3) 0.17951(3) 0.32049(3)
O7F O 0.8774(13) 0.1226(13) 0.4288(6)
O8F O 0.7917(2) 0.2083(2) 0.2917(2)
H4F H 0.860902 0.139098 0.439385
O1G O 0.96365(14) -0.03635(14) -0.2631(2)
O2G O 0.96392(14) -0.03608(14) -0.2055(2)
O3G O 0.84999(14) -0.15001(14) -0.29515(18)
O4G O 0.88464(17) -0.11536(17) -0.32516(19)
C1G C 0.9533(2) -0.0467(2) -0.2338(3)
C2G C 0.92588(14) -0.07412(14) -0.2353(2)
C3G C 0.91375(17) -0.08625(17) -0.2037(2)
H1G H 0.9226 -0.0774 -0.1832
C4G C 0.88744(17) -0.11256(17) -0.2026(3)
C5G C 0.87545(16) -0.12455(16) -0.2338(3)
H2G H 0.8585 -0.1415 -0.2341
C6G C 0.8878(2) -0.1122(2) -0.2644(2)
C7G C 0.91306(17) -0.08694(17) -0.2657(2)
H3G H 0.9212 -0.0788 -0.2868
C8G C 0.8731(2) -0.1269(2) -0.2990(4)
C9G C 0.87315(15) -0.12685(15) -0.1696(2)
C10G C 0.8885(2) -0.15471(17) -0.15471(17)
C11G C 0.9204(3) -0.1718(2) -0.1718(2)
O1K O 0.7369(2) -0.03635(14) -0.03635(14)
O2K O 0.7945(2) -0.03608(14) -0.03608(14)
O3K O 0.70485(18) -0.15001(14) -0.15001(14)
O4K O 0.67484(19) -0.11536(17) -0.11536(17)
C1K C 0.7662(3) -0.0467(2) -0.0467(2)
C2K C 0.7647(2) -0.07412(14) -0.07412(14)
C3K C 0.7963(2) -0.08625(17) -0.08625(17)
H1K H 0.8168 -0.0774 -0.0774
C4K C 0.7974(3) -0.11256(17) -0.11256(17)
C5K C 0.7662(3) -0.12455(16) -0.12455(16)
H2K H 0.7659 -0.1415 -0.1415
C6K C 0.7356(2) -0.1122(2) -0.1122(2)
C7K C 0.7343(2) -0.08694(17) -0.08694(17)
H3K H 0.7132 -0.0788 -0.0788
C8K C 0.7010(4) -0.1269(2) -0.1269(2)
C9K C 0.8304(2) -0.12685(15) -0.12685(15)
C10K C 0.84529(17) -0.1115(2) -0.15471(17)
C11K C 0.8282(2) -0.0796(3) -0.1718(2)
O1C O 0.96365(14) -0.2631(2) -0.03635(14)
O2C O 0.96392(14) -0.2055(2) -0.03608(14)
O3C O 0.84999(14) -0.29515(18) -0.15001(14)
O4C O 0.88464(17) -0.32516(19) -0.11536(17)
C1C C 0.9533(2) -0.2338(3) -0.0467(2)
C2C C 0.92588(14) -0.2353(2) -0.07412(14)
C3C C 0.91375(17) -0.2037(2) -0.08625(17)
H1C H 0.9226 -0.1832 -0.0774
C4C C 0.88744(17) -0.2026(3) -0.11256(17)
C5C C 0.87545(16) -0.2338(3) -0.12455(16)
H2C H 0.8585 -0.2341 -0.1415
C6C C 0.8878(2) -0.2644(2) -0.1122(2)
C7C C 0.91306(17) -0.2657(2) -0.08694(17)
H3C H 0.9212 -0.2868 -0.0788
C8C C 0.8731(2) -0.2990(4) -0.1269(2)
C9C C 0.87315(15) -0.1696(2) -0.12685(15)
C10C C 0.84529(17) -0.15471(17) -0.1115(2)
C11C C 0.8282(2) -0.1718(2) -0.0796(3)
Co3I Co 0.62594(3) 0.12594(3) 0.12594(3)
Co4I Co 0.67951(3) 0.17951(3) 0.17951(3)
O7I O 0.5712(6) 0.1226(13) 0.1226(13)
O8I O 0.7083(2) 0.2083(2) 0.2083(2)
H4I H 0.560615 0.139098 0.139098
O7EA O 0.8774(13) 0.3774(13) 0.0712(6)
H4EA H 0.860902 0.360902 0.060615
O7DC O 0.9288(6) 0.3774(13) 0.1226(13)
H4DC H 0.939385 0.360902 0.139098
O7BA O 1.1226(13) 0.3774(13) -0.0712(6)
H4BA H 1.139098 0.360902 -0.060615
O7EC O 1.0712(6) 0.3774(13) -0.1226(13)
H4EC H 1.060615 0.360902 -0.139098
O7AA O 0.8774(13) 0.0712(6) 0.3774(13)
H4AA H 0.860902 0.060615 0.360902
O7DB O 0.9288(6) 0.1226(13) 0.3774(13)
H4DB H 0.939385 0.139098 0.360902
O7AB O 0.6226(13) 0.1226(13) 0.0712(6)
H4AB H 0.639098 0.139098 0.060615
O7UB O 0.6226(13) 0.0712(6) 0.1226(13)
H4UB H 0.639098 0.060615 0.139098
Co1A Co 1.0000 -0.19781(5) 0.0000
Co1H Co 1.19781(5) 0.0000 0.0000
Co1I Co 0.80219(5) 0.0000 0.0000
Co2A Co 1.0000 -0.27284(5) 0.0000
Co2H Co 1.27284(5) 0.0000 0.0000
Co2I Co 0.72716(5) 0.0000 0.0000
Co3A Co 1.12594(3) -0.37406(3) 0.12594(3)
Co3C Co 0.87406(3) -0.37406(3) -0.12594(3)
Co3D Co 1.12594(3) -0.12594(3) 0.37406(3)
Co3E Co 1.12594(3) 0.12594(3) -0.37406(3)
Co3G Co 0.87406(3) -0.12594(3) -0.37406(3)
Co3H Co 1.37406(3) 0.12594(3) -0.12594(3)
Co3J Co 1.37406(3) -0.12594(3) 0.12594(3)
Co3K Co 0.62594(3) -0.12594(3) -0.12594(3)
Co4A Co 1.17951(3) -0.32049(3) 0.17951(3)
Co4C Co 0.82049(3) -0.32049(3) -0.17951(3)
Co4D Co 1.17951(3) -0.17951(3) 0.32049(3)
Co4E Co 1.17951(3) 0.17951(3) -0.32049(3)
Co4G Co 0.82049(3) -0.17951(3) -0.32049(3)
Co4H Co 1.32049(3) 0.17951(3) -0.17951(3)
Co4J Co 1.32049(3) -0.17951(3) 0.17951(3)
Co4K Co 0.67951(3) -0.17951(3) -0.17951(3)
O1P O 0.96365(14) 0.03635(14) -0.2631(2)
O1Q O 1.03635(14) 0.03635(14) 0.2631(2)
O1R O 1.03635(14) -0.03635(14) -0.2631(2)
O1S O 0.96365(14) -0.03635(14) 0.2631(2)
O1T O 1.03635(14) 0.2631(2) 0.03635(14)
O1V O 0.96365(14) 0.2631(2) -0.03635(14)
O2P O 0.96392(14) 0.03608(14) -0.2055(2)
O2Q O 1.03608(14) 0.03608(14) 0.2055(2)
O2R O 1.03608(14) -0.03608(14) -0.2055(2)
O2S O 0.96392(14) -0.03608(14) 0.2055(2)
O2T O 1.03608(14) 0.2055(2) 0.03608(14)
O2V O 0.96392(14) 0.2055(2) -0.03608(14)
O3AA O 0.84999(14) 0.20485(18) 0.34999(14)
O3BA O 1.15001(14) 0.34999(14) -0.20485(18)
O3EA O 0.84999(14) 0.34999(14) 0.20485(18)
O3AB O 0.65001(14) 0.15001(14) 0.20485(18)
O3DB O 0.79515(18) 0.15001(14) 0.34999(14)
O3UB O 0.65001(14) 0.20485(18) 0.15001(14)
O3DC O 0.79515(18) 0.34999(14) 0.15001(14)
O3EC O 1.20485(18) 0.34999(14) -0.15001(14)
O4AA O 0.88464(17) 0.17484(19) 0.38464(17)
O4BA O 1.11536(17) 0.38464(17) -0.17484(19)
O4EA O 0.88464(17) 0.38464(17) 0.17484(19)
O4AB O 0.61536(17) 0.11536(17) 0.17484(19)
O4DB O 0.82516(19) 0.11536(17) 0.38464(17)
O4UB O 0.61536(17) 0.17484(19) 0.11536(17)
O4DC O 0.82516(19) 0.38464(17) 0.11536(17)
O4EC O 1.17484(19) 0.38464(17) -0.11536(17)
O9? O 0.8991(17) 0.413(3) 0.1009(17)
H5? H 0.8196 0.1942 0.0858
H6? H 0.8450 0.1741 0.0615
H7? H 0.8095 0.1576 0.0717
H8? H 0.900790 0.436384 0.129799
H9? H 0.873095 0.436161 0.098439
H10? H 0.802517 0.180889 0.086478
H11? H 0.843859 0.193526 0.071100
H12? H 0.826225 0.152983 0.058827
H13? H 0.993748 0.333240 -0.023333
H14? H 0.982919 0.333240 0.017081
H15? H 1.023333 0.137560 0.006252
H16? H 0.982919 0.137560 0.017081
H17? H 0.871636 0.436270 0.098780
H18? H 0.806492 0.276908 0.223092
loop_
_geom_bond_atom_site_label_1
_geom_bond_atom_site_label_2
_geom_bond_site_symmetry_1
_geom_bond_site_symmetry_2
Co1 Co2 1_555 1_555
Co2 O1 1_555 1_555
Co3 O4 1_555 1_555
Co4 O3 1_555 1_555
O1 C1 1_555 1_555
O2 Co1 1_555 1_555
O3 C8 1_555 1_555
O4 C8 1_555 1_555
O5 Co1 1_555 1_555
O6 Co2 1_555 1_555
O7 Co3 1_555 1_555
C1 O2 1_555 1_555
C2 C1 1_555 1_555
C3 C2 1_555 1_555
H1 C3 1_555 1_555
C4 C3 1_555 1_555
C5 C4 1_555 1_555
H2 C5 1_555 1_555
C6 C5 1_555 1_555
C7 C2 1_555 1_555
H3 C7 1_555 1_555
C8 C6 1_555 1_555
C9 C4 1_555 1_555
C10 C9 1_555 1_555
C11 C10 1_555 1_555
O8 Co4 1_555 1_555
H4 O7 1_555 1_555
O1F C1F 1_555 1_555
O2F C1F 1_555 1_555
O3F C8F 1_555 1_555
O4F C8F 1_555 1_555
C1F C2F 1_555 1_555
C2F C3F 1_555 1_555
C3F H1F 1_555 1_555
C4F C3F 1_555 1_555
C5F C4F 1_555 1_555
H2F C5F 1_555 1_555
C6F C5F 1_555 1_555
C7F C2F 1_555 1_555
H3F C7F 1_555 1_555
C8F C6F 1_555 1_555
C9F C4F 1_555 1_555
C10F C9 1_555 1_555
C11F C10F 1_555 1_555
O1I C1I 1_555 1_555
O2I C1I 1_555 1_555
O3I C8I 1_555 1_555
O4I C8I 1_555 1_555
C1I C2I 1_555 1_555
C2I C3I 1_555 1_555
C3I H1I 1_555 1_555
C4I C3I 1_555 1_555
C5I C4I 1_555 1_555
H2I C5I 1_555 1_555
C6I C5I 1_555 1_555
C7I C2I 1_555 1_555
H3I C7I 1_555 1_555
C8I C6I 1_555 1_555
C9I C10 1_555 1_555
C10I C9F 1_555 1_555
C11I C10I 1_555 1_555
Co3B O4B 1_555 1_555
Co4B O3B 1_555 1_555
O1B Co2 1_555 1_555
O2B Co1 1_555 1_555
O3B C8B 1_555 1_555
O4B C8B 1_555 1_555
O7B Co3B 1_555 1_555
C1B O1B 1_555 1_555
C2B C1B 1_555 1_555
C3B C2B 1_555 1_555
H1B C3B 1_555 1_555
C4B C3B 1_555 1_555
C5B C4B 1_555 1_555
H2B C5B 1_555 1_555
C6B C5B 1_555 1_555
C7B C2B 1_555 1_555
H3B C7B 1_555 1_555
C8B C6B 1_555 1_555
C9B C4B 1_555 1_555
C10B C9B 1_555 1_555
C11B C10B 1_555 1_555
O8B Co4B 1_555 1_555
H4B O7B 1_555 1_555
O1E C1E 1_555 1_555
O2E C1E 1_555 1_555
O3E C8E 1_555 1_555
O4E C8E 1_555 1_555
C1E C2E 1_555 1_555
C2E C3E 1_555 1_555
C3E H1E 1_555 1_555
C4E C3E 1_555 1_555
C5E C4E 1_555 1_555
H2E C5E 1_555 1_555
C6E C5E 1_555 1_555
C7E C2E 1_555 1_555
H3E C7E 1_555 1_555
C8E C6E 1_555 1_555
C9E C4E 1_555 1_555
C10E C9B 1_555 1_555
C11E C10E 1_555 1_555
O1H C1H 1_555 1_555
O2H C1H 1_555 1_555
O3H C8H 1_555 1_555
O4H C8H 1_555 1_555
C1H C2H 1_555 1_555
C2H C3H 1_555 1_555
C3H H1H 1_555 1_555
C4H C3H 1_555 1_555
C5H C4H 1_555 1_555
H2H C5H 1_555 1_555
C6H C5H 1_555 1_555
C7H C2H 1_555 1_555
H3H C7H 1_555 1_555
C8H C6H 1_555 1_555
C9H C10B 1_555 1_555
C10H C9E 1_555 1_555
C11H C10H 1_555 1_555
Co1D O2F 1_555 1_555
Co2D O1F 1_555 1_555
O1D Co2D 1_555 1_555
O2D Co1D 1_555 1_555
O3D C8D 1_555 1_555
O4D C8D 1_555 1_555
O5D Co1D 1_555 1_555
O6D Co2D 1_555 1_555
C1D O1D 1_555 1_555
C2D C1D 1_555 1_555
C3D C2D 1_555 1_555
H1D C3D 1_555 1_555
C4D C3D 1_555 1_555
C5D C4D 1_555 1_555
H2D C5D 1_555 1_555
C6D C5D 1_555 1_555
C7D C2D 1_555 1_555
H3D C7D 1_555 1_555
C8D C6D 1_555 1_555
C9D C4D 1_555 1_555
C10D C9D 1_555 1_555
C11D C10D 1_555 1_555
O1J C1J 1_555 1_555
O2J C1J 1_555 1_555
O3J C8J 1_555 1_555
O4J C8J 1_555 1_555
C1J C2J 1_555 1_555
C2J C3J 1_555 1_555
C3J H1J 1_555 1_555
C4J C3J 1_555 1_555
C5J C4J 1_555 1_555
H2J C5J 1_555 1_555
C6J C5J 1_555 1_555
C7J C2J 1_555 1_555
H3J C7J 1_555 1_555
C8J C6J 1_555 1_555
C9J C4J 1_555 1_555
C10J C9D 1_555 1_555
C11J C10J 1_555 1_555
O1A C1A 1_555 1_555
O2A C1A 1_555 1_555
O3A C8A 1_555 1_555
O4A C8A 1_555 1_555
C1A C2A 1_555 1_555
C2A C3A 1_555 1_555
C3A H1A 1_555 1_555
C4A C3A 1_555 1_555
C5A C4A 1_555 1_555
H2A C5A 1_555 1_555
C6A C5A 1_555 1_555
C7A C2A 1_555 1_555
H3A C7A 1_555 1_555
C8A C6A 1_555 1_555
C9A C10D 1_555 1_555
C10A C9J 1_555 1_555
C11A C10A 1_555 1_555
Co1E O2E 1_555 1_555
Co2E O1E 1_555 1_555
O5E Co1E 1_555 1_555
O6E Co2E 1_555 1_555
Co3F O4F 1_555 1_555
Co4F O3F 1_555 1_555
O7F Co3F 1_555 1_555
O8F Co4F 1_555 1_555
H4F O7F 1_555 1_555
O1G Co2E 1_555 1_555
O2G Co1E 1_555 1_555
O3G C8G 1_555 1_555
O4G C8G 1_555 1_555
C1G O1G 1_555 1_555
C2G C1G 1_555 1_555
C3G C2G 1_555 1_555
H1G C3G 1_555 1_555
C4G C3G 1_555 1_555
C5G C4G 1_555 1_555
H2G C5G 1_555 1_555
C6G C5G 1_555 1_555
C7G C2G 1_555 1_555
H3G C7G 1_555 1_555
C8G C6G 1_555 1_555
C9G C4G 1_555 1_555
C10G C9G 1_555 1_555
C11G C10G 1_555 1_555
O1K C1K 1_555 1_555
O2K C1K 1_555 1_555
O3K C8K 1_555 1_555
O4K C8K 1_555 1_555
C1K C2K 1_555 1_555
C2K C3K 1_555 1_555
C3K H1K 1_555 1_555
C4K C3K 1_555 1_555
C5K C4K 1_555 1_555
H2K C5K 1_555 1_555
C6K C5K 1_555 1_555
C7K C2K 1_555 1_555
H3K C7K 1_555 1_555
C8K C6K 1_555 1_555
C9K C4K 1_555 1_555
C10K C9G 1_555 1_555
C11K C10K 1_555 1_555
O1C C1C 1_555 1_555
O2C C1C 1_555 1_555
O3C C8C 1_555 1_555
O4C C8C 1_555 1_555
C1C C2C 1_555 1_555
C2C C3C 1_555 1_555
C3C H1C 1_555 1_555
C4C C3C 1_555 1_555
C5C C4C 1_555 1_555
H2C C5C 1_555 1_555
C6C C5C 1_555 1_555
C7C C2C 1_555 1_555
H3C C7C 1_555 1_555
C8C C6C 1_555 1_555
C9C C10G 1_555 1_555
C10C C9K 1_555 1_555
C11C C10C 1_555 1_555
Co3I O4I 1_555 1_555
Co4I O3I 1_555 1_555
O7I Co3I 1_555 1_555
O8I Co4I 1_555 1_555
H4I O7I 1_555 1_555
O7EA Co3 1_555 1_555
H4EA O7EA 1_555 1_555
O7DC Co3 1_555 1_555
H4DC O7DC 1_555 1_555
O7BA Co3B 1_555 1_555
H4BA O7BA 1_555 1_555
O7EC Co3B 1_555 1_555
H4EC O7EC 1_555 1_555
O7AA Co3F 1_555 1_555
H4AA O7AA 1_555 1_555
O7DB Co3F 1_555 1_555
H4DB O7DB 1_555 1_555
O7AB Co3I 1_555 1_555
H4AB O7AB 1_555 1_555
O7UB Co3I 1_555 1_555
H4UB O7UB 1_555 1_555
Co1A O2A 1_555 1_555
Co1H O2H 1_555 1_555
Co1I O2I 1_555 1_555
Co2A O1A 1_555 1_555
Co2H O1H 1_555 1_555
Co2I O1I 1_555 1_555
Co3A O4A 1_555 1_555
Co3C O4C 1_555 1_555
Co3D O4D 1_555 1_555
Co3E O4E 1_555 1_555
Co3G O4G 1_555 1_555
Co3H O4H 1_555 1_555
Co3J O4J 1_555 1_555
Co3K O4K 1_555 1_555
Co4A O3A 1_555 1_555
Co4C O3C 1_555 1_555
Co4D O3D 1_555 1_555
Co4E O3E 1_555 1_555
Co4G O3G 1_555 1_555
Co4H O3H 1_555 1_555
Co4J O3J 1_555 1_555
Co4K O3K 1_555 1_555
O1P Co2E 1_555 1_555
O1Q Co2D 1_555 1_555
O1R Co2E 1_555 1_555
O1S Co2D 1_555 1_555
O1T Co2 1_555 1_555
O1V Co2 1_555 1_555
O2P Co1E 1_555 1_555
O2Q Co1D 1_555 1_555
O2R Co1E 1_555 1_555
O2S Co1D 1_555 1_555
O2T Co1 1_555 1_555
O2V Co1 1_555 1_555
O3AA Co4F 1_555 1_555
O3BA Co4B 1_555 1_555
O3EA Co4 1_555 1_555
O3AB Co4I 1_555 1_555
O3DB Co4F 1_555 1_555
O3UB Co4I 1_555 1_555
O3DC Co4 1_555 1_555
O3EC Co4B 1_555 1_555
O4AA Co3F 1_555 1_555
O4BA Co3B 1_555 1_555
O4EA Co3 1_555 1_555
O4AB Co3I 1_555 1_555
O4DB Co3F 1_555 1_555
O4UB Co3I 1_555 1_555
O4DC Co3 1_555 1_555
O4EC Co3B 1_555 1_555
C6 C7 1_555 1_555
C6F C7F 1_555 1_555
C9F C10F 1_555 1_555
C4I C9I 1_555 1_555
C6I C7I 1_555 1_555
C9I C10I 1_555 1_555
O2B C1B 1_555 1_555
C6B C7B 1_555 1_555
C6E C7E 1_555 1_555
C9E C10E 1_555 1_555
C4H C9H 1_555 1_555
C6H C7H 1_555 1_555
C9H C10H 1_555 1_555
Co1D Co2D 1_555 1_555
O2D C1D 1_555 1_555
C6D C7D 1_555 1_555
O1J Co2H 1_555 1_555
O2J Co1H 1_555 1_555
C6J C7J 1_555 1_555
C9J C10J 1_555 1_555
C4A C9A 1_555 1_555
C6A C7A 1_555 1_555
C9A C10A 1_555 1_555
Co1E Co2E 1_555 1_555
O2G C1G 1_555 1_555
C6G C7G 1_555 1_555
O1K Co2I 1_555 1_555
O2K Co1I 1_555 1_555
C6K C7K 1_555 1_555
C9K C10K 1_555 1_555
O1C Co2A 1_555 1_555
O2C Co1A 1_555 1_555
C4C C9C 1_555 1_555
C6C C7C 1_555 1_555
C9C C10C 1_555 1_555
Co1A Co2A 1_555 1_555
Co1H Co2H 1_555 1_555
Co1I Co2I 1_555 1_555

#END
