
#######################################################################
#
#                 Cambridge Crystallographic Data Centre
#                                CCDC 
#
#######################################################################
#
# If this CIF has been generated from an entry in the Cambridge 
# Structural Database, then it will include bibliographic, chemical, 
# crystal, experimental, refinement or atomic coordinate data resulting 
# from the CCDC's data processing and validation procedures.
#
#######################################################################

data_CIFMIP
_chemical_formula_moiety         '(C21 H17 Co3 N1 O15)n,5n(C3 H7 N1 O1)'
_chemical_name_systematic        
'catena-((\m~5~-Hydrogen benzene-1,3,5-tricarboxylato)-(\m~5~-benzene-1,3,5-tricarboxylato)-(\m~3~-hydroxo)-aqua-dimethylformamide-tri-cobalt dimethylformamide solvate)'
_symmetry_cell_setting           orthorhombic
_symmetry_space_group_name_H-M   'I b a 2'
_symmetry_Int_Tables_number      45
_space_group_name_Hall           'I 2 -2c'
loop_
_symmetry_equiv_pos_site_id
_symmetry_equiv_pos_as_xyz
1 x,y,z
2 -x,-y,z
3 -x,y,1/2+z
4 x,-y,1/2+z
5 1/2+x,1/2+y,1/2+z
6 1/2-x,1/2-y,1/2+z
7 1/2-x,1/2+y,z
8 1/2+x,1/2-y,z
_cell_length_a                   19.695(4)
_cell_length_b                   21.188(4)
_cell_length_c                   17.820(4)
_cell_angle_alpha                90
_cell_angle_beta                 90
_cell_angle_gamma                90
_cell_volume                     7436.24
_exptl_crystal_colour            blue
_exptl_crystal_description       needle
_cell_formula_units_Z            8
loop_
_atom_site_label
_atom_site_type_symbol
_atom_site_fract_x
_atom_site_fract_y
_atom_site_fract_z
_atom_site_U_iso_or_equiv
_atom_site_thermal_displace_type
O1 O 0.2866(8) 0.9415(7) 0.5544(7) 0.0643 Uani
O2 O 0.2334(10) 0.8498(7) 0.5561(8) 0.0760 Uani
C1 C 0.2616(13) 0.8961(12) 0.5200(14) 0.0730 Uani
C2 C 0.2623(9) 0.8936(9) 0.4366(9) 0.0463 Uani
C3 C 0.2351(14) 0.8410(12) 0.3966(11) 0.0740 Uani
H1 H 0.2220 0.8049 0.4227 0.0890 Uiso
C4 C 0.2716(11) 0.9502(9) 0.3173(12) 0.0620 Uani
C5 C 0.2460(12) 0.8997(11) 0.2798(12) 0.0673 Uani
H2 H 0.2399 0.9012 0.2281 0.0810 Uiso
C6 C 0.2282(11) 0.8432(9) 0.3217(10) 0.0590 Uani
C7 C 0.1986(9) 0.7860(10) 0.2802(13) 0.0577 Uani
O3 O 0.1795(10) 0.7418(7) 0.3203(7) 0.0813 Uani
O4 O 0.1916(8) 0.7916(8) 0.2127(7) 0.0687 Uani
Co1 Co 0.13432(12) 0.72464(12) 0.16173(14) 0.0531 Uani
Co2 Co 0.16853(12) 0.64409(12) 0.31045(13) 0.0485 Uani
Co3 Co 0.26210(12) 0.60001(12) 0.15875(15) 0.0536 Uani
O5 O 0.3629(7) 0.7454(7) 0.5563(7) 0.0540 Uani
O6 O 0.4360(9) 0.8250(8) 0.5456(8) 0.0677 Uani
H3 H 0.4748 0.8126 0.5538 0.1010 Uiso
O7 O 0.3212(6) 0.6588(9) 0.2191(7) 0.0660 Uani
O8 O 0.2725(8) 0.6427(9) 0.3274(8) 0.0783 Uani
O9 O 0.5608(6) 0.8418(7) 0.3059(8) 0.0617 Uani
O10 O 0.3327(8) 1.0475(6) 0.3087(10) 0.0667 Uani
O11 O 0.1546(10) 0.6378(10) 0.4288(10) 0.0817 Uani
O12 O 0.1718(6) 0.6451(7) 0.1938(7) 0.0440 Uani
O13 O 0.2567(9) 1.0207(8) 0.2228(8) 0.0747 Uani
O14 O 0.3466(10) 0.5513(12) 0.1222(12) 0.1060 Uani
O15 O 0.5458(8) 0.7675(8) 0.2171(7) 0.0713 Uani
C8 C 0.2859(8) 0.9468(11) 0.3986(10) 0.0550 Uani
H4 H 0.3095 0.9786 0.4232 0.0660 Uiso
C9 C 0.4095(8) 0.7632(10) 0.4360(9) 0.0477 Uani
C10 C 0.3638(10) 0.7236(10) 0.4008(9) 0.0500 Uani
H5 H 0.3275 0.7076 0.4282 0.0600 Uiso
C11 C 0.3704(12) 0.7069(11) 0.3262(8) 0.0667 Uani
C12 C 0.4215(11) 0.7314(11) 0.2851(12) 0.0633 Uani
H6 H 0.4243 0.7223 0.2342 0.0760 Uiso
C13 C 0.4731(9) 0.7725(9) 0.3203(9) 0.0500 Uani
C14 C 0.4598(11) 0.7899(11) 0.3951(10) 0.0617 Uani
H7 H 0.4865 0.8210 0.4173 0.0740 Uiso
C15 C 0.4041(11) 0.7840(15) 0.5196(14) 0.0650 Uani
C16 C 0.3197(9) 0.6643(12) 0.2857(10) 0.0583 Uani
C17 C 0.2877(11) 1.0096(12) 0.2818(9) 0.0627 Uani
C18 C 0.5303(10) 0.7955(11) 0.2772(15) 0.0707 Uani
C19 C 0.160(3) 0.673(2) 0.481(2) 0.1090 Uani
H8 H 0.2030 0.6911 0.4789 0.1910 Uiso
N1 N 0.129(3) 0.698(2) 0.542(2) 0.1400 Uani
C20 C 0.083(4) 0.751(4) 0.531(4) 0.1567 Uani
H9 H 0.0471 0.7485 0.5673 0.1630 Uiso
H10 H 0.0642 0.7490 0.4814 0.1630 Uiso
H11 H 0.1074 0.7896 0.5373 0.1630 Uiso
C21 C 0.172(2) 0.707(2) 0.605(2) 0.1400 Uani
H12 H 0.1735 0.7505 0.6182 0.1120 Uiso
H13 H 0.2173 0.6924 0.5930 0.1120 Uiso
H14 H 0.1551 0.6826 0.6466 0.1120 Uiso
H15 H 0.341(3) 0.510(7) 0.101(17) 0.1700 Uiso
H16 H 0.386(4) 0.556(12) 0.150(11) 0.1700 Uiso
H17 H 0.194(7) 0.665(8) 0.161(11) 0.0300 Uiso
O1E O 0.2134(8) 0.5585(7) 0.0544(7) 0.0643 Uani
O2E O 0.2666(10) 0.6502(7) 0.0561(8) 0.0760 Uani
Co1E Co 0.36568(12) 0.77536(12) 0.66173(14) 0.0531 Uani
Co1G Co 0.63432(12) 0.77536(12) 0.16173(14) 0.0531 Uani
Co2F Co 0.33147(12) 1.14409(12) 0.31045(13) 0.0485 Uani
Co2G Co 0.66853(12) 0.85591(12) 0.31045(13) 0.0485 Uani
Co3E Co 0.23790(12) 0.89999(12) 0.65875(15) 0.0536 Uani
Co3F Co 0.23790(12) 1.10001(12) 0.15875(15) 0.0536 Uani
O5E O 0.1371(7) 0.7546(7) 0.0563(7) 0.0540 Uani
O9G O 0.0608(6) 0.6582(7) 0.3059(8) 0.0617 Uani
O10F O 0.1673(8) 0.5475(6) 0.3087(10) 0.0667 Uani
O13F O 0.2433(9) 0.5207(8) 0.2228(8) 0.0747 Uani
O15G O 0.0458(8) 0.7325(8) 0.2171(7) 0.0713 Uani
loop_
_atom_site_aniso_label
_atom_site_aniso_U_11
_atom_site_aniso_U_22
_atom_site_aniso_U_33
_atom_site_aniso_U_23
_atom_site_aniso_U_13
_atom_site_aniso_U_12
O1 0.092(10) 0.063(10) 0.038(6) 0.001(6) -0.007(6) -0.013(8)
O2 0.124(13) 0.063(10) 0.041(7) 0.004(6) -0.003(7) -0.047(9)
C1 0.089(15) 0.063(17) 0.067(13) 0.007(11) -0.015(12) -0.004(13)
C2 0.058(9) 0.045(11) 0.036(8) -0.003(7) -0.007(7) -0.018(8)
C3 0.115(18) 0.075(18) 0.032(9) 0.002(9) 0.001(10) -0.001(14)
C4 0.092(13) 0.032(11) 0.062(11) 0.002(9) 0.035(11) 0.003(9)
C5 0.089(14) 0.064(16) 0.049(10) 0.015(9) -0.019(10) -0.025(12)
C6 0.092(13) 0.047(13) 0.038(9) 0.006(8) 0.009(9) -0.028(10)
C7 0.049(9) 0.044(12) 0.080(14) -0.006(9) -0.001(9) 0.002(8)
O3 0.162(15) 0.051(9) 0.031(6) 0.003(6) 0.011(8) -0.056(10)
O4 0.084(10) 0.081(12) 0.041(7) -0.001(6) 0.002(6) -0.008(8)
Co1 0.0671(14) 0.0527(16) 0.0396(11) 0.0005(12) 0.0038(13) -0.0010(11)
Co2 0.0593(13) 0.0438(14) 0.0423(12) 0.0011(11) 0.0032(11) -0.0067(11)
Co3 0.0617(13) 0.0586(17) 0.0406(12) 0.0004(13) 0.0016(13) -0.0103(11)
O5 0.062(7) 0.055(9) 0.045(6) -0.007(6) 0.024(6) -0.010(6)
O6 0.094(11) 0.062(10) 0.047(7) -0.015(7) -0.011(7) -0.007(8)
O7 0.050(7) 0.116(14) 0.032(6) -0.006(6) 0.005(5) -0.027(8)
O8 0.076(9) 0.108(14) 0.051(8) -0.007(8) 0.006(7) -0.043(9)
O9 0.059(7) 0.072(10) 0.054(7) -0.017(7) 0.008(7) -0.031(7)
O10 0.082(9) 0.041(8) 0.077(8) -0.005(8) 0.009(8) 0.002(7)
O11 0.094(12) 0.086(14) 0.065(9) 0.004(8) 0.020(9) 0.013(9)
O12 0.055(7) 0.049(8) 0.028(5) -0.002(5) -0.010(5) -0.003(6)
O13 0.105(11) 0.061(10) 0.058(7) -0.001(7) -0.042(8) -0.030(8)
O14 0.088(12) 0.110(19) 0.120(15) 0.005(13) 0.002(11) 0.039(12)
O15 0.082(10) 0.082(12) 0.050(7) -0.011(7) 0.012(7) -0.022(9)
C8 0.041(8) 0.079(15) 0.045(9) 0.005(9) -0.011(7) -0.010(9)
C9 0.040(8) 0.060(13) 0.043(8) -0.009(8) 0.006(7) -0.014(8)
C10 0.060(10) 0.061(13) 0.029(8) 0.000(7) 0.000(7) -0.019(9)
C11 0.107(16) 0.072(15) 0.021(8) -0.004(7) 0.005(8) -0.051(13)
C12 0.078(12) 0.051(13) 0.061(11) -0.002(9) 0.001(10) -0.037(10)
C13 0.056(9) 0.054(11) 0.040(9) -0.014(8) -0.003(8) -0.007(8)
C14 0.079(13) 0.063(14) 0.043(9) -0.017(9) -0.010(9) 0.003(11)
C15 0.058(12) 0.065(12) 0.072(13) -0.008(14) -0.018(12) 0.008(13)
C16 0.045(9) 0.086(17) 0.044(11) -0.010(9) 0.003(8) 0.007(10)
C17 0.076(12) 0.082(17) 0.030(8) -0.001(9) -0.006(9) 0.009(12)
C18 0.059(11) 0.042(13) 0.111(17) -0.011(11) 0.033(12) -0.012(9)
C19 0.105(19) 0.11(2) 0.112(19) -0.002(10) 0.009(10) -0.005(10)
N1 0.14(4) 0.18(5) 0.10(4) -0.04(3) 0.03(3) 0.01(4)
C20 0.15(7) 0.16(7) 0.16(7) 0.000(10) 0.001(10) 0.001(10)
C21 0.17(3) 0.12(3) 0.13(2) -0.04(2) -0.02(2) -0.05(2)
O1E 0.092 0.063 0.038 -0.001 0.007 -0.013
O2E 0.124 0.063 0.041 -0.004 0.003 -0.047
Co1E 0.0671 0.0527 0.0396 -0.0005 -0.0038 -0.001
Co1G 0.0671 0.0527 0.0396 -0.0005 0.0038 0.001
Co2F 0.0593 0.0438 0.0423 0.0011 -0.0032 0.0067
Co2G 0.0593 0.0438 0.0423 -0.0011 0.0032 0.0067
Co3E 0.0617 0.0586 0.0406 -0.0004 -0.0016 -0.0103
Co3F 0.0617 0.0586 0.0406 0.0004 -0.0016 0.0103
O5E 0.062 0.055 0.045 0.007 -0.024 -0.01
O9G 0.059 0.072 0.054 0.017 0.008 0.031
O10F 0.082 0.041 0.077 -0.005 -0.009 -0.002
O13F 0.105 0.061 0.058 -0.001 0.042 0.03
O15G 0.082 0.082 0.05 0.011 0.012 0.022
loop_
_geom_bond_atom_site_label_1
_geom_bond_atom_site_label_2
_geom_bond_site_symmetry_1
_geom_bond_site_symmetry_2
O1 C1 1_555 1_555
O2 C1 1_555 1_555
C1 C2 1_555 1_555
C2 C3 1_555 1_555
C3 H1 1_555 1_555
C4 C5 1_555 1_555
C5 H2 1_555 1_555
C6 C3 1_555 1_555
C7 C6 1_555 1_555
O3 C7 1_555 1_555
O4 C7 1_555 1_555
Co1 O4 1_555 1_555
Co2 O3 1_555 1_555
Co3 O7 1_555 1_555
O5 C15 1_555 1_555
O6 H3 1_555 1_555
O7 C16 1_555 1_555
O8 Co2 1_555 1_555
O9 C18 1_555 1_555
O10 C17 1_555 1_555
O11 Co2 1_555 1_555
O12 Co1 1_555 1_555
O13 C17 1_555 1_555
O14 Co3 1_555 1_555
O15 C18 1_555 1_555
C8 C2 1_555 1_555
H4 C8 1_555 1_555
C9 C10 1_555 1_555
C10 H5 1_555 1_555
C11 C10 1_555 1_555
C12 C11 1_555 1_555
H6 C12 1_555 1_555
C13 C12 1_555 1_555
C14 C9 1_555 1_555
H7 C14 1_555 1_555
C15 O6 1_555 1_555
C16 O8 1_555 1_555
C17 C4 1_555 1_555
C18 C13 1_555 1_555
C19 O11 1_555 1_555
H8 C19 1_555 1_555
N1 C19 1_555 1_555
C20 N1 1_555 1_555
H9 C20 1_555 1_555
H10 C20 1_555 1_555
H11 C20 1_555 1_555
C21 N1 1_555 1_555
H12 C21 1_555 1_555
H13 C21 1_555 1_555
H14 C21 1_555 1_555
H15 O14 1_555 1_555
H16 O14 1_555 1_555
H17 O12 1_555 1_555
O1E Co3 1_555 1_555
O2E Co3 1_555 1_555
Co1E O5 1_555 1_555
Co1G O15 1_555 1_555
Co2F O10 1_555 1_555
Co2G O9 1_555 1_555
Co3E O1 1_555 1_555
Co3F O13 1_555 1_555
O5E Co1 1_555 1_555
O9G Co2 1_555 1_555
O10F Co2 1_555 1_555
O13F Co3 1_555 1_555
O15G Co1 1_555 1_555
O2 Co3E 1_555 1_555
C4 C8 1_555 1_555
C5 C6 1_555 1_555
Co2 O12 1_555 1_555
Co3 O12 1_555 1_555
C9 C15 1_555 1_555
C11 C16 1_555 1_555
C13 C14 1_555 1_555

#END
