
#######################################################################
#
#                 Cambridge Crystallographic Data Centre
#                                CCDC 
#
#######################################################################
#
# If this CIF has been generated from an entry in the Cambridge 
# Structural Database, then it will include bibliographic, chemical, 
# crystal, experimental, refinement or atomic coordinate data resulting 
# from the CCDC's data processing and validation procedures.
#
#######################################################################

data_FUYCAE
_chemical_formula_moiety         '(C48 H34 Co4 N4 O16 S1)n'
_chemical_name_systematic        
catena-((\m~6~-sulfato)-bis(\m~5~-2,6-bis(p-carboxyphenyl)-4,4'-bipyridine)-bis(\m~3~-hydroxo)-diaqua-tetra-cobalt)
_symmetry_cell_setting           tetragonal
_symmetry_space_group_name_H-M   'P 42/n m c'
_symmetry_Int_Tables_number      137
_space_group_name_Hall           '-P 4ac 2a'
loop_
_symmetry_equiv_pos_site_id
_symmetry_equiv_pos_as_xyz
1 x,y,z
2 1/2-x,1/2-y,z
3 1/2-y,x,1/2+z
4 y,1/2-x,1/2+z
5 -x,1/2+y,-z
6 1/2+x,-y,-z
7 1/2+y,1/2+x,1/2-z
8 -y,-x,1/2-z
9 -x,-y,-z
10 1/2+x,1/2+y,-z
11 1/2+y,-x,1/2-z
12 -y,1/2+x,1/2-z
13 x,1/2-y,z
14 1/2-x,y,z
15 1/2-y,1/2-x,1/2+z
16 y,x,1/2+z
_cell_length_a                   17.7875(2)
_cell_length_b                   17.7875(2)
_cell_length_c                   32.8115(8)
_cell_angle_alpha                90
_cell_angle_beta                 90
_cell_angle_gamma                90
_cell_volume                     10381.4
_exptl_crystal_colour            red
_exptl_crystal_description       block
_cell_formula_units_Z            4
loop_
_atom_site_label
_atom_site_type_symbol
_atom_site_fract_x
_atom_site_fract_y
_atom_site_fract_z
S1 S 0.2500 0.7500 0.17836(6)
Co1 Co 0.34092(4) 0.65908(4) 0.2500
Co2 Co 0.2500 0.56464(6) 0.17123(3)
O1 O 0.42646(18) 0.63049(19) 0.21158(9)
O2 O 0.2500 0.4477(3) 0.19114(15)
H1 H 0.2868 0.4264 0.2030
O3 O 0.3630(2) 0.5586(2) 0.16677(9)
O4 O 0.2500 0.5983(2) 0.22933(11)
H2 H 0.2500 0.5595 0.2428
O5 O 0.3169(2) 0.7500 0.20580(10)
O6 O 0.2500 0.6825(2) 0.15293(11)
C1 C 0.4220(3) 0.5923(3) 0.17939(15)
C2 C 0.4890(3) 0.5852(4) 0.15314(15)
C3 C 0.4901(3) 0.5398(4) 0.12031(16)
H3 H 0.4466 0.5135 0.1136
C4 C 0.5522(3) 0.5306(4) 0.09642(16)
H4 H 0.5510 0.4966 0.0749
C5 C 0.6176(3) 0.5717(4) 0.10406(16)
C6 C 0.6172(3) 0.6222(4) 0.13678(16)
H5 H 0.6594 0.6512 0.1426
C7 C 0.5540(4) 0.6281(4) 0.16004(16)
H6 H 0.5540 0.6622 0.1815
C8 C 0.6849(3) 0.5644(4) 0.07895(17)
C9 C 0.6829(3) 0.5458(4) 0.03671(15)
H7 H 0.6371 0.5408 0.0233
C10 C 0.7500 0.5354(6) 0.0157(2)
C11 C 0.7500 0.5126(6) -0.0272(2)
C12 C 0.7021(7) 0.4588(8) -0.0406(3)
H8 H 0.6763 0.4293 -0.0218
C13 C 0.7022(6) 0.4378(6) -0.0820(3)
H9 H 0.6773 0.3939 -0.0895
N1 N 0.7500 0.4686(4) -0.10855(18)
N2 N 0.7500 0.5734(5) 0.09882(19)
Co1A Co 0.15908(4) 0.84092(4) 0.2500
Co1J Co 0.15908(4) 0.65908(4) 0.2500
Co1K Co 0.34092(4) 0.84092(4) 0.2500
Co1J_2 Co 1.15908(4) 0.65908(4) 0.2500
Co1K_2 Co 0.34092(4) -0.15908(4) 0.2500
Co2_2 Co 1.2500 0.56464(6) 0.17123(3)
Co2E Co 0.7500 0.43536(6) -0.17123(3)
Co2A Co 0.2500 0.93536(6) 0.17123(3)
Co2G Co 0.43536(6) 0.7500 0.32877(3)
Co2C Co 0.56464(6) 0.2500 0.67123(3)
Co2G_2 Co 0.43536(6) -0.2500 0.32877(3)
O1M O 1.07354(18) 0.63049(19) 0.21158(9)
O1G O 0.36951(19) 0.57354(18) 0.28842(9)
O1K O 0.36951(19) -0.07354(18) 0.28842(9)
O1A O 0.07354(18) 0.86951(19) 0.21158(9)
O1F O 0.13049(19) 0.92646(18) 0.28842(9)
O2_2 O 1.2500 0.4477(3) 0.19114(15)
H1M H 0.2132 0.4264 0.2030
H1M_2 H 1.2132 0.4264 0.2030
H1_2 H 1.2868 0.4264 0.2030
O3M O 1.1370(2) 0.5586(2) 0.16677(9)
O3G O 0.4414(2) 0.6370(2) 0.33323(9)
O3K O 0.4414(2) -0.1370(2) 0.33323(9)
O3M_2 O 0.1370(2) 0.5586(2) 0.16677(9)
O3_2 O 1.3630(2) 0.5586(2) 0.16677(9)
O4G O 0.4017(2) 0.7500 0.27067(11)
O4A O 0.2500 0.9017(2) 0.22933(11)
O4F O 0.0983(2) 0.7500 0.27067(11)
O4_2 O 1.2500 0.5983(2) 0.22933(11)
H2G H 0.4405 0.7500 0.2572
H2A H 0.2500 0.9405 0.2428
H2F H 0.0595 0.7500 0.2572
H2_2 H 1.2500 0.5595 0.2428
O5A O 0.1831(2) 0.7500 0.20580(10)
O5G O 0.2500 0.6831(2) 0.29420(10)
O5F O 0.2500 0.8169(2) 0.29420(10)
O6A O 0.2500 0.8175(2) 0.15293(11)
O6_2 O 1.2500 0.6825(2) 0.15293(11)
C1M C 1.0780(3) 0.5923(3) 0.17939(15)
C1G C 0.4077(3) 0.5780(3) 0.32061(15)
C1K C 0.4077(3) -0.0780(3) 0.32061(15)
C2M C 1.0110(3) 0.5852(4) 0.15314(15)
C2G C 0.4148(4) 0.5110(3) 0.34686(15)
C2K C 0.4148(4) -0.0110(3) 0.34686(15)
C3M C 1.0099(3) 0.5398(4) 0.12031(16)
C3G C 0.4602(4) 0.5099(3) 0.37969(16)
C3K C 0.4602(4) -0.0099(3) 0.37969(16)
H3M H 1.0534 0.5135 0.1136
H3G H 0.4865 0.5534 0.3864
H3K H 0.4865 -0.0534 0.3864
C4M C 0.9478(3) 0.5306(4) 0.09642(16)
C4G C 0.4694(4) 0.4478(3) 0.40358(16)
C4K C 0.4694(4) 0.0522(3) 0.40358(16)
H4M H 0.9490 0.4966 0.0749
H4G H 0.5034 0.4490 0.4251
H4K H 0.5034 0.0510 0.4251
C5M C 0.8824(3) 0.5717(4) 0.10406(16)
C5G C 0.4283(4) 0.3824(3) 0.39594(16)
C5K C 0.4283(4) 0.1176(3) 0.39594(16)
C6M C 0.8828(3) 0.6222(4) 0.13678(16)
C6G C 0.3778(4) 0.3828(3) 0.36322(16)
C6K C 0.3778(4) 0.1172(3) 0.36322(16)
H5M H 0.8406 0.6512 0.1426
H5G H 0.3488 0.3406 0.3574
H5K H 0.3488 0.1594 0.3574
C7M C 0.9460(4) 0.6281(4) 0.16004(16)
C7G C 0.3719(4) 0.4460(4) 0.33996(16)
C7K C 0.3719(4) 0.0540(4) 0.33996(16)
H6M H 0.9460 0.6622 0.1815
H6G H 0.3378 0.4460 0.3185
H6K H 0.3378 0.0540 0.3185
C8M C 0.8151(3) 0.5644(4) 0.07895(17)
C8G C 0.4356(4) 0.3151(3) 0.42105(17)
C8K C 0.4356(4) 0.1849(3) 0.42105(17)
C9M C 0.8171(3) 0.5458(4) 0.03671(15)
C9G C 0.4542(4) 0.3171(3) 0.46329(15)
C9K C 0.4542(4) 0.1829(3) 0.46329(15)
H7M H 0.8629 0.5408 0.0233
H7G H 0.4592 0.3629 0.4767
H7K H 0.4592 0.1371 0.4767
C10G C 0.4646(6) 0.2500 0.4843(2)
C11G C 0.4874(6) 0.2500 0.5272(2)
C12M C 0.7979(7) 0.4588(8) -0.0406(3)
C12G C 0.5412(8) 0.2979(7) 0.5406(3)
C12K C 0.5412(8) 0.2021(7) 0.5406(3)
H8M H 0.8237 0.4293 -0.0218
H8G H 0.5707 0.3237 0.5218
H8K H 0.5707 0.1763 0.5218
C13M C 0.7978(6) 0.4378(6) -0.0820(3)
C13G C 0.5622(6) 0.2978(6) 0.5820(3)
C13K C 0.5622(6) 0.2022(6) 0.5820(3)
H9M H 0.8227 0.3939 -0.0895
H9G H 0.6061 0.3227 0.5895
H9K H 0.6061 0.1773 0.5895
N1G N 0.5314(4) 0.2500 0.60855(18)
N1E N 0.2500 0.5314(4) 0.10855(18)
N1E_2 N 1.2500 0.5314(4) 0.10855(18)
N2G N 0.4266(5) 0.2500 0.40118(19)
C14? C 0.7068(6) 0.5455(7) -0.0545(3)
C15? C 0.7083(6) 0.5258(7) -0.0963(3)
H10? H 0.6822 0.5896 -0.0471
H11? H 0.6820 0.5545 -0.1153
loop_
_geom_bond_atom_site_label_1
_geom_bond_atom_site_label_2
_geom_bond_site_symmetry_1
_geom_bond_site_symmetry_2
S1 O5 1_555 1_555
Co1 O1 1_555 1_555
Co2 O2 1_555 1_555
O1 C1 1_555 1_555
O2 H1 1_555 1_555
O3 Co2 1_555 1_555
O4 Co1 1_555 1_555
H2 O4 1_555 1_555
O5 Co1 1_555 1_555
O6 S1 1_555 1_555
C1 O3 1_555 1_555
C2 C1 1_555 1_555
C3 C2 1_555 1_555
H3 C3 1_555 1_555
C4 C3 1_555 1_555
H4 C4 1_555 1_555
C5 C4 1_555 1_555
C6 C5 1_555 1_555
H5 C6 1_555 1_555
C7 C2 1_555 1_555
H6 C7 1_555 1_555
C8 C5 1_555 1_555
C9 C8 1_555 1_555
H7 C9 1_555 1_555
C10 C9 1_555 1_555
C11 C10 1_555 1_555
C12 C11 1_555 1_555
H8 C12 1_555 1_555
C13 C12 1_555 1_555
H9 C13 1_555 1_555
N1 C13 1_555 1_555
N2 C8 1_555 1_555
Co1A O1A 1_555 1_555
Co1J O4 1_555 1_555
Co1K O5 1_555 1_555
Co1J_2 O1M 1_555 1_555
Co1K_2 O1K 1_555 1_555
Co2_2 O2_2 1_555 1_555
Co2E N1 1_555 1_555
Co2A O4A 1_555 1_555
Co2G O3G 1_555 1_555
Co2C N1G 1_555 1_555
Co2G_2 O3K 1_555 1_555
O1M C1M 1_555 1_555
O1G Co1 1_555 1_555
O1K C1K 1_555 1_555
O1F Co1A 1_555 1_555
O2_2 H1M_2 1_555 1_555
H1M O2 1_555 1_555
H1_2 O2_2 1_555 1_555
O3M Co2_2 1_555 1_555
O3G C1G 1_555 1_555
O3K C1K 1_555 1_555
O3M_2 Co2 1_555 1_555
O3_2 Co2_2 1_555 1_555
O4G Co1 1_555 1_555
O4A Co1A 1_555 1_555
O4F Co1A 1_555 1_555
O4_2 Co1J_2 1_555 1_555
H2G O4G 1_555 1_555
H2A O4A 1_555 1_555
H2F O4F 1_555 1_555
H2_2 O4_2 1_555 1_555
O5A S1 1_555 1_555
O5G Co1 1_555 1_555
O5F Co1A 1_555 1_555
O6A S1 1_555 1_555
O6_2 Co2_2 1_555 1_555
C1M O3M 1_555 1_555
C1G O1G 1_555 1_555
C1K C2K 1_555 1_555
C2M C1M 1_555 1_555
C2G C1G 1_555 1_555
C2K C3K 1_555 1_555
C3M C2M 1_555 1_555
C3G C2G 1_555 1_555
C3K H3K 1_555 1_555
H3M C3M 1_555 1_555
H3G C3G 1_555 1_555
C4M C3M 1_555 1_555
C4G C3G 1_555 1_555
C4K C3K 1_555 1_555
H4M C4M 1_555 1_555
H4G C4G 1_555 1_555
H4K C4K 1_555 1_555
C5M C4M 1_555 1_555
C5G C4G 1_555 1_555
C5K C4K 1_555 1_555
C6M C5M 1_555 1_555
C6G C5G 1_555 1_555
C6K C5K 1_555 1_555
H5M C6M 1_555 1_555
H5G C6G 1_555 1_555
H5K C6K 1_555 1_555
C7M C2M 1_555 1_555
C7G C2G 1_555 1_555
C7K C2K 1_555 1_555
H6M C7M 1_555 1_555
H6G C7G 1_555 1_555
H6K C7K 1_555 1_555
C8M N2 1_555 1_555
C8G C5G 1_555 1_555
C8K C5K 1_555 1_555
C9M C10 1_555 1_555
C9G C8G 1_555 1_555
C9K C8K 1_555 1_555
H7M C9M 1_555 1_555
H7G C9G 1_555 1_555
H7K C9K 1_555 1_555
C10G C9G 1_555 1_555
C11G C10G 1_555 1_555
C12M C11 1_555 1_555
C12G C11G 1_555 1_555
C12K C11G 1_555 1_555
H8M C12M 1_555 1_555
H8G C12G 1_555 1_555
H8K C12K 1_555 1_555
C13M C13 1_555 1_555
C13G C12G 1_555 1_555
C13K C12K 1_555 1_555
H9M C13M 1_555 1_555
H9G C13G 1_555 1_555
H9K C13K 1_555 1_555
N1G C13G 1_555 1_555
N1E Co2 1_555 1_555
N1E_2 Co2_2 1_555 1_555
N2G C8G 1_555 1_555
Co2 O4 1_555 1_555
Co2 O6 1_555 1_555
C6 C7 1_555 1_555
C12 C12M 1_555 1_555
N1 C13M 1_555 1_555
Co1A O5A 1_555 1_555
Co1J O4F 1_555 1_555
Co1J O5A 1_555 1_555
Co1J O5G 1_555 1_555
Co1K O4G 1_555 1_555
Co1K O4A 1_555 1_555
Co1K O5F 1_555 1_555
Co2_2 O4_2 1_555 1_555
Co2A O6A 1_555 1_555
Co2G O4G 1_555 1_555
C5M C8M 1_555 1_555
C6M C7M 1_555 1_555
C6G C7G 1_555 1_555
C6K C7K 1_555 1_555
C8M C9M 1_555 1_555
C8K N2G 1_555 1_555
C9K C10G 1_555 1_555
C12M C13M 1_555 1_555
C12G C12K 1_555 1_555
C13G C13K 1_555 1_555
C13K N1G 1_555 1_555

#END
