
#######################################################################
#
#                 Cambridge Crystallographic Data Centre
#                                CCDC 
#
#######################################################################
#
# If this CIF has been generated from an entry in the Cambridge 
# Structural Database, then it will include bibliographic, chemical, 
# crystal, experimental, refinement or atomic coordinate data resulting 
# from the CCDC's data processing and validation procedures.
#
#######################################################################

data_LIJFUH
_chemical_name_common            ZTOF-1
_chemical_formula_moiety         '(C2 H8 N1 1+)n,n(C25 H11 O18 Ti1 Zn3 1-)'
_chemical_name_systematic        
'catena-[Dimethylammonium tris(\m~5~-2-oxidoterephthalato)-(\m~2~-formato)-(\m~3~-hydroxo)-titanium-tri-zinc unknown solvate]'
_symmetry_cell_setting           monoclinic
_symmetry_space_group_name_H-M   'P 21/c'
_symmetry_Int_Tables_number      14
_space_group_name_Hall           '-P 2ybc'
loop_
_symmetry_equiv_pos_site_id
_symmetry_equiv_pos_as_xyz
1 x,y,z
2 -x,1/2+y,1/2-z
3 -x,-y,-z
4 x,1/2-y,1/2+z
_cell_length_a                   16.472(3)
_cell_length_b                   14.628(3)
_cell_length_c                   21.029(4)
_cell_angle_alpha                90
_cell_angle_beta                 97.01(3)
_cell_angle_gamma                90
_cell_volume                     5029.11
_exptl_crystal_colour            orange
_exptl_crystal_description       Polyhedra
_cell_formula_units_Z            4
loop_
_atom_site_label
_atom_site_type_symbol
_atom_site_fract_x
_atom_site_fract_y
_atom_site_fract_z
Zn1 Zn 0.205857(19) -1.14160(2) -1.954825(13)
Zn2 Zn 0.252683(17) -0.95330(2) -1.884900(14)
Zn3 Zn 0.055800(16) -0.99262(2) -1.927304(13)
Ti1 Ti 0.21343(3) -1.00235(3) -2.13111(2)
O1 O 0.28345(13) -0.85911(14) -1.96202(10)
O2 O 0.22826(10) -0.92601(12) -2.05114(8)
O3 O 0.32865(11) -1.00637(13) -2.12212(9)
O4 O 0.20657(11) -0.90463(14) -2.18868(9)
O5 O 0.09345(11) -0.98027(13) -2.12639(9)
O6 O 0.20235(13) -1.09415(13) -2.19345(8)
O7 O 0.20023(11) -1.10689(12) -2.06935(8)
O8 O 0.22865(17) -1.23808(15) -2.02194(9)
O9 O 0.08630(15) -1.20324(15) -1.97582(11)
O10 O 0.21550(14) -1.31776(14) -2.36493(9)
O11 O 0.22781(12) -1.45480(14) -2.31600(9)
O12 O 0.07395(13) -0.61065(16) -2.36423(10)
O13 O 0.20650(13) -0.64846(14) -2.34127(10)
O14 O 0.63321(13) -1.00513(16) -2.11670(12)
O15 O 0.67333(13) -0.8955(2) -2.04686(12)
O16 O -0.02919(11) -0.91682(14) -2.13712(9)
O17 O 0.16792(10) -1.01172(12) -1.94943(8)
H1 H 0.1709 -0.9866 -1.9855
O18 O 0.00673(12) -1.08479(15) -2.00476(9)
C1 C 0.29069(16) -0.89308(17) -2.01503(12)
C2 C 0.37341(16) -0.89955(19) -2.03750(13)
C3 C 0.43826(19) -0.8526(2) -2.00379(16)
H2 H 0.4281 -0.8125 -1.9701
C4 C 0.51648(19) -0.8631(2) -2.01812(16)
H3 H 0.5600 -0.8297 -1.9951
C5 C 0.53244(16) -0.9238(2) -2.06727(14)
C6 C 0.46894(16) -0.9699(2) -2.10178(13)
H4 H 0.4797 -1.0099 -2.1353
C7 C 0.38806(16) -0.95817(18) -2.08782(12)
C8 C 0.62060(17) -0.9429(2) -2.07882(14)
C9 C 0.14713(14) -0.84986(17) -2.21520(11)
C10 C 0.16702(15) -0.78458(18) -2.25975(12)
H5 H 0.2215 -0.7806 -2.2701
C11 C 0.10807(16) -0.72645(19) -2.28850(13)
C12 C 0.02778(18) -0.7308(2) -2.27378(16)
H6 H -0.0129 -0.6910 -2.2942
C13 C 0.00828(17) -0.7940(2) -2.22888(16)
H7 H -0.0460 -0.7962 -2.2181
C14 C 0.06700(15) -0.85453(18) -2.19906(12)
C15 C 0.04234(14) -0.92047(18) -2.15172(11)
C16 C 0.21042(16) -1.18435(18) -2.19229(11)
C17 C 0.21206(15) -1.22977(19) -2.25073(11)
H8 H 0.2075 -1.1954 -2.2893
C18 C 0.22011(18) -1.3228(2) -2.25327(12)
C19 C 0.2277(3) -1.3742(2) -2.19706(14)
H9 H 0.2339 -1.4387 -2.1987
C20 C 0.2259(3) -1.3305(2) -2.13892(14)
H10 H 0.2295 -1.3657 -2.1007
C21 C 0.2192(2) -1.23611(19) -2.13546(12)
C22 C 0.21698(19) -1.19249(18) -2.07264(12)
C23 C 0.0254(2) -1.1693(2) -2.00594(16)
H11 H -0.0104 -1.2087 -2.0320
C24 C 0.22078(16) -1.3696(2) -2.31673(12)
C25 C 0.13142(18) -0.65596(19) -2.33514(12)
Zn1B Zn 0.794143(19) -0.85840(2) -2.045175(13)
Zn1C Zn 0.205857(19) -1.35840(2) -2.454825(13)
Zn2B Zn 0.747317(17) -1.04670(2) -2.115100(14)
Zn2C Zn 0.252683(17) -1.54670(2) -2.384900(14)
Zn2C_2 Zn 0.252683(17) -0.54670(2) -2.384900(14)
Zn3B Zn -0.055800(16) -1.00738(2) -2.072696(13)
Zn3C Zn 0.055800(16) -0.50738(2) -2.427304(13)
O10C O 0.21550(14) -1.18224(14) -1.86493(9)
O11C O 0.22781(12) -1.04520(14) -1.81600(9)
O12C O 0.07395(13) -0.88935(16) -1.86423(10)
O13C O 0.20650(13) -0.85154(14) -1.84127(10)
O14B O 0.36679(13) -0.99487(16) -1.88330(12)
O15B O 0.32667(13) -1.1045(2) -1.95314(12)
O16B O 0.02919(11) -1.08318(14) -1.86288(9)
O18B O -0.00673(12) -0.91521(15) -1.99524(9)
N1 N 0.3833(6) -0.7942(9) -1.7443(5)
H12 H 0.4336 -0.7860 -1.7582
H13 H 0.3426 -0.7752 -1.7753
C26 C 0.3777(6) -0.7478(8) -1.6792(5)
H14 H 0.3847 -0.6816 -1.6835
H15 H 0.4208 -0.7718 -1.6473
H16 H 0.3241 -0.7604 -1.6654
C27 C 0.3694(6) -0.9010(9) -1.7208(6)
H17 H 0.3713 -0.9426 -1.7571
H18 H 0.3161 -0.9061 -1.7049
H19 H 0.4127 -0.9174 -1.6865
loop_
_geom_bond_atom_site_label_1
_geom_bond_atom_site_label_2
_geom_bond_site_symmetry_1
_geom_bond_site_symmetry_2
Zn1 O7 1_555 1_555
Zn2 O1 1_555 1_555
Zn3 O17 1_555 1_555
Ti1 O2 1_555 1_555
O1 C1 1_555 1_555
O2 C1 1_555 1_555
O3 Ti1 1_555 1_555
O4 Ti1 1_555 1_555
O5 Ti1 1_555 1_555
O6 Ti1 1_555 1_555
O7 Ti1 1_555 1_555
O8 Zn1 1_555 1_555
O9 Zn1 1_555 1_555
O10 C24 1_555 1_555
O11 C24 1_555 1_555
O12 C25 1_555 1_555
O13 C25 1_555 1_555
O14 C8 1_555 1_555
O15 C8 1_555 1_555
O16 C15 1_555 1_555
O17 Zn1 1_555 1_555
H1 O17 1_555 1_555
O18 Zn3 1_555 1_555
C1 C2 1_555 1_555
C2 C3 1_555 1_555
C3 H2 1_555 1_555
C4 C3 1_555 1_555
H3 C4 1_555 1_555
C5 C4 1_555 1_555
C6 C5 1_555 1_555
H4 C6 1_555 1_555
C7 O3 1_555 1_555
C8 C5 1_555 1_555
C9 O4 1_555 1_555
C10 C9 1_555 1_555
H5 C10 1_555 1_555
C11 C10 1_555 1_555
C12 C11 1_555 1_555
H6 C12 1_555 1_555
C13 C12 1_555 1_555
H7 C13 1_555 1_555
C14 C9 1_555 1_555
C15 O5 1_555 1_555
C16 O6 1_555 1_555
C17 C16 1_555 1_555
H8 C17 1_555 1_555
C18 C17 1_555 1_555
C19 C18 1_555 1_555
H9 C19 1_555 1_555
C20 C19 1_555 1_555
H10 C20 1_555 1_555
C21 C16 1_555 1_555
C22 O7 1_555 1_555
C23 O9 1_555 1_555
H11 C23 1_555 1_555
C24 C18 1_555 1_555
C25 C11 1_555 1_555
N1 H12 1_555 1_555
H13 N1 1_555 1_555
C26 N1 1_555 1_555
H14 C26 1_555 1_555
H15 C26 1_555 1_555
H16 C26 1_555 1_555
C27 N1 1_555 1_555
H17 C27 1_555 1_555
H18 C27 1_555 1_555
H19 C27 1_555 1_555
Zn1B O15 1_555 1_555
Zn1C O10 1_555 1_555
Zn2B O14 1_555 1_555
Zn2C O11 1_555 1_555
Zn2C_2 O13 1_555 1_555
Zn3B O16 1_555 1_555
Zn3C O12 1_555 1_555
O10C Zn1 1_555 1_555
O11C Zn2 1_555 1_555
O12C Zn3 1_555 1_555
O13C Zn2 1_555 1_555
O14B Zn2 1_555 1_555
O15B Zn1 1_555 1_555
O16B Zn3 1_555 1_555
O18B Zn3 1_555 1_555
Zn2 O17 1_555 1_555
O8 C22 1_555 1_555
O18 C23 1_555 1_555
O18 Zn3B 1_555 1_555
C2 C7 1_555 1_555
C6 C7 1_555 1_555
C13 C14 1_555 1_555
C14 C15 1_555 1_555
C20 C21 1_555 1_555
C21 C22 1_555 1_555
Zn3B O18B 1_555 1_555

#END
