
#######################################################################
#
#                 Cambridge Crystallographic Data Centre
#                                CCDC 
#
#######################################################################
#
# If this CIF has been generated from an entry in the Cambridge 
# Structural Database, then it will include bibliographic, chemical, 
# crystal, experimental, refinement or atomic coordinate data resulting 
# from the CCDC's data processing and validation procedures.
#
#######################################################################

data_PESYOE
_chemical_name_common            Zn-Pd-2
_chemical_formula_moiety         '(C14 H12 Cl2 N2 O11 Pd1 Zn2)n,H2 O1'
_chemical_name_systematic        
'catena-(bis(\m-pyridine-3,5-dicarboxylato)-dichloro-triaqua-palladium-di-zinc monohydrate)'
_symmetry_cell_setting           orthorhombic
_symmetry_space_group_name_H-M   'P n a 21'
_symmetry_Int_Tables_number      33
_space_group_name_Hall           'P 2c -2n'
loop_
_symmetry_equiv_pos_site_id
_symmetry_equiv_pos_as_xyz
1 x,y,z
2 1/2-x,1/2+y,1/2+z
3 1/2+x,1/2-y,z
4 -x,-y,1/2+z
_cell_length_a                   22.901(7)
_cell_length_b                   12.825(4)
_cell_length_c                   14.820(5)
_cell_angle_alpha                90
_cell_angle_beta                 90
_cell_angle_gamma                90
_cell_volume                     4352.71
_exptl_crystal_colour            yellow
_exptl_crystal_description       block
_cell_formula_units_Z            4
loop_
_atom_site_label
_atom_site_type_symbol
_atom_site_fract_x
_atom_site_fract_y
_atom_site_fract_z
_atom_site_U_iso_or_equiv
_atom_site_thermal_displace_type
Pd1 Pd 0.23898(4) 0.47208(10) 0.3195(2) 0.0554 Uani
Zn1 Zn 0.01647(6) 0.75592(12) 0.5629(2) 0.0393 Uani
Cl1 Cl 0.2339(2) 0.4320(5) 0.4678(4) 0.0993 Uani
Cl2 Cl 0.2422(2) 0.5178(4) 0.1712(4) 0.0860 Uani
O1 O 0.4330(4) 0.3428(8) 0.1403(6) 0.0560 Uani
O2 O 0.4832(4) 0.6440(7) 0.4772(7) 0.0503 Uani
O3 O 0.0687(4) 0.6772(7) 0.4852(6) 0.0520 Uani
O4 O 0.0524(4) 0.2886(6) 0.1411(5) 0.0430 Uiso
O5 O -0.0238(3) 0.3767(7) 0.1783(8) 0.0593 Uani
O6 O -0.0173(4) 0.6181(9) 0.4507(8) 0.0637 Uani
O7 O 0.3994(4) 0.6060(9) 0.5531(8) 0.0677 Uani
O8 O 0.5119(4) 0.4139(9) 0.2040(7) 0.0693 Uani
N1 N 0.1515(4) 0.4727(9) 0.3175(11) 0.0547 Uani
N2 N 0.3271(4) 0.4792(9) 0.3287(9) 0.0550 Uani
C1 C 0.0634(6) 0.5449(12) 0.3764(11) 0.0560 Uani
C2 C 0.1228(6) 0.5382(11) 0.3767(10) 0.0523 Uani
C3 C 0.0313(7) 0.6137(9) 0.4395(8) 0.0410 Uani
C4 C 0.0299(5) 0.4879(10) 0.3096(10) 0.0473 Uani
C5 C 0.0290 0.3720 0.1770 0.0570 Uiso
C6 C 0.4107(6) 0.5468(11) 0.4064(10) 0.0523 Uani
C7 C 0.4469(5) 0.5067(10) 0.3351(11) 0.0513 Uani
C8 C 0.4637(7) 0.3970(10) 0.1989(9) 0.0483 Uani
C9 C 0.4238(5) 0.4536(11) 0.2674(10) 0.0470 Uani
C10 C 0.1217(6) 0.4155(11) 0.2572(10) 0.0510 Uiso
C11 C 0.3619(6) 0.4361(12) 0.2633(9) 0.0553 Uani
C12 C 0.0594(5) 0.4228(12) 0.2528(9) 0.0527 Uani
C13 C 0.3505(6) 0.5355(11) 0.3984(9) 0.0520 Uani
C14 C 0.4324(7) 0.6085(14) 0.4825(11) 0.0650 Uani
H1 H 0.4876 0.5211 0.3359 0.0610 Uiso
H2 H 0.3449 0.3958 0.2163 0.0660 Uiso
H3 H 0.3255 0.5675 0.4413 0.0620 Uiso
H4 H 0.1424 0.3721 0.2164 0.0610 Uiso
H5 H -0.0112 0.4966 0.3058 0.0570 Uiso
H6 H 0.1445 0.5789 0.4183 0.0630 Uiso
Zn2 Zn 0.09612(6) 0.14861(13) 0.1832(2) 0.0507 Uani
O9 O 0.1810(5) 0.2066(10) 0.1635(12) 0.1003 Uani
O10 O 0.0984(5) 0.1918(10) 0.3149(10) 0.0990 Uani
O11 O 0.1298(5) -0.0022(13) 0.2180(9) 0.1143 Uani
H7 H 0.0661 0.1774 0.3532 0.1190 Uiso
H8 H 0.1317 0.2269 0.3381 0.1190 Uiso
H9 H 0.2135 0.1752 0.1926 0.1200 Uiso
H10 H 0.1866 0.2655 0.1255 0.1210 Uiso
H11 H 0.1037 -0.0569 0.2333 0.1370 Uiso
H12 H 0.1707 -0.0143 0.2183 0.1370 Uiso
Zn1A Zn 0.48353(6) 0.25592(12) 0.0629(2) 0.0393 Uani
Zn1B Zn 0.51647(6) 0.74408(12) 0.5629(2) 0.0393 Uani
Zn1C Zn -0.01647(6) 0.24408(12) 0.0629(2) 0.0393 Uani
O1A O 0.0670(4) 0.8428(8) 0.6403(6) 0.0560 Uani
O2B O -0.0168(4) 0.8560(7) 0.4772(7) 0.0503 Uani
O4C O -0.0524(4) 0.7114(6) 0.6411(5) 0.0430 Uiso
O5C O 0.0238(3) 0.6233(7) 0.6783(8) 0.0593 Uani
O7A O 0.1006(4) 0.1060(9) 0.0531(8) 0.0677 Uani
O8B O 0.0119(4) 0.0861(9) 0.2040(7) 0.0693 Uani
Zn2A Zn 0.40388(6) 0.64861(13) 0.6832(2) 0.0507 Uani
Zn2B Zn 0.59612(6) 0.35139(13) 0.1832(2) 0.0507 Uani
O12 O 0.136(2) 0.786(3) 0.279(3) 0.4700 Uiso
loop_
_atom_site_aniso_label
_atom_site_aniso_U_11
_atom_site_aniso_U_22
_atom_site_aniso_U_33
_atom_site_aniso_U_23
_atom_site_aniso_U_13
_atom_site_aniso_U_12
Pd1 0.0345(5) 0.0746(7) 0.0572(6) -0.0238(6) 0.0006(6) 0.0025(5)
Zn1 0.0261(6) 0.0535(8) 0.0384(7) -0.0039(7) 0.0019(6) 0.0026(6)
Cl1 0.057(2) 0.181(6) 0.060(2) 0.005(3) 0.005(2) 0.015(3)
Cl2 0.056(2) 0.131(4) 0.071(3) 0.005(3) 0.000(2) 0.010(2)
O1 0.032 0.077 0.059 -0.024 0.001 0.013
O2 0.033 0.061 0.057 -0.003 -0.008 -0.006
O3 0.049(5) 0.055(5) 0.052(6) 0.003(4) 0.000(4) 0.018(4)
O5 0.028 0.066 0.084 -0.031 -0.004 0.006
O6 0.044(6) 0.082(8) 0.065(7) -0.019(6) -0.002(5) -0.006(5)
O7 0.037 0.082 0.084 -0.043 0.005 -0.007
O8 0.04 0.102 0.066 -0.037 0 0.014
N1 0.031(5) 0.059(6) 0.074(7) -0.025(6) 0.013(6) -0.003(5)
N2 0.050(6) 0.073(7) 0.042(6) -0.014(6) 0.002(6) 0.009(6)
C1 0.036(7) 0.066(9) 0.066(10) 0.011(7) -0.007(6) -0.013(7)
C2 0.050(8) 0.051(8) 0.056(9) -0.013(6) 0.006(6) 0.007(7)
C3 0.063(9) 0.030(6) 0.030(6) -0.004(5) 0.009(6) 0.000(6)
C4 0.041(6) 0.052(7) 0.049(7) -0.008(6) 0.006(6) 0.010(5)
C6 0.052(8) 0.056(8) 0.049(8) -0.006(6) 0.007(6) 0.008(7)
C7 0.030(6) 0.051(8) 0.073(10) -0.003(7) 0.016(7) 0.002(5)
C8 0.065 0.043 0.037 -0.014 0.009 -0.003
C9 0.034(7) 0.056(8) 0.051(8) -0.005(6) 0.006(6) 0.007(6)
C11 0.041(7) 0.084(11) 0.041(7) -0.028(7) 0.004(6) 0.010(7)
C12 0.022(6) 0.084(10) 0.052(8) -0.022(7) 0.001(5) -0.013(7)
C13 0.043(8) 0.068(10) 0.045(7) -0.016(7) -0.007(6) 0.002(7)
C14 0.045 0.082 0.068 0.002 0.002 0.02
Zn2 0.0345 0.0704 0.0473 0.0027 -0.0026 0.007
O9 0.046 0.093 0.162 -0.046 -0.005 -0.009
O10 0.096 0.123 0.078 -0.034 -0.014 0.008
O11 0.057 0.186 0.1 0.078 -0.028 0.001
Zn1A 0.0261 0.0535 0.0384 -0.0039 -0.0019 -0.0026
Zn1B 0.0261 0.0535 0.0384 0.0039 0.0019 -0.0026
Zn1C 0.0261 0.0535 0.0384 0.0039 -0.0019 0.0026
O1A 0.032 0.077 0.059 -0.024 -0.001 -0.013
O2B 0.033 0.061 0.057 0.003 -0.008 0.006
O5C 0.028 0.066 0.084 0.031 0.004 0.006
O7A 0.037 0.082 0.084 -0.043 -0.005 0.007
O8B 0.04 0.102 0.066 0.037 0 -0.014
Zn2A 0.0345 0.0704 0.0473 0.0027 0.0026 -0.007
Zn2B 0.0345 0.0704 0.0473 -0.0027 -0.0026 -0.007
loop_
_geom_bond_atom_site_label_1
_geom_bond_atom_site_label_2
_geom_bond_site_symmetry_1
_geom_bond_site_symmetry_2
Pd1 Cl1 1_555 1_555
Zn1 O3 1_555 1_555
Cl2 Pd1 1_555 1_555
O1 C8 1_555 1_555
O2 C14 1_555 1_555
O3 C3 1_555 1_555
O4 C5 1_555 1_555
O5 C5 1_555 1_555
O6 Zn1 1_555 1_555
O7 C14 1_555 1_555
O8 C8 1_555 1_555
N1 Pd1 1_555 1_555
N2 Pd1 1_555 1_555
C1 C2 1_555 1_555
C2 N1 1_555 1_555
C3 O6 1_555 1_555
C4 C1 1_555 1_555
C5 C12 1_555 1_555
C6 C7 1_555 1_555
C7 C9 1_555 1_555
C8 C9 1_555 1_555
C9 C11 1_555 1_555
C10 N1 1_555 1_555
C11 N2 1_555 1_555
C12 C4 1_555 1_555
C13 N2 1_555 1_555
C14 C6 1_555 1_555
H1 C7 1_555 1_555
H2 C11 1_555 1_555
H3 C13 1_555 1_555
H4 C10 1_555 1_555
H5 C4 1_555 1_555
H6 C2 1_555 1_555
Zn2 O4 1_555 1_555
O9 Zn2 1_555 1_555
O10 Zn2 1_555 1_555
O11 Zn2 1_555 1_555
H7 O10 1_555 1_555
H8 O10 1_555 1_555
H9 O9 1_555 1_555
H10 O9 1_555 1_555
H11 O11 1_555 1_555
H12 O11 1_555 1_555
Zn1A O1 1_555 1_555
Zn1B O2 1_555 1_555
Zn1C O4 1_555 1_555
O1A Zn1 1_555 1_555
O2B Zn1 1_555 1_555
O4C Zn1 1_555 1_555
O5C Zn1 1_555 1_555
O7A Zn2 1_555 1_555
O8B Zn2 1_555 1_555
Zn2A O7 1_555 1_555
Zn2B O8 1_555 1_555
O5 Zn1C 1_555 1_555
C1 C3 1_555 1_555
C6 C13 1_555 1_555
C10 C12 1_555 1_555

#END
