
#######################################################################
#
#                 Cambridge Crystallographic Data Centre
#                                CCDC 
#
#######################################################################
#
# If this CIF has been generated from an entry in the Cambridge 
# Structural Database, then it will include bibliographic, chemical, 
# crystal, experimental, refinement or atomic coordinate data resulting 
# from the CCDC's data processing and validation procedures.
#
#######################################################################

data_HOKLOK
_chemical_formula_moiety         '(C87 H43 N4 O30 Zn6)n'
_chemical_name_systematic        
'catena-[tetrakis(\m-9-(4-carboxylatophenyl)-9H-carbazole-3,6-dicarboxylato)-tris(\m-formato)-hexa-zinc unknown solvate]'
_symmetry_cell_setting           monoclinic
_symmetry_space_group_name_H-M   'C 2/c'
_symmetry_Int_Tables_number      15
_space_group_name_Hall           '-C 2yc'
loop_
_symmetry_equiv_pos_site_id
_symmetry_equiv_pos_as_xyz
1 x,y,z
2 -x,y,1/2-z
3 1/2+x,1/2+y,z
4 1/2-x,1/2+y,1/2-z
5 -x,-y,-z
6 x,-y,1/2+z
7 1/2-x,1/2-y,-z
8 1/2+x,1/2-y,1/2+z
_cell_length_a                   20.2644(6)
_cell_length_b                   19.1216(7)
_cell_length_c                   26.8248(8)
_cell_angle_alpha                90
_cell_angle_beta                 101.184(3)
_cell_angle_gamma                90
_cell_volume                     10196.9
_cell_formula_units_Z            4
loop_
_atom_site_label
_atom_site_type_symbol
_atom_site_fract_x
_atom_site_fract_y
_atom_site_fract_z
Zn1 Zn 0.51340(3) 0.51584(3) 1.05511(2)
Zn2 Zn 0.63647(4) 0.40727(4) 1.24286(3)
Zn3 Zn 0.78725(3) 0.34240(4) 1.26382(3)
C1 C 0.6581(3) 0.8031(3) 0.9569(2)
C2 C 0.6220(3) 0.7662(4) 0.9156(3)
H1 H 0.6205 0.7815 0.8825
C3 C 0.5885(3) 0.7063(3) 0.9253(2)
H2 H 0.5647 0.6803 0.8984
C4 C 0.5904(3) 0.6841(3) 0.9760(3)
C5 C 0.6249(3) 0.7218(3) 1.0165(2)
H3 H 0.6243 0.7078 1.0496
C6 C 0.6609(3) 0.7815(3) 1.0072(2)
C7 C 0.7052(3) 0.8285(3) 1.0394(2)
C8 C 0.7299(3) 0.8338(3) 1.0915(2)
H4 H 0.7161 0.8021 1.1137
C9 C 0.7753(3) 0.8864(3) 1.1102(2)
C10 C 0.7953(4) 0.9349(4) 1.0768(3)
H5 H 0.8252 0.9704 1.0897
C11 C 0.7716(4) 0.9307(4) 1.0252(3)
H6 H 0.7844 0.9633 1.0032
C12 C 0.7282(3) 0.8770(4) 1.0072(2)
C13 C 0.7052(3) 0.9023(3) 0.9135(2)
C14 C 0.7666(4) 0.9063(4) 0.8998(3)
H7 H 0.8032 0.8816 0.9177
C15 C 0.7734(4) 0.9475(4) 0.8590(3)
H8 H 0.8152 0.9507 0.8498
C16 C 0.7207(4) 0.9835(4) 0.8319(2)
C17 C 0.6589(4) 0.9782(4) 0.8461(3)
H9 H 0.6224 1.0030 0.8282
C18 C 0.6507(4) 0.9369(4) 0.8860(3)
H10 H 0.6085 0.9322 0.8945
C19 C 0.5565(3) 0.6165(3) 0.9852(3)
C20 C 0.8023(3) 0.8921(4) 1.1653(3)
C21 C 0.7338(5) 1.0332(5) 0.7899(3)
C22 C 0.6377(3) 0.2213(4) 1.0275(2)
C23 C 0.5899(3) 0.2573(4) 1.0483(3)
H11 H 0.5467 0.2649 1.0298
C24 C 0.6087(3) 0.2810(4) 1.0970(3)
H12 H 0.5783 0.3067 1.1114
C25 C 0.6737(3) 0.2672(3) 1.1261(2)
C26 C 0.7195(3) 0.2286(3) 1.1061(2)
H13 H 0.7616 0.2186 1.1255
C27 C 0.7017(3) 0.2046(3) 1.0558(2)
C28 C 0.7360(3) 0.1643(3) 1.0230(2)
C29 C 0.6928(3) 0.1591(3) 0.9758(2)
C30 C 0.7109(3) 0.1257(4) 0.9344(3)
H14 H 0.6811 0.1223 0.9034
C31 C 0.7752(3) 0.0975(3) 0.9412(3)
H15 H 0.7895 0.0770 0.9137
C32 C 0.8199(3) 0.0993(3) 0.9894(2)
C33 C 0.7999(3) 0.1335(3) 1.0294(2)
H16 H 0.8291 0.1362 1.0608
C34 C 0.5726(3) 0.1962(4) 0.9405(3)
C35 C 0.5408(4) 0.2581(5) 0.9256(3)
H17 H 0.5588 0.2996 0.9404
C36 C 0.4826(4) 0.2604(6) 0.8891(3)
H18 H 0.4633 0.3037 0.8800
C37 C 0.4521(6) 0.2024(6) 0.8659(4)
C38 C 0.4847(5) 0.1377(7) 0.8829(4)
H19 H 0.4646 0.0964 0.8692
C39 C 0.5455(4) 0.1323(5) 0.9192(3)
H20 H 0.5662 0.0895 0.9284
C40 C 0.6920(3) 0.3000(3) 1.1777(2)
C41 C 0.8860(3) 0.0651(3) 0.9946(3)
C42 C 0.3869(5) 0.2019(6) 0.8244(4)
C43 C 0.5000 0.3738(7) 1.2500
H21 H 0.5000 0.4224 1.2500
C44 C 0.5600(3) 0.4812(4) 1.1578(3)
H22 H 0.5645 0.4383 1.1424
N1 N 0.6983(3) 0.8613(3) 0.9566(2)
N2 N 0.6322(3) 0.1929(3) 0.9792(2)
O1 O 0.5565(2) 0.6015(2) 1.03089(18)
O2 O 0.5314(2) 0.5803(2) 0.94707(17)
O3 O 0.7860(2) 0.8468(2) 1.19613(16)
O4 O 0.8442(2) 0.9390(2) 1.18227(17)
O5 O 0.7828(4) 1.0267(3) 0.7712(2)
O6 O 0.6903(3) 1.0798(4) 0.7776(3)
O7 O 0.6521(2) 0.3437(3) 1.18852(18)
O8 O 0.7470(2) 0.2822(2) 1.20611(16)
O9 O 0.9221(2) 0.0641(2) 1.03852(17)
O10 O 0.9006(2) 0.0376(2) 0.95590(18)
O11 O 0.3692(5) 0.1432(5) 0.8157(4)
O12 O 0.3636(6) 0.2589(5) 0.8142(5)
O13 O 0.5551(3) 0.3475(3) 1.2506(3)
O14 O 0.5779(3) 0.4848(2) 1.20542(17)
O15 O 0.5368(2) 0.5305(2) 1.13003(16)
O13A O 0.4449(3) 0.3475(3) 1.2494(3)
Zn1A Zn 0.48660(3) 0.51584(3) 1.44489(2)
Zn2A Zn 0.36353(4) 0.40727(4) 1.25714(3)
Zn3A Zn 0.21275(3) 0.34240(4) 1.23618(3)
C1A C 0.3419(3) 0.8031(3) 1.5431(2)
C2A C 0.3780(3) 0.7662(4) 1.5844(3)
H1A H 0.3795 0.7815 1.6175
C3A C 0.4115(3) 0.7063(3) 1.5747(2)
H2A H 0.4353 0.6803 1.6016
C4A C 0.4096(3) 0.6841(3) 1.5240(3)
C5A C 0.3751(3) 0.7218(3) 1.4835(2)
H3A H 0.3757 0.7078 1.4504
C6A C 0.3391(3) 0.7815(3) 1.4928(2)
C7A C 0.2948(3) 0.8285(3) 1.4606(2)
C8A C 0.2701(3) 0.8338(3) 1.4085(2)
H4A H 0.2839 0.8021 1.3863
C9A C 0.2247(3) 0.8864(3) 1.3898(2)
C10A C 0.2047(4) 0.9349(4) 1.4232(3)
H5A H 0.1748 0.9704 1.4103
C11A C 0.2284(4) 0.9307(4) 1.4748(3)
H6A H 0.2156 0.9633 1.4968
C12A C 0.2718(3) 0.8770(4) 1.4928(2)
C13A C 0.2948(3) 0.9023(3) 1.5865(2)
C14A C 0.2334(4) 0.9063(4) 1.6002(3)
H7A H 0.1968 0.8816 1.5823
C15A C 0.2266(4) 0.9475(4) 1.6410(3)
H8A H 0.1848 0.9507 1.6502
C16A C 0.2793(4) 0.9835(4) 1.6681(2)
C17A C 0.3411(4) 0.9782(4) 1.6539(3)
H9A H 0.3776 1.0030 1.6718
C18A C 0.3493(4) 0.9369(4) 1.6140(3)
H10A H 0.3915 0.9322 1.6055
C19A C 0.4435(3) 0.6165(3) 1.5148(3)
C20A C 0.1977(3) 0.8921(4) 1.3347(3)
C21A C 0.2662(5) 1.0332(5) 1.7101(3)
C22A C 0.3623(3) 0.2213(4) 1.4725(2)
C23A C 0.4101(3) 0.2573(4) 1.4517(3)
H11A H 0.4533 0.2649 1.4702
C24A C 0.3913(3) 0.2810(4) 1.4030(3)
H12A H 0.4217 0.3067 1.3886
C25A C 0.3263(3) 0.2672(3) 1.3739(2)
C26A C 0.2805(3) 0.2286(3) 1.3939(2)
H13A H 0.2384 0.2186 1.3745
C27A C 0.2983(3) 0.2046(3) 1.4442(2)
C28A C 0.2640(3) 0.1643(3) 1.4770(2)
C29A C 0.3072(3) 0.1591(3) 1.5242(2)
C30A C 0.2891(3) 0.1257(4) 1.5656(3)
H14A H 0.3189 0.1223 1.5966
C31A C 0.2248(3) 0.0975(3) 1.5588(3)
H15A H 0.2105 0.0770 1.5863
C32A C 0.1801(3) 0.0993(3) 1.5106(2)
C33A C 0.2001(3) 0.1335(3) 1.4706(2)
H16A H 0.1709 0.1362 1.4392
C34A C 0.4274(3) 0.1962(4) 1.5595(3)
C35A C 0.4592(4) 0.2581(5) 1.5744(3)
H17A H 0.4412 0.2996 1.5596
C36A C 0.5174(4) 0.2604(6) 1.6109(3)
H18A H 0.5367 0.3037 1.6200
C37A C 0.5479(6) 0.2024(6) 1.6341(4)
C38A C 0.5153(5) 0.1377(7) 1.6171(4)
H19A H 0.5354 0.0964 1.6308
C39A C 0.4545(4) 0.1323(5) 1.5808(3)
H20A H 0.4338 0.0895 1.5716
C40A C 0.3080(3) 0.3000(3) 1.3223(2)
C41A C 0.1140(3) 0.0651(3) 1.5054(3)
C42A C 0.6131(5) 0.2019(6) 1.6756(4)
C44A C 0.4400(3) 0.4812(4) 1.3422(3)
H22A H 0.4355 0.4383 1.3576
N1A N 0.3017(3) 0.8613(3) 1.5434(2)
N2A N 0.3678(3) 0.1929(3) 1.5208(2)
O1A O 0.4435(2) 0.6015(2) 1.46911(18)
O2A O 0.4686(2) 0.5803(2) 1.55293(17)
O3A O 0.2140(2) 0.8468(2) 1.30387(16)
O4A O 0.1558(2) 0.9390(2) 1.31773(17)
O5A O 0.2172(4) 1.0267(3) 1.7288(2)
O6A O 0.3097(3) 1.0798(4) 1.7224(3)
O7A O 0.3479(2) 0.3437(3) 1.31148(18)
O8A O 0.2530(2) 0.2822(2) 1.29389(16)
O9A O 0.0779(2) 0.0641(2) 1.46148(17)
O10A O 0.0994(2) 0.0376(2) 1.54410(18)
O11A O 0.6308(5) 0.1432(5) 1.6843(4)
O12A O 0.6364(6) 0.2589(5) 1.6858(5)
O14A O 0.4221(3) 0.4848(2) 1.29458(17)
O15A O 0.4632(2) 0.5305(2) 1.36997(16)
Zn1B Zn 1.01340(3) 0.01584(3) 1.05511(2)
Zn1C Zn -0.01340(3) 0.01584(3) 1.44489(2)
Zn1D Zn 0.48660(3) 0.48416(3) 0.94489(2)
Zn1E Zn 0.51340(3) 0.48416(3) 1.55511(2)
Zn1F Zn 0.98660(3) -0.01584(3) 0.94489(2)
Zn1G Zn 0.01340(3) -0.01584(3) 1.55511(2)
Zn2B Zn 0.13647(4) 0.90727(4) 1.24286(3)
Zn2C Zn 0.86353(4) 0.90727(4) 1.25714(3)
Zn2F Zn 0.86353(4) 1.09273(4) 0.75714(3)
Zn2G Zn 0.13647(4) 1.09273(4) 1.74286(3)
Zn3B Zn 0.28725(3) 0.84240(4) 1.26382(3)
Zn3C Zn 0.71275(3) 0.84240(4) 1.23618(3)
Zn3F Zn 0.71275(3) 0.15760(4) 1.73618(3)
Zn3F_2 Zn 0.71275(3) 1.15760(4) 0.73618(3)
Zn3G Zn 0.28725(3) 0.15760(4) 0.76382(3)
Zn3G_2 Zn 0.28725(3) 1.15760(4) 1.76382(3)
O2D O 0.4686(2) 0.4197(2) 1.05293(17)
O2E O 0.5314(2) 0.4197(2) 1.44707(17)
O3B O 0.2860(2) 0.3468(2) 1.19613(16)
O3C O 0.7140(2) 0.3468(2) 1.30387(16)
O4B O 0.3442(2) 0.4390(2) 1.18227(17)
O4C O 0.6558(2) 0.4390(2) 1.31773(17)
O5F O 0.7172(4) 0.4733(3) 1.2288(2)
O5G O 0.2828(4) 0.4733(3) 1.2712(2)
O6F O 0.8097(3) 0.4202(4) 1.2224(3)
O6G O 0.1903(3) 0.4202(4) 1.2776(3)
O9B O 0.4221(2) 0.5641(2) 1.03852(17)
O9C O 0.5779(2) 0.5641(2) 1.46148(17)
O10F O 0.5994(2) 0.4624(2) 1.04410(18)
O10G O 0.4006(2) 0.4624(2) 1.45590(18)
O11F O 0.1308(5) 0.3568(5) 1.1843(4)
O11G O 0.8692(5) 0.3568(5) 1.3157(4)
loop_
_geom_bond_atom_site_label_1
_geom_bond_atom_site_label_2
_geom_bond_site_symmetry_1
_geom_bond_site_symmetry_2
Zn1 O1 1_555 1_555
Zn2 O7 1_555 1_555
Zn3 O8 1_555 1_555
C1 C2 1_555 1_555
C2 H1 1_555 1_555
C3 C2 1_555 1_555
H2 C3 1_555 1_555
C4 C3 1_555 1_555
C5 C4 1_555 1_555
H3 C5 1_555 1_555
C6 C1 1_555 1_555
C7 C6 1_555 1_555
C8 C7 1_555 1_555
H4 C8 1_555 1_555
C9 C8 1_555 1_555
C10 C9 1_555 1_555
H5 C10 1_555 1_555
C11 C10 1_555 1_555
H6 C11 1_555 1_555
C12 C7 1_555 1_555
C13 C14 1_555 1_555
C14 H7 1_555 1_555
C15 C14 1_555 1_555
H8 C15 1_555 1_555
C16 C15 1_555 1_555
C17 C16 1_555 1_555
H9 C17 1_555 1_555
C18 C13 1_555 1_555
H10 C18 1_555 1_555
C19 C4 1_555 1_555
C20 C9 1_555 1_555
C21 C16 1_555 1_555
C22 C23 1_555 1_555
C23 H11 1_555 1_555
C24 C23 1_555 1_555
H12 C24 1_555 1_555
C25 C24 1_555 1_555
C26 C25 1_555 1_555
H13 C26 1_555 1_555
C27 C22 1_555 1_555
C28 C27 1_555 1_555
C29 C28 1_555 1_555
C30 C29 1_555 1_555
H14 C30 1_555 1_555
C31 C30 1_555 1_555
H15 C31 1_555 1_555
C32 C31 1_555 1_555
C33 C28 1_555 1_555
H16 C33 1_555 1_555
C34 C35 1_555 1_555
C35 H17 1_555 1_555
C36 C35 1_555 1_555
H18 C36 1_555 1_555
C37 C36 1_555 1_555
C38 C37 1_555 1_555
H19 C38 1_555 1_555
C39 C34 1_555 1_555
H20 C39 1_555 1_555
C40 C25 1_555 1_555
C41 C32 1_555 1_555
C42 C37 1_555 1_555
C43 H21 1_555 1_555
C44 H22 1_555 1_555
N1 C1 1_555 1_555
N2 C22 1_555 1_555
O1 C19 1_555 1_555
O2 C19 1_555 1_555
O3 C20 1_555 1_555
O4 C20 1_555 1_555
O5 C21 1_555 1_555
O6 C21 1_555 1_555
O7 C40 1_555 1_555
O8 C40 1_555 1_555
O9 C41 1_555 1_555
O10 C41 1_555 1_555
O11 C42 1_555 1_555
O12 C42 1_555 1_555
O13 Zn2 1_555 1_555
O14 Zn2 1_555 1_555
O15 Zn1 1_555 1_555
O13A C43 1_555 1_555
Zn1A O1A 1_555 1_555
Zn2A O13A 1_555 1_555
Zn3A O8A 1_555 1_555
C1A C2A 1_555 1_555
C2A H1A 1_555 1_555
C3A C2A 1_555 1_555
H2A C3A 1_555 1_555
C4A C3A 1_555 1_555
C5A C4A 1_555 1_555
H3A C5A 1_555 1_555
C6A C1A 1_555 1_555
C7A C6A 1_555 1_555
C8A C7A 1_555 1_555
H4A C8A 1_555 1_555
C9A C8A 1_555 1_555
C10A C9A 1_555 1_555
H5A C10A 1_555 1_555
C11A C10A 1_555 1_555
H6A C11A 1_555 1_555
C12A C7A 1_555 1_555
C13A C14A 1_555 1_555
C14A H7A 1_555 1_555
C15A C14A 1_555 1_555
H8A C15A 1_555 1_555
C16A C15A 1_555 1_555
C17A C16A 1_555 1_555
H9A C17A 1_555 1_555
C18A C13A 1_555 1_555
H10A C18A 1_555 1_555
C19A C4A 1_555 1_555
C20A C9A 1_555 1_555
C21A C16A 1_555 1_555
C22A C23A 1_555 1_555
C23A H11A 1_555 1_555
C24A C23A 1_555 1_555
H12A C24A 1_555 1_555
C25A C24A 1_555 1_555
C26A C25A 1_555 1_555
H13A C26A 1_555 1_555
C27A C22A 1_555 1_555
C28A C27A 1_555 1_555
C29A C28A 1_555 1_555
C30A C29A 1_555 1_555
H14A C30A 1_555 1_555
C31A C30A 1_555 1_555
H15A C31A 1_555 1_555
C32A C31A 1_555 1_555
C33A C28A 1_555 1_555
H16A C33A 1_555 1_555
C34A C35A 1_555 1_555
C35A H17A 1_555 1_555
C36A C35A 1_555 1_555
H18A C36A 1_555 1_555
C37A C36A 1_555 1_555
C38A C37A 1_555 1_555
H19A C38A 1_555 1_555
C39A C34A 1_555 1_555
H20A C39A 1_555 1_555
C40A C25A 1_555 1_555
C41A C32A 1_555 1_555
C42A C37A 1_555 1_555
C44A H22A 1_555 1_555
N1A C1A 1_555 1_555
N2A C22A 1_555 1_555
O1A C19A 1_555 1_555
O2A C19A 1_555 1_555
O3A C20A 1_555 1_555
O4A C20A 1_555 1_555
O5A C21A 1_555 1_555
O6A C21A 1_555 1_555
O7A Zn2A 1_555 1_555
O8A C40A 1_555 1_555
O9A C41A 1_555 1_555
O10A C41A 1_555 1_555
O11A C42A 1_555 1_555
O12A C42A 1_555 1_555
O14A Zn2A 1_555 1_555
O15A Zn1A 1_555 1_555
Zn1B O9 1_555 1_555
Zn1C O9A 1_555 1_555
Zn1D O2 1_555 1_555
Zn1E O2A 1_555 1_555
Zn1F O10 1_555 1_555
Zn1G O10A 1_555 1_555
Zn2B O3A 1_555 1_555
Zn2C O3 1_555 1_555
Zn2F O5 1_555 1_555
Zn2G O5A 1_555 1_555
Zn3B O3A 1_555 1_555
Zn3C O3 1_555 1_555
Zn3F O11A 1_555 1_555
Zn3F_2 O6 1_555 1_555
Zn3G O11 1_555 1_555
Zn3G_2 O6A 1_555 1_555
O2D Zn1 1_555 1_555
O2E Zn1A 1_555 1_555
O3B Zn2A 1_555 1_555
O3C Zn2 1_555 1_555
O4B Zn2A 1_555 1_555
O4C Zn2 1_555 1_555
O5F Zn2 1_555 1_555
O5G Zn2A 1_555 1_555
O6F Zn3 1_555 1_555
O6G Zn3A 1_555 1_555
O9B Zn1 1_555 1_555
O9C Zn1A 1_555 1_555
O10F Zn1 1_555 1_555
O10G Zn1A 1_555 1_555
O11F Zn3A 1_555 1_555
O11G Zn3 1_555 1_555
Zn3 O3C 1_555 1_555
C5 C6 1_555 1_555
C11 C12 1_555 1_555
C12 N1 1_555 1_555
C13 N1 1_555 1_555
C17 C18 1_555 1_555
C26 C27 1_555 1_555
C29 N2 1_555 1_555
C32 C33 1_555 1_555
C34 N2 1_555 1_555
C38 C39 1_555 1_555
C43 O13 1_555 1_555
C44 O14 1_555 1_555
C44 O15 1_555 1_555
O4 Zn2C 1_555 1_555
Zn3A O3B 1_555 1_555
C5A C6A 1_555 1_555
C11A C12A 1_555 1_555
C12A N1A 1_555 1_555
C13A N1A 1_555 1_555
C17A C18A 1_555 1_555
C26A C27A 1_555 1_555
C29A N2A 1_555 1_555
C32A C33A 1_555 1_555
C34A N2A 1_555 1_555
C38A C39A 1_555 1_555
C40A O7A 1_555 1_555
C44A O14A 1_555 1_555
C44A O15A 1_555 1_555
O4A Zn2B 1_555 1_555

#END
