
#######################################################################
#
#                 Cambridge Crystallographic Data Centre
#                                CCDC 
#
#######################################################################
#
# If this CIF has been generated from an entry in the Cambridge 
# Structural Database, then it will include bibliographic, chemical, 
# crystal, experimental, refinement or atomic coordinate data resulting 
# from the CCDC's data processing and validation procedures.
#
#######################################################################

data_HEDCEA
_chemical_formula_moiety         '(C38 H24 N2 O10 Zn2)n,n(C3 H7 N1 O1)'
_chemical_name_systematic        
"catena-(bis(\m~4~-4,4'-Oxydibenzoato)-(\m~2~-4,4'-bipyridine)-di-zinc N,N-dimethylformamide solvate)"
_symmetry_cell_setting           orthorhombic
_symmetry_space_group_name_H-M   'P c c a'
_symmetry_Int_Tables_number      54
_space_group_name_Hall           '-P 2a 2ac'
loop_
_symmetry_equiv_pos_site_id
_symmetry_equiv_pos_as_xyz
1 x,y,z
2 1/2-x,-y,z
3 1/2+x,-y,1/2-z
4 -x,y,1/2-z
5 -x,-y,-z
6 1/2+x,y,-z
7 1/2-x,y,1/2+z
8 x,-y,1/2+z
_cell_length_a                   16.7758(6)
_cell_length_b                   11.0644(3)
_cell_length_c                   22.4317(8)
_cell_angle_alpha                90
_cell_angle_beta                 90
_cell_angle_gamma                90
_cell_volume                     4163.64
_exptl_crystal_colour            colorless
_exptl_crystal_description       prism
_cell_formula_units_Z            4
loop_
_atom_site_label
_atom_site_type_symbol
_atom_site_fract_x
_atom_site_fract_y
_atom_site_fract_z
_atom_site_U_iso_or_equiv
_atom_site_thermal_displace_type
Zn1 Zn -1.05903(4) 0.90626(5) 0.49124(3) 0.0378 Uani
O2 O -0.4955(3) 0.8500(4) 0.0678(2) 0.0647 Uani
O3 O -0.9652(2) 0.8330(4) 0.4467(2) 0.0647 Uani
O4 O -0.5864(3) 0.9939(4) 0.08106(18) 0.0633 Uani
O5 O -0.8736(2) 0.9748(3) 0.46142(19) 0.0540 Uani
O6 O -0.6847(3) 0.6337(4) 0.2861(2) 0.0743 Uani
N2 N -1.1307(3) 0.7598(4) 0.4801(2) 0.0427 Uani
C4 C -1.2519(4) 0.6638(5) 0.4531(3) 0.0680 Uani
H1 H -1.3027 0.6703 0.4367 0.0820 Uiso
C5 C -0.5918(4) 0.6540(5) 0.2095(3) 0.0570 Uani
H2 H -0.5700 0.5805 0.2213 0.0690 Uiso
C6 C -0.7077(4) 0.7807(5) 0.3631(3) 0.0637 Uani
H3 H -0.6541 0.8022 0.3624 0.0760 Uiso
C7 C -0.6886(4) 0.8101(5) 0.2218(3) 0.0623 Uani
H4 H -0.7322 0.8418 0.2421 0.0750 Uiso
C8 C -0.8124(4) 0.6527(5) 0.3293(3) 0.0583 Uani
H5 H -0.8298 0.5885 0.3058 0.0700 Uiso
C9 C -0.5551(3) 0.8953(5) 0.0939(3) 0.0457 Uani
C10 C -0.6558(4) 0.7004(5) 0.2390(3) 0.0523 Uani
C11 C -0.6555(4) 0.8711(5) 0.1745(3) 0.0560 Uani
H6 H -0.6775 0.9445 0.1626 0.0670 Uiso
C12 C -1.1485(4) 0.5492(6) 0.4957(4) 0.0777 Uani
H7 H -1.1272 0.4763 0.5088 0.0930 Uiso
C13 C -1.1052(4) 0.6537(6) 0.4988(4) 0.0750 Uani
H8 H -1.0543 0.6497 0.5152 0.0900 Uiso
C14 C -0.8645(4) 0.7115(5) 0.3680(3) 0.0540 Uani
H9 H -0.9173 0.6862 0.3705 0.0650 Uiso
C15 C -0.8970(4) 0.8761(5) 0.4403(3) 0.0437 Uani
C16 C -0.7352(4) 0.6913(5) 0.3265(3) 0.0520 Uani
C17 C -0.5903(3) 0.8255(5) 0.1441(3) 0.0427 Uani
C18 C -0.8390(3) 0.8063(4) 0.4025(2) 0.0400 Uani
C19 C -0.5593(4) 0.7157(5) 0.1623(3) 0.0560 Uani
H10 H -0.5158 0.6832 0.1423 0.0670 Uiso
C20 C -1.2251(4) 0.5547(5) 0.4725(3) 0.0497 Uani
C21 C -1.2036(4) 0.7657(5) 0.4576(3) 0.0610 Uani
H11 H -1.2229 0.8398 0.4445 0.0730 Uiso
C22 C -0.7593(3) 0.8386(5) 0.4008(3) 0.0507 Uani
H12 H -0.7407 0.8999 0.4255 0.0610 Uiso
Zn1A Zn -1.44097(4) 0.09374(5) 0.49124(3) 0.0378 Uani
Zn1B Zn -0.55903(4) 1.09374(5) 0.00876(3) 0.0378 Uani
Zn1C Zn -1.94097(4) -0.09374(5) 0.00876(3) 0.0378 Uani
Zn1D Zn -0.94097(4) 1.09374(5) 0.50876(3) 0.0378 Uani
Zn1E Zn -1.55903(4) -0.09374(5) 0.50876(3) 0.0378 Uani
Zn1F Zn -0.44097(4) 0.90626(5) -0.00876(3) 0.0378 Uani
Zn1G Zn -2.05903(4) 0.09374(5) -0.00876(3) 0.0378 Uani
O2A O -2.0045(3) 0.1500(4) 0.0678(2) 0.0647 Uani
O2F O -1.0045(3) 0.8500(4) 0.5678(2) 0.0647 Uani
O2G O -1.4955(3) 0.1500(4) 0.5678(2) 0.0647 Uani
O3A O -1.5348(2) 0.1670(4) 0.4467(2) 0.0647 Uani
O4A O -1.9136(3) 0.0061(4) 0.08106(18) 0.0633 Uani
O4B O -1.0864(3) 1.0061(4) 0.41894(18) 0.0633 Uani
O4C O -1.4136(3) -0.0061(4) 0.41894(18) 0.0633 Uani
O5A O -1.6264(2) 0.0252(3) 0.46142(19) 0.0540 Uani
O5D O -1.1264(2) 1.0252(3) 0.53858(19) 0.0540 Uani
O5E O -1.3736(2) -0.0252(3) 0.53858(19) 0.0540 Uani
O6A O -1.8153(3) 0.3663(4) 0.2861(2) 0.0743 Uani
N2A N -1.3693(3) 0.2402(4) 0.4801(2) 0.0427 Uani
C4A C -1.2481(4) 0.3362(5) 0.4531(3) 0.0680 Uani
H1A H -1.1973 0.3297 0.4367 0.0820 Uiso
C5A C -1.9082(4) 0.3460(5) 0.2095(3) 0.0570 Uani
H2A H -1.9300 0.4195 0.2213 0.0690 Uiso
C6A C -1.7923(4) 0.2193(5) 0.3631(3) 0.0637 Uani
H3A H -1.8459 0.1978 0.3624 0.0760 Uiso
C7A C -1.8114(4) 0.1899(5) 0.2218(3) 0.0623 Uani
H4A H -1.7678 0.1582 0.2421 0.0750 Uiso
C8A C -1.6876(4) 0.3473(5) 0.3293(3) 0.0583 Uani
H5A H -1.6702 0.4115 0.3058 0.0700 Uiso
C9A C -1.9449(3) 0.1047(5) 0.0939(3) 0.0457 Uani
C10A C -1.8442(4) 0.2996(5) 0.2390(3) 0.0523 Uani
C11A C -1.8445(4) 0.1289(5) 0.1745(3) 0.0560 Uani
H6A H -1.8225 0.0555 0.1626 0.0670 Uiso
C12A C -1.3515(4) 0.4508(6) 0.4957(4) 0.0777 Uani
H7A H -1.3728 0.5237 0.5088 0.0930 Uiso
C13A C -1.3948(4) 0.3463(6) 0.4988(4) 0.0750 Uani
H8A H -1.4457 0.3503 0.5152 0.0900 Uiso
C14A C -1.6355(4) 0.2885(5) 0.3680(3) 0.0540 Uani
H9A H -1.5827 0.3138 0.3705 0.0650 Uiso
C15A C -1.6030(4) 0.1239(5) 0.4403(3) 0.0437 Uani
C16A C -1.7648(4) 0.3087(5) 0.3265(3) 0.0520 Uani
C17A C -1.9097(3) 0.1745(5) 0.1441(3) 0.0427 Uani
C18A C -1.6610(3) 0.1937(4) 0.4025(2) 0.0400 Uani
C19A C -1.9407(4) 0.2843(5) 0.1623(3) 0.0560 Uani
H10A H -1.9842 0.3168 0.1423 0.0670 Uiso
C20A C -1.2749(4) 0.4453(5) 0.4725(3) 0.0497 Uani
C21A C -1.2964(4) 0.2343(5) 0.4576(3) 0.0610 Uani
H11A H -1.2771 0.1602 0.4445 0.0730 Uiso
C22A C -1.7407(3) 0.1614(5) 0.4008(3) 0.0507 Uani
H12A H -1.7593 0.1001 0.4255 0.0610 Uiso
C1 C 0.0000 0.6050(9) 0.2500 0.0730 Uiso
C2 C 0.0000 0.8165(14) 0.2500 0.1240 Uiso
C3 C 0.087(2) 0.743(2) 0.1783(15) 0.3000 Uiso
O1 O 0.0000 0.930(2) 0.2500 0.4500 Uiso
N1 N 0.0278(12) 0.7129(15) 0.2258(9) 0.1830 Uiso
C3C C -0.087(2) 0.743(2) 0.3217(15) 0.3000 Uiso
N1C N -0.0278(12) 0.7129(15) 0.2742(9) 0.1830 Uiso
loop_
_atom_site_aniso_label
_atom_site_aniso_U_11
_atom_site_aniso_U_22
_atom_site_aniso_U_33
_atom_site_aniso_U_23
_atom_site_aniso_U_13
_atom_site_aniso_U_12
Zn1 0.042 0.0297 0.0418 -0.0024 0.0013 -0.0218
O2 0.067 0.064 0.063 0.009 0.019 0.024
O3 0.05 0.058 0.086 -0.02 0.022 -0.019
O4 0.086 0.054 0.05 0.012 0.014 0.025
O5 0.054 0.043 0.065 -0.014 0.013 -0.0151
O6 0.095 0.044 0.084 0.015 0.042 0.013
N2 0.044 0.029 0.055 0.001 -0.001 -0.019
C4 0.05 0.049 0.105 0.014 -0.035 -0.025
C5 0.061 0.037 0.073 0.008 0.013 0.015
C6 0.046 0.054 0.091 0.001 0.014 -0.008
C7 0.064 0.047 0.076 0.006 0.025 0.021
C8 0.076 0.037 0.062 -0.013 0.004 -0.009
C9 0.054 0.042 0.041 -0.001 -0.003 0.01
C10 0.063 0.037 0.057 0.001 0.014 0.005
C11 0.062 0.046 0.06 0.006 0.01 0.021
C12 0.06 0.03 0.143 0.012 -0.018 -0.019
C13 0.051 0.039 0.135 0.001 -0.026 -0.019
C14 0.047 0.049 0.066 -0.012 0.002 -0.011
C15 0.049 0.04 0.042 0.004 0 -0.014
C16 0.061 0.033 0.062 0.004 0.02 0.004
C17 0.044 0.039 0.045 -0.002 -0.001 0.004
C18 0.042 0.037 0.041 0.002 0.003 -0.009
C19 0.055 0.051 0.062 0 0.012 0.016
C20 0.048 0.034 0.067 0.002 -0.001 -0.025
C21 0.064 0.036 0.083 0.012 -0.023 -0.025
C22 0.049 0.042 0.061 -0.01 0.002 -0.012
Zn1A 0.042 0.0297 0.0418 0.0024 -0.0013 -0.0218
Zn1B 0.042 0.0297 0.0418 -0.0024 -0.0013 0.0218
Zn1C 0.042 0.0297 0.0418 0.0024 0.0013 0.0218
Zn1D 0.042 0.0297 0.0418 -0.0024 0.0013 -0.0218
Zn1E 0.042 0.0297 0.0418 0.0024 -0.0013 -0.0218
Zn1F 0.042 0.0297 0.0418 -0.0024 -0.0013 0.0218
Zn1G 0.042 0.0297 0.0418 0.0024 0.0013 0.0218
O2A 0.067 0.064 0.063 -0.009 -0.019 0.024
O2F 0.067 0.064 0.063 0.009 -0.019 -0.024
O2G 0.067 0.064 0.063 -0.009 0.019 -0.024
O3A 0.05 0.058 0.086 0.02 -0.022 -0.019
O4A 0.086 0.054 0.05 -0.012 -0.014 0.025
O4B 0.086 0.054 0.05 0.012 -0.014 -0.025
O4C 0.086 0.054 0.05 -0.012 0.014 -0.025
O5A 0.054 0.043 0.065 0.014 -0.013 -0.0151
O5D 0.054 0.043 0.065 -0.014 0.013 -0.0151
O5E 0.054 0.043 0.065 0.014 -0.013 -0.0151
O6A 0.095 0.044 0.084 -0.015 -0.042 0.013
N2A 0.044 0.029 0.055 -0.001 0.001 -0.019
C4A 0.05 0.049 0.105 -0.014 0.035 -0.025
C5A 0.061 0.037 0.073 -0.008 -0.013 0.015
C6A 0.046 0.054 0.091 -0.001 -0.014 -0.008
C7A 0.064 0.047 0.076 -0.006 -0.025 0.021
C8A 0.076 0.037 0.062 0.013 -0.004 -0.009
C9A 0.054 0.042 0.041 0.001 0.003 0.01
C10A 0.063 0.037 0.057 -0.001 -0.014 0.005
C11A 0.062 0.046 0.06 -0.006 -0.01 0.021
C12A 0.06 0.03 0.143 -0.012 0.018 -0.019
C13A 0.051 0.039 0.135 -0.001 0.026 -0.019
C14A 0.047 0.049 0.066 0.012 -0.002 -0.011
C15A 0.049 0.04 0.042 -0.004 0 -0.014
C16A 0.061 0.033 0.062 -0.004 -0.02 0.004
C17A 0.044 0.039 0.045 0.002 0.001 0.004
C18A 0.042 0.037 0.041 -0.002 -0.003 -0.009
C19A 0.055 0.051 0.062 0 -0.012 0.016
C20A 0.048 0.034 0.067 -0.002 0.001 -0.025
C21A 0.064 0.036 0.083 -0.012 0.023 -0.025
C22A 0.049 0.042 0.061 0.01 -0.002 -0.012
loop_
_geom_bond_atom_site_label_1
_geom_bond_atom_site_label_2
_geom_bond_site_symmetry_1
_geom_bond_site_symmetry_2
C1 N1 1_555 1_555
C2 O1 1_555 1_555
C3 N1 1_555 1_555
N1 C2 1_555 1_555
Zn1 O3 1_555 1_555
O2 C9 1_555 1_555
O3 C15 1_555 1_555
O4 C9 1_555 1_555
O5 C15 1_555 1_555
O6 C10 1_555 1_555
N2 Zn1 1_555 1_555
C4 H1 1_555 1_555
C5 H2 1_555 1_555
C6 H3 1_555 1_555
C7 H4 1_555 1_555
C8 H5 1_555 1_555
C9 C17 1_555 1_555
C10 C5 1_555 1_555
C11 C7 1_555 1_555
H6 C11 1_555 1_555
C12 H7 1_555 1_555
C13 N2 1_555 1_555
H8 C13 1_555 1_555
C14 C8 1_555 1_555
H9 C14 1_555 1_555
C15 C18 1_555 1_555
C16 O6 1_555 1_555
C17 C11 1_555 1_555
C18 C14 1_555 1_555
C19 C5 1_555 1_555
H10 C19 1_555 1_555
C20 C4 1_555 1_555
C21 N2 1_555 1_555
H11 C21 1_555 1_555
C22 C6 1_555 1_555
H12 C22 1_555 1_555
C3C N1C 1_555 1_555
N1C C1 1_555 1_555
Zn1A O2G 1_555 1_555
Zn1B O4 1_555 1_555
Zn1C O4A 1_555 1_555
Zn1D O5 1_555 1_555
Zn1E O5A 1_555 1_555
Zn1F O2 1_555 1_555
Zn1G O2A 1_555 1_555
O2A C9A 1_555 1_555
O2F Zn1 1_555 1_555
O3A Zn1A 1_555 1_555
O4A C9A 1_555 1_555
O4B Zn1 1_555 1_555
O4C Zn1A 1_555 1_555
O5A C15A 1_555 1_555
O5D Zn1 1_555 1_555
O5E Zn1A 1_555 1_555
O6A C10A 1_555 1_555
N2A Zn1A 1_555 1_555
C4A H1A 1_555 1_555
C5A H2A 1_555 1_555
C6A H3A 1_555 1_555
C7A H4A 1_555 1_555
C8A H5A 1_555 1_555
C9A C17A 1_555 1_555
C10A C5A 1_555 1_555
C11A C7A 1_555 1_555
H6A C11A 1_555 1_555
C12A H7A 1_555 1_555
C13A N2A 1_555 1_555
H8A C13A 1_555 1_555
C14A C8A 1_555 1_555
H9A C14A 1_555 1_555
C15A O3A 1_555 1_555
C16A O6A 1_555 1_555
C17A C11A 1_555 1_555
C18A C14A 1_555 1_555
C19A C5A 1_555 1_555
H10A C19A 1_555 1_555
C20A C20 1_555 1_555
C21A N2A 1_555 1_555
H11A C21A 1_555 1_555
C22A C6A 1_555 1_555
H12A C22A 1_555 1_555
C2 N1C 1_555 1_555
N1 N1C 1_555 1_555
C4 C21 1_555 1_555
C6 C16 1_555 1_555
C7 C10 1_555 1_555
C8 C16 1_555 1_555
C12 C13 1_555 1_555
C12 C20 1_555 1_555
C17 C19 1_555 1_555
C18 C22 1_555 1_555
C4A C20A 1_555 1_555
C4A C21A 1_555 1_555
C6A C16A 1_555 1_555
C7A C10A 1_555 1_555
C8A C16A 1_555 1_555
C12A C13A 1_555 1_555
C12A C20A 1_555 1_555
C15A C18A 1_555 1_555
C17A C19A 1_555 1_555
C18A C22A 1_555 1_555

#END
