
#######################################################################
#
#                 Cambridge Crystallographic Data Centre
#                                CCDC 
#
#######################################################################
#
# If this CIF has been generated from an entry in the Cambridge 
# Structural Database, then it will include bibliographic, chemical, 
# crystal, experimental, refinement or atomic coordinate data resulting 
# from the CCDC's data processing and validation procedures.
#
#######################################################################

data_SIJDUM
_chemical_formula_moiety         '(C63 H27 O30 Zn6 3-)n,3n(C2 H8 N1 1+)'
_chemical_name_systematic        
'catena-(tris(Dimethylammonium) (\m~6~-1,3,5-tris(4-carboxylatophenyl)benzene)-tris(\m~5~-benzene-1,3,5-tricarboxylato)-(\m~3~-benzene-1,3,5-tricarboxylato)-hexa-zinc)'
_symmetry_cell_setting           cubic
_symmetry_space_group_name_H-M   'F d -3 c'
_symmetry_Int_Tables_number      228
_space_group_name_Hall           '-F 4ud 2vw 3'
loop_
_symmetry_equiv_pos_site_id
_symmetry_equiv_pos_as_xyz
1 x,y,z
2 1/4-x,3/4-y,1/2+z
3 3/4-x,1/2+y,1/4-z
4 1/2+x,1/4-y,3/4-z
5 z,x,y
6 1/2+z,1/4-x,3/4-y
7 1/4-z,3/4-x,1/2+y
8 3/4-z,1/2+x,1/4-y
9 y,z,x
10 3/4-y,1/2+z,1/4-x
11 1/2+y,1/4-z,3/4-x
12 1/4-y,3/4-z,1/2+x
13 3/4+y,1/4+x,-z
14 1/2-y,1/2-x,1/2-z
15 1/4+y,-x,3/4+z
16 -y,3/4+x,1/4+z
17 3/4+x,1/4+z,-y
18 -x,3/4+z,1/4+y
19 1/2-x,1/2-z,1/2-y
20 1/4+x,-z,3/4+y
21 3/4+z,1/4+y,-x
22 1/4+z,-y,3/4+x
23 -z,3/4+y,1/4+x
24 1/2-z,1/2-y,1/2-x
25 x,1/2+y,1/2+z
26 1/4-x,1/4-y,z
27 3/4-x,y,3/4-z
28 1/2+x,3/4-y,1/4-z
29 z,1/2+x,1/2+y
30 1/2+z,3/4-x,1/4-y
31 1/4-z,1/4-x,y
32 3/4-z,x,3/4-y
33 y,1/2+z,1/2+x
34 3/4-y,z,3/4-x
35 1/2+y,3/4-z,1/4-x
36 1/4-y,1/4-z,x
37 3/4+y,3/4+x,1/2-z
38 1/2-y,-x,-z
39 1/4+y,1/2-x,1/4+z
40 -y,1/4+x,3/4+z
41 3/4+x,3/4+z,1/2-y
42 -x,1/4+z,3/4+y
43 1/2-x,-z,-y
44 1/4+x,1/2-z,1/4+y
45 3/4+z,3/4+y,1/2-x
46 1/4+z,1/2-y,1/4+x
47 -z,1/4+y,3/4+x
48 1/2-z,-y,-x
49 1/2+x,y,1/2+z
50 3/4-x,3/4-y,z
51 1/4-x,1/2+y,3/4-z
52 x,1/4-y,1/4-z
53 1/2+z,x,1/2+y
54 z,1/4-x,1/4-y
55 3/4-z,3/4-x,y
56 1/4-z,1/2+x,3/4-y
57 1/2+y,z,1/2+x
58 1/4-y,1/2+z,3/4-x
59 y,1/4-z,1/4-x
60 3/4-y,3/4-z,x
61 1/4+y,1/4+x,1/2-z
62 -y,1/2-x,-z
63 3/4+y,-x,1/4+z
64 1/2-y,3/4+x,3/4+z
65 1/4+x,1/4+z,1/2-y
66 1/2-x,3/4+z,3/4+y
67 -x,1/2-z,-y
68 3/4+x,-z,1/4+y
69 1/4+z,1/4+y,1/2-x
70 3/4+z,-y,1/4+x
71 1/2-z,3/4+y,3/4+x
72 -z,1/2-y,-x
73 1/2+x,1/2+y,z
74 3/4-x,1/4-y,1/2+z
75 1/4-x,y,1/4-z
76 x,3/4-y,3/4-z
77 1/2+z,1/2+x,y
78 z,3/4-x,3/4-y
79 3/4-z,1/4-x,1/2+y
80 1/4-z,x,1/4-y
81 1/2+y,1/2+z,x
82 1/4-y,z,1/4-x
83 y,3/4-z,3/4-x
84 3/4-y,1/4-z,1/2+x
85 1/4+y,3/4+x,-z
86 -y,-x,1/2-z
87 3/4+y,1/2-x,3/4+z
88 1/2-y,1/4+x,1/4+z
89 1/4+x,3/4+z,-y
90 1/2-x,1/4+z,1/4+y
91 -x,-z,1/2-y
92 3/4+x,1/2-z,3/4+y
93 1/4+z,3/4+y,-x
94 3/4+z,1/2-y,3/4+x
95 1/2-z,1/4+y,1/4+x
96 -z,-y,1/2-x
97 -x,-y,-z
98 3/4+x,1/4+y,1/2-z
99 1/4+x,1/2-y,3/4+z
100 1/2-x,3/4+y,1/4+z
101 -z,-x,-y
102 1/2-z,3/4+x,1/4+y
103 3/4+z,1/4+x,1/2-y
104 1/4+z,1/2-x,3/4+y
105 -y,-z,-x
106 1/4+y,1/2-z,3/4+x
107 1/2-y,3/4+z,1/4+x
108 3/4+y,1/4+z,1/2-x
109 1/4-y,3/4-x,z
110 1/2+y,1/2+x,1/2+z
111 3/4-y,x,1/4-z
112 y,1/4-x,3/4-z
113 1/4-x,3/4-z,y
114 x,1/4-z,3/4-y
115 1/2+x,1/2+z,1/2+y
116 3/4-x,z,1/4-y
117 1/4-z,3/4-y,x
118 3/4-z,y,1/4-x
119 z,1/4-y,3/4-x
120 1/2+z,1/2+y,1/2+x
121 -x,1/2-y,1/2-z
122 3/4+x,3/4+y,-z
123 1/4+x,-y,1/4+z
124 1/2-x,1/4+y,3/4+z
125 -z,1/2-x,1/2-y
126 1/2-z,1/4+x,3/4+y
127 3/4+z,3/4+x,-y
128 1/4+z,-x,1/4+y
129 -y,1/2-z,1/2-x
130 1/4+y,-z,1/4+x
131 1/2-y,1/4+z,3/4+x
132 3/4+y,3/4+z,-x
133 1/4-y,1/4-x,1/2+z
134 1/2+y,x,z
135 3/4-y,1/2+x,3/4-z
136 y,3/4-x,1/4-z
137 1/4-x,1/4-z,1/2+y
138 x,3/4-z,1/4-y
139 1/2+x,z,y
140 3/4-x,1/2+z,3/4-y
141 1/4-z,1/4-y,1/2+x
142 3/4-z,1/2+y,3/4-x
143 z,3/4-y,1/4-x
144 1/2+z,y,x
145 1/2-x,-y,1/2-z
146 1/4+x,1/4+y,-z
147 3/4+x,1/2-y,1/4+z
148 -x,3/4+y,3/4+z
149 1/2-z,-x,1/2-y
150 -z,3/4+x,3/4+y
151 1/4+z,1/4+x,-y
152 3/4+z,1/2-x,1/4+y
153 1/2-y,-z,1/2-x
154 3/4+y,1/2-z,1/4+x
155 -y,3/4+z,3/4+x
156 1/4+y,1/4+z,-x
157 3/4-y,3/4-x,1/2+z
158 y,1/2+x,z
159 1/4-y,x,3/4-z
160 1/2+y,1/4-x,1/4-z
161 3/4-x,3/4-z,1/2+y
162 1/2+x,1/4-z,1/4-y
163 x,1/2+z,y
164 1/4-x,z,3/4-y
165 3/4-z,3/4-y,1/2+x
166 1/4-z,y,3/4-x
167 1/2+z,1/4-y,1/4-x
168 z,1/2+y,x
169 1/2-x,1/2-y,-z
170 1/4+x,3/4+y,1/2-z
171 3/4+x,-y,3/4+z
172 -x,1/4+y,1/4+z
173 1/2-z,1/2-x,-y
174 -z,1/4+x,1/4+y
175 1/4+z,3/4+x,1/2-y
176 3/4+z,-x,3/4+y
177 1/2-y,1/2-z,-x
178 3/4+y,-z,3/4+x
179 -y,1/4+z,1/4+x
180 1/4+y,3/4+z,1/2-x
181 3/4-y,1/4-x,z
182 y,x,1/2+z
183 1/4-y,1/2+x,1/4-z
184 1/2+y,3/4-x,3/4-z
185 3/4-x,1/4-z,y
186 1/2+x,3/4-z,3/4-y
187 x,z,1/2+y
188 1/4-x,1/2+z,1/4-y
189 3/4-z,1/4-y,x
190 1/4-z,1/2+y,1/4-x
191 1/2+z,3/4-y,3/4-x
192 z,y,1/2+x
_cell_length_a                   62.779(7)
_cell_length_b                   62.779(7)
_cell_length_c                   62.779(7)
_cell_angle_alpha                90
_cell_angle_beta                 90
_cell_angle_gamma                90
_cell_volume                     247425
_exptl_crystal_colour            colorless
_exptl_crystal_description       block
_cell_formula_units_Z            64
loop_
_atom_site_label
_atom_site_type_symbol
_atom_site_fract_x
_atom_site_fract_y
_atom_site_fract_z
_atom_site_U_iso_or_equiv
_atom_site_thermal_displace_type
Zn1 Zn 0.668532(9) 0.288606(8) 0.034656(11) 0.1480 Uani
Zn2 Zn 0.630794(11) 0.326385(10) 0.045467(13) 0.1746 Uani
O1 O 0.66141(5) 0.29754(4) 0.00645(6) 0.1536 Uani
O2 O 0.63684(7) 0.32126(8) 0.01486(7) 0.2010 Uani
O3 O 0.59891(6) 0.36104(7) -0.03947(8) 0.1943 Uani
O4 O 0.60604(8) 0.35708(9) -0.07180(10) 0.2330 Uani
O5 O 0.66353(5) 0.30736(6) -0.09314(7) 0.1673 Uani
O6 O 0.68586(5) 0.29696(7) -0.06758(6) 0.1746 Uani
C1 C 0.64557(7) 0.31840(7) -0.02158(9) 0.1433 Uani
C2 C 0.62916(8) 0.33267(7) -0.02674(10) 0.1503 Uani
H1 H 0.6201 0.3384 -0.0160 0.1800 Uiso
C3 C 0.62666(8) 0.33794(9) -0.04750(11) 0.1577 Uani
C4 C 0.63894(7) 0.32879(7) -0.06345(10) 0.1557 Uani
H2 H 0.6364 0.3320 -0.0780 0.1870 Uiso
C5 C 0.65558(6) 0.31435(7) -0.05754(9) 0.1437 Uani
C6 C 0.65850(6) 0.31009(7) -0.03616(9) 0.1347 Uani
H3 H 0.6699 0.3011 -0.0318 0.1620 Uiso
C7 C 0.64787(8) 0.31183(9) 0.00162(12) 0.1763 Uani
C8 C 0.60940(10) 0.35299(10) -0.05381(13) 0.1767 Uani
C9 C 0.66969(7) 0.30557(8) -0.07393(10) 0.1580 Uani
O7 O 0.61635(6) 0.30089(7) 0.05262(8) 0.2013 Uani
O8 O 0.64438(8) 0.28042(6) 0.05235(7) 0.1870 Uani
C10 C 0.61139(10) 0.26451(10) 0.05560(12) 0.1827 Uani
C11 C 0.61977(12) 0.24471(11) 0.05148(12) 0.1870 Uani
H4 H 0.6345 0.2430 0.0482 0.2240 Uiso
C12 C 0.60660(15) 0.22777(14) 0.05217(13) 0.2043 Uani
H5 H 0.6118 0.2143 0.0476 0.2450 Uiso
C13 C 0.58613(16) 0.22929(13) 0.05914(14) 0.2097 Uani
C14 C 0.57738(14) 0.24883(16) 0.06454(19) 0.2500 Uani
H6 H 0.5629 0.2503 0.0686 0.3000 Uiso
C15 C 0.59076(14) 0.26566(14) 0.06361(17) 0.2390 Uani
H7 H 0.5858 0.2790 0.0687 0.2870 Uiso
C16 C 0.62470(10) 0.28326(10) 0.05312(11) 0.1697 Uani
C17 C 0.56944(15) 0.21067(16) 0.0578(2) 0.2280 Uani
O9 O 0.69069(5) 0.26797(4) 0.04110(5) 0.1427 Uani
O10 O 0.66956(5) 0.24880(5) 0.02016(6) 0.1710 Uani
C18 C 0.5541(2) 0.20784(19) 0.07153(17) 0.2330 Uani
H8 H 0.5532 0.2171 0.0835 0.2790 Uiso
C19 C 0.70253(5) 0.23375(5) 0.03216(5) 0.1018 Uani
C20 C 0.70250(5) 0.21828(5) 0.01662(5) 0.1006 Uani
H9 H 0.6917 0.2185 0.0060 0.1210 Uiso
C21 C 0.68637(6) 0.25179(7) 0.03047(7) 0.1310 Uani
O7CA O 0.55262(8) 0.13365(6) -0.05089(7) 0.2013 Uani
O8CA O 0.55235(7) 0.10562(8) -0.03042(6) 0.1870 Uani
C10CA C 0.55560(12) 0.13861(10) -0.01451(10) 0.1827 Uani
C11CA C 0.55148(12) 0.13023(12) 0.00529(11) 0.1870 Uani
H4CA H 0.5482 0.1155 0.0070 0.2240 Uiso
C12CA C 0.55217(13) 0.14340(15) 0.02223(14) 0.2043 Uani
H5CA H 0.5476 0.1382 0.0357 0.2450 Uiso
C13CA C 0.55914(14) 0.16387(16) 0.02071(13) 0.2097 Uani
C14CA C 0.56454(19) 0.17262(14) 0.00117(16) 0.2500 Uani
H6CA H 0.5686 0.1871 -0.0003 0.3000 Uiso
C15CA C 0.56361(17) 0.15924(14) -0.01566(14) 0.2390 Uani
H7CA H 0.5687 0.1642 -0.0290 0.2870 Uiso
C16CA C 0.55312(11) 0.12530(10) -0.03326(10) 0.1697 Uani
C17CA C 0.5578(2) 0.18056(15) 0.03933(16) 0.2280 Uani
C18CA C 0.57153(17) 0.1959(2) 0.04216(19) 0.2330 Uani
H8CA H 0.5835 0.1968 0.0329 0.2790 Uiso
O7EC O 0.44911(7) 0.19738(8) 0.11635(6) 0.2013 Uani
O8EC O 0.46958(6) 0.19765(7) 0.14438(8) 0.1870 Uani
C10EC C 0.48549(10) 0.19440(12) 0.11139(10) 0.1827 Uani
C11EC C 0.50529(11) 0.19852(12) 0.11977(12) 0.1870 Uani
H4EC H 0.5070 0.2018 0.1345 0.2240 Uiso
C12EC C 0.52223(14) 0.19783(13) 0.10660(15) 0.2043 Uani
H5EC H 0.5357 0.2024 0.1118 0.2450 Uiso
C13EC C 0.52071(13) 0.19086(14) 0.08613(16) 0.2097 Uani
C14EC C 0.50117(16) 0.18546(19) 0.07738(14) 0.2500 Uani
H6EC H 0.4997 0.1814 0.0629 0.3000 Uiso
C15EC C 0.48434(14) 0.18639(17) 0.09076(14) 0.2390 Uani
H7EC H 0.4710 0.1813 0.0858 0.2870 Uiso
C16EC C 0.46674(10) 0.19688(11) 0.12470(10) 0.1697 Uani
C17EC C 0.53933(16) 0.1922(2) 0.06944(15) 0.2280 Uani
C18EC C 0.54216(19) 0.17847(17) 0.0541(2) 0.2330 Uani
H8EC H 0.5329 0.1665 0.0532 0.2790 Uiso
O9G O 0.70890(5) 0.19069(5) -0.01797(4) 0.1427 Uani
O10G O 0.72984(6) 0.16956(5) 0.00120(5) 0.1710 Uani
C19G C 0.71784(5) 0.20253(5) 0.01625(5) 0.1018 Uani
C20G C 0.73338(5) 0.20250(5) 0.03172(5) 0.1006 Uani
H9G H 0.7440 0.1917 0.0315 0.1210 Uiso
C21G C 0.71953(7) 0.18637(6) -0.00179(7) 0.1310 Uani
O9J O 0.76797(4) 0.20890(5) 0.05931(5) 0.1427 Uani
O10J O 0.74880(5) 0.22984(6) 0.08044(5) 0.1710 Uani
C19J C 0.73375(5) 0.21784(5) 0.04747(5) 0.1018 Uani
C20J C 0.71828(5) 0.23338(5) 0.04750(5) 0.1006 Uani
H9J H 0.7185 0.2440 0.0583 0.1210 Uiso
C21J C 0.75179(7) 0.21953(7) 0.06363(6) 0.1310 Uani
Zn1G Zn 0.715344(11) 0.168532(9) -0.038606(8) 0.1480 Uani
Zn2G Zn 0.704533(13) 0.130794(11) -0.076385(10) 0.1746 Uani
O1G O 0.74355(6) 0.16141(5) -0.04754(4) 0.1536 Uani
O2G O 0.73514(7) 0.13684(7) -0.07126(8) 0.2010 Uani
O3G O 0.78947(8) 0.09891(6) -0.11104(7) 0.1943 Uani
O4G O 0.82180(10) 0.10604(8) -0.10708(9) 0.2330 Uani
O5G O 0.84314(7) 0.16353(5) -0.05736(6) 0.1673 Uani
O6G O 0.81758(6) 0.18586(5) -0.04696(7) 0.1746 Uani
C1G C 0.77158(9) 0.14557(7) -0.06840(7) 0.1433 Uani
C2G C 0.77674(10) 0.12916(8) -0.08267(7) 0.1503 Uani
H1G H 0.7660 0.1201 -0.0884 0.1800 Uiso
C3G C 0.79750(11) 0.12666(8) -0.08794(9) 0.1577 Uani
C4G C 0.81345(10) 0.13894(7) -0.07879(7) 0.1557 Uani
H2G H 0.8280 0.1364 -0.0820 0.1870 Uiso
C5G C 0.80754(9) 0.15558(6) -0.06435(7) 0.1437 Uani
C6G C 0.78616(9) 0.15850(6) -0.06009(7) 0.1347 Uani
H3G H 0.7818 0.1699 -0.0511 0.1620 Uiso
C7G C 0.74838(12) 0.14787(8) -0.06183(9) 0.1763 Uani
C8G C 0.80381(13) 0.10940(10) -0.10299(10) 0.1767 Uani
C9G C 0.82393(10) 0.16969(7) -0.05557(8) 0.1580 Uani
Zn1J Zn 0.788606(8) 0.215344(11) 0.081468(9) 0.1480 Uani
Zn2J Zn 0.826385(10) 0.204533(13) 0.119206(11) 0.1746 Uani
O1J O 0.79754(4) 0.24355(6) 0.08859(5) 0.1536 Uani
O2J O 0.82126(8) 0.23514(7) 0.11316(7) 0.2010 Uani
O3J O 0.86104(7) 0.28947(8) 0.15109(6) 0.1943 Uani
O4J O 0.85708(9) 0.32180(10) 0.14396(8) 0.2330 Uani
O5J O 0.80736(6) 0.34314(7) 0.08647(5) 0.1673 Uani
O6J O 0.79696(7) 0.31758(6) 0.06414(5) 0.1746 Uani
C1J C 0.81840(7) 0.27158(9) 0.10443(7) 0.1433 Uani
C2J C 0.83267(7) 0.27674(10) 0.12084(8) 0.1503 Uani
H1J H 0.8384 0.2660 0.1299 0.1800 Uiso
C3J C 0.83794(9) 0.29750(11) 0.12334(8) 0.1577 Uani
C4J C 0.82879(7) 0.31345(10) 0.11106(7) 0.1557 Uani
H2J H 0.8320 0.3280 0.1136 0.1870 Uiso
C5J C 0.81435(7) 0.30754(9) 0.09442(6) 0.1437 Uani
C6J C 0.81009(7) 0.28616(9) 0.09150(6) 0.1347 Uani
H3J H 0.8011 0.2818 0.0801 0.1620 Uiso
C7J C 0.81183(9) 0.24838(12) 0.10213(8) 0.1763 Uani
C8J C 0.85299(10) 0.30381(13) 0.14060(10) 0.1767 Uani
C9J C 0.80557(8) 0.32393(10) 0.08031(7) 0.1580 Uani
Zn1CA Zn 0.534656(11) 0.081468(9) -0.038606(8) 0.1480 Uani
Zn1EC Zn 0.461394(8) 0.215344(11) 0.168532(9) 0.1480 Uani
Zn1LF Zn 0.831468(9) 0.211394(8) -0.034656(11) 0.1480 Uani
Zn1SF Zn 0.784656(11) 0.331468(9) 0.038606(8) 0.1480 Uani
Zn1VF Zn 0.711394(8) 0.284656(11) -0.081468(9) 0.1480 Uani
Zn2CA Zn 0.545467(13) 0.119206(11) -0.076385(10) 0.1746 Uani
Zn2RA Zn 0.795467(13) 0.076385(10) -0.130794(11) 0.1746 Uani
Zn2LB Zn 0.880794(11) 0.295467(13) 0.173615(10) 0.1746 Uani
Zn2EC Zn 0.423615(10) 0.204533(13) 0.130794(11) 0.1746 Uani
Zn2FC Zn 0.576385(10) 0.380794(11) -0.045467(13) 0.1746 Uani
Zn2LF Zn 0.869206(11) 0.173615(10) -0.045467(13) 0.1746 Uani
Zn2SF Zn 0.795467(13) 0.369206(11) 0.076385(10) 0.1746 Uani
Zn2VF Zn 0.673615(10) 0.295467(13) -0.119206(11) 0.1746 Uani
O3RA O 0.71053(8) 0.11104(7) -0.09891(6) 0.1943 Uani
O3LB O 0.84891(6) 0.21053(8) 0.13896(7) 0.1943 Uani
O3FC O 0.61104(7) 0.34891(6) 0.03947(8) 0.1943 Uani
O5LF O 0.83647(5) 0.19264(6) 0.09314(7) 0.1673 Uani
O5SF O 0.65686(7) 0.33647(5) 0.05736(6) 0.1673 Uani
O5VF O 0.69264(6) 0.15686(7) -0.08647(5) 0.1673 Uani
O6LF O 0.81414(5) 0.20304(7) 0.06758(6) 0.1746 Uani
O6SF O 0.68242(6) 0.31414(5) 0.04696(7) 0.1746 Uani
O6VF O 0.70304(7) 0.18242(6) -0.06414(5) 0.1746 Uani
O7G O 0.69738(8) 0.11635(6) -0.05089(7) 0.2013 Uani
O7J O 0.80089(7) 0.19738(8) 0.13365(6) 0.2013 Uani
O8G O 0.69765(7) 0.14438(8) -0.03042(6) 0.1870 Uani
O8J O 0.78042(6) 0.19765(7) 0.10562(8) 0.1870 Uani
loop_
_atom_site_aniso_label
_atom_site_aniso_U_11
_atom_site_aniso_U_22
_atom_site_aniso_U_33
_atom_site_aniso_U_23
_atom_site_aniso_U_13
_atom_site_aniso_U_12
Zn1 0.1377(4) 0.1053(4) 0.2010(6) -0.0374(3) -0.0504(3) 0.0450(3)
Zn2 0.1665(6) 0.1339(5) 0.2234(7) -0.0348(4) -0.0417(5) 0.0728(4)
O1 0.152(2) 0.1177(17) 0.191(3) -0.0358(18) -0.045(2) 0.0535(17)
O2 0.185(3) 0.229(4) 0.189(3) -0.016(3) -0.003(3) 0.118(3)
O3 0.151(3) 0.178(3) 0.254(4) 0.034(3) 0.025(3) 0.082(3)
O4 0.213(4) 0.240(5) 0.246(5) -0.005(4) -0.050(4) 0.122(4)
O5 0.124(2) 0.178(3) 0.200(3) -0.020(2) -0.052(2) 0.0408(19)
O6 0.1077(18) 0.234(4) 0.182(3) -0.050(3) -0.0440(18) 0.060(2)
C1 0.128(3) 0.128(3) 0.174(4) -0.036(3) -0.043(3) 0.043(2)
C2 0.131(3) 0.137(3) 0.183(4) -0.018(3) -0.020(3) 0.042(3)
C3 0.119(3) 0.155(4) 0.199(5) -0.014(3) -0.023(3) 0.048(3)
C4 0.119(3) 0.133(3) 0.215(5) -0.018(3) -0.044(3) 0.042(2)
C5 0.103(2) 0.138(3) 0.190(4) -0.035(3) -0.038(3) 0.027(2)
C6 0.095(2) 0.122(3) 0.187(4) -0.033(3) -0.035(2) 0.0236(19)
C7 0.128(3) 0.161(4) 0.240(6) -0.075(4) -0.051(4) 0.054(3)
C8 0.152(4) 0.170(5) 0.208(6) 0.020(4) -0.019(4) 0.064(4)
C9 0.115(3) 0.165(4) 0.194(5) -0.042(3) -0.051(3) 0.046(3)
O7 0.152(3) 0.183(3) 0.269(5) -0.008(3) -0.010(3) 0.054(3)
O8 0.186(4) 0.152(3) 0.223(4) 0.011(2) -0.012(3) 0.045(3)
C10 0.154(4) 0.149(4) 0.245(6) -0.025(4) -0.008(4) 0.043(4)
C11 0.169(5) 0.153(5) 0.239(7) -0.032(4) -0.001(5) 0.025(4)
C12 0.184(6) 0.185(6) 0.244(8) -0.022(5) 0.006(6) 0.023(5)
C13 0.230(8) 0.171(6) 0.228(7) -0.019(5) 0.009(6) 0.020(6)
C14 0.169(6) 0.201(7) 0.380(15) 0.001(8) 0.053(7) 0.023(6)
C15 0.190(7) 0.193(7) 0.334(11) -0.017(7) 0.057(7) 0.059(6)
C16 0.150(4) 0.139(4) 0.220(5) -0.012(3) 0.000(4) 0.059(4)
C17 0.180(7) 0.198(8) 0.306(12) -0.003(8) 0.023(8) -0.016(6)
O9 0.146(2) 0.1091(16) 0.173(2) -0.0435(16) -0.0484(18) 0.0434(15)
O10 0.161(2) 0.149(2) 0.203(3) -0.051(2) -0.082(2) 0.0700(19)
C18 0.170(7) 0.254(10) 0.275(11) 0.012(7) 0.022(8) 0.002(7)
C19 0.0953(17) 0.0922(17) 0.118(2) -0.0197(15) -0.0211(15) 0.0258(14)
C20 0.1028(18) 0.1032(19) 0.0957(17) -0.0147(14) -0.0293(14) 0.0160(15)
C21 0.112(2) 0.122(3) 0.159(3) -0.033(2) -0.029(2) 0.033(2)
O7CA 0.269 0.152 0.183 0.054 0.008 0.01
O8CA 0.223 0.186 0.152 0.045 -0.011 0.012
C10CA 0.245 0.154 0.149 0.043 0.025 0.008
C11CA 0.239 0.169 0.153 0.025 0.032 0.001
C12CA 0.244 0.184 0.185 0.023 0.022 -0.006
C13CA 0.228 0.23 0.171 0.02 0.019 -0.009
C14CA 0.38 0.169 0.201 0.023 -0.001 -0.053
C15CA 0.334 0.19 0.193 0.059 0.017 -0.057
C16CA 0.22 0.15 0.139 0.059 0.012 0
C17CA 0.306 0.18 0.198 -0.016 0.003 -0.023
C18CA 0.275 0.17 0.254 0.002 -0.012 -0.022
O7EC 0.183 0.269 0.152 0.01 -0.054 -0.008
O8EC 0.152 0.223 0.186 0.012 -0.045 0.011
C10EC 0.149 0.245 0.154 0.008 -0.043 -0.025
C11EC 0.153 0.239 0.169 0.001 -0.025 -0.032
C12EC 0.185 0.244 0.184 -0.006 -0.023 -0.022
C13EC 0.171 0.228 0.23 -0.009 -0.02 -0.019
C14EC 0.201 0.38 0.169 -0.053 -0.023 0.001
C15EC 0.193 0.334 0.19 -0.057 -0.059 -0.017
C16EC 0.139 0.22 0.15 0 -0.059 -0.012
C17EC 0.198 0.306 0.18 -0.023 0.016 -0.003
C18EC 0.254 0.275 0.17 -0.022 -0.002 0.012
O9G 0.173 0.146 0.1091 -0.0434 -0.0435 0.0484
O10G 0.203 0.161 0.149 -0.07 -0.051 0.082
C19G 0.118 0.0953 0.0922 -0.0258 -0.0197 0.0211
C20G 0.0957 0.1028 0.1032 -0.016 -0.0147 0.0293
C21G 0.159 0.112 0.122 -0.033 -0.033 0.029
O9J 0.1091 0.173 0.146 -0.0484 -0.0434 0.0435
O10J 0.149 0.203 0.161 -0.082 -0.07 0.051
C19J 0.0922 0.118 0.0953 -0.0211 -0.0258 0.0197
C20J 0.1032 0.0957 0.1028 -0.0293 -0.016 0.0147
C21J 0.122 0.159 0.112 -0.029 -0.033 0.033
Zn1G 0.201 0.1377 0.1053 -0.045 -0.0374 0.0504
Zn2G 0.2234 0.1665 0.1339 -0.0728 -0.0348 0.0417
O1G 0.191 0.152 0.1177 -0.0535 -0.0358 0.045
O2G 0.189 0.185 0.229 -0.118 -0.016 0.003
O3G 0.254 0.151 0.178 -0.082 0.034 -0.025
O4G 0.246 0.213 0.24 -0.122 -0.005 0.05
O5G 0.2 0.124 0.178 -0.0408 -0.02 0.052
O6G 0.182 0.1077 0.234 -0.06 -0.05 0.044
C1G 0.174 0.128 0.128 -0.043 -0.036 0.043
C2G 0.183 0.131 0.137 -0.042 -0.018 0.02
C3G 0.199 0.119 0.155 -0.048 -0.014 0.023
C4G 0.215 0.119 0.133 -0.042 -0.018 0.044
C5G 0.19 0.103 0.138 -0.027 -0.035 0.038
C6G 0.187 0.095 0.122 -0.0236 -0.033 0.035
C7G 0.24 0.128 0.161 -0.054 -0.075 0.051
C8G 0.208 0.152 0.17 -0.064 0.02 0.019
C9G 0.194 0.115 0.165 -0.046 -0.042 0.051
Zn1J 0.1053 0.201 0.1377 -0.0504 -0.045 0.0374
Zn2J 0.1339 0.2234 0.1665 -0.0417 -0.0728 0.0348
O1J 0.1177 0.191 0.152 -0.045 -0.0535 0.0358
O2J 0.229 0.189 0.185 -0.003 -0.118 0.016
O3J 0.178 0.254 0.151 0.025 -0.082 -0.034
O4J 0.24 0.246 0.213 -0.05 -0.122 0.005
O5J 0.178 0.2 0.124 -0.052 -0.0408 0.02
O6J 0.234 0.182 0.1077 -0.044 -0.06 0.05
C1J 0.128 0.174 0.128 -0.043 -0.043 0.036
C2J 0.137 0.183 0.131 -0.02 -0.042 0.018
C3J 0.155 0.199 0.119 -0.023 -0.048 0.014
C4J 0.133 0.215 0.119 -0.044 -0.042 0.018
C5J 0.138 0.19 0.103 -0.038 -0.027 0.035
C6J 0.122 0.187 0.095 -0.035 -0.0236 0.033
C7J 0.161 0.24 0.128 -0.051 -0.054 0.075
C8J 0.17 0.208 0.152 -0.019 -0.064 -0.02
C9J 0.165 0.194 0.115 -0.051 -0.046 0.042
Zn1CA 0.201 0.1377 0.1053 0.045 0.0374 0.0504
Zn1EC 0.1053 0.201 0.1377 0.0504 -0.045 -0.0374
Zn1LF 0.1377 0.1053 0.201 -0.0374 -0.0504 0.045
Zn1SF 0.201 0.1377 0.1053 -0.045 -0.0374 0.0504
Zn1VF 0.1053 0.201 0.1377 -0.0504 -0.045 0.0374
Zn2CA 0.2234 0.1665 0.1339 0.0728 0.0348 0.0417
Zn2RA 0.2234 0.1339 0.1665 -0.0728 0.0417 -0.0348
Zn2LB 0.1665 0.2234 0.1339 0.0348 -0.0728 -0.0417
Zn2EC 0.1339 0.2234 0.1665 0.0417 -0.0728 -0.0348
Zn2FC 0.1339 0.1665 0.2234 0.0417 0.0348 0.0728
Zn2LF 0.1665 0.1339 0.2234 -0.0348 -0.0417 0.0728
Zn2SF 0.2234 0.1665 0.1339 -0.0728 -0.0348 0.0417
Zn2VF 0.1339 0.2234 0.1665 -0.0417 -0.0728 0.0348
O3RA 0.254 0.178 0.151 -0.082 -0.025 0.034
O3LB 0.151 0.254 0.178 -0.034 -0.082 0.025
O3FC 0.178 0.151 0.254 -0.025 -0.034 0.082
O5LF 0.124 0.178 0.2 -0.02 -0.052 0.0408
O5SF 0.2 0.124 0.178 -0.0408 -0.02 0.052
O5VF 0.178 0.2 0.124 -0.052 -0.0408 0.02
O6LF 0.1077 0.234 0.182 -0.05 -0.044 0.06
O6SF 0.182 0.1077 0.234 -0.06 -0.05 0.044
O6VF 0.234 0.182 0.1077 -0.044 -0.06 0.05
O7G 0.269 0.152 0.183 -0.054 -0.008 0.01
O7J 0.183 0.269 0.152 -0.01 -0.054 0.008
O8G 0.223 0.186 0.152 -0.045 0.011 0.012
O8J 0.152 0.223 0.186 -0.012 -0.045 -0.011
loop_
_geom_bond_atom_site_label_1
_geom_bond_atom_site_label_2
_geom_bond_site_symmetry_1
_geom_bond_site_symmetry_2
Zn1 O1 1_555 1_555
Zn2 O2 1_555 1_555
O1 C7 1_555 1_555
O2 C7 1_555 1_555
O3 C8 1_555 1_555
O4 C8 1_555 1_555
O5 C9 1_555 1_555
O6 C9 1_555 1_555
C1 C2 1_555 1_555
C2 H1 1_555 1_555
C3 C2 1_555 1_555
C4 C3 1_555 1_555
H2 C4 1_555 1_555
C5 C4 1_555 1_555
C6 C1 1_555 1_555
H3 C6 1_555 1_555
C7 C1 1_555 1_555
C8 C3 1_555 1_555
C9 C5 1_555 1_555
O7 Zn2 1_555 1_555
O8 Zn1 1_555 1_555
C10 C11 1_555 1_555
C11 H4 1_555 1_555
C12 C11 1_555 1_555
H5 C12 1_555 1_555
C13 C12 1_555 1_555
C14 C13 1_555 1_555
H6 C14 1_555 1_555
C15 C10 1_555 1_555
H7 C15 1_555 1_555
C16 O7 1_555 1_555
C17 C13 1_555 1_555
O9 Zn1 1_555 1_555
O10 C21 1_555 1_555
C18 C17 1_555 1_555
H8 C18 1_555 1_555
C19 C20 1_555 1_555
C20 H9 1_555 1_555
C21 O9 1_555 1_555
O7CA C16CA 1_555 1_555
O8CA C16CA 1_555 1_555
C10CA C11CA 1_555 1_555
C11CA H4CA 1_555 1_555
C12CA C11CA 1_555 1_555
H5CA C12CA 1_555 1_555
C13CA C12CA 1_555 1_555
C14CA C13CA 1_555 1_555
H6CA C14CA 1_555 1_555
C15CA C10CA 1_555 1_555
H7CA C15CA 1_555 1_555
C16CA C10CA 1_555 1_555
C17CA C13CA 1_555 1_555
C18CA C17 1_555 1_555
H8CA C18CA 1_555 1_555
O7EC C16EC 1_555 1_555
O8EC C16EC 1_555 1_555
C10EC C11EC 1_555 1_555
C11EC H4EC 1_555 1_555
C12EC C11EC 1_555 1_555
H5EC C12EC 1_555 1_555
C13EC C12EC 1_555 1_555
C14EC C13EC 1_555 1_555
H6EC C14EC 1_555 1_555
C15EC C10EC 1_555 1_555
H7EC C15EC 1_555 1_555
C16EC C10EC 1_555 1_555
C17EC C18 1_555 1_555
C18EC C17CA 1_555 1_555
H8EC C18EC 1_555 1_555
O9G C21G 1_555 1_555
O10G C21G 1_555 1_555
C19G C20 1_555 1_555
C20G C19G 1_555 1_555
H9G C20G 1_555 1_555
C21G C19G 1_555 1_555
O9J C21J 1_555 1_555
O10J C21J 1_555 1_555
C19J C20G 1_555 1_555
C20J C19 1_555 1_555
H9J C20J 1_555 1_555
C21J C19J 1_555 1_555
Zn1G O9G 1_555 1_555
Zn2G O2G 1_555 1_555
O1G Zn1G 1_555 1_555
O2G C7G 1_555 1_555
O3G C8G 1_555 1_555
O4G C8G 1_555 1_555
O5G C9G 1_555 1_555
O6G C9G 1_555 1_555
C1G C2G 1_555 1_555
C2G H1G 1_555 1_555
C3G C2G 1_555 1_555
C4G C3G 1_555 1_555
H2G C4G 1_555 1_555
C5G C4G 1_555 1_555
C6G C1G 1_555 1_555
H3G C6G 1_555 1_555
C7G O1G 1_555 1_555
C8G C3G 1_555 1_555
C9G C5G 1_555 1_555
Zn1J O9J 1_555 1_555
Zn2J O2J 1_555 1_555
O1J Zn1J 1_555 1_555
O2J C7J 1_555 1_555
O3J C8J 1_555 1_555
O4J C8J 1_555 1_555
O5J C9J 1_555 1_555
O6J C9J 1_555 1_555
C1J C2J 1_555 1_555
C2J H1J 1_555 1_555
C3J C2J 1_555 1_555
C4J C3J 1_555 1_555
H2J C4J 1_555 1_555
C5J C4J 1_555 1_555
C6J C1J 1_555 1_555
H3J C6J 1_555 1_555
C7J O1J 1_555 1_555
C8J C3J 1_555 1_555
C9J C5J 1_555 1_555
Zn1CA O8CA 1_555 1_555
Zn1EC O8EC 1_555 1_555
Zn1LF O6G 1_555 1_555
Zn1SF O6J 1_555 1_555
Zn1VF O6 1_555 1_555
Zn2CA O7CA 1_555 1_555
Zn2RA O3G 1_555 1_555
Zn2LB O3J 1_555 1_555
Zn2EC O7EC 1_555 1_555
Zn2FC O3 1_555 1_555
Zn2LF O5G 1_555 1_555
Zn2SF O5J 1_555 1_555
Zn2VF O5 1_555 1_555
O3RA Zn2G 1_555 1_555
O3LB Zn2J 1_555 1_555
O3FC Zn2 1_555 1_555
O5LF Zn2J 1_555 1_555
O5SF Zn2 1_555 1_555
O5VF Zn2G 1_555 1_555
O6LF Zn1J 1_555 1_555
O6SF Zn1 1_555 1_555
O6VF Zn1G 1_555 1_555
O7G Zn2G 1_555 1_555
O7J Zn2J 1_555 1_555
O8G Zn1G 1_555 1_555
O8J Zn1J 1_555 1_555
C5 C6 1_555 1_555
O8 C16 1_555 1_555
C10 C16 1_555 1_555
C14 C15 1_555 1_555
C19 C21 1_555 1_555
C14CA C15CA 1_555 1_555
C17CA C18CA 1_555 1_555
C13EC C17EC 1_555 1_555
C14EC C15EC 1_555 1_555
C17EC C18EC 1_555 1_555
C19J C20J 1_555 1_555
C1G C7G 1_555 1_555
C5G C6G 1_555 1_555
C1J C7J 1_555 1_555
C5J C6J 1_555 1_555

#END
