
#######################################################################
#
#                 Cambridge Crystallographic Data Centre
#                                CCDC 
#
#######################################################################
#
# If this CIF has been generated from an entry in the Cambridge 
# Structural Database, then it will include bibliographic, chemical, 
# crystal, experimental, refinement or atomic coordinate data resulting 
# from the CCDC's data processing and validation procedures.
#
#######################################################################

data_OJIWEK
_chemical_formula_moiety         '(C40 H20 N4 O12 Zn2)n,2.5n(C7 H8)'
_chemical_name_systematic        
'catena-(bis(\m~4~-1,4-benzenedicarboxylato)-(\m~2~-2,7-di(pyridin-4-yl)benzo[lmn][3,8]phenanthroline-1,3,6,8(2H,7H)-tetrone)-di-zinc toluene clathrate)'
_symmetry_cell_setting           orthorhombic
_symmetry_space_group_name_H-M   'P n m m'
_symmetry_Int_Tables_number      59
_space_group_name_Hall           '-P 2c 2bc'
loop_
_symmetry_equiv_pos_site_id
_symmetry_equiv_pos_as_xyz
1 x,y,z
2 -x,-y,1/2+z
3 x,1/2-y,1/2-z
4 -x,1/2+y,-z
5 -x,-y,-z
6 x,y,1/2-z
7 -x,1/2+y,1/2+z
8 x,1/2-y,z
_cell_length_a                   10.9116(7)
_cell_length_b                   10.9635(7)
_cell_length_c                   22.3452(14)
_cell_angle_alpha                90
_cell_angle_beta                 90
_cell_angle_gamma                90
_cell_volume                     2673.14
_exptl_crystal_colour            colorless
_exptl_crystal_description       platelet
_cell_formula_units_Z            2
loop_
_atom_site_label
_atom_site_type_symbol
_atom_site_fract_x
_atom_site_fract_y
_atom_site_fract_z
Zn1 Zn 0.83752(8) 0.2500 -0.18464(2)
C1 C 0.8346(7) 0.0138(7) -0.25
C2 C 0.8272(7) -0.1217(7) -0.25
C3 C 0.8251(5) -0.1884(5) -0.1959(2)
H1 H 0.8237 -0.1463 -0.1592
C4 C 1.0737(9) 0.2500 -0.25
C5 C 1.2117(9) 0.2500 -0.25
C6 C 1.2763(8) 0.2500 -0.1955(4)
H2 H 1.234 0.250 -0.1588
C7 C 1.4034(7) 0.2500 -0.1966(3)
H3 H 1.4475 0.250 -0.1605
C8 C 1.4654(11) 0.2500 -0.25
C9 C 1.6015(10) 0.2500 -0.25
C10 C 0.7545(9) 0.3000(11) -0.0630(4)
C11 C 0.7579(9) 0.3029(11) 0.0002(5)
C12 C 0.9366(9) 0.1899(10) -0.0662(4)
C13 C 0.9457(10) 0.1874(11) -0.0041(4)
C14 C 0.8537(7) 0.2500 0.0289(3)
C15 C 0.8625(5) 0.1369(5) 0.1216(2)
C16 C 0.8588(5) 0.1392(6) 0.18749(19)
C17 C 0.8636(5) 0.0309(5) 0.2182(2)
H4 H 0.8668 -0.0433 0.1972
C18 C 0.8580(7) 0.2500 0.2178(3)
N1 N 0.8450(5) 0.2500 -0.0947(2)
N2 N 0.8598(6) 0.2500 0.0931(2)
O1 O 0.8367(4) 0.0661(4) -0.19986(16)
O2 O 1.0209(5) 0.2500 -0.1994(2)
O3 O 1.6563(6) 0.2500 -0.1998(2)
O4 O 0.8632(4) 0.0435(4) 0.09306(16)
H5 H 0.6854 0.3338 -0.0834
H6 H 0.6941 0.3401 0.0225
H7 H 0.9963 0.1463 -0.0882
H8 H 1.0104 0.1449 0.0154
Zn1B Zn 0.83752(8) 0.2500 0.68464(2)
Zn1_2 Zn 1.83752(8) 0.2500 -0.18464(2)
Zn1_3 Zn 0.83752(8) -0.7500 -0.18464(2)
Zn1B_2 Zn 0.83752(8) -0.7500 -0.31536(2)
Zn1B_3 Zn 0.83752(8) 0.2500 -0.31536(2)
Zn1B_4 Zn 1.83752(8) 0.2500 -0.31536(2)
C1B C 0.8346(7) -0.5138(7) -0.25
C2B C 0.8272(7) -0.3783(7) -0.25
C3G C 0.8251(5) -0.3116(5) -0.1959(2)
C3B C 0.8251(5) -0.3116(5) -0.3041(2)
C3E C 0.8251(5) -0.1884(5) -0.3041(2)
H1E H 0.8237 -0.1463 -0.3408
H1B H 0.8237 -0.3537 -0.3408
H1G H 0.8237 -0.3537 -0.1592
C6B C 1.2763(8) 0.2500 -0.3045(4)
H2B H 1.234 0.250 -0.3412
C7B C 1.4034(7) 0.2500 -0.3034(3)
H3B H 1.4475 0.250 -0.3395
C10G C 0.7545(9) 0.2000(11) -0.0630(4)
C10E C 0.7545(9) 0.3000(11) 0.5630(4)
C10B C 0.7545(9) 0.2000(11) 0.5630(4)
C11G C 0.7579(9) 0.1971(11) 0.0002(5)
C11E C 0.7579(9) 0.3029(11) 0.4998(5)
C11B C 0.7579(9) 0.1971(11) 0.4998(5)
C12G C 0.9366(9) 0.3101(10) -0.0662(4)
C12E C 0.9366(9) 0.1899(10) 0.5662(4)
C12B C 0.9366(9) 0.3101(10) 0.5662(4)
C13G C 0.9457(10) 0.3126(11) -0.0041(4)
C13E C 0.9457(10) 0.1874(11) 0.5041(4)
C13B C 0.9457(10) 0.3126(11) 0.5041(4)
C14B C 0.8537(7) 0.2500 0.4711(3)
C15E C 0.8625(5) 0.1369(5) 0.3784(2)
C15B C 0.8625(5) 0.3631(5) 0.3784(2)
C15G C 0.8625(5) 0.3631(5) 0.1216(2)
C16E C 0.8588(5) 0.1392(6) 0.31251(19)
C16B C 0.8588(5) 0.3608(6) 0.31251(19)
C16G C 0.8588(5) 0.3608(6) 0.18749(19)
C17E C 0.8636(5) 0.0309(5) 0.2818(2)
C17B C 0.8636(5) 0.4691(5) 0.2818(2)
C17G C 0.8636(5) 0.4691(5) 0.2182(2)
H4G H 0.8668 0.5433 0.1972
H4B H 0.8668 0.5433 0.3028
H4E H 0.8668 -0.0433 0.3028
C18B C 0.8580(7) 0.2500 0.2822(3)
N1B N 0.8450(5) 0.2500 0.5947(2)
N2B N 0.8598(6) 0.2500 0.4069(2)
O1G O 0.8367(4) -0.5661(4) -0.19986(16)
O1B O 0.8367(4) -0.5661(4) -0.30014(16)
O1E O 0.8367(4) 0.0661(4) -0.30014(16)
O1G_2 O 0.8367(4) 0.4339(4) -0.19986(16)
O1E_2 O 0.8367(4) 0.0661(4) 0.69986(16)
O1B_2 O 0.8367(4) 0.4339(4) 0.69986(16)
O2B O 1.0209(5) 0.2500 -0.3006(2)
O2B_2 O 1.0209(5) 0.2500 0.6994(2)
O3B O 1.6563(6) 0.2500 -0.3002(2)
O3_2 O 0.6563(6) 0.2500 -0.1998(2)
O3B_2 O 0.6563(6) 0.2500 0.6998(2)
O4G O 0.8632(4) 0.4565(4) 0.09306(16)
O4B O 0.8632(4) 0.4565(4) 0.40694(16)
O4E O 0.8632(4) 0.0435(4) 0.40694(16)
H5G H 0.6854 0.1662 -0.0834
H5B H 0.6854 0.1662 0.5834
H5E H 0.6854 0.3338 0.5834
H6E H 0.6941 0.3401 0.4775
H6B H 0.6941 0.1599 0.4775
H6G H 0.6941 0.1599 0.0225
H7B H 0.9963 0.3537 0.5882
H7E H 0.9963 0.1463 0.5882
H7G H 0.9963 0.3537 -0.0882
H8E H 1.0104 0.1449 0.4846
H8B H 1.0104 0.3551 0.4846
H8G H 1.0104 0.3551 0.0154
C26 C 0.411(2) 0.0306(15) 0.6191(8)
C27 C 0.4710(17) -0.0139(14) 0.5700(8)
C28 C 0.5819(16) -0.0539(17) 0.5725(8)
C29 C 0.6344(19) -0.095(2) 0.5246(9)
C30 C 0.412(2) 0.089(2) 0.5272(10)
C31 C 0.528(2) 0.051(2) 0.5313(10)
C32 C 0.413(2) -0.0097(18) 0.5174(9)
C26D C 0.589(2) -0.0306(15) 0.3809(8)
C27D C 0.5290(17) 0.0139(14) 0.4300(8)
C28D C 0.4181(16) 0.0539(17) 0.4275(8)
C29D C 0.3656(19) 0.095(2) 0.4754(9)
C30D C 0.588(2) -0.089(2) 0.4728(10)
C31D C 0.472(2) -0.051(2) 0.4687(10)
C32D C 0.587(2) 0.0097(18) 0.4826(9)
C19? C 0.477(2) -0.459(2) 0.7373(9)
C20? C 0.4724(13) -0.3203(17) 0.7165(8)
C21? C 0.4829(16) -0.284(2) 0.7571(10)
C22? C 0.478(2) -0.088(2) 0.7368(12)
C23? C 0.476(3) -0.054(2) 0.6734(11)
C24? C 0.461(2) -0.1587(16) 0.6276(8)
C25? C 0.4632(12) -0.2944(13) 0.6486(7)
loop_
_geom_bond_atom_site_label_1
_geom_bond_atom_site_label_2
_geom_bond_site_symmetry_1
_geom_bond_site_symmetry_2
Zn1 N1 1_555 1_555
C1 C2 1_555 1_555
C2 C3 1_555 1_555
C3 H1 1_555 1_555
C4 C5 1_555 1_555
C5 C6 1_555 1_555
C6 H2 1_555 1_555
C7 C6 1_555 1_555
H3 C7 1_555 1_555
C8 C7 1_555 1_555
C9 C8 1_555 1_555
C10 C11 1_555 1_555
C11 C14 1_555 1_555
C12 C13 1_555 1_555
C13 C14 1_555 1_555
C14 N2 1_555 1_555
C15 C16 1_555 1_555
C16 C17 1_555 1_555
C17 H4 1_555 1_555
C18 C16 1_555 1_555
N1 C10 1_555 1_555
N2 C15 1_555 1_555
O1 Zn1 1_555 1_555
O2 Zn1 1_555 1_555
O3 C9 1_555 1_555
O4 C15 1_555 1_555
C26 C27 1_555 1_555
C27 C28 1_555 1_555
C28 C29 1_555 1_555
C29 C30D 1_555 1_555
C30 C27 1_555 1_555
C31 C27 1_555 1_555
C32 C27 1_555 1_555
H5 C10 1_555 1_555
H6 C11 1_555 1_555
H7 C12 1_555 1_555
H8 C13 1_555 1_555
Zn1B N1B 1_555 1_555
Zn1_2 O3 1_555 1_555
Zn1_3 O1G 1_555 1_555
Zn1B_2 O1B 1_555 1_555
Zn1B_3 O1E 1_555 1_555
Zn1B_4 O3B 1_555 1_555
C1B C2B 1_555 1_555
C2B C3G 1_555 1_555
C3G C3 1_555 1_555
C3B C2B 1_555 1_555
C3E C2 1_555 1_555
H1E C3E 1_555 1_555
H1B C3B 1_555 1_555
H1G C3G 1_555 1_555
C6B C5 1_555 1_555
H2B C6B 1_555 1_555
C7B C8 1_555 1_555
H3B C7B 1_555 1_555
C10G C10 1_555 1_555
C10E C10B 1_555 1_555
C10B C11B 1_555 1_555
C11G C11 1_555 1_555
C11E C10E 1_555 1_555
C11B C11E 1_555 1_555
C12G C12 1_555 1_555
C12E C12B 1_555 1_555
C12B C13B 1_555 1_555
C13G C13 1_555 1_555
C13E C12E 1_555 1_555
C13B C13E 1_555 1_555
C14B C11E 1_555 1_555
C15E C16E 1_555 1_555
C15B C16B 1_555 1_555
C15G N2 1_555 1_555
C16E C17E 1_555 1_555
C16B C17B 1_555 1_555
C16G C18 1_555 1_555
C17E C17 1_555 1_555
C17B C17G 1_555 1_555
C17G C16G 1_555 1_555
H4G C17G 1_555 1_555
H4B C17B 1_555 1_555
H4E C17E 1_555 1_555
C18B C18 1_555 1_555
N1B C10E 1_555 1_555
N2B C14B 1_555 1_555
O1G C1B 1_555 1_555
O1B C1B 1_555 1_555
O1E C1 1_555 1_555
O1G_2 Zn1 1_555 1_555
O1E_2 Zn1B 1_555 1_555
O1B_2 Zn1B 1_555 1_555
O2B C4 1_555 1_555
O2B_2 Zn1B 1_555 1_555
O3B C9 1_555 1_555
O3_2 Zn1 1_555 1_555
O3B_2 Zn1B 1_555 1_555
O4G C15G 1_555 1_555
O4B C15B 1_555 1_555
O4E C15E 1_555 1_555
C26D C27D 1_555 1_555
C27D C28D 1_555 1_555
C28D C29D 1_555 1_555
C29D C30 1_555 1_555
C30D C27D 1_555 1_555
C31D C32 1_555 1_555
C32D C29 1_555 1_555
H5G C10G 1_555 1_555
H5B C10B 1_555 1_555
H5E C10E 1_555 1_555
H6E C11E 1_555 1_555
H6B C11B 1_555 1_555
H6G C11G 1_555 1_555
H7B C12B 1_555 1_555
H7E C12E 1_555 1_555
H7G C12G 1_555 1_555
H8E C13E 1_555 1_555
H8B C13B 1_555 1_555
H8G C13G 1_555 1_555
C1 O1 1_555 1_555
C4 O2 1_555 1_555
C12 N1 1_555 1_555
C14 C11G 1_555 1_555
C14 C13G 1_555 1_555
N1 C10G 1_555 1_555
N1 C12G 1_555 1_555
C28 C31 1_555 1_555
C30 C31 1_555 1_555
C30 C32 1_555 1_555
C31 C32 1_555 1_555
C31 C32D 1_555 1_555
C32 C29D 1_555 1_555
Zn1B_3 O2B 1_555 1_555
C3B C3E 1_555 1_555
C6B C7B 1_555 1_555
C10G C11G 1_555 1_555
C10B N1B 1_555 1_555
C11B C14B 1_555 1_555
C12G C13G 1_555 1_555
C12E N1B 1_555 1_555
C12B N1B 1_555 1_555
C13E C14B 1_555 1_555
C13B C14B 1_555 1_555
C15E N2B 1_555 1_555
C15B N2B 1_555 1_555
C15G C16G 1_555 1_555
C16E C18B 1_555 1_555
C16B C18B 1_555 1_555
C27D C31D 1_555 1_555
C27D C32D 1_555 1_555
C28D C31D 1_555 1_555
C30D C31D 1_555 1_555
C30D C32D 1_555 1_555
C31D C32D 1_555 1_555

#END
