
#######################################################################
#
#                 Cambridge Crystallographic Data Centre
#                                CCDC 
#
#######################################################################
#
# If this CIF has been generated from an entry in the Cambridge 
# Structural Database, then it will include bibliographic, chemical, 
# crystal, experimental, refinement or atomic coordinate data resulting 
# from the CCDC's data processing and validation procedures.
#
#######################################################################

data_OJIWAG
_chemical_formula_moiety         '(C40 H20 N4 O12 Zn2)n,4n(C3 H7 N1 O1)'
_chemical_name_systematic        
'catena-(bis(\m~4~-1,4-benzenedicarboxylato)-(\m~2~-2,7-di(pyridin-4-yl)benzo[lmn][3,8]phenanthroline-1,3,6,8(2H,7H)-tetrone)-di-zinc dimethylformamide solvate)'
_symmetry_cell_setting           monoclinic
_symmetry_space_group_name_H-M   'C 2/c'
_symmetry_Int_Tables_number      15
_space_group_name_Hall           '-C 2yc'
loop_
_symmetry_equiv_pos_site_id
_symmetry_equiv_pos_as_xyz
1 x,y,z
2 -x,y,1/2-z
3 1/2+x,1/2+y,z
4 1/2-x,1/2+y,1/2-z
5 -x,-y,-z
6 x,-y,1/2+z
7 1/2-x,1/2-y,-z
8 1/2+x,1/2-y,1/2+z
_cell_length_a                   46.7870(13)
_cell_length_b                   15.282(4)
_cell_length_c                   15.436(4)
_cell_angle_alpha                90
_cell_angle_beta                 107.468(4)
_cell_angle_gamma                90
_cell_volume                     10527.8
_exptl_crystal_colour            colorless
_exptl_crystal_description       platelet
_cell_formula_units_Z            8
loop_
_atom_site_label
_atom_site_type_symbol
_atom_site_fract_x
_atom_site_fract_y
_atom_site_fract_z
C1 C 0.63777(10) -0.1476(3) 0.4763(3)
C2 C 0.63850(10) -0.0809(3) 0.4061(3)
C3 C 0.61154(10) -0.0515(3) 0.3462(3)
H1 H 0.593 -0.0745 0.3494
C4 C 0.61192(10) 0.0115(3) 0.2822(3)
H2 H 0.5936 0.0313 0.2414
C5 C 0.63892(10) 0.0463(3) 0.2768(3)
C6 C 0.66574(10) 0.0157(3) 0.3361(3)
H3 H 0.6843 0.038 0.332
C7 C 0.66559(10) -0.0465(3) 0.4004(3)
H4 H 0.684 -0.0662 0.4411
C8 C 0.63852(9) 0.1172(3) 0.2098(3)
C9 C 0.62610(10) 0.3466(3) 0.2335(3)
C10 C 0.62672(10) 0.4090(3) 0.3085(3)
C11 C 0.65383(10) 0.4428(3) 0.3602(3)
H5 H 0.6718 0.4224 0.3507
C12 C 0.65521(10) 0.5054(3) 0.4254(3)
H6 H 0.674 0.5275 0.4611
C13 C 0.62843(10) 0.5367(3) 0.4389(3)
C14 C 0.60117(10) 0.5007(3) 0.3884(3)
H7 H 0.5831 0.5199 0.3984
C15 C 0.60021(10) 0.4370(3) 0.3237(3)
H8 H 0.5816 0.4125 0.2898
C16 C 0.62947(10) 0.6120(3) 0.5032(3)
C17 C 0.53474(10) 0.2710(3) 0.0538(3)
H9 H 0.5425 0.3042 0.1077
C18 C 0.50414(11) 0.2621(3) 0.0195(3)
H10 H 0.4912 0.2875 0.0496
C19 C 0.49274(10) 0.2154(3) -0.0599(3)
C20 C 0.51201(10) 0.1803(3) -0.1033(3)
H11 H 0.5046 0.1494 -0.159
C21 C 0.54273(10) 0.1919(3) -0.0623(3)
H12 H 0.5562 0.1676 -0.0912
C22 C 0.44680(10) 0.1474(3) -0.0506(3)
C23 C 0.41382(10) 0.1385(3) -0.0876(3)
C24 C 0.39840(11) 0.0855(3) -0.0456(3)
H13 H 0.4092 0.0509 0.0047
C25 C 0.36701(11) 0.0814(3) -0.0756(4)
H14 H 0.3566 0.044 -0.0461
C26 C 0.35131(10) 0.1319(3) -0.1485(3)
C27 C 0.31834(10) 0.1305(3) -0.1775(3)
C28 C 0.31788(11) 0.2375(3) -0.3007(3)
C29 C 0.35108(10) 0.2356(3) -0.2711(3)
C30 C 0.36624(10) 0.2821(3) -0.3176(3)
H15 H 0.3555 0.314 -0.3701
C31 C 0.39797(11) 0.2837(3) -0.2887(3)
H16 H 0.4083 0.3157 -0.3226
C32 C 0.41376(10) 0.2396(3) -0.2125(3)
C33 C 0.44679(10) 0.2479(3) -0.1787(3)
C34 C 0.39826(9) 0.1874(3) -0.1640(3)
C35 C 0.36664(10) 0.1844(3) -0.1951(3)
C36 C 0.22353(10) 0.1887(3) -0.3874(3)
H17 H 0.2115 0.1777 -0.4479
C37 C 0.25379(10) 0.1727(3) -0.3654(3)
H18 H 0.2624 0.1501 -0.4093
C38 C 0.27154(10) 0.1905(3) -0.2774(3)
C39 C 0.25813(13) 0.2189(6) -0.2149(4)
H19 H 0.2696 0.2283 -0.1535
C40 C 0.22749(13) 0.2338(5) -0.2428(4)
H20 H 0.2184 0.2555 -0.1997
N4 N 0.55415(8) 0.2356(2) 0.0157(3)
N5 N 0.21013(8) 0.2190(3) -0.3279(2)
N6 N 0.46091(8) 0.2029(3) -0.0979(2)
N7 N 0.30357(8) 0.1826(3) -0.2527(3)
O4 O 0.61236(7) -0.1738(2) 0.4793(2)
O5 O 0.66267(7) -0.1739(2) 0.5274(2)
O6 O 0.61351(7) 0.1432(2) 0.1599(2)
O7 O 0.66350(7) 0.1489(2) 0.2098(2)
O8 O 0.60051(7) 0.3214(2) 0.1829(2)
O9 O 0.65075(7) 0.3257(2) 0.2227(2)
O10 O 0.60480(7) 0.6416(2) 0.5063(2)
O11 O 0.65505(7) 0.6406(2) 0.5454(2)
O12 O 0.46174(7) 0.1090(2) 0.0170(2)
O13 O 0.46092(7) 0.2925(2) -0.2149(2)
O14 O 0.30379(7) 0.0878(2) -0.1387(2)
O15 O 0.30359(7) 0.2829(2) -0.3625(2)
Zn1 Zn 0.599400(11) 0.24614(3) 0.07209(3)
Zn2 Zn 0.165680(10) 0.24425(3) -0.36719(3)
O4E O 0.61236(7) 0.1738(2) -0.0207(2)
O5B O 0.16267(7) 0.3261(2) -0.4726(2)
O7G O 0.16350(7) 0.3511(2) -0.2902(2)
O9G O 0.15075(7) 0.1743(2) -0.2773(2)
O10E O 0.60480(7) 0.3584(2) 0.0063(2)
O11B O 0.15505(7) 0.1406(2) -0.4546(2)
Zn1E Zn 0.599400(11) -0.24614(3) 0.57209(3)
Zn1E_2 Zn 0.599400(11) 0.75386(3) 0.57209(3)
Zn2B Zn 0.665680(10) -0.25575(3) 0.63281(3)
Zn2G Zn 0.665680(10) 0.25575(3) 0.13281(3)
Zn2B_2 Zn 0.665680(10) 0.74425(3) 0.63281(3)
C41 C 0.75705(18) 0.4343(5) 0.8877(5)
H21 H 0.7771 0.4084 0.9035
H22 H 0.7432 0.3932 0.9029
H23 H 0.7578 0.4887 0.9219
C42 C 0.71611(15) 0.4814(4) 0.7511(6)
H24 H 0.7122 0.5331 0.7834
H25 H 0.7024 0.4342 0.7554
H26 H 0.713 0.4962 0.6871
C43 C 0.76609(15) 0.4455(4) 0.7436(5)
N8 N 0.74682(11) 0.4530(3) 0.7916(4)
O16 O 0.75943(11) 0.4609(3) 0.6595(4)
C44 C 0.53359(12) 0.0583(3) 0.1336(3)
H27 H 0.5515 0.08 0.1201
H28 H 0.5159 0.0894 0.0959
H29 H 0.5313 -0.0045 0.1206
C45 C 0.54165(15) 0.1620(4) 0.2629(4)
H30 H 0.5452 0.1619 0.3288
H31 H 0.524 0.1978 0.2339
H32 H 0.5592 0.1864 0.249
C46 C 0.53841(10) 0.0056(4) 0.2846(3)
N9 N 0.53660(9) 0.0732(3) 0.2289(3)
O17 O 0.53740(8) -0.0716(2) 0.2627(3)
C47 C 0.6215(3) 0.5678(9) 0.1365(9)
H33 H 0.6358 0.6014 0.1149
H34 H 0.6254 0.5052 0.1326
H35 H 0.6237 0.5834 0.1998
C48 C 0.5657(4) 0.5408(11) 0.0920(14)
H36 H 0.5633 0.5558 0.1512
H37 H 0.5694 0.4778 0.0898
H38 H 0.5474 0.5562 0.0438
C49 C 0.5868(3) 0.6505(9) 0.0123(8)
N1 N 0.5904(3) 0.5883(6) 0.0793(6)
O1 O 0.5614(2) 0.6703(8) -0.0364(8)
C50? C 0.6247(3) 0.2116(9) 0.4031(9)
H39? H 0.623 0.2245 0.3396
H40? H 0.6082 0.2398 0.4193
H41? H 0.6238 0.1482 0.4112
C51? C 0.6884(12) 0.204(4) 0.450(5)
H42? H 0.6945 0.1519 0.4879
H43? H 0.7038 0.2496 0.4705
H44? H 0.6859 0.1896 0.3867
C52? C 0.6538(3) 0.3016(7) 0.5275(8)
N2? N 0.6530(3) 0.2446(7) 0.4611(7)
O2? O 0.6780(9) 0.329(2) 0.581(3)
C53? C 0.6820(7) 0.220(2) 0.446(3)
H45? H 0.6915 0.1633 0.4652
H46? H 0.6787 0.2279 0.3809
H47? H 0.6626 0.222 0.4587
C54? C 0.7269(3) 0.3524(10) 0.4878(10)
H48? H 0.729 0.4028 0.5285
H49? H 0.7219 0.3729 0.4248
H50? H 0.7458 0.3199 0.5033
C55? C 0.6928(3) 0.3297(8) 0.5631(7)
N3? N 0.7021(2) 0.2929(6) 0.4983(6)
O3? O 0.6724(6) 0.3070(15) 0.5905(18)
C56? C 0.5536(4) 0.4881(11) 0.0752(14)
C57? C 0.6031(5) 0.5621(13) 0.1262(13)
C58? C 0.5608(4) 0.6210(11) 0.0024(11)
H51? H 0.5447 0.4993 0.1241
H52? H 0.5657 0.4347 0.0888
H53? H 0.5376 0.4806 0.0178
H54? H 0.6036 0.5535 0.1896
H55? H 0.6121 0.6188 0.12
H56? H 0.6145 0.5153 0.1082
N10? N 0.5721(4) 0.5602(12) 0.0678(14)
O18? O 0.5754(3) 0.6867(12) -0.0084(11)
loop_
_geom_bond_atom_site_label_1
_geom_bond_atom_site_label_2
_geom_bond_site_symmetry_1
_geom_bond_site_symmetry_2
C1 C2 1_555 1_555
C2 C3 1_555 1_555
C3 H1 1_555 1_555
C4 C3 1_555 1_555
H2 C4 1_555 1_555
C5 C4 1_555 1_555
C6 C5 1_555 1_555
H3 C6 1_555 1_555
C7 C2 1_555 1_555
H4 C7 1_555 1_555
C8 C5 1_555 1_555
C9 C10 1_555 1_555
C10 C11 1_555 1_555
C11 H5 1_555 1_555
C12 C11 1_555 1_555
H6 C12 1_555 1_555
C13 C12 1_555 1_555
C14 C13 1_555 1_555
H7 C14 1_555 1_555
C15 C10 1_555 1_555
H8 C15 1_555 1_555
C16 C13 1_555 1_555
C17 H9 1_555 1_555
C18 C17 1_555 1_555
H10 C18 1_555 1_555
C19 C18 1_555 1_555
C20 C19 1_555 1_555
H11 C20 1_555 1_555
C21 C20 1_555 1_555
H12 C21 1_555 1_555
C22 C23 1_555 1_555
C23 C24 1_555 1_555
C24 H13 1_555 1_555
C25 C24 1_555 1_555
H14 C25 1_555 1_555
C26 C25 1_555 1_555
C27 C26 1_555 1_555
C28 C29 1_555 1_555
C29 C30 1_555 1_555
C30 H15 1_555 1_555
C31 C30 1_555 1_555
H16 C31 1_555 1_555
C32 C31 1_555 1_555
C33 C32 1_555 1_555
C34 C23 1_555 1_555
C35 C26 1_555 1_555
C36 H17 1_555 1_555
C37 C36 1_555 1_555
H18 C37 1_555 1_555
C38 C37 1_555 1_555
C39 C38 1_555 1_555
H19 C39 1_555 1_555
C40 C39 1_555 1_555
H20 C40 1_555 1_555
C41 H21 1_555 1_555
H22 C41 1_555 1_555
H23 C41 1_555 1_555
C42 H24 1_555 1_555
H25 C42 1_555 1_555
H26 C42 1_555 1_555
C43 N8 1_555 1_555
C44 H27 1_555 1_555
H28 C44 1_555 1_555
H29 C44 1_555 1_555
C45 H30 1_555 1_555
H31 C45 1_555 1_555
H32 C45 1_555 1_555
C46 N9 1_555 1_555
C47 H33 1_555 1_555
H34 C47 1_555 1_555
H35 C47 1_555 1_555
C48 H36 1_555 1_555
H37 C48 1_555 1_555
H38 C48 1_555 1_555
C49 N1 1_555 1_555
N1 C47 1_555 1_555
O1 C49 1_555 1_555
N4 C17 1_555 1_555
N5 C36 1_555 1_555
N6 C19 1_555 1_555
N7 C27 1_555 1_555
N8 C41 1_555 1_555
N9 C44 1_555 1_555
O4 C1 1_555 1_555
O5 C1 1_555 1_555
O6 C8 1_555 1_555
O7 C8 1_555 1_555
O8 C9 1_555 1_555
O9 C9 1_555 1_555
O10 C16 1_555 1_555
O11 C16 1_555 1_555
O12 C22 1_555 1_555
O13 C33 1_555 1_555
O14 C27 1_555 1_555
O15 C28 1_555 1_555
O16 C43 1_555 1_555
O17 C46 1_555 1_555
Zn1 N4 1_555 1_555
Zn2 N5 1_555 1_555
O4E Zn1 1_555 1_555
O5B Zn2 1_555 1_555
O7G Zn2 1_555 1_555
O9G Zn2 1_555 1_555
O10E Zn1 1_555 1_555
O11B Zn2 1_555 1_555
Zn1E O4 1_555 1_555
Zn1E_2 O10 1_555 1_555
Zn2B O5 1_555 1_555
Zn2G O7 1_555 1_555
Zn2B_2 O11 1_555 1_555
C6 C7 1_555 1_555
C14 C15 1_555 1_555
C21 N4 1_555 1_555
C22 N6 1_555 1_555
C28 N7 1_555 1_555
C29 C35 1_555 1_555
C32 C34 1_555 1_555
C33 N6 1_555 1_555
C34 C35 1_555 1_555
C38 N7 1_555 1_555
C40 N5 1_555 1_555
C42 N8 1_555 1_555
C45 N9 1_555 1_555
C48 N1 1_555 1_555
O6 Zn1 1_555 1_555
O8 Zn1 1_555 1_555
O9 Zn2G 1_555 1_555

#END
