
#######################################################################
#
#                 Cambridge Crystallographic Data Centre
#                                CCDC 
#
#######################################################################
#
# If this CIF has been generated from an entry in the Cambridge 
# Structural Database, then it will include bibliographic, chemical, 
# crystal, experimental, refinement or atomic coordinate data resulting 
# from the CCDC's data processing and validation procedures.
#
#######################################################################

data_KUJNUZ
_chemical_formula_moiety         '(C52 H38 N20 O10 Zn5)n,7n(C4 H9 N1 O1)'
_chemical_name_systematic        
'catena-(hexakis(\m~3~-Benzotriazolato)-bis(\m~2~-2-aminobenzene-1,4-dicarboxylato)-diaqua-penta-zinc N,N-dimethylacetamide solvate)'
_symmetry_cell_setting           tetragonal
_symmetry_space_group_name_H-M   'I 41/a'
_symmetry_Int_Tables_number      88
_space_group_name_Hall           '-I 4ad'
loop_
_symmetry_equiv_pos_site_id
_symmetry_equiv_pos_as_xyz
1 x,y,z
2 -x,1/2-y,z
3 3/4-y,1/4+x,1/4+z
4 1/4+y,1/4-x,1/4+z
5 1/2+x,1/2+y,1/2+z
6 1/2-x,-y,1/2+z
7 1/4-y,3/4+x,3/4+z
8 3/4+y,3/4-x,3/4+z
9 -x,-y,-z
10 x,1/2+y,-z
11 1/4+y,3/4-x,3/4-z
12 3/4-y,3/4+x,3/4-z
13 1/2-x,1/2-y,1/2-z
14 1/2+x,y,1/2-z
15 3/4+y,1/4-x,1/4-z
16 1/4-y,1/4+x,1/4-z
_cell_length_a                   30.048(5)
_cell_length_b                   30.048(5)
_cell_length_c                   37.908(5)
_cell_angle_alpha                90
_cell_angle_beta                 90
_cell_angle_gamma                90
_cell_volume                     34226.5
_exptl_crystal_colour            colorless
_exptl_crystal_description       block
_cell_formula_units_Z            16
loop_
_atom_site_label
_atom_site_type_symbol
_atom_site_fract_x
_atom_site_fract_y
_atom_site_fract_z
_atom_site_U_iso_or_equiv
_atom_site_thermal_displace_type
Zn1 Zn 0.30861(3) 0.08589(3) 0.62523(4) 0.0419 Uani
Zn2 Zn 0.29210(4) 0.18012(4) 0.56836(4) 0.0565 Uani
Zn3 Zn 0.40330(4) 0.10827(4) 0.68159(4) 0.0627 Uani
Zn4 Zn 0.21167(3) 0.07288(4) 0.67940(4) 0.0531 Uani
Zn5 Zn 0.32794(4) -0.01246(4) 0.57090(4) 0.0604 Uani
C1 C 0.3154(3) 0.3652(2) 0.4730(2) 0.0667 Uani
C2 C 0.3382(3) 0.3289(3) 0.4606(2) 0.1017 Uani
C3 C 0.3347(3) 0.2887(3) 0.4776(3) 0.1117 Uani
H1 H 0.3501 0.2641 0.4691 0.1340 Uiso
C4 C 0.3085(3) 0.2849(2) 0.5070(2) 0.0743 Uani
C5 C 0.2857(2) 0.3212(3) 0.5195(2) 0.1227 Uani
H2 H 0.2680 0.3186 0.5394 0.1470 Uiso
C6 C 0.2892(2) 0.3614(3) 0.5025(2) 0.0963 Uani
H3 H 0.2738 0.3860 0.5109 0.1160 Uiso
C7 C 0.3033(5) 0.2432(5) 0.5259(4) 0.0950 Uani
C8 C 0.3195(4) 0.4114(4) 0.4534(4) 0.0740 Uani
C9 C 0.5276(3) 0.1029(3) 0.7239(2) 0.0783 Uani
C10 C 0.5682(4) 0.1168(3) 0.7114(2) 0.1070 Uani
C11 C 0.6058(3) 0.1108(3) 0.7314(3) 0.1010 Uani
H4 H 0.6333 0.1202 0.7229 0.1210 Uiso
C12 C 0.6029(3) 0.0908(3) 0.7639(3) 0.0720 Uani
C13 C 0.5624(3) 0.0769(2) 0.7764(2) 0.0930 Uani
H5 H 0.5604 0.0634 0.7984 0.1120 Uiso
C14 C 0.5247(2) 0.0829(2) 0.7564(3) 0.0927 Uani
H6 H 0.4973 0.0735 0.7649 0.1110 Uiso
C15 C 0.4836(5) 0.1100(5) 0.7036(4) 0.0933 Uani
C16 C 0.6458(5) 0.0850(6) 0.7801(4) 0.1067 Uani
C17 C 0.2390(2) -0.0383(3) 0.6159(2) 0.0647 Uani
C18 C 0.2112(3) -0.0168(2) 0.6390(2) 0.0503 Uani
C19 C 0.1737(3) -0.0378(3) 0.6513(2) 0.0993 Uani
H7 H 0.1549 -0.0232 0.6669 0.1190 Uiso
C20 C 0.1641(3) -0.0803(3) 0.6405(3) 0.1480 Uani
H8 H 0.1387 -0.0945 0.6488 0.1760 Uiso
C21 C 0.1919(4) -0.1018(2) 0.6174(3) 0.1430 Uani
H9 H 0.1853 -0.1306 0.6100 0.1720 Uiso
C22 C 0.2293(3) -0.0808(3) 0.6051(2) 0.1247 Uani
H10 H 0.2482 -0.0954 0.5894 0.1500 Uiso
C23 C 0.3724(2) 0.2124(3) 0.6133(2) 0.0780 Uani
C24 C 0.3989(3) 0.1954(2) 0.6397(3) 0.0893 Uani
C25 C 0.4337(3) 0.2202(3) 0.6529(2) 0.1380 Uani
H11 H 0.4515 0.2087 0.6707 0.1650 Uiso
C26 C 0.4420(2) 0.2621(3) 0.6397(3) 0.1567 Uani
H12 H 0.4654 0.2789 0.6486 0.1870 Uiso
C27 C 0.4155(3) 0.2792(2) 0.6133(3) 0.1513 Uani
H13 H 0.4211 0.3075 0.6043 0.1830 Uiso
C28 C 0.3807(3) 0.2544(3) 0.6001(2) 0.1200 Uani
H14 H 0.3628 0.2659 0.5822 0.1440 Uiso
C29 C 0.2876(3) 0.0740(2) 0.7371(2) 0.0543 Uani
C30 C 0.3331(3) 0.0829(2) 0.73719(19) 0.0537 Uani
C31 C 0.3568(2) 0.0816(2) 0.7687(3) 0.0750 Uani
H15 H 0.3872 0.0875 0.7687 0.0900 Uiso
C32 C 0.3352(3) 0.0713(2) 0.8001(2) 0.1003 Uani
H16 H 0.3511 0.0704 0.8212 0.1200 Uiso
C33 C 0.2897(3) 0.0625(2) 0.8000(2) 0.0997 Uani
H17 H 0.2752 0.0556 0.8210 0.1200 Uiso
C34 C 0.2659(2) 0.0638(2) 0.7686(3) 0.0747 Uani
H18 H 0.2355 0.0579 0.7685 0.0890 Uiso
C35 C 0.3002(2) 0.0584(3) 0.51513(17) 0.0467 Uani
C36 C 0.2923(2) 0.1040(3) 0.51440(19) 0.0503 Uani
C37 C 0.2832(2) 0.1251(2) 0.4825(2) 0.0770 Uani
H19 H 0.2779 0.1556 0.4820 0.0920 Uiso
C38 C 0.28219(19) 0.1006(3) 0.45139(19) 0.0763 Uani
H20 H 0.2762 0.1148 0.4301 0.0920 Uiso
C39 C 0.2901(2) 0.0550(3) 0.45212(18) 0.0770 Uani
H21 H 0.2894 0.0387 0.4313 0.0930 Uiso
C40 C 0.29915(19) 0.0339(2) 0.4840(2) 0.0660 Uani
H22 H 0.3045 0.0034 0.4845 0.0790 Uiso
C41 C 0.4149(2) -0.0101(3) 0.6186(2) 0.0580 Uani
C42 C 0.4336(3) 0.0175(2) 0.6425(2) 0.0637 Uani
C43 C 0.4733(3) 0.0071(3) 0.6571(2) 0.0847 Uani
H23 H 0.4862 0.0261 0.6735 0.1020 Uiso
C44 C 0.4943(2) -0.0309(3) 0.6478(2) 0.1280 Uani
H24 H 0.5216 -0.0380 0.6578 0.1530 Uiso
C45 C 0.4755(3) -0.0585(2) 0.6239(3) 0.1273 Uani
H25 H 0.4900 -0.0846 0.6175 0.1530 Uiso
C46 C 0.4359(3) -0.0481(3) 0.6093(2) 0.0910 Uani
H26 H 0.4230 -0.0671 0.5929 0.1090 Uiso
C47 C 0.1807(3) 0.1563(2) 0.6360(2) 0.0670 Uani
C48 C 0.2004(2) 0.1819(3) 0.6113(2) 0.0683 Uani
C49 C 0.1786(3) 0.2172(3) 0.5977(2) 0.1053 Uani
H27 H 0.1922 0.2348 0.5807 0.1270 Uiso
C50 C 0.1371(3) 0.2269(3) 0.6089(3) 0.1520 Uani
H28 H 0.1221 0.2513 0.5995 0.1820 Uiso
C51 C 0.1174(2) 0.2014(3) 0.6336(3) 0.1513 Uani
H29 H 0.0888 0.2081 0.6413 0.1820 Uiso
C52 C 0.1392(3) 0.1660(3) 0.6472(2) 0.1067 Uani
H30 H 0.1256 0.1484 0.6642 0.1280 Uiso
N1 N 0.2731(2) -0.0099(3) 0.6077(2) 0.0470 Uani
N2 N 0.2662(2) 0.0261(3) 0.6260(2) 0.0443 Uani
N3 N 0.2288(3) 0.0228(2) 0.6457(2) 0.0477 Uani
N4 N 0.3423(3) 0.1818(3) 0.6027(2) 0.0600 Uani
N5 N 0.3488(2) 0.1473(3) 0.6238(2) 0.0490 Uani
N6 N 0.3824(3) 0.1543(2) 0.6454(2) 0.0557 Uani
N7 N 0.2713(3) 0.0776(3) 0.7030(3) 0.0580 Uani
N8 N 0.3072(3) 0.0868(2) 0.6834(2) 0.0533 Uani
N9 N 0.3437(2) 0.0896(2) 0.7035(2) 0.0413 Uani
N10 N 0.3092(2) 0.0481(3) 0.5497(2) 0.0520 Uani
N11 N 0.3052(2) 0.0862(3) 0.5675(2) 0.0403 Uani
N12 N 0.2954(3) 0.1203(3) 0.5467(2) 0.0530 Uani
N13 N 0.3747(3) 0.0066(2) 0.6082(2) 0.0500 Uani
N14 N 0.3682(2) 0.0449(3) 0.6256(2) 0.0430 Uani
N15 N 0.4035(2) 0.0534(2) 0.6459(2) 0.0477 Uani
N16 N 0.2106(3) 0.1249(2) 0.6448(2) 0.0563 Uani
N17 N 0.2473(2) 0.1314(2) 0.6250(2) 0.0473 Uani
N18 N 0.2426(3) 0.1663(3) 0.6039(2) 0.0563 Uani
N19 N 0.3583(5) 0.3256(5) 0.4308(3) 0.3057 Uani
H31 H 0.3583 0.3477 0.4164 0.3680 Uiso
H32 H 0.3718 0.3013 0.4253 0.3680 Uiso
N20 N 0.5704(4) 0.1367(5) 0.6833(4) 0.2357 Uani
H33 H 0.5466 0.1420 0.6715 0.2830 Uiso
H34 H 0.5958 0.1455 0.6755 0.2830 Uiso
O1 O 0.2754(3) 0.2415(3) 0.5518(3) 0.1047 Uani
O2 O 0.3278(3) 0.2126(3) 0.5216(3) 0.1223 Uani
O3 O 0.3001(3) 0.4441(2) 0.4666(2) 0.0983 Uani
O4 O 0.3417(3) 0.4155(3) 0.4257(3) 0.0980 Uani
O5 O 0.4486(2) 0.0920(3) 0.7181(2) 0.1113 Uani
O6 O 0.4816(3) 0.1285(3) 0.6747(3) 0.1290 Uani
O7 O 0.6460(3) 0.0603(3) 0.8077(3) 0.1277 Uani
O8 O 0.6803(3) 0.1049(4) 0.7740(3) 0.1517 Uani
O9 O 0.3869(2) -0.0106(2) 0.53363(19) 0.1060 Uani
O10 O 0.3952(3) 0.1704(3) 0.7190(3) 0.2043 Uani
Zn4M Zn 0.71167(3) 0.07288(4) 0.82060(4) 0.0531 Uani
Zn5I Zn 0.32794(4) 0.48754(4) 0.42910(4) 0.0604 Uani
O3I O 0.3001(3) -0.0559(2) 0.5334(2) 0.0983 Uani
O4I O 0.3417(3) -0.0845(3) 0.5743(3) 0.0980 Uani
O7M O 0.1460(3) 0.0603(3) 0.6923(3) 0.1277 Uani
O8M O 0.1803(3) 0.1049(4) 0.7260(3) 0.1517 Uani
loop_
_atom_site_aniso_label
_atom_site_aniso_U_11
_atom_site_aniso_U_22
_atom_site_aniso_U_33
_atom_site_aniso_U_23
_atom_site_aniso_U_13
_atom_site_aniso_U_12
Zn1 0.0411(8) 0.0458(8) 0.0389(7) 0.0003(6) -0.0026(6) 0.0016(8)
Zn2 0.0670(9) 0.0457(8) 0.0567(11) 0.0117(7) -0.0034(8) 0.0028(7)
Zn3 0.0446(8) 0.0838(10) 0.0597(11) 0.0099(9) -0.0138(8) -0.0076(7)
Zn4 0.0404(8) 0.0726(9) 0.0464(10) -0.0009(8) 0.0040(7) -0.0031(6)
Zn5 0.0839(10) 0.0434(8) 0.0540(11) -0.0060(8) -0.0079(8) 0.0069(7)
C1 0.095(10) 0.047(8) 0.058(10) 0.025(7) -0.027(7) 0.004(7)
C2 0.107(12) 0.087(11) 0.111(16) -0.004(10) 0.035(10) 0.030(9)
C3 0.151(13) 0.099(11) 0.085(13) 0.080(9) 0.007(9) -0.049(9)
C4 0.097(10) 0.031(8) 0.095(13) 0.027(8) -0.024(9) 0.004(7)
C5 0.122(11) 0.117(12) 0.129(15) 0.105(12) 0.023(10) -0.021(10)
C6 0.099(10) 0.136(13) 0.054(11) 0.003(9) 0.045(8) -0.002(9)
C7 0.094(13) 0.091(13) 0.100(16) 0.042(12) -0.018(10) 0.007(10)
C8 0.086(11) 0.062(10) 0.074(13) 0.007(9) -0.027(9) -0.006(8)
C9 0.067(10) 0.117(11) 0.051(11) 0.023(8) -0.032(8) 0.017(8)
C10 0.094(13) 0.139(13) 0.088(16) 0.051(11) 0.008(11) -0.014(11)
C11 0.038(8) 0.182(14) 0.083(13) -0.034(11) -0.031(8) -0.010(8)
C12 0.048(9) 0.103(10) 0.065(11) 0.004(8) -0.016(8) 0.006(7)
C13 0.106(11) 0.105(10) 0.068(11) 0.030(8) -0.040(9) -0.001(9)
C14 0.045(8) 0.147(11) 0.086(13) 0.025(10) -0.024(8) 0.012(7)
C15 0.053(10) 0.116(13) 0.111(16) -0.052(11) -0.043(11) -0.005(9)
C16 0.078(12) 0.148(17) 0.094(16) -0.021(11) -0.043(12) 0.033(12)
C17 0.075(9) 0.051(8) 0.068(11) -0.013(7) -0.006(7) -0.028(7)
C18 0.047(8) 0.067(9) 0.037(8) 0.007(7) 0.008(6) -0.012(7)
C19 0.088(11) 0.107(11) 0.103(13) -0.012(9) 0.024(9) -0.052(8)
C20 0.135(13) 0.119(14) 0.19(2) -0.011(13) 0.066(13) -0.078(12)
C21 0.131(15) 0.118(12) 0.18(2) -0.056(12) 0.044(12) -0.070(11)
C22 0.121(13) 0.089(12) 0.164(18) -0.027(11) 0.028(11) -0.044(9)
C23 0.086(10) 0.043(8) 0.105(13) 0.024(8) -0.014(8) -0.027(8)
C24 0.054(9) 0.057(9) 0.157(16) 0.034(9) -0.043(9) -0.031(7)
C25 0.112(12) 0.072(10) 0.23(2) 0.036(11) -0.035(12) -0.039(9)
C26 0.118(12) 0.112(14) 0.24(2) -0.003(13) -0.101(13) -0.033(11)
C27 0.113(13) 0.111(12) 0.23(2) 0.043(13) -0.066(12) -0.065(10)
C28 0.118(12) 0.086(11) 0.156(16) 0.035(10) -0.053(10) -0.043(9)
C29 0.090(10) 0.042(7) 0.031(9) -0.005(6) -0.014(8) 0.001(6)
C30 0.054(8) 0.075(8) 0.032(9) -0.014(7) -0.006(7) -0.012(6)
C31 0.092(9) 0.106(10) 0.027(9) -0.009(8) -0.012(8) 0.019(7)
C32 0.092(11) 0.106(11) 0.103(15) 0.016(9) -0.021(10) 0.017(9)
C33 0.151(14) 0.102(10) 0.046(11) 0.030(8) 0.006(10) -0.005(10)
C34 0.086(9) 0.085(9) 0.053(10) 0.020(8) 0.022(8) -0.011(7)
C35 0.062(7) 0.054(8) 0.024(8) 0.001(6) 0.009(6) -0.012(6)
C36 0.077(8) 0.044(7) 0.030(8) 0.006(6) -0.009(7) 0.009(6)
C37 0.102(9) 0.074(9) 0.055(10) 0.004(8) -0.011(8) -0.014(7)
C38 0.084(9) 0.076(9) 0.069(11) 0.020(8) -0.016(7) 0.011(7)
C39 0.095(9) 0.121(10) 0.015(8) 0.010(7) -0.003(6) -0.012(8)
C40 0.064(8) 0.066(8) 0.068(11) -0.007(8) -0.002(7) -0.008(6)
C41 0.038(8) 0.079(9) 0.057(9) 0.005(7) -0.012(6) 0.022(7)
C42 0.056(9) 0.072(9) 0.063(10) 0.012(7) -0.011(7) -0.003(7)
C43 0.041(7) 0.084(10) 0.129(13) 0.008(8) -0.050(8) 0.011(7)
C44 0.070(10) 0.123(13) 0.191(19) -0.018(12) -0.057(10) 0.065(9)
C45 0.057(10) 0.135(13) 0.190(19) -0.031(12) -0.052(10) 0.051(9)
C46 0.086(10) 0.058(9) 0.129(14) -0.024(8) -0.006(9) 0.016(7)
C47 0.062(9) 0.074(9) 0.065(11) 0.026(7) 0.016(7) 0.051(8)
C48 0.058(9) 0.076(10) 0.071(12) -0.018(8) -0.012(8) 0.046(8)
C49 0.073(10) 0.111(11) 0.132(15) 0.045(10) -0.002(9) 0.038(8)
C50 0.108(13) 0.200(16) 0.148(18) 0.081(13) 0.056(11) 0.102(12)
C51 0.108(12) 0.219(18) 0.127(17) 0.078(13) 0.051(11) 0.115(12)
C52 0.074(10) 0.131(13) 0.115(14) 0.027(10) 0.035(9) 0.047(9)
N1 0.063(6) 0.045(6) 0.033(6) -0.007(5) -0.006(5) -0.011(5)
N2 0.046(6) 0.055(6) 0.032(6) 0.004(5) 0.010(5) -0.003(5)
N3 0.053(6) 0.044(6) 0.046(7) -0.001(5) -0.015(5) -0.011(5)
N4 0.069(7) 0.033(6) 0.078(8) 0.025(5) -0.025(6) -0.014(5)
N5 0.030(5) 0.052(6) 0.065(8) -0.016(5) -0.012(5) 0.001(5)
N6 0.049(6) 0.035(5) 0.083(8) 0.005(5) -0.006(5) -0.001(5)
N7 0.040(6) 0.069(6) 0.065(8) -0.007(6) 0.013(5) -0.010(5)
N8 0.038(6) 0.065(6) 0.057(8) -0.007(5) -0.012(5) -0.003(5)
N9 0.035(5) 0.053(5) 0.036(7) 0.004(5) 0.000(5) -0.005(4)
N10 0.072(6) 0.057(6) 0.027(7) 0.017(5) 0.002(5) -0.001(5)
N11 0.051(5) 0.037(6) 0.033(7) -0.019(5) 0.010(4) -0.006(5)
N12 0.076(6) 0.043(6) 0.040(7) 0.016(5) -0.011(5) 0.004(5)
N13 0.083(7) 0.032(5) 0.035(6) -0.019(4) 0.001(5) 0.004(5)
N14 0.027(5) 0.067(6) 0.035(6) 0.013(5) -0.011(4) -0.002(4)
N15 0.038(5) 0.050(6) 0.055(7) 0.000(5) -0.010(5) -0.002(4)
N16 0.049(6) 0.065(6) 0.055(7) 0.003(5) 0.024(5) -0.015(5)
N17 0.050(6) 0.050(6) 0.042(7) -0.011(5) -0.001(5) 0.001(5)
N18 0.093(8) 0.047(6) 0.029(7) 0.016(5) 0.004(5) 0.016(5)
N19 0.290(16) 0.217(14) 0.41(2) -0.006(14) -0.054(15) 0.031(12)
N20 0.127(12) 0.32(2) 0.26(2) 0.036(17) 0.006(13) 0.023(12)
O1 0.091(7) 0.078(6) 0.145(11) 0.060(7) -0.017(6) 0.003(5)
O2 0.199(11) 0.061(6) 0.107(9) 0.025(6) -0.001(8) 0.021(6)
O3 0.161(8) 0.052(6) 0.082(8) 0.022(5) -0.005(6) 0.017(5)
O4 0.135(8) 0.068(6) 0.091(9) 0.042(6) 0.014(6) -0.004(5)
O5 0.034(5) 0.193(9) 0.107(9) -0.021(7) -0.040(5) -0.011(5)
O6 0.098(7) 0.184(10) 0.105(11) 0.024(8) -0.054(7) 0.020(6)
O7 0.097(7) 0.093(8) 0.193(14) -0.034(7) -0.105(9) 0.021(6)
O8 0.034(6) 0.307(14) 0.114(10) -0.028(9) -0.027(6) -0.012(7)
O9 0.112(6) 0.105(6) 0.101(8) -0.018(5) -0.004(5) 0.027(5)
O10 0.218(10) 0.181(9) 0.214(13) 0.009(8) -0.019(9) -0.024(8)
Zn4M 0.0404 0.0726 0.0464 0.0009 -0.004 -0.0031
Zn5I 0.0839 0.0434 0.054 0.006 0.0079 0.0069
O3I 0.161 0.052 0.082 -0.022 0.005 0.017
O4I 0.135 0.068 0.091 -0.042 -0.014 -0.004
O7M 0.097 0.093 0.193 0.034 0.105 0.021
O8M 0.034 0.307 0.114 0.028 0.027 -0.012
loop_
_geom_bond_atom_site_label_1
_geom_bond_atom_site_label_2
_geom_bond_site_symmetry_1
_geom_bond_site_symmetry_2
Zn1 N2 1_555 1_555
Zn2 N4 1_555 1_555
Zn3 N6 1_555 1_555
Zn4 N3 1_555 1_555
Zn5 N1 1_555 1_555
C1 C2 1_555 1_555
C2 C3 1_555 1_555
C3 H1 1_555 1_555
C4 C3 1_555 1_555
C5 C4 1_555 1_555
H2 C5 1_555 1_555
C6 C1 1_555 1_555
H3 C6 1_555 1_555
C7 C4 1_555 1_555
C8 C1 1_555 1_555
C9 C10 1_555 1_555
C10 C11 1_555 1_555
C11 H4 1_555 1_555
C12 C11 1_555 1_555
C13 C12 1_555 1_555
H5 C13 1_555 1_555
C14 C9 1_555 1_555
H6 C14 1_555 1_555
C15 C9 1_555 1_555
C16 C12 1_555 1_555
C17 C18 1_555 1_555
C18 C19 1_555 1_555
C19 H7 1_555 1_555
C20 C19 1_555 1_555
H8 C20 1_555 1_555
C21 C20 1_555 1_555
H9 C21 1_555 1_555
C22 C17 1_555 1_555
H10 C22 1_555 1_555
C23 C24 1_555 1_555
C24 C25 1_555 1_555
C25 H11 1_555 1_555
C26 C25 1_555 1_555
H12 C26 1_555 1_555
C27 C26 1_555 1_555
H13 C27 1_555 1_555
C28 C23 1_555 1_555
H14 C28 1_555 1_555
C29 C30 1_555 1_555
C30 C31 1_555 1_555
C31 H15 1_555 1_555
C32 C31 1_555 1_555
H16 C32 1_555 1_555
C33 C32 1_555 1_555
H17 C33 1_555 1_555
C34 C29 1_555 1_555
H18 C34 1_555 1_555
C35 C36 1_555 1_555
C36 C37 1_555 1_555
C37 H19 1_555 1_555
C38 C37 1_555 1_555
H20 C38 1_555 1_555
C39 C38 1_555 1_555
H21 C39 1_555 1_555
C40 C35 1_555 1_555
H22 C40 1_555 1_555
C41 C42 1_555 1_555
C42 C43 1_555 1_555
C43 H23 1_555 1_555
C44 C43 1_555 1_555
H24 C44 1_555 1_555
C45 C44 1_555 1_555
H25 C45 1_555 1_555
C46 C41 1_555 1_555
H26 C46 1_555 1_555
C47 C48 1_555 1_555
C48 C49 1_555 1_555
C49 H27 1_555 1_555
C50 C49 1_555 1_555
H28 C50 1_555 1_555
C51 C50 1_555 1_555
H29 C51 1_555 1_555
C52 C47 1_555 1_555
H30 C52 1_555 1_555
N1 C17 1_555 1_555
N2 N1 1_555 1_555
N3 C18 1_555 1_555
N4 C23 1_555 1_555
N5 Zn1 1_555 1_555
N6 C24 1_555 1_555
N7 Zn4 1_555 1_555
N8 Zn1 1_555 1_555
N9 Zn3 1_555 1_555
N10 Zn5 1_555 1_555
N11 Zn1 1_555 1_555
N12 Zn2 1_555 1_555
N13 Zn5 1_555 1_555
N14 Zn1 1_555 1_555
N15 Zn3 1_555 1_555
N16 Zn4 1_555 1_555
N17 Zn1 1_555 1_555
N18 Zn2 1_555 1_555
N19 C2 1_555 1_555
H31 N19 1_555 1_555
H32 N19 1_555 1_555
N20 C10 1_555 1_555
H33 N20 1_555 1_555
H34 N20 1_555 1_555
O1 Zn2 1_555 1_555
O2 Zn2 1_555 1_555
O3 C8 1_555 1_555
O4 C8 1_555 1_555
O5 Zn3 1_555 1_555
O6 Zn3 1_555 1_555
O7 C16 1_555 1_555
O8 C16 1_555 1_555
O9 Zn5 1_555 1_555
O10 Zn3 1_555 1_555
Zn4M O7 1_555 1_555
Zn5I O3 1_555 1_555
O3I Zn5 1_555 1_555
O4I Zn5 1_555 1_555
O7M Zn4 1_555 1_555
O8M Zn4 1_555 1_555
C5 C6 1_555 1_555
C7 O1 1_555 1_555
C7 O2 1_555 1_555
C13 C14 1_555 1_555
C15 O5 1_555 1_555
C15 O6 1_555 1_555
C21 C22 1_555 1_555
C27 C28 1_555 1_555
C29 N7 1_555 1_555
C30 N9 1_555 1_555
C33 C34 1_555 1_555
C35 N10 1_555 1_555
C36 N12 1_555 1_555
C39 C40 1_555 1_555
C41 N13 1_555 1_555
C42 N15 1_555 1_555
C45 C46 1_555 1_555
C47 N16 1_555 1_555
C48 N18 1_555 1_555
C51 C52 1_555 1_555
N2 N3 1_555 1_555
N4 N5 1_555 1_555
N5 N6 1_555 1_555
N7 N8 1_555 1_555
N8 N9 1_555 1_555
N10 N11 1_555 1_555
N11 N12 1_555 1_555
N13 N14 1_555 1_555
N14 N15 1_555 1_555
N16 N17 1_555 1_555
N17 N18 1_555 1_555
O4 Zn5I 1_555 1_555
O8 Zn4M 1_555 1_555

#END
