
#######################################################################
#
#                 Cambridge Crystallographic Data Centre
#                                CCDC 
#
#######################################################################
#
# If this CIF has been generated from an entry in the Cambridge 
# Structural Database, then it will include bibliographic, chemical, 
# crystal, experimental, refinement or atomic coordinate data resulting 
# from the CCDC's data processing and validation procedures.
#
#######################################################################

data_RAYLOU
_chemical_formula_moiety         '(C32 H21 N5 O8 Zn1)n'
_chemical_name_systematic        
catena-[(\m~2~-N,N'-Di(pyridin-4-yl)biphenyl-4,4'-dicarboxamido)-(\m~2~-5-nitroisophthalato)-zinc]
_symmetry_cell_setting           hexagonal
_symmetry_space_group_name_H-M   'P 62 2 2'
_symmetry_Int_Tables_number      180
_space_group_name_Hall           'P 62 2 (0 0 4)'
loop_
_symmetry_equiv_pos_site_id
_symmetry_equiv_pos_as_xyz
1 x,y,z
2 -y,x-y,2/3+z
3 -x+y,-x,1/3+z
4 -x,-y,z
5 y,-x+y,2/3+z
6 x-y,x,1/3+z
7 y,x,2/3-z
8 x-y,-y,-z
9 -x,-x+y,1/3-z
10 -y,-x,2/3-z
11 -x+y,y,-z
12 x,x-y,1/3-z
_cell_length_a                   16.5094(8)
_cell_length_b                   16.5094(8)
_cell_length_c                   25.701(2)
_cell_angle_alpha                90
_cell_angle_beta                 90
_cell_angle_gamma                120
_cell_volume                     6066.57
_exptl_crystal_colour            colorless
_exptl_crystal_description       block
_cell_formula_units_Z            6
loop_
_atom_site_label
_atom_site_type_symbol
_atom_site_fract_x
_atom_site_fract_y
_atom_site_fract_z
_atom_site_U_iso_or_equiv
_atom_site_thermal_displace_type
C1 C 0.26301(18) 0.5884(2) 0.90346(10) 0.0431 Uani
C2 C 0.2546(2) 0.53788(19) 0.95360(10) 0.0506 Uani
C3 C 0.29243(14) 0.5849(3) 1.0000 0.0430 Uani
H1 H 0.3250 0.6499 1.0000 0.0520 Uiso
C4 C 0.2068(5) 0.4424(3) 0.95454(16) 0.1544 Uani
H2 H 0.1799 0.4084 0.9244 0.1850 Uiso
C5 C 0.19908(18) 0.3982(4) 1.0000 0.2388 Uani
C6 C 0.3498(3) 0.8802(2) 0.90116(11) 0.0646 Uani
H3 H 0.3373 0.8352 0.9265 0.0780 Uiso
C7 C 0.3813(3) 0.9695(2) 0.91719(12) 0.0720 Uani
H4 H 0.3879 0.9836 0.9525 0.0860 Uiso
C8 C 0.4030(2) 1.03845(19) 0.88146(11) 0.0437 Uani
C9 C 0.3940(3) 1.0117(2) 0.83085(13) 0.0791 Uani
H5 H 0.4129 1.0566 0.8048 0.0950 Uiso
C10 C 0.3575(3) 0.9192(2) 0.81764(12) 0.0776 Uani
H6 H 0.3475 0.9028 0.7826 0.0930 Uiso
C11 C 0.4367(3) 1.1699(2) 0.94034(12) 0.0665 Uani
C12 C 0.4616(2) 1.26946(19) 0.94223(12) 0.0475 Uani
C13 C 0.4493(3) 1.3047(2) 0.98740(13) 0.0878 Uani
H7 H 0.4326 1.2682 1.0173 0.1050 Uiso
C14 C 0.4612(3) 1.3938(2) 0.98985(13) 0.0806 Uani
H8 H 0.4466 1.4137 1.0205 0.0970 Uiso
C15 C 0.4935(2) 1.45225(19) 0.94882(11) 0.0532 Uani
C16 C 0.5179(3) 1.4211(2) 0.90636(15) 0.0903 Uani
H9 H 0.5470 1.4621 0.8788 0.1080 Uiso
C17 C 0.5010(3) 1.3280(2) 0.90217(13) 0.0757 Uani
H10 H 0.5171 1.3082 0.8720 0.0910 Uiso
N1 N 0.1491(4) 0.2981(8) 1.0000 0.2910 Uani
N2 N 0.33602(16) 0.85317(15) 0.85220(8) 0.0449 Uani
N3 N 0.43195(19) 1.13076(17) 0.89343(9) 0.0583 Uani
H11 H 0.4493 1.1685 0.8674 0.0700 Uiso
O1 O 0.29275(14) 0.67329(13) 0.90457(7) 0.0532 Uani
O2 O 0.23653(15) 0.54022(16) 0.86340(8) 0.0652 Uani
O3 O 0.1644(7) 0.2548(6) 1.0402(4) 0.3429 Uani
O4 O 0.4207(3) 1.12403(18) 0.97957(9) 0.1529 Uani
Zn1 Zn 0.284658(17) 0.715342(17) 0.8333 0.0378 Uani
C1J C 0.32539(27) 0.5884(2) 1.09654(10) 0.0431 Uani
C2J C 0.28328(28) 0.53788(19) 1.04640(10) 0.0506 Uani
C4J C 0.2356(6) 0.4424(3) 1.04546(16) 0.1544 Uani
H2J H 0.2285 0.4084 1.0756 0.1850 Uiso
C6C C 0.6502(3) 2.1198(2) 0.90116(11) 0.0646 Uani
H3C H 0.6627 2.1648 0.9265 0.0780 Uiso
C7C C 0.6187(3) 2.0305(2) 0.91719(12) 0.0720 Uani
H4C H 0.6121 2.0164 0.9525 0.0860 Uiso
C8C C 0.5970(2) 1.96155(19) 0.88146(11) 0.0437 Uani
C9C C 0.6060(3) 1.9883(2) 0.83085(13) 0.0791 Uani
H5C H 0.5871 1.9434 0.8048 0.0950 Uiso
C10C C 0.6425(3) 2.0808(2) 0.81764(12) 0.0776 Uani
H6C H 0.6525 2.0972 0.7826 0.0930 Uiso
C11C C 0.5633(3) 1.8301(2) 0.94034(12) 0.0665 Uani
C12C C 0.5384(2) 1.73054(19) 0.94223(12) 0.0475 Uani
C13C C 0.5507(3) 1.6953(2) 0.98740(13) 0.0878 Uani
H7C H 0.5674 1.7318 1.0173 0.1050 Uiso
C14C C 0.5388(3) 1.6062(2) 0.98985(13) 0.0806 Uani
H8C H 0.5534 1.5863 1.0205 0.0970 Uiso
C15C C 0.5065(2) 1.54775(19) 0.94882(11) 0.0532 Uani
C16C C 0.4821(3) 1.5789(2) 0.90636(15) 0.0903 Uani
H9C H 0.4530 1.5379 0.8788 0.1080 Uiso
C17C C 0.4990(3) 1.6720(2) 0.90217(13) 0.0757 Uani
H10C H 0.4829 1.6918 0.8720 0.0910 Uiso
N2C N 0.66398(16) 2.14683(15) 0.85220(8) 0.0449 Uani
N2I N 0.14683(15) 0.66398(16) 0.81447(8) 0.0449 Uani
N3C N 0.56805(19) 1.86924(17) 0.89343(9) 0.0583 Uani
H11C H 0.5507 1.8315 0.8674 0.0700 Uiso
O1J O 0.38054(19) 0.67329(13) 1.09543(7) 0.0532 Uani
O1I O 0.32671(13) 0.70725(14) 0.76210(7) 0.0532 Uani
O2J O 0.30369(22) 0.54022(16) 1.13660(8) 0.0652 Uani
O3J O 0.0904(9) 0.2548(6) 0.9598(4) 0.3429 Uani
O4C O 0.5793(3) 1.87597(18) 0.97957(9) 0.1529 Uani
Zn1B Zn 0.430684(24) 0.715342(17) 1.1666 0.0378 Uani
Zn1F Zn 0.715342(17) 2.284658(17) 0.8334 0.0378 Uani
loop_
_atom_site_aniso_label
_atom_site_aniso_U_11
_atom_site_aniso_U_22
_atom_site_aniso_U_33
_atom_site_aniso_U_23
_atom_site_aniso_U_13
_atom_site_aniso_U_12
C1 0.0352(13) 0.0624(16) 0.0279(13) -0.0035(12) -0.0063(11) 0.0216(11)
C2 0.0657(18) 0.0375(15) 0.0376(15) -0.0041(12) -0.0133(14) 0.0175(13)
C3 0.0533(18) 0.035(2) 0.0346(18) 0.000 -0.0051(19) 0.0174(12)
C4 0.271(6) 0.053(2) 0.062(2) -0.011(2) -0.072(3) 0.023(3)
C5 0.468(13) 0.011(3) 0.085(4) 0.000 -0.124(6) 0.0055(13)
C6 0.116(3) 0.0449(16) 0.0317(15) 0.0033(12) 0.0103(17) 0.0393(16)
C7 0.129(3) 0.0502(18) 0.0340(16) -0.0023(13) 0.0026(18) 0.0426(17)
C8 0.0568(15) 0.0368(14) 0.0369(15) 0.0050(12) 0.0067(13) 0.0229(11)
C9 0.143(3) 0.0535(16) 0.0402(16) 0.0097(16) 0.010(2) 0.0486(16)
C10 0.145(3) 0.0574(17) 0.0362(16) 0.0027(14) 0.0038(18) 0.0549(17)
C11 0.105(2) 0.0484(17) 0.0389(17) 0.0052(14) 0.0153(17) 0.0330(17)
C12 0.0660(16) 0.0362(14) 0.0445(17) 0.0019(12) 0.0052(14) 0.0287(11)
C13 0.170(3) 0.0467(17) 0.049(2) 0.0081(15) 0.014(2) 0.0560(18)
C14 0.143(3) 0.0650(18) 0.0463(19) -0.0048(15) 0.0137(19) 0.0613(16)
C15 0.0801(17) 0.0422(14) 0.0441(16) 0.0024(13) 0.0089(15) 0.0357(12)
C16 0.152(3) 0.0559(19) 0.069(2) 0.0124(18) 0.037(2) 0.0565(18)
C17 0.140(2) 0.0500(15) 0.0525(18) 0.0169(15) 0.0351(19) 0.0590(15)
N1 0.402(10) 0.205(8) 0.201(7) 0.000 -0.090(8) 0.103(4)
N2 0.0576(14) 0.0406(12) 0.0354(12) 0.0009(10) 0.0020(11) 0.0238(10)
N3 0.0907(16) 0.0420(13) 0.0377(13) 0.0101(11) 0.0177(13) 0.0299(12)
O1 0.0694(11) 0.0490(10) 0.0354(10) 0.0061(8) -0.0040(9) 0.0253(8)
O2 0.0798(13) 0.0808(14) 0.0352(10) -0.0144(10) -0.0160(10) 0.0404(10)
O3 0.393(6) 0.288(5) 0.330(6) 0.002(4) -0.045(5) 0.157(4)
O4 0.360(4) 0.0588(13) 0.0387(13) 0.0072(11) 0.013(2) 0.1039(18)
Zn1 0.04129(11) 0.04129(11) 0.02811(18) -0.00165(19) -0.00165(19) 0.01864(16)
C1J 0.0544 0.0624 0.0279 0.0035 -0.0028 0.0408
C2J 0.0682 0.0375 0.0376 0.0041 -0.0092 0.02
C4J 0.278 0.053 0.062 0.011 -0.061 0.03
C6C 0.116 0.0449 0.0317 -0.0033 -0.0103 0.0393
C7C 0.129 0.0502 0.034 0.0023 -0.0026 0.0426
C8C 0.0568 0.0368 0.0369 -0.005 -0.0067 0.0229
C9C 0.143 0.0535 0.0402 -0.0097 -0.01 0.0486
C10C 0.145 0.0574 0.0362 -0.0027 -0.0038 0.0549
C11C 0.105 0.0484 0.0389 -0.0052 -0.0153 0.033
C12C 0.066 0.0362 0.0445 -0.0019 -0.0052 0.0287
C13C 0.17 0.0467 0.049 -0.0081 -0.014 0.056
C14C 0.143 0.065 0.0463 0.0048 -0.0137 0.0613
C15C 0.0801 0.0422 0.0441 -0.0024 -0.0089 0.0357
C16C 0.152 0.0559 0.069 -0.0124 -0.037 0.0565
C17C 0.14 0.05 0.0525 -0.0169 -0.0351 0.059
N2C 0.0576 0.0406 0.0354 -0.0009 -0.002 0.0238
N2I 0.0406 0.0576 0.0354 0.002 0.0009 0.0238
N3C 0.0907 0.042 0.0377 -0.0101 -0.0177 0.0299
O1J 0.0678 0.049 0.0354 -0.0061 -0.0101 0.0237
O1I 0.049 0.0694 0.0354 -0.004 0.0061 0.0253
O2J 0.0798 0.0808 0.0352 0.0144 -0.0016 0.0404
O3J 0.367 0.288 0.33 -0.002 -0.047 0.131
O4C 0.36 0.0588 0.0387 -0.0072 -0.013 0.1039
Zn1B 0.0453 0.04129 0.02811 0.00165 0 0.02265
Zn1F 0.04129 0.04129 0.02811 0.00165 0.00165 0.01864
loop_
_geom_bond_atom_site_label_1
_geom_bond_atom_site_label_2
_geom_bond_site_symmetry_1
_geom_bond_site_symmetry_2
C1 C2 1_555 1_555
C2 C3 1_555 1_555
C3 H1 1_555 1_555
C4 C2 1_555 1_555
H2 C4 1_555 1_555
C5 C4 1_555 1_555
C6 H3 1_555 1_555
C7 C6 1_555 1_555
H4 C7 1_555 1_555
C8 C7 1_555 1_555
C9 C8 1_555 1_555
H5 C9 1_555 1_555
C10 C9 1_555 1_555
H6 C10 1_555 1_555
C11 C12 1_555 1_555
C12 C13 1_555 1_555
C13 H7 1_555 1_555
C14 C13 1_555 1_555
H8 C14 1_555 1_555
C15 C14 1_555 1_555
C16 C15 1_555 1_555
H9 C16 1_555 1_555
C17 C12 1_555 1_555
H10 C17 1_555 1_555
N1 C5 1_555 1_555
N2 C6 1_555 1_555
N3 C8 1_555 1_555
H11 N3 1_555 1_555
O1 C1 1_555 1_555
O2 C1 1_555 1_555
O3 N1 1_555 1_555
O4 C11 1_555 1_555
Zn1 N2 1_555 1_555
C1J C2J 1_555 1_555
C2J C3 1_555 1_555
C4J C5 1_555 1_555
H2J C4J 1_555 1_555
C6C H3C 1_555 1_555
C7C C6C 1_555 1_555
H4C C7C 1_555 1_555
C8C C7C 1_555 1_555
C9C C8C 1_555 1_555
H5C C9C 1_555 1_555
C10C C9C 1_555 1_555
H6C C10C 1_555 1_555
C11C C12C 1_555 1_555
C12C C13C 1_555 1_555
C13C H7C 1_555 1_555
C14C C13C 1_555 1_555
H8C C14C 1_555 1_555
C15C C15 1_555 1_555
C16C C15C 1_555 1_555
H9C C16C 1_555 1_555
C17C C12C 1_555 1_555
H10C C17C 1_555 1_555
N2C C6C 1_555 1_555
N2I Zn1 1_555 1_555
N3C C8C 1_555 1_555
H11C N3C 1_555 1_555
O1J C1J 1_555 1_555
O1I Zn1 1_555 1_555
O2J C1J 1_555 1_555
O3J N1 1_555 1_555
O4C C11C 1_555 1_555
Zn1B O1J 1_555 1_555
Zn1F N2C 1_555 1_555
C10 N2 1_555 1_555
C11 N3 1_555 1_555
C16 C17 1_555 1_555
O1 Zn1 1_555 1_555
C2J C4J 1_555 1_555
C10C N2C 1_555 1_555
C11C N3C 1_555 1_555
C14C C15C 1_555 1_555
C16C C17C 1_555 1_555

#END
