
#######################################################################
#
#                 Cambridge Crystallographic Data Centre
#                                CCDC 
#
#######################################################################
#
# If this CIF has been generated from an entry in the Cambridge 
# Structural Database, then it will include bibliographic, chemical, 
# crystal, experimental, refinement or atomic coordinate data resulting 
# from the CCDC's data processing and validation procedures.
#
#######################################################################

data_YEYVOO
_chemical_formula_moiety         '(C150 H180 Ag30 N60)n,9n(C7 H8)'
_chemical_name_systematic        
"catena-(pentadecakis(\m~4~-3,3',5,5'-tetramethyl-1H,1'H-4,4'-bipyrazolato)-triconta-silver(i) nonakis(toluene) clathrate)"
_symmetry_cell_setting           tetragonal
_symmetry_space_group_name_H-M   'I 41/a'
_symmetry_Int_Tables_number      88
_space_group_name_Hall           '-I 4ad'
loop_
_symmetry_equiv_pos_site_id
_symmetry_equiv_pos_as_xyz
1 x,y,z
2 3/4-y,1/4+x,1/4+z
3 1/2+x,1/2+y,1/2+z
4 1/4-y,3/4+x,3/4+z
5 1/4+y,1/4-x,1/4+z
6 1/2-x,-y,1/2+z
7 3/4+y,3/4-x,3/4+z
8 -x,1/2-y,z
9 -x,-y,-z
10 1/4+y,3/4-x,3/4-z
11 1/2-x,1/2-y,1/2-z
12 3/4+y,1/4-x,1/4-z
13 3/4-y,3/4+x,3/4-z
14 1/2+x,y,1/2-z
15 1/4-y,1/4+x,1/4-z
16 x,1/2+y,-z
_cell_length_a                   62.030(2)
_cell_length_b                   62.030(2)
_cell_length_c                   26.5872(15)
_cell_angle_alpha                90
_cell_angle_beta                 90
_cell_angle_gamma                90
_cell_volume                     102300
_exptl_crystal_colour            colorless
_exptl_crystal_description       prism
_cell_formula_units_Z            16
loop_
_atom_site_label
_atom_site_type_symbol
_atom_site_fract_x
_atom_site_fract_y
_atom_site_fract_z
N1 N -0.00526(17) 0.53977(17) -0.4410(4)
N2 N 0.01658(16) 0.54484(18) -0.4416(4)
N3 N 0.05433(18) 0.52137(17) -0.5576(4)
N4 N 0.04599(18) 0.50981(17) -0.5962(4)
N5 N -0.02034(18) 0.50446(18) -0.6048(4)
N6 N -0.03174(17) 0.51089(19) -0.5628(5)
N7 N 0.08527(18) 0.8693(2) -0.7507(5)
N8 N 0.0824(2) 0.8556(2) -0.7119(5)
N9 N 0.0227(2) 0.82928(19) -0.6871(5)
N10 N 0.0052(2) 0.8335(2) -0.7177(5)
N11 N 0.01517(17) 0.87262(18) -0.8420(4)
N12 N 0.0361(2) 0.8802(2) -0.8521(5)
N13 N -0.04234(16) 0.82554(17) -0.5307(5)
N14 N -0.03540(19) 0.8042(2) -0.5299(5)
N15 N -0.05309(17) 0.76164(18) -0.4191(4)
N16 N -0.06665(18) 0.76712(17) -0.3807(4)
N17 N -0.08824(18) 0.83032(17) -0.3754(4)
N18 N -0.08250(18) 0.84298(16) -0.4148(4)
N19 N -0.03950(17) 0.68001(17) -0.3208(4)
N20 N -0.03110(16) 0.69236(17) -0.2832(4)
N21 N 0.00926(16) 0.66978(16) -0.1729(4)
N22 N 0.01758(19) 0.64988(18) -0.1753(4)
N23 N -0.00154(16) 0.61070(16) -0.2926(4)
N24 N -0.01520(17) 0.6179(2) -0.3275(4)
N25 N 0.08004(17) 0.68007(19) -0.0272(4)
N26 N 0.08503(19) 0.69501(19) -0.0642(4)
N27 N 0.14629(19) 0.72088(17) -0.0611(4)
N28 N 0.16122(19) 0.71315(18) -0.0280(4)
N29 N 0.14286(19) 0.66945(17) 0.0835(4)
N30 N 0.12212(17) 0.6642(2) 0.0845(4)
N31 N -0.12553(18) 0.97035(18) -0.1843(4)
N32 N -0.11028(17) 0.96302(18) -0.2201(5)
N33 N -0.12424(17) 0.91261(18) -0.3124(4)
N34 N -0.14318(15) 0.90144(17) -0.3107(4)
N35 N -0.19111(16) 0.92803(18) -0.2243(4)
N36 N -0.18667(16) 0.94480(17) -0.1933(5)
N37 N -0.16619(18) 0.45781(17) -0.6527(4)
N38 N -0.18331(15) 0.46506(16) -0.6819(4)
N39 N -0.23762(16) 0.42393(17) -0.5365(4)
N40 N -0.22828(16) 0.40411(17) -0.5483(4)
N41 N -0.10371(17) 0.50391(17) -0.7046(4)
N42 N -0.10877(17) 0.48869(18) -0.6696(4)
N43 N 0.23466(17) 0.92416(19) -0.6031(5)
N44 N 0.22663(19) 0.9112(2) -0.6412(5)
N45 N 0.16277(19) 0.8940(2) -0.6421(5)
N46 N 0.1486(2) 0.9024(2) -0.6060(5)
N47 N 0.30550(19) 0.9216(2) -0.7507(5)
N48 N 0.3005(2) 0.9437(2) -0.7479(5)
N49 N 0.12617(18) 0.52396(17) -0.7047(4)
N50 N 0.12027(17) 0.54572(18) -0.6994(4)
N51 N 0.14524(17) 0.58980(18) 0.2010(4)
N52 N 0.15920(15) 0.58421(17) 0.1633(4)
N53 N -0.27007(18) 0.9228(2) -0.1048(5)
N54 N -0.25567(17) 0.9174(2) -0.0664(5)
N55 N 0.0001(2) 0.9586(2) -0.9282(5)
N56 N -0.0101(2) 0.9462(2) -0.9642(4)
N57 N -0.0465(2) 0.97780(18) -0.0712(5)
N58 N -0.0518(2) 0.9992(2) -0.0658(5)
N59 N 0.2167(2) 0.7257(2) -0.2012(4)
N60 N 0.2277(2) 0.7392(2) -0.1667(5)
C1 C -0.0384(2) 0.5520(2) -0.3989(5)
C2 C -0.0147(2) 0.5542(2) -0.4084(5)
C3 C 0.00097(19) 0.5672(2) -0.3884(4)
C4 C 0.0197(2) 0.56179(19) -0.4096(5)
C5 C 0.0419(2) 0.5708(3) -0.4025(6)
C6 C 0.0878(2) 0.5428(2) -0.5407(5)
C7 C 0.0737(2) 0.5292(2) -0.5726(5)
C8 C 0.07830(19) 0.52120(18) -0.6217(5)
C9 C 0.0604(2) 0.5093(2) -0.6343(5)
C10 C 0.0555(2) 0.4979(3) -0.6829(6)
C11 C -0.0258(2) 0.4917(3) -0.6905(6)
C12 C -0.0347(2) 0.4997(2) -0.6421(5)
C13 C -0.0549(2) 0.5038(2) -0.6257(5)
C14 C -0.0532(2) 0.5107(2) -0.5757(5)
C15 C -0.0700(2) 0.5184(3) -0.5407(6)
C16 C 0.1100(2) 0.8994(2) -0.7736(6)
C17 C 0.1020(2) 0.8820(2) -0.7400(5)
C18 C 0.1108(3) 0.8764(2) -0.6922(6)
C19 C 0.0977(2) 0.8598(3) -0.6771(6)
C20 C 0.0983(3) 0.8465(3) -0.6291(6)
C21 C 0.0314(2) 0.8169(3) -0.6029(6)
C22 C 0.0154(2) 0.8235(2) -0.6411(6)
C23 C -0.0069(2) 0.8241(3) -0.6402(6)
C24 C -0.0123(2) 0.8304(2) -0.6892(6)
C25 C -0.0351(3) 0.8338(3) -0.7103(7)
C26 C -0.0224(3) 0.8827(3) -0.8577(7)
C27 C 0.0018(2) 0.8870(3) -0.8628(5)
C28 C 0.0124(2) 0.9033(2) -0.8853(5)
C29 C 0.0340(2) 0.8978(3) -0.8768(6)
C30 C 0.0549(2) 0.9096(3) -0.8941(7)
C31 C -0.0372(3) 0.8579(3) -0.5817(7)
C32 C -0.0333(2) 0.8346(2) -0.5714(6)
C33 C -0.0204(2) 0.8198(2) -0.5963(6)
C34 C -0.0219(2) 0.8012(2) -0.5691(5)
C35 C -0.0116(3) 0.7794(3) -0.5769(6)
C36 C -0.0306(3) 0.7306(3) -0.4441(7)
C37 C -0.0462(2) 0.7416(2) -0.4099(5)
C38 C -0.0542(2) 0.7340(2) -0.3648(5)
C39 C -0.0679(2) 0.7505(2) -0.3486(7)
C40 C -0.0812(3) 0.7522(3) -0.3022(7)
C41 C -0.1079(3) 0.8301(3) -0.2957(6)
C42 C -0.1013(2) 0.8407(2) -0.3442(5)
C43 C -0.1047(2) 0.8617(2) -0.3635(5)
C44 C -0.09310(18) 0.86197(19) -0.4083(5)
C45 C -0.0907(2) 0.8794(2) -0.4463(6)
C46 C -0.0596(2) 0.6838(2) -0.4004(5)
C47 C -0.0495(2) 0.6931(2) -0.3549(5)
C48 C -0.0482(2) 0.7143(2) -0.3390(6)
C49 C -0.0364(2) 0.7128(2) -0.2937(5)
C50 C -0.0299(3) 0.7312(3) -0.2592(7)
C51 C 0.0167(2) 0.7056(3) -0.1344(6)
C52 C 0.0223(2) 0.6821(2) -0.1427(6)
C53 C 0.0389(2) 0.6694(2) -0.1259(5)
C54 C 0.0349(2) 0.6490(2) -0.1460(6)
C55 C 0.0485(3) 0.6287(3) -0.1393(7)
C56 C 0.0212(2) 0.5792(2) -0.2772(5)
C57 C 0.0060(2) 0.59100(19) -0.3088(5)
C58 C -0.0038(2) 0.58610(19) -0.3563(5)
C59 C -0.01686(18) 0.60340(19) -0.3658(4)
C60 C -0.0308(2) 0.6079(3) -0.4104(6)
C61 C 0.0517(2) 0.6516(3) -0.0125(5)
C62 C 0.0622(2) 0.6693(2) -0.0439(6)
C63 C 0.0570(2) 0.6770(2) -0.0942(6)
C64 C 0.0715(2) 0.6926(2) -0.1033(5)
C65 C 0.0745(3) 0.7059(3) -0.1489(5)
C66 C 0.1445(3) 0.7372(3) -0.1447(6)
C67 C 0.1564(2) 0.7278(3) -0.1014(5)
C68 C 0.1787(3) 0.7256(2) -0.0943(5)
C69 C 0.1806(2) 0.7166(2) -0.0489(6)
C70 C 0.2006(3) 0.7104(3) -0.0193(7)
C71 C 0.1782(3) 0.6563(2) 0.1102(7)
C72 C 0.15478(19) 0.65448(19) 0.1062(4)
C73 C 0.1416(2) 0.6383(2) 0.1224(5)
C74 C 0.1203(2) 0.6456(2) 0.1083(5)
C75 C 0.0999(2) 0.6339(3) 0.1142(7)
C76 C -0.1265(2) 0.9890(3) -0.1018(6)
C77 C -0.1146(2) 0.9795(2) -0.1461(5)
C78 C -0.0931(2) 0.9781(2) -0.1564(6)
C79 C -0.0908(2) 0.9678(2) -0.2017(6)
C80 C -0.0716(3) 0.9620(3) -0.2327(7)
C81 C -0.0865(2) 0.9081(2) -0.3357(6)
C82 C -0.1090(2) 0.9001(2) -0.3314(5)
C83 C -0.1167(2) 0.8793(2) -0.3409(5)
C84 C -0.1385(2) 0.88081(19) -0.3273(5)
C85 C -0.1557(2) 0.8640(2) -0.3278(5)
C86 C -0.2204(2) 0.9009(3) -0.2345(7)
C87 C -0.2103(2) 0.9197(2) -0.2090(5)
C88 C -0.2182(2) 0.9313(2) -0.1663(6)
C89 C -0.2020(2) 0.9468(2) -0.1585(5)
C90 C -0.2008(3) 0.9639(3) -0.1192(6)
C91 C -0.1582(2) 0.4334(2) -0.5812(5)
C92 C -0.1738(2) 0.44369(19) -0.6183(5)
C93 C -0.1960(2) 0.4416(2) -0.6230(5)
C94 C -0.2011(2) 0.4546(2) -0.6641(5)
C95 C -0.2227(2) 0.4593(2) -0.6891(6)
C96 C -0.2318(2) 0.4621(3) -0.5552(6)
C97 C -0.22703(18) 0.43974(19) -0.5609(5)
C98 C -0.2114(2) 0.43000(19) -0.5902(5)
C99 C -0.2128(2) 0.4082(2) -0.5810(5)
C100 C -0.1998(2) 0.3895(3) -0.6009(7)
C101 C -0.0737(2) 0.5281(3) -0.7276(7)
C102 C -0.0837(2) 0.5110(2) -0.6952(6)
C103 C -0.07568(18) 0.5007(2) -0.6513(5)
C104 C -0.09217(19) 0.48676(19) -0.6384(5)
C105 C -0.0922(2) 0.4707(3) -0.5951(6)
C106 C 0.2684(3) 0.9443(3) -0.5851(7)
C107 C 0.2546(2) 0.9301(2) -0.6171(5)
C108 C 0.2591(2) 0.9222(2) -0.6647(5)
C109 C 0.2409(2) 0.9099(3) -0.6788(5)
C110 C 0.2362(3) 0.8980(3) -0.7246(7)
C111 C 0.1610(2) 0.8739(2) -0.7221(5)
C112 C 0.1508(2) 0.8845(2) -0.6776(5)
C113 C 0.12935(18) 0.8856(2) -0.6653(5)
C114 C 0.1287(2) 0.8975(3) -0.6211(5)
C115 C 0.1103(3) 0.9053(4) -0.5904(6)
C116 C 0.2931(3) 0.8884(3) -0.7141(7)
C117 C 0.2910(3) 0.9115(3) -0.7200(6)
C118 C 0.2775(3) 0.9262(3) -0.6971(7)
C119 C 0.2839(3) 0.9460(2) -0.7164(6)
C120 C 0.2752(3) 0.9679(3) -0.7073(6)
C121 C 0.1140(2) 0.4886(3) -0.6703(6)
C122 C 0.11170(19) 0.5130(2) -0.6751(4)
C123 C 0.0969(2) 0.5272(2) -0.6528(5)
C124 C 0.1025(2) 0.5472(2) -0.6711(5)
C125 C 0.0931(2) 0.5684(2) -0.6608(5)
C126 C 0.1226(3) 0.6203(3) 0.2295(7)
C127 C 0.13810(19) 0.6100(2) 0.1939(5)
C128 C 0.1458(2) 0.6176(2) 0.1477(5)
C129 C 0.15960(19) 0.6010(3) 0.1298(5)
C130 C 0.1736(3) 0.5994(3) 0.0829(6)
C131 C -0.2685(2) 0.9339(2) -0.1934(6)
C132 C -0.25816(18) 0.92831(18) -0.1455(5)
C133 C -0.2365(2) 0.9275(2) -0.1341(5)
C134 C -0.2356(2) 0.9207(2) -0.0834(6)
C135 C -0.2165(2) 0.9168(3) -0.0512(6)
C136 C 0.0210(3) 0.9526(3) -0.8504(7)
C137 C 0.0094(4) 0.9432(3) -0.8961(6)
C138 C 0.0055(3) 0.9225(2) -0.9103(6)
C139 C -0.0077(2) 0.9252(2) -0.9527(5)
C140 C -0.0174(3) 0.9077(2) -0.9840(6)
C141 C -0.0580(3) 0.9449(3) -0.1120(6)
C142 C -0.0601(3) 0.9680(3) -0.1032(6)
C143 C -0.0751(2) 0.9826(2) -0.1211(5)
C144 C -0.0692(3) 1.0020(2) -0.0976(6)
C145 C -0.0786(3) 1.0243(3) -0.1022(7)
C146 C 0.1836(3) 0.7051(3) -0.2062(6)
C147 C 0.1980(3) 0.7200(3) -0.1785(6)
C148 C 0.1958(2) 0.7301(2) -0.1309(5)
C149 C 0.2147(2) 0.7415(2) -0.1276(6)
C150 C 0.2220(2) 0.75565(19) -0.0836(5)
Ag1 Ag -0.017481(16) 0.522799(16) -0.49987(4)
Ag2 Ag 0.035695(15) 0.531094(16) -0.49734(4)
Ag3 Ag 0.013079(16) 0.504559(17) -0.59812(4)
Ag4 Ag 0.061280(18) 0.87195(2) -0.80417(5)
Ag5 Ag 0.053030(18) 0.84025(2) -0.70590(5)
Ag6 Ag 0.010180(19) 0.85050(2) -0.78409(5)
Ag7 Ag -0.063210(18) 0.833880(18) -0.47384(5)
Ag8 Ag -0.045590(17) 0.782900(18) -0.47546(4)
Ag9 Ag -0.078070(17) 0.798270(18) -0.37762(5)
Ag10 Ag -0.028440(16) 0.648650(16) -0.32287(4)
Ag11 Ag -0.012960(17) 0.679730(17) -0.22645(4)
Ag12 Ag 0.006730(16) 0.629090(16) -0.23085(4)
Ag13 Ag 0.100140(18) 0.674990(18) 0.03173(4)
Ag14 Ag 0.114910(18) 0.709510(18) -0.05846(4)
Ag15 Ag 0.151630(18) 0.693830(17) 0.03196(4)
Ag16 Ag -0.156280(16) 0.959080(17) -0.19204(4)
Ag17 Ag -0.119550(16) 0.939820(16) -0.26981(4)
Ag18 Ag -0.168190(15) 0.915170(16) -0.27147(4)
Ag19 Ag -0.137590(15) 0.473230(16) -0.66364(4)
Ag20 Ag -0.178050(16) 0.488440(16) -0.73368(4)
Ag21 Ag -0.127910(16) 0.512150(16) -0.75513(4)
Ag22 Ag 0.214330(19) 0.935310(19) -0.54860(5)
Ag23 Ag 0.194790(18) 0.90152(2) -0.63719(5)
Ag24 Ag 0.16022(2) 0.92321(2) -0.55263(4)
Ag25 Ag 0.148750(17) 0.515290(18) -0.75638(4)
Ag26 Ag 0.134870(16) 0.567590(18) -0.74691(4)
Ag27 Ag 0.167670(16) 0.552490(18) 0.15582(4)
Ag28 Ag -0.00379(2) 0.99064(2) -0.92559(5)
Ag29 Ag -0.02661(2) 0.96270(2) -1.01890(5)
Ag30 Ag 0.23284(2) 0.71305(2) -0.26199(5)
H1 H -0.0442 0.5410 -0.4202
H2 H -0.0454 0.5655 -0.4061
H3 H -0.0408 0.5482 -0.3644
H4 H 0.0413 0.5825 -0.3789
H5 H 0.0473 0.5759 -0.4342
H6 H 0.0512 0.5597 -0.3898
H7 H 0.0807 0.5456 -0.5093
H8 H 0.0906 0.5561 -0.5576
H9 H 0.1011 0.5353 -0.5346
H10 H 0.0418 0.4908 -0.6803
H11 H 0.0665 0.4874 -0.6896
H12 H 0.0550 0.5082 -0.7098
H13 H -0.0374 0.4891 -0.7136
H14 H -0.0180 0.4786 -0.6849
H15 H -0.0162 0.5023 -0.7044
H16 H -0.0635 0.5217 -0.5088
H17 H -0.0807 0.5074 -0.5364
H18 H -0.0766 0.5311 -0.5541
H19 H 0.1013 0.9000 -0.8035
H20 H 0.1247 0.8966 -0.7827
H21 H 0.1092 0.9130 -0.7564
H22 H 0.0868 0.8361 -0.6296
H23 H 0.0967 0.8558 -0.6005
H24 H 0.1119 0.8390 -0.6269
H25 H 0.0457 0.8185 -0.6164
H26 H 0.0291 0.8021 -0.5939
H27 H 0.0299 0.8258 -0.5736
H28 H -0.0341 0.8379 -0.7450
H29 H -0.0422 0.8450 -0.6916
H30 H -0.0431 0.8207 -0.7074
H31 H -0.0303 0.8939 -0.8743
H32 H -0.0263 0.8823 -0.8228
H33 H -0.0258 0.8691 -0.8730
H34 H 0.0673 0.9017 -0.8825
H35 H 0.0551 0.9239 -0.8804
H36 H 0.0551 0.9103 -0.9302
H37 H -0.0469 0.8636 -0.5569
H38 H -0.0238 0.8656 -0.5803
H39 H -0.0435 0.8595 -0.6145
H40 H -0.0160 0.7698 -0.5505
H41 H -0.0160 0.7737 -0.6087
H42 H 0.0038 0.7809 -0.5764
H43 H -0.0281 0.7395 -0.4730
H44 H -0.0173 0.7283 -0.4266
H45 H -0.0364 0.7170 -0.4546
H46 H -0.0890 0.7656 -0.3027
H47 H -0.0911 0.7404 -0.3008
H48 H -0.0719 0.7519 -0.2733
H49 H -0.1030 0.8154 -0.2953
H50 H -0.1017 0.8378 -0.2679
H51 H -0.1234 0.8304 -0.2928
H52 H -0.0815 0.8746 -0.4729
H53 H -0.1046 0.8830 -0.4597
H54 H -0.0846 0.8919 -0.4306
H55 H -0.0578 0.6684 -0.4001
H56 H -0.0747 0.6873 -0.4007
H57 H -0.0528 0.6897 -0.4299
H58 H -0.0221 0.7256 -0.2309
H59 H -0.0209 0.7411 -0.2773
H60 H -0.0426 0.7386 -0.2477
H61 H 0.0274 0.7121 -0.1129
H62 H 0.0165 0.7130 -0.1661
H63 H 0.0028 0.7067 -0.1188
H64 H 0.0420 0.6170 -0.1577
H65 H 0.0628 0.6313 -0.1518
H66 H 0.0491 0.6250 -0.1043
H67 H 0.0245 0.5876 -0.2479
H68 H 0.0149 0.5657 -0.2671
H69 H 0.0341 0.5765 -0.2958
H70 H -0.0300 0.5960 -0.4334
H71 H -0.0454 0.6098 -0.3996
H72 H -0.0258 0.6208 -0.4268
H73 H 0.0590 0.6505 0.0193
H74 H 0.0528 0.6381 -0.0300
H75 H 0.0368 0.6550 -0.0070
H76 H 0.0863 0.7157 -0.1439
H77 H 0.0616 0.7140 -0.1554
H78 H 0.0775 0.6968 -0.1771
H79 H 0.1293 0.7363 -0.1385
H80 H 0.1479 0.7293 -0.1748
H81 H 0.1485 0.7520 -0.1488
H82 H 0.2132 0.7140 -0.0384
H83 H 0.2004 0.6952 -0.0126
H84 H 0.2008 0.7182 0.0119
H85 H 0.1828 0.6696 0.0953
H86 H 0.1849 0.6444 0.0929
H87 H 0.1823 0.6560 0.1450
H88 H 0.0882 0.6425 0.1016
H89 H 0.0975 0.6308 0.1492
H90 H 0.1005 0.6206 0.0957
H91 H -0.1418 0.9872 -0.1067
H92 H -0.1232 1.0041 -0.0992
H93 H -0.1222 0.9818 -0.0715
H94 H -0.0762 0.9547 -0.2626
H95 H -0.0622 0.9528 -0.2137
H96 H -0.0640 0.9750 -0.2419
H97 H -0.0860 0.9230 -0.3262
H98 H -0.0817 0.9066 -0.3699
H99 H -0.0773 0.8998 -0.3140
H100 H -0.1690 0.8701 -0.3157
H101 H -0.1515 0.8522 -0.3066
H102 H -0.1577 0.8589 -0.3616
H103 H -0.2115 0.8965 -0.2622
H104 H -0.2344 0.9049 -0.2468
H105 H -0.2218 0.8892 -0.2111
H106 H -0.1880 0.9722 -0.1240
H107 H -0.2006 0.9573 -0.0865
H108 H -0.2132 0.9731 -0.1218
H109 H -0.1438 0.4382 -0.5881
H110 H -0.1622 0.4374 -0.5476
H111 H -0.1589 0.4180 -0.5844
H112 H -0.2206 0.4692 -0.7165
H113 H -0.2288 0.4462 -0.7016
H114 H -0.2323 0.4656 -0.6649
H115 H -0.2438 0.4638 -0.5326
H116 H -0.2195 0.4694 -0.5418
H117 H -0.2355 0.4681 -0.5874
H118 H -0.2049 0.3764 -0.5863
H119 H -0.2012 0.3889 -0.6368
H120 H -0.1849 0.3915 -0.5922
H121 H -0.0834 0.5315 -0.7547
H122 H -0.0712 0.5408 -0.7078
H123 H -0.0603 0.5229 -0.7410
H124 H -0.1056 0.4629 -0.5950
H125 H -0.0805 0.4607 -0.5993
H126 H -0.0906 0.4782 -0.5639
H127 H 0.2612 0.9470 -0.5536
H128 H 0.2819 0.9373 -0.5789
H129 H 0.2708 0.9577 -0.6021
H130 H 0.2222 0.8915 -0.7221
H131 H 0.2366 0.9077 -0.7528
H132 H 0.2469 0.8869 -0.7292
H133 H 0.1764 0.8754 -0.7201
H134 H 0.1573 0.8589 -0.7225
H135 H 0.1559 0.8806 -0.7524
H136 H 0.1156 0.9129 -0.5615
H137 H 0.1015 0.9148 -0.6103
H138 H 0.1017 0.8932 -0.5796
H139 H 0.3043 0.8832 -0.7357
H140 H 0.2965 0.8851 -0.6798
H141 H 0.2797 0.8816 -0.7230
H142 H 0.2836 0.9783 -0.7256
H143 H 0.2605 0.9685 -0.7185
H144 H 0.2758 0.9711 -0.6720
H145 H 0.1258 0.4837 -0.6907
H146 H 0.1009 0.4818 -0.6815
H147 H 0.1166 0.4849 -0.6358
H148 H 0.1009 0.5793 -0.6789
H149 H 0.0939 0.5714 -0.6254
H150 H 0.0783 0.5685 -0.6713
H151 H 0.1202 0.6109 0.2576
H152 H 0.1092 0.6230 0.2126
H153 H 0.1285 0.6337 0.2412
H154 H 0.1807 0.5857 0.0822
H155 H 0.1842 0.6107 0.0834
H156 H 0.1647 0.6010 0.0535
H157 H -0.2577 0.9374 -0.2178
H158 H -0.2779 0.9460 -0.1886
H159 H -0.2768 0.9218 -0.2052
H160 H -0.2212 0.9124 -0.0183
H161 H -0.2082 0.9298 -0.0486
H162 H -0.2079 0.9056 -0.0659
H163 H 0.0211 0.9680 -0.8527
H164 H 0.0356 0.9474 -0.8497
H165 H 0.0137 0.9483 -0.8203
H166 H -0.0256 0.9140 -1.0108
H167 H -0.0266 0.8990 -0.9635
H168 H -0.0061 0.8990 -0.9980
H169 H -0.0458 0.9395 -0.0938
H170 H -0.0561 0.9423 -0.1473
H171 H -0.0708 0.9377 -0.1006
H172 H -0.0708 1.0340 -0.0807
H173 H -0.0934 1.0240 -0.0924
H174 H -0.0774 1.0291 -0.1365
H175 H 0.1900 0.7014 -0.2379
H176 H 0.1699 0.7120 -0.2120
H177 H 0.1814 0.6922 -0.1867
H178 H 0.2358 0.7619 -0.0912
H179 H 0.2232 0.7470 -0.0537
H180 H 0.2117 0.7669 -0.0782
N39C N -0.17393(17) 0.51238(16) -0.7865(4)
N40C N -0.15411(17) 0.52172(16) -0.7983(4)
N47D N 0.1716(2) 0.94450(19) -0.5007(5)
N48D N 0.1937(2) 0.9495(2) -0.4979(5)
N51_2 N 0.14524(17) 0.58980(18) -0.7990(4)
N53D N 0.1728(2) 0.52007(18) 0.1452(5)
N54D N 0.1674(2) 0.50567(17) -0.8164(5)
N57_2 N -0.0465(2) 0.97780(18) -1.0712(5)
N58C N 0.2508(2) 0.6982(2) -0.3158(5)
N60D N -0.0108(2) 1.0223(2) -0.9167(5)
Ag20D Ag -0.261560(16) 0.428050(16) -0.48368(4)
Ag21D Ag -0.237850(16) 0.377910(16) -0.50513(4)
Ag22C Ag 0.314690(19) 0.964330(19) -0.79860(5)
Ag24C Ag 0.32679(2) 0.91022(2) -0.80263(4)
Ag25C Ag -0.265290(18) 0.898750(17) -0.00638(4)
Ag26_2 Ag 0.134870(16) 0.567590(18) 0.25309(4)
Ag27C Ag -0.302490(18) 0.917670(16) -0.09418(4)
Ag28C Ag 0.25936(2) 0.74621(2) -0.17559(5)
Ag29_2 Ag -0.02661(2) 0.96270(2) -0.01890(5)
Ag30D Ag -0.03695(2) 1.01716(2) -0.01199(5)
C151 C -0.0125(2) 0.56725(19) -0.5750(5)
C152 C 0.0005(2) 0.57807(19) -0.5406(5)
C153 C 0.0225(5) 0.5809(5) -0.5474(11)
C154 C 0.0299(5) 0.5718(5) -0.5925(12)
C155 C 0.0171(5) 0.5608(5) -0.6254(12)
C156 C -0.0048(5) 0.5588(5) -0.6177(12)
C157 C -0.0363(5) 0.5662(6) -0.5645(13)
H181 H -0.0058 0.5837 -0.5118
H182 H 0.0313 0.5880 -0.5245
H183 H 0.0445 0.5735 -0.6004
H184 H 0.0233 0.5545 -0.6536
H185 H -0.0138 0.5519 -0.6409
H186 H -0.0393 0.5732 -0.5331
H187 H -0.0408 0.5515 -0.5628
H188 H -0.0440 0.5734 -0.5910
C158 C -0.0130(5) 0.6053(4) -0.7020(11)
C159 C -0.0251(4) 0.6125(4) -0.6594(10)
C160 C -0.0461(5) 0.6064(5) -0.6560(11)
C161 C -0.0557(5) 0.5930(5) -0.6921(11)
C162 C -0.0433(5) 0.5860(4) -0.7329(11)
C163 C -0.0224(4) 0.5924(4) -0.7375(10)
C164 C 0.0100(5) 0.6108(5) -0.7032(12)
H189 H -0.0188 0.6210 -0.6347
H190 H -0.0543 0.6113 -0.6291
H191 H -0.0700 0.5889 -0.6889
H192 H -0.0494 0.5769 -0.7569
H193 H -0.0144 0.5879 -0.7652
H194 H 0.0135 0.6197 -0.6747
H195 H 0.0132 0.6185 -0.7336
H196 H 0.0185 0.5979 -0.7020
C165 C -0.0868(5) 0.7123(4) -0.9322(11)
C166 C -0.0707(4) 0.7093(4) -0.9683(10)
C167 C -0.0511(5) 0.7176(4) -0.9568(10)
C168 C -0.0474(5) 0.7288(4) -0.9145(10)
C169 C -0.0639(5) 0.7314(4) -0.8784(11)
C170 C -0.0849(5) 0.7239(4) -0.8890(11)
C171 C -0.1088(5) 0.7037(5) -0.9430(12)
H197 H -0.0733 0.7021 -0.9984
H198 H -0.0397 0.7153 -0.9789
H199 H -0.0339 0.7350 -0.9090
H200 H -0.0609 0.7380 -0.8478
H201 H -0.0966 0.7268 -0.8680
H202 H -0.1087 0.6963 -0.9747
H203 H -0.1189 0.7154 -0.9442
H204 H -0.1129 0.6938 -0.9169
C172 C -0.1231(5) 0.8629(5) -1.0507(12)
C173 C -0.1434(5) 0.8589(5) -1.0298(13)
C174 C -0.1577(5) 0.8448(5) -1.0519(12)
C175 C -0.1518(5) 0.8337(4) -1.0957(11)
C176 C -0.1316(6) 0.8379(5) -1.1133(13)
C177 C -0.1153(7) 0.8528(6) -1.0925(16)
C178 C -0.1252(5) 0.8265(5) -1.1601(12)
H205 H -0.1143 0.8730 -1.0350
H206 H -0.1473 0.8659 -1.0003
H207 H -0.1713 0.8426 -1.0378
H208 H -0.1611 0.8241 -1.1117
H209 H -0.1017 0.8550 -1.1060
H210 H -0.1109 0.8306 -1.1692
H211 H -0.1350 0.8303 -1.1867
H212 H -0.1258 0.8113 -1.1545
C179 C -0.1179(4) 0.9185(4) -1.1373(10)
C180 C -0.1398(5) 0.9122(5) -1.1284(12)
C181 C -0.1489(5) 0.8950(5) -1.1525(10)
C182 C -0.1346(5) 0.8853(5) -1.1862(11)
C183 C -0.1137(5) 0.8905(5) -1.1989(11)
C184 C -0.1054(5) 0.9081(4) -1.1720(10)
C185 C -0.1511(5) 0.9236(5) -1.0872(12)
H213 H -0.1121 0.9299 -1.1191
H214 H -0.1630 0.8904 -1.1471
H215 H -0.1401 0.8733 -1.2029
H216 H -0.1058 0.8830 -1.2230
H217 H -0.0914 0.9127 -1.1778
H218 H -0.1420 0.9348 -1.0743
H219 H -0.1544 0.9136 -1.0607
H220 H -0.1642 0.9298 -1.0998
C186 C -0.1593(5) 1.0511(5) -1.3182(11)
C187 C -0.1813(5) 1.0494(5) -1.3142(12)
C188 C -0.1936(5) 1.0354(5) -1.3431(11)
C189 C -0.1825(5) 1.0226(5) -1.3774(12)
C190 C -0.1613(5) 1.0234(5) -1.3798(11)
C191 C -0.1485(5) 1.0383(5) -1.3520(11)
C192 C -0.1936(5) 1.0066(5) -1.4069(12)
H221 H -0.1518 1.0609 -1.2984
H222 H -0.1883 1.0580 -1.2908
H223 H -0.2085 1.0347 -1.3398
H224 H -0.1542 1.0138 -1.4009
H225 H -0.1337 1.0392 -1.3563
H226 H -0.1834 0.9991 -1.4276
H227 H -0.2041 1.0135 -1.4279
H228 H -0.2006 0.9966 -1.3849
C193 C -0.2595(6) 1.1866(6) -1.6153(14)
C194 C -0.2766(6) 1.1725(7) -1.6295(14)
C195 C -0.2764(8) 1.1518(8) -1.6137(17)
C196 C -0.2947(7) 1.1370(7) -1.6311(16)
C197 C -0.2608(6) 1.1429(6) -1.5798(13)
C198 C -0.2453(6) 1.1579(7) -1.5673(14)
C199 C -0.2427(7) 1.1808(7) -1.5823(15)
H229 H -0.2595 1.2005 -1.6284
H230 H -0.2878 1.1775 -1.6496
H231 H -0.2928 1.1230 -1.6165
H232 H -0.2944 1.1359 -1.6671
H233 H -0.3083 1.1430 -1.6206
H234 H -0.2610 1.1288 -1.5680
H235 H -0.2348 1.1528 -1.5456
H236 H -0.2316 1.1898 -1.5717
C200 C -0.1781(7) 1.1335(7) -1.6973(16)
C201 C -0.1821(8) 1.1505(8) -1.7291(18)
C202 C -0.1629(6) 1.1605(6) -1.7576(14)
C203 C -0.2036(6) 1.1572(6) -1.7405(14)
C204 C -0.2235(6) 1.1485(6) -1.7158(13)
C205 C -0.2190(7) 1.1321(7) -1.6811(16)
C206 C -0.1961(6) 1.1268(6) -1.6742(14)
H237 H -0.1646 1.1273 -1.6925
H238 H -0.1681 1.1713 -1.7804
H239 H -0.1556 1.1494 -1.7762
H240 H -0.1531 1.1669 -1.7340
H241 H -0.2053 1.1676 -1.7652
H242 H -0.2373 1.1535 -1.7227
H243 H -0.2299 1.1249 -1.6636
H244 H -0.1936 1.1169 -1.6487
C207 C -0.1840(7) 1.1771(8) -1.6252(19)
C208 C -0.1894(6) 1.1978(8) -1.6287(17)
C209 C -0.1954(7) 1.2138(8) -1.592(2)
C210 C -0.1960(6) 1.2052(8) -1.5444(17)
C211 C -0.2039(6) 1.2217(6) -1.5033(14)
C212 C -0.1947(7) 1.1839(8) -1.5337(18)
C213 C -0.1874(6) 1.1697(7) -1.5740(17)
H245 H -0.1788 1.1687 -1.6514
H246 H -0.1892 1.2030 -1.6615
H247 H -0.1985 1.2281 -1.5998
H248 H -0.2057 1.2356 -1.5184
H249 H -0.1933 1.2226 -1.4770
H250 H -0.2173 1.2169 -1.4896
H251 H -0.1983 1.1786 -1.5021
H252 H -0.1848 1.1553 -1.5665
loop_
_geom_bond_atom_site_label_1
_geom_bond_atom_site_label_2
_geom_bond_site_symmetry_1
_geom_bond_site_symmetry_2
N1 N2 1_555 1_555
N2 C4 1_555 1_555
N3 N4 1_555 1_555
N4 C9 1_555 1_555
N5 N6 1_555 1_555
N6 C14 1_555 1_555
N7 N8 1_555 1_555
N8 C19 1_555 1_555
N9 N10 1_555 1_555
N10 C24 1_555 1_555
N11 N12 1_555 1_555
N12 C29 1_555 1_555
N13 N14 1_555 1_555
N14 C34 1_555 1_555
N15 N16 1_555 1_555
N16 C39 1_555 1_555
N17 N18 1_555 1_555
N18 C44 1_555 1_555
N19 N20 1_555 1_555
N20 C49 1_555 1_555
N21 N22 1_555 1_555
N22 C54 1_555 1_555
N23 N24 1_555 1_555
N24 C59 1_555 1_555
N25 N26 1_555 1_555
N26 C64 1_555 1_555
N27 N28 1_555 1_555
N28 C69 1_555 1_555
N29 N30 1_555 1_555
N30 C74 1_555 1_555
N31 N32 1_555 1_555
N32 C79 1_555 1_555
N33 N34 1_555 1_555
N34 C84 1_555 1_555
N35 N36 1_555 1_555
N36 C89 1_555 1_555
N37 N38 1_555 1_555
N38 C94 1_555 1_555
N39 N40 1_555 1_555
N40 C99 1_555 1_555
N41 N42 1_555 1_555
N42 C104 1_555 1_555
N43 N44 1_555 1_555
N44 C109 1_555 1_555
N45 N46 1_555 1_555
N46 C114 1_555 1_555
N47 N48 1_555 1_555
N48 C119 1_555 1_555
N49 N50 1_555 1_555
N50 C124 1_555 1_555
N51 N52 1_555 1_555
N52 C129 1_555 1_555
N53 N54 1_555 1_555
N54 C134 1_555 1_555
N55 N56 1_555 1_555
N56 C139 1_555 1_555
N57 N58 1_555 1_555
N58 C144 1_555 1_555
N59 N60 1_555 1_555
N60 C149 1_555 1_555
C1 C2 1_555 1_555
C2 N1 1_555 1_555
C3 C2 1_555 1_555
C4 C3 1_555 1_555
C5 C4 1_555 1_555
C6 C7 1_555 1_555
C7 N3 1_555 1_555
C8 C7 1_555 1_555
C9 C8 1_555 1_555
C10 C9 1_555 1_555
C11 C12 1_555 1_555
C12 N5 1_555 1_555
C13 C12 1_555 1_555
C14 C13 1_555 1_555
C15 C14 1_555 1_555
C16 C17 1_555 1_555
C17 N7 1_555 1_555
C18 C17 1_555 1_555
C19 C18 1_555 1_555
C20 C19 1_555 1_555
C21 C22 1_555 1_555
C22 N9 1_555 1_555
C23 C22 1_555 1_555
C24 C23 1_555 1_555
C25 C24 1_555 1_555
C26 C27 1_555 1_555
C27 N11 1_555 1_555
C28 C27 1_555 1_555
C29 C28 1_555 1_555
C30 C29 1_555 1_555
C31 C32 1_555 1_555
C32 N13 1_555 1_555
C33 C23 1_555 1_555
C34 C33 1_555 1_555
C35 C34 1_555 1_555
C36 C37 1_555 1_555
C37 N15 1_555 1_555
C38 C37 1_555 1_555
C39 C38 1_555 1_555
C40 C39 1_555 1_555
C41 C42 1_555 1_555
C42 N17 1_555 1_555
C43 C42 1_555 1_555
C44 C43 1_555 1_555
C45 C44 1_555 1_555
C46 C47 1_555 1_555
C47 N19 1_555 1_555
C48 C38 1_555 1_555
C49 C48 1_555 1_555
C50 C49 1_555 1_555
C51 C52 1_555 1_555
C52 N21 1_555 1_555
C53 C52 1_555 1_555
C54 C53 1_555 1_555
C55 C54 1_555 1_555
C56 C57 1_555 1_555
C57 N23 1_555 1_555
C58 C3 1_555 1_555
C59 C58 1_555 1_555
C60 C59 1_555 1_555
C61 C62 1_555 1_555
C62 N25 1_555 1_555
C63 C53 1_555 1_555
C64 C63 1_555 1_555
C65 C64 1_555 1_555
C66 C67 1_555 1_555
C67 N27 1_555 1_555
C68 C67 1_555 1_555
C69 C68 1_555 1_555
C70 C69 1_555 1_555
C71 C72 1_555 1_555
C72 N29 1_555 1_555
C73 C72 1_555 1_555
C74 C73 1_555 1_555
C75 C74 1_555 1_555
C76 C77 1_555 1_555
C77 N31 1_555 1_555
C78 C77 1_555 1_555
C79 C78 1_555 1_555
C80 C79 1_555 1_555
C81 C82 1_555 1_555
C82 N33 1_555 1_555
C83 C43 1_555 1_555
C84 C83 1_555 1_555
C85 C84 1_555 1_555
C86 C87 1_555 1_555
C87 N35 1_555 1_555
C88 C87 1_555 1_555
C89 C88 1_555 1_555
C90 C89 1_555 1_555
C91 C92 1_555 1_555
C92 N37 1_555 1_555
C93 C92 1_555 1_555
C94 C93 1_555 1_555
C95 C94 1_555 1_555
C96 C97 1_555 1_555
C97 N39 1_555 1_555
C98 C93 1_555 1_555
C99 C98 1_555 1_555
C100 C99 1_555 1_555
C101 C102 1_555 1_555
C102 N41 1_555 1_555
C103 C13 1_555 1_555
C104 C103 1_555 1_555
C105 C104 1_555 1_555
C106 C107 1_555 1_555
C107 N43 1_555 1_555
C108 C107 1_555 1_555
C109 C108 1_555 1_555
C110 C109 1_555 1_555
C111 C112 1_555 1_555
C112 N45 1_555 1_555
C113 C18 1_555 1_555
C114 C113 1_555 1_555
C115 C114 1_555 1_555
C116 C117 1_555 1_555
C117 N47 1_555 1_555
C118 C108 1_555 1_555
C119 C118 1_555 1_555
C120 C119 1_555 1_555
C121 C122 1_555 1_555
C122 N49 1_555 1_555
C123 C8 1_555 1_555
C124 C123 1_555 1_555
C125 C124 1_555 1_555
C126 C127 1_555 1_555
C127 N51 1_555 1_555
C128 C73 1_555 1_555
C129 C128 1_555 1_555
C130 C129 1_555 1_555
C131 C132 1_555 1_555
C132 N53 1_555 1_555
C133 C88 1_555 1_555
C134 C133 1_555 1_555
C135 C134 1_555 1_555
C136 C137 1_555 1_555
C137 N55 1_555 1_555
C138 C28 1_555 1_555
C139 C138 1_555 1_555
C140 C139 1_555 1_555
C141 C142 1_555 1_555
C142 N57 1_555 1_555
C143 C78 1_555 1_555
C144 C143 1_555 1_555
C145 C144 1_555 1_555
C146 C147 1_555 1_555
C147 N59 1_555 1_555
C148 C68 1_555 1_555
C149 C148 1_555 1_555
C150 C149 1_555 1_555
C151 C152 1_555 1_555
C152 C153 1_555 1_555
C153 C154 1_555 1_555
C154 C155 1_555 1_555
C155 C156 1_555 1_555
C156 C151 1_555 1_555
C157 C151 1_555 1_555
C158 C159 1_555 1_555
C159 C160 1_555 1_555
C160 C161 1_555 1_555
C161 C162 1_555 1_555
C162 C163 1_555 1_555
C163 C158 1_555 1_555
C164 C158 1_555 1_555
C165 C166 1_555 1_555
C166 C167 1_555 1_555
C167 C168 1_555 1_555
C168 C169 1_555 1_555
C169 C170 1_555 1_555
C170 C165 1_555 1_555
C171 C165 1_555 1_555
C172 C173 1_555 1_555
C173 C174 1_555 1_555
C174 C175 1_555 1_555
C175 C176 1_555 1_555
C176 C177 1_555 1_555
C177 C172 1_555 1_555
C178 C176 1_555 1_555
C179 C180 1_555 1_555
C180 C181 1_555 1_555
C181 C182 1_555 1_555
C182 C183 1_555 1_555
C183 C184 1_555 1_555
C184 C179 1_555 1_555
C185 C180 1_555 1_555
C186 C187 1_555 1_555
C187 C188 1_555 1_555
C188 C189 1_555 1_555
C189 C190 1_555 1_555
C190 C191 1_555 1_555
C191 C186 1_555 1_555
C192 C189 1_555 1_555
C193 C194 1_555 1_555
C194 C195 1_555 1_555
C195 C196 1_555 1_555
C196 H231 1_555 1_555
C197 C195 1_555 1_555
C198 C197 1_555 1_555
C199 C193 1_555 1_555
C200 C201 1_555 1_555
C201 C202 1_555 1_555
C202 H238 1_555 1_555
C203 C201 1_555 1_555
C204 C203 1_555 1_555
C205 C204 1_555 1_555
C206 C200 1_555 1_555
C207 C208 1_555 1_555
C208 C209 1_555 1_555
C209 C210 1_555 1_555
C210 C211 1_555 1_555
C211 H248 1_555 1_555
C212 C210 1_555 1_555
C213 C207 1_555 1_555
Ag1 N1 1_555 1_555
Ag2 N2 1_555 1_555
Ag3 N4 1_555 1_555
Ag4 N7 1_555 1_555
Ag5 N8 1_555 1_555
Ag6 N10 1_555 1_555
Ag7 N13 1_555 1_555
Ag8 N14 1_555 1_555
Ag9 N16 1_555 1_555
Ag10 N19 1_555 1_555
Ag11 N20 1_555 1_555
Ag12 N22 1_555 1_555
Ag13 N25 1_555 1_555
Ag14 N26 1_555 1_555
Ag15 N28 1_555 1_555
Ag16 N31 1_555 1_555
Ag17 N32 1_555 1_555
Ag18 N34 1_555 1_555
Ag19 N37 1_555 1_555
Ag20 N38 1_555 1_555
Ag21 N41 1_555 1_555
Ag22 N43 1_555 1_555
Ag23 N44 1_555 1_555
Ag24 N46 1_555 1_555
Ag25 N49 1_555 1_555
Ag26 N50 1_555 1_555
Ag27 N52 1_555 1_555
Ag28 N55 1_555 1_555
Ag29 N56 1_555 1_555
Ag30 N59 1_555 1_555
H1 C1 1_555 1_555
H2 C1 1_555 1_555
H3 C1 1_555 1_555
H4 C5 1_555 1_555
H5 C5 1_555 1_555
H6 C5 1_555 1_555
H7 C6 1_555 1_555
H8 C6 1_555 1_555
H9 C6 1_555 1_555
H10 C10 1_555 1_555
H11 C10 1_555 1_555
H12 C10 1_555 1_555
H13 C11 1_555 1_555
H14 C11 1_555 1_555
H15 C11 1_555 1_555
H16 C15 1_555 1_555
H17 C15 1_555 1_555
H18 C15 1_555 1_555
H19 C16 1_555 1_555
H20 C16 1_555 1_555
H21 C16 1_555 1_555
H22 C20 1_555 1_555
H23 C20 1_555 1_555
H24 C20 1_555 1_555
H25 C21 1_555 1_555
H26 C21 1_555 1_555
H27 C21 1_555 1_555
H28 C25 1_555 1_555
H29 C25 1_555 1_555
H30 C25 1_555 1_555
H31 C26 1_555 1_555
H32 C26 1_555 1_555
H33 C26 1_555 1_555
H34 C30 1_555 1_555
H35 C30 1_555 1_555
H36 C30 1_555 1_555
H37 C31 1_555 1_555
H38 C31 1_555 1_555
H39 C31 1_555 1_555
H40 C35 1_555 1_555
H41 C35 1_555 1_555
H42 C35 1_555 1_555
H43 C36 1_555 1_555
H44 C36 1_555 1_555
H45 C36 1_555 1_555
H46 C40 1_555 1_555
H47 C40 1_555 1_555
H48 C40 1_555 1_555
H49 C41 1_555 1_555
H50 C41 1_555 1_555
H51 C41 1_555 1_555
H52 C45 1_555 1_555
H53 C45 1_555 1_555
H54 C45 1_555 1_555
H55 C46 1_555 1_555
H56 C46 1_555 1_555
H57 C46 1_555 1_555
H58 C50 1_555 1_555
H59 C50 1_555 1_555
H60 C50 1_555 1_555
H61 C51 1_555 1_555
H62 C51 1_555 1_555
H63 C51 1_555 1_555
H64 C55 1_555 1_555
H65 C55 1_555 1_555
H66 C55 1_555 1_555
H67 C56 1_555 1_555
H68 C56 1_555 1_555
H69 C56 1_555 1_555
H70 C60 1_555 1_555
H71 C60 1_555 1_555
H72 C60 1_555 1_555
H73 C61 1_555 1_555
H74 C61 1_555 1_555
H75 C61 1_555 1_555
H76 C65 1_555 1_555
H77 C65 1_555 1_555
H78 C65 1_555 1_555
H79 C66 1_555 1_555
H80 C66 1_555 1_555
H81 C66 1_555 1_555
H82 C70 1_555 1_555
H83 C70 1_555 1_555
H84 C70 1_555 1_555
H85 C71 1_555 1_555
H86 C71 1_555 1_555
H87 C71 1_555 1_555
H88 C75 1_555 1_555
H89 C75 1_555 1_555
H90 C75 1_555 1_555
H91 C76 1_555 1_555
H92 C76 1_555 1_555
H93 C76 1_555 1_555
H94 C80 1_555 1_555
H95 C80 1_555 1_555
H96 C80 1_555 1_555
H97 C81 1_555 1_555
H98 C81 1_555 1_555
H99 C81 1_555 1_555
H100 C85 1_555 1_555
H101 C85 1_555 1_555
H102 C85 1_555 1_555
H103 C86 1_555 1_555
H104 C86 1_555 1_555
H105 C86 1_555 1_555
H106 C90 1_555 1_555
H107 C90 1_555 1_555
H108 C90 1_555 1_555
H109 C91 1_555 1_555
H110 C91 1_555 1_555
H111 C91 1_555 1_555
H112 C95 1_555 1_555
H113 C95 1_555 1_555
H114 C95 1_555 1_555
H115 C96 1_555 1_555
H116 C96 1_555 1_555
H117 C96 1_555 1_555
H118 C100 1_555 1_555
H119 C100 1_555 1_555
H120 C100 1_555 1_555
H121 C101 1_555 1_555
H122 C101 1_555 1_555
H123 C101 1_555 1_555
H124 C105 1_555 1_555
H125 C105 1_555 1_555
H126 C105 1_555 1_555
H127 C106 1_555 1_555
H128 C106 1_555 1_555
H129 C106 1_555 1_555
H130 C110 1_555 1_555
H131 C110 1_555 1_555
H132 C110 1_555 1_555
H133 C111 1_555 1_555
H134 C111 1_555 1_555
H135 C111 1_555 1_555
H136 C115 1_555 1_555
H137 C115 1_555 1_555
H138 C115 1_555 1_555
H139 C116 1_555 1_555
H140 C116 1_555 1_555
H141 C116 1_555 1_555
H142 C120 1_555 1_555
H143 C120 1_555 1_555
H144 C120 1_555 1_555
H145 C121 1_555 1_555
H146 C121 1_555 1_555
H147 C121 1_555 1_555
H148 C125 1_555 1_555
H149 C125 1_555 1_555
H150 C125 1_555 1_555
H151 C126 1_555 1_555
H152 C126 1_555 1_555
H153 C126 1_555 1_555
H154 C130 1_555 1_555
H155 C130 1_555 1_555
H156 C130 1_555 1_555
H157 C131 1_555 1_555
H158 C131 1_555 1_555
H159 C131 1_555 1_555
H160 C135 1_555 1_555
H161 C135 1_555 1_555
H162 C135 1_555 1_555
H163 C136 1_555 1_555
H164 C136 1_555 1_555
H165 C136 1_555 1_555
H166 C140 1_555 1_555
H167 C140 1_555 1_555
H168 C140 1_555 1_555
H169 C141 1_555 1_555
H170 C141 1_555 1_555
H171 C141 1_555 1_555
H172 C145 1_555 1_555
H173 C145 1_555 1_555
H174 C145 1_555 1_555
H175 C146 1_555 1_555
H176 C146 1_555 1_555
H177 C146 1_555 1_555
H178 C150 1_555 1_555
H179 C150 1_555 1_555
H180 C150 1_555 1_555
H181 C152 1_555 1_555
H182 C153 1_555 1_555
H183 C154 1_555 1_555
H184 C155 1_555 1_555
H185 C156 1_555 1_555
H186 C157 1_555 1_555
H187 C157 1_555 1_555
H188 C157 1_555 1_555
H189 C159 1_555 1_555
H190 C160 1_555 1_555
H191 C161 1_555 1_555
H192 C162 1_555 1_555
H193 C163 1_555 1_555
H194 C164 1_555 1_555
H195 C164 1_555 1_555
H196 C164 1_555 1_555
H197 C166 1_555 1_555
H198 C167 1_555 1_555
H199 C168 1_555 1_555
H200 C169 1_555 1_555
H201 C170 1_555 1_555
H202 C171 1_555 1_555
H203 C171 1_555 1_555
H204 C171 1_555 1_555
H205 C172 1_555 1_555
H206 C173 1_555 1_555
H207 C174 1_555 1_555
H208 C175 1_555 1_555
H209 C177 1_555 1_555
H210 C178 1_555 1_555
H211 C178 1_555 1_555
H212 C178 1_555 1_555
H213 C179 1_555 1_555
H214 C181 1_555 1_555
H215 C182 1_555 1_555
H216 C183 1_555 1_555
H217 C184 1_555 1_555
H218 C185 1_555 1_555
H219 C185 1_555 1_555
H220 C185 1_555 1_555
H221 C186 1_555 1_555
H222 C187 1_555 1_555
H223 C188 1_555 1_555
H224 C190 1_555 1_555
H225 C191 1_555 1_555
H226 C192 1_555 1_555
H227 C192 1_555 1_555
H228 C192 1_555 1_555
H229 C193 1_555 1_555
H230 C194 1_555 1_555
H232 C196 1_555 1_555
H233 C196 1_555 1_555
H234 C197 1_555 1_555
H235 C198 1_555 1_555
H236 C199 1_555 1_555
H237 C200 1_555 1_555
H239 C202 1_555 1_555
H240 C202 1_555 1_555
H241 C203 1_555 1_555
H242 C204 1_555 1_555
H243 C205 1_555 1_555
H244 C206 1_555 1_555
H245 C207 1_555 1_555
H246 C208 1_555 1_555
H247 C209 1_555 1_555
H249 C211 1_555 1_555
H250 C211 1_555 1_555
H251 C212 1_555 1_555
H252 C213 1_555 1_555
N39C Ag20 1_555 1_555
N40C Ag21 1_555 1_555
N47D Ag24 1_555 1_555
N48D Ag22 1_555 1_555
N51_2 Ag26 1_555 1_555
N53D Ag27 1_555 1_555
N54D Ag25 1_555 1_555
N57_2 Ag29 1_555 1_555
N58C Ag30 1_555 1_555
N60D Ag28 1_555 1_555
Ag20D N39 1_555 1_555
Ag21D N40 1_555 1_555
Ag22C N48 1_555 1_555
Ag24C N47 1_555 1_555
Ag25C N54 1_555 1_555
Ag26_2 N51 1_555 1_555
Ag27C N53 1_555 1_555
Ag28C N60 1_555 1_555
Ag29_2 N57 1_555 1_555
Ag30D N58 1_555 1_555
N3 Ag2 1_555 1_555
N5 Ag3 1_555 1_555
N6 Ag1 1_555 1_555
N9 Ag5 1_555 1_555
N11 Ag6 1_555 1_555
N12 Ag4 1_555 1_555
N15 Ag8 1_555 1_555
N17 Ag9 1_555 1_555
N18 Ag7 1_555 1_555
N21 Ag11 1_555 1_555
N23 Ag12 1_555 1_555
N24 Ag10 1_555 1_555
N27 Ag14 1_555 1_555
N29 Ag15 1_555 1_555
N30 Ag13 1_555 1_555
N33 Ag17 1_555 1_555
N35 Ag18 1_555 1_555
N36 Ag16 1_555 1_555
N42 Ag19 1_555 1_555
N45 Ag23 1_555 1_555
C32 C33 1_555 1_555
C47 C48 1_555 1_555
C57 C58 1_555 1_555
C62 C63 1_555 1_555
C82 C83 1_555 1_555
C97 C98 1_555 1_555
C102 C103 1_555 1_555
C112 C113 1_555 1_555
C117 C118 1_555 1_555
C122 C123 1_555 1_555
C127 C128 1_555 1_555
C132 C133 1_555 1_555
C137 C138 1_555 1_555
C142 C143 1_555 1_555
C147 C148 1_555 1_555
C198 C199 1_555 1_555
C205 C206 1_555 1_555
C212 C213 1_555 1_555
N39C N40C 1_555 1_555
N47D N48D 1_555 1_555

#END
