
#######################################################################
#
#                 Cambridge Crystallographic Data Centre
#                                CCDC 
#
#######################################################################
#
# If this CIF has been generated from an entry in the Cambridge 
# Structural Database, then it will include bibliographic, chemical, 
# crystal, experimental, refinement or atomic coordinate data resulting 
# from the CCDC's data processing and validation procedures.
#
#######################################################################

data_COWMIL
_chemical_formula_moiety         '(C12 H18 Ho1 N1 O8)n,n(C3 H7 N1 O1),n(H2 O1)'
_chemical_name_systematic        
'catena-((\m~4~-cis,cis-1,3,5-Cyclohexanetricarboxylato)-(aqua)-(dimethylformamide)-holmium dimethylformamide solvate monohydrate)'
_symmetry_cell_setting           monoclinic
_symmetry_space_group_name_H-M   'P 21/n'
_symmetry_Int_Tables_number      14
_space_group_name_Hall           '-P 2yn'
loop_
_symmetry_equiv_pos_site_id
_symmetry_equiv_pos_as_xyz
1 x,y,z
2 1/2-x,1/2+y,1/2-z
3 -x,-y,-z
4 1/2+x,1/2-y,1/2+z
_cell_length_a                   9.5736(12)
_cell_length_b                   13.8317(17)
_cell_length_c                   15.3442(19)
_cell_angle_alpha                90
_cell_angle_beta                 93.436(2)
_cell_angle_gamma                90
_cell_volume                     2028.21
_cell_formula_units_Z            4
_exptl_crystal_preparation       photoluminescent
loop_
_atom_site_label
_atom_site_type_symbol
_atom_site_fract_x
_atom_site_fract_y
_atom_site_fract_z
Ho1 Ho 0.45730(2) 0.611338(18) 0.085611(17)
C1 C 0.8402(5) 0.3577(4) 0.1941(4)
H1 H 0.7641 0.3115 0.1876
H2 H 0.8302 0.3931 0.2479
C2 C 0.8309(5) 0.4271(4) 0.1185(4)
H3 H 0.8358 0.3889 0.0650
C3 C 0.9537(5) 0.4961(4) 0.1225(4)
H4 H 0.9492 0.5372 0.1735
H5 H 0.9480 0.5372 0.0712
C4 C 1.0921(5) 0.4425(4) 0.1271(4)
H6 H 1.0909 0.4023 0.0744
C5 C 1.1030(5) 0.3730(4) 0.2029(4)
H7 H 1.1048 0.4091 0.2572
H8 H 1.1899 0.3371 0.2017
C6 C 0.9812(5) 0.3029(4) 0.1997(4)
H9 H 0.9857 0.2647 0.1462
C7 C 0.6932(5) 0.4816(4) 0.1120(4)
C8 C 1.2189(5) 0.5086(4) 0.1225(3)
C9 C 0.9968(5) 0.2347(4) 0.2752(4)
C10 C 0.4002(7) 0.8158(5) -0.0199(5)
H10 H 0.4973 0.8176 -0.0191
C11 C 0.1851(9) 0.8931(6) -0.0638(8)
H11 H 0.1479 0.8389 -0.0337
H12 H 0.1505 0.8921 -0.1238
H13 H 0.1567 0.9520 -0.0370
C12 C 0.4040(11) 0.9662(7) -0.1028(8)
H14 H 0.5033 0.9560 -0.0973
H15 H 0.3818 1.0266 -0.0762
H16 H 0.3732 0.9675 -0.1635
O1 O 0.6056(3) 0.4628(2) 0.0485(2)
O2 O 0.6285(3) 0.6653(3) -0.0106(2)
O4 O 0.6655(4) 0.5449(3) 0.1649(3)
O5 O 1.3400(3) 0.4698(2) 0.1348(2)
O6 O 1.2056(3) 0.5947(3) 0.1011(2)
O7 O 1.0783(4) 0.1633(3) 0.2696(3)
O8 O 0.9349(4) 0.2489(3) 0.3428(3)
O9 O 0.3494(4) 0.7478(3) 0.0155(3)
N1 N 0.3334(7) 0.8875(5) -0.0593(4)
Ho1B Ho 0.54270(2) 0.388662(18) -0.085611(17)
Ho1_2 Ho 1.45730(2) 0.611338(18) 0.085611(17)
Ho1A Ho 1.04270(2) 0.111338(18) 0.414389(17)
O1B O 0.3944(3) 0.5372(2) -0.0485(2)
O5_2 O 0.3400(3) 0.4698(2) 0.1348(2)
O6_2 O 0.2056(3) 0.5947(3) 0.1011(2)
O7A O 0.4217(4) 0.6633(3) 0.2304(3)
O8A O 0.5651(4) 0.7489(3) 0.1572(3)
C13 C 0.8773(7) 0.7602(5) 0.1109(5)
H17 H 0.8367 0.7034 0.1296
C14 C 1.0358(10) 0.8884(7) 0.1482(7)
H18 H 0.9988 0.9131 0.0931
H19 H 1.1348 0.8785 0.1460
H20 H 1.0185 0.9340 0.1935
C15 C 1.0161(7) 0.7531(5) 0.2476(5)
H21 H 0.9662 0.6934 0.2531
H22 H 0.9976 0.7948 0.2955
H23 H 1.1147 0.7402 0.2480
O10 O 0.8370(5) 0.7882(4) 0.0381(4)
N2 N 0.9704(5) 0.7999(4) 0.1658(4)
O3 O 0.2686(6) 0.6037(4) 0.3789(4)
loop_
_geom_bond_atom_site_label_1
_geom_bond_atom_site_label_2
_geom_bond_site_symmetry_1
_geom_bond_site_symmetry_2
Ho1 O1 1_555 1_555
C1 H1 1_555 1_555
H2 C1 1_555 1_555
C2 C1 1_555 1_555
H3 C2 1_555 1_555
C3 C2 1_555 1_555
H4 C3 1_555 1_555
H5 C3 1_555 1_555
C4 C3 1_555 1_555
H6 C4 1_555 1_555
C5 C4 1_555 1_555
H7 C5 1_555 1_555
H8 C5 1_555 1_555
C6 C1 1_555 1_555
H9 C6 1_555 1_555
C7 C2 1_555 1_555
C8 C4 1_555 1_555
C9 C6 1_555 1_555
C10 H10 1_555 1_555
C11 H11 1_555 1_555
H12 C11 1_555 1_555
H13 C11 1_555 1_555
C12 H14 1_555 1_555
H15 C12 1_555 1_555
H16 C12 1_555 1_555
C13 H17 1_555 1_555
C14 H18 1_555 1_555
H19 C14 1_555 1_555
H20 C14 1_555 1_555
C15 H21 1_555 1_555
H22 C15 1_555 1_555
H23 C15 1_555 1_555
O1 C7 1_555 1_555
O2 Ho1 1_555 1_555
O4 Ho1 1_555 1_555
O5 C8 1_555 1_555
O6 C8 1_555 1_555
O7 C9 1_555 1_555
O8 C9 1_555 1_555
O9 Ho1 1_555 1_555
O10 C13 1_555 1_555
N1 C10 1_555 1_555
N2 C13 1_555 1_555
Ho1B O1 1_555 1_555
Ho1_2 O5 1_555 1_555
Ho1A O7 1_555 1_555
O1B Ho1 1_555 1_555
O5_2 Ho1 1_555 1_555
O6_2 Ho1 1_555 1_555
O7A Ho1 1_555 1_555
O8A Ho1 1_555 1_555
C5 C6 1_555 1_555
C7 O4 1_555 1_555
C10 O9 1_555 1_555
C11 N1 1_555 1_555
C12 N1 1_555 1_555
C14 N2 1_555 1_555
C15 N2 1_555 1_555
O6 Ho1_2 1_555 1_555
O8 Ho1A 1_555 1_555
Ho1B O1B 1_555 1_555

#END
