
#######################################################################
#
#                 Cambridge Crystallographic Data Centre
#                                CCDC 
#
#######################################################################
#
# If this CIF has been generated from an entry in the Cambridge 
# Structural Database, then it will include bibliographic, chemical, 
# crystal, experimental, refinement or atomic coordinate data resulting 
# from the CCDC's data processing and validation procedures.
#
#######################################################################

data_OGOJAX
_chemical_formula_moiety         '(C50 H28 Cu3 O15)n'
_chemical_name_systematic        
"catena-[bis(\m~6~-4,4'-((5-carboxylato-1,3-phenylene)di(ethyne-2,1-diyl))dibenzoato)-triaqua-tri-copper unknown solvate]"
_symmetry_cell_setting           tetragonal
_symmetry_space_group_name_H-M   'I 4/m'
_symmetry_Int_Tables_number      87
_space_group_name_Hall           '-I 4'
loop_
_symmetry_equiv_pos_site_id
_symmetry_equiv_pos_as_xyz
1 x,y,z
2 -x,-y,z
3 -y,x,z
4 y,-x,z
5 1/2+x,1/2+y,1/2+z
6 1/2-x,1/2-y,1/2+z
7 1/2-y,1/2+x,1/2+z
8 1/2+y,1/2-x,1/2+z
9 -x,-y,-z
10 x,y,-z
11 y,-x,-z
12 -y,x,-z
13 1/2-x,1/2-y,1/2-z
14 1/2+x,1/2+y,1/2-z
15 1/2+y,1/2-x,1/2-z
16 1/2-y,1/2+x,1/2-z
_cell_length_a                   31.369(4)
_cell_length_b                   31.369(4)
_cell_length_c                   19.806(3)
_cell_angle_alpha                90
_cell_angle_beta                 90
_cell_angle_gamma                90
_cell_volume                     19489.4
_exptl_crystal_colour            blue
_exptl_crystal_description       block
_cell_formula_units_Z            4
loop_
_atom_site_label
_atom_site_type_symbol
_atom_site_fract_x
_atom_site_fract_y
_atom_site_fract_z
C1 C 0.6856(3) 0.2150(3) 0.5859(5)
C2 C 0.7211(3) 0.2082(3) 0.6327(5)
C3 C 0.7503(2) 0.2395(3) 0.6440(5)
H1 H 0.7475 0.2662 0.6219
C4 C 0.7856(3) 0.2324(3) 0.6895(5)
C5 C 0.7879(3) 0.1925(4) 0.7210(6)
H2 H 0.8108 0.1868 0.751
C6 C 0.7584(4) 0.1618(3) 0.7100(6)
C7 C 0.7262(3) 0.1693(3) 0.6655(5)
H3 H 0.7064 0.1471 0.6565
C8 C 0.8158(3) 0.2647(4) 0.6997(5)
C9 C 0.8407(3) 0.2945(3) 0.7087(5)
C10 C 0.8675(3) 0.3298(3) 0.7189(5)
C11 C 0.8851(3) 0.3401(4) 0.7803(5)
H4 H 0.8788 0.3227 0.8182
C12 C 0.9107(3) 0.3734(4) 0.7887(5)
H5 H 0.923 0.3786 0.8317
C13 C 0.9195(3) 0.4008(3) 0.7356(5)
C14 C 0.9488(3) 0.4369(3) 0.7432(5)
C15 C 0.8996(4) 0.3905(4) 0.6730(6)
H6 H 0.9047 0.4088 0.6357
C16 C 0.8749(4) 0.3579(4) 0.6634(6)
H7 H 0.8622 0.3529 0.6207
C17 C 0.7596(4) 0.1212(4) 0.7472(7)
C18 C 0.7575(4) 0.0868(4) 0.7714(7)
C19 C 0.7536(3) 0.0478(3) 0.8056(6)
C20 C 0.7142(4) 0.0351(4) 0.8199(8)
H8 H 0.691 0.0522 0.8052
C21 C 0.7059(3) -0.0012(4) 0.8549(8)
H9 H 0.6774 -0.0086 0.8662
C22 C 0.7409(3) -0.0284(2) 0.8749(5)
C23 C 0.7320(3) -0.0678(3) 0.9161(5)
C24 C 0.7790(3) -0.0138(3) 0.8614(6)
H10 H 0.8032 -0.0302 0.8739
C25 C 0.7851(3) 0.0251(3) 0.8294(6)
H11 H 0.8134 0.0356 0.8245
Cu1 Cu 0.61944(4) 0.18258(4) 0.500
Cu2 Cu 0.63452(4) 0.26616(4) 0.500
Cu3 Cu 1.0 0.500 0.68294(7)
O1 O 0.67861(15) 0.25333(16) 0.5679(3)
O2 O 0.66324(18) 0.18348(16) 0.5689(3)
O3 O 0.9614(2) 0.4532(2) 0.6862(3)
O4 O 0.9607(2) 0.4494(2) 0.7997(3)
O5 O 0.69446(16) -0.07603(17) 0.9323(3)
O6 O 0.76560(17) -0.08980(16) 0.9303(3)
O7 O 0.6145(5) 0.1121(4) 0.510(2)
O8 O 0.6432(2) 0.3333(2) 0.500
O9 O 1.0 0.500 0.5752(5)
O7I O 0.6145(5) 0.1121(4) 0.490(2)
C1A C 1.3144(3) 0.7850(3) 0.5859(5)
C2A C 1.2789(3) 0.7918(3) 0.6327(5)
C3A C 1.2497(2) 0.7605(3) 0.6440(5)
H1A H 1.2525 0.7338 0.6219
C4A C 1.2144(3) 0.7676(3) 0.6895(5)
C5A C 1.2121(3) 0.8075(4) 0.7210(6)
H2A H 1.1892 0.8132 0.751
C6A C 1.2416(4) 0.8382(3) 0.7100(6)
C7A C 1.2738(3) 0.8307(3) 0.6655(5)
H3A H 1.2936 0.8529 0.6565
C8A C 1.1842(3) 0.7353(4) 0.6997(5)
C9A C 1.1593(3) 0.7055(3) 0.7087(5)
C10A C 1.1325(3) 0.6702(3) 0.7189(5)
C11A C 1.1149(3) 0.6599(4) 0.7803(5)
H4A H 1.1212 0.6773 0.8182
C12A C 1.0893(3) 0.6266(4) 0.7887(5)
H5A H 1.077 0.6214 0.8317
C13A C 1.0805(3) 0.5992(3) 0.7356(5)
C14A C 1.0512(3) 0.5631(3) 0.7432(5)
C15A C 1.1004(4) 0.6095(4) 0.6730(6)
H6A H 1.0953 0.5912 0.6357
C16A C 1.1251(4) 0.6421(4) 0.6634(6)
H7A H 1.1378 0.6471 0.6207
C17A C 1.2404(4) 0.8788(4) 0.7472(7)
C18A C 1.2425(4) 0.9132(4) 0.7714(7)
C19A C 1.2464(3) 0.9522(3) 0.8056(6)
C20A C 1.2858(4) 0.9649(4) 0.8199(8)
H8A H 1.309 0.9478 0.8052
C21A C 1.2941(3) 1.0012(4) 0.8549(8)
H9A H 1.3226 1.0086 0.8662
C22A C 1.2591(3) 1.0284(2) 0.8749(5)
C23A C 1.2680(3) 1.0678(3) 0.9161(5)
C24A C 1.2210(3) 1.0138(3) 0.8614(6)
H10A H 1.1968 1.0302 0.8739
C25A C 1.2149(3) 0.9749(3) 0.8294(6)
H11A H 1.1866 0.9644 0.8245
O1A O 1.32139(15) 0.74667(16) 0.5679(3)
O2A O 1.33676(18) 0.81652(16) 0.5689(3)
O3A O 1.0386(2) 0.5468(2) 0.6862(3)
O4A O 1.0393(2) 0.5506(2) 0.7997(3)
O5A O 1.30554(16) 1.07603(17) 0.9323(3)
O6A O 1.23440(17) 1.08980(16) 0.9303(3)
Cu1A Cu 1.38056(4) 0.81742(4) 0.500
Cu1F Cu 1.31742(4) 1.11944(4) 1.000
Cu1G Cu 0.68258(4) -0.11944(4) 1.000
Cu2A Cu 1.36548(4) 0.73384(4) 0.500
Cu2F Cu 1.23384(4) 1.13452(4) 1.000
Cu2G Cu 0.76616(4) -0.13452(4) 1.000
Cu3N Cu 1.000 0.5 0.81706(7)
O1I O 0.67861(15) 0.25333(16) 0.4321(3)
O2I O 0.66324(18) 0.18348(16) 0.4311(3)
O4N O 0.9494(2) 0.5393(2) 0.7003(3)
O4O O 1.0506(2) 0.4607(2) 0.7003(3)
O5F O 0.57603(17) 0.19446(16) 0.4323(3)
O5O O 0.57603(17) 0.19446(16) 0.5677(3)
O6F O 0.58980(16) 0.26560(17) 0.4303(3)
O6O O 0.58980(16) 0.26560(17) 0.5697(3)
loop_
_geom_bond_atom_site_label_1
_geom_bond_atom_site_label_2
_geom_bond_site_symmetry_1
_geom_bond_site_symmetry_2
C1 C2 1_555 1_555
C2 C3 1_555 1_555
C3 H1 1_555 1_555
C4 C3 1_555 1_555
C5 C4 1_555 1_555
H2 C5 1_555 1_555
C6 C5 1_555 1_555
C7 C2 1_555 1_555
H3 C7 1_555 1_555
C8 C4 1_555 1_555
C9 C8 1_555 1_555
C10 C9 1_555 1_555
C11 C10 1_555 1_555
H4 C11 1_555 1_555
C12 C11 1_555 1_555
H5 C12 1_555 1_555
C13 C12 1_555 1_555
C14 C13 1_555 1_555
C15 C13 1_555 1_555
H6 C15 1_555 1_555
C16 C10 1_555 1_555
H7 C16 1_555 1_555
C17 C6 1_555 1_555
C18 C17 1_555 1_555
C19 C18 1_555 1_555
C20 C19 1_555 1_555
H8 C20 1_555 1_555
C21 C20 1_555 1_555
H9 C21 1_555 1_555
C22 C21 1_555 1_555
C23 C22 1_555 1_555
C24 C22 1_555 1_555
H10 C24 1_555 1_555
C25 C19 1_555 1_555
H11 C25 1_555 1_555
Cu1 Cu2 1_555 1_555
Cu2 O1 1_555 1_555
Cu3 O3 1_555 1_555
O1 C1 1_555 1_555
O2 C1 1_555 1_555
O3 C14 1_555 1_555
O4 C14 1_555 1_555
O5 C23 1_555 1_555
O6 C23 1_555 1_555
O7 Cu1 1_555 1_555
O8 Cu2 1_555 1_555
O9 Cu3 1_555 1_555
O7I Cu1 1_555 1_555
C1A C2A 1_555 1_555
C2A C3A 1_555 1_555
C3A H1A 1_555 1_555
C4A C3A 1_555 1_555
C5A C4A 1_555 1_555
H2A C5A 1_555 1_555
C6A C5A 1_555 1_555
C7A C2A 1_555 1_555
H3A C7A 1_555 1_555
C8A C4A 1_555 1_555
C9A C8A 1_555 1_555
C10A C9A 1_555 1_555
C11A C10A 1_555 1_555
H4A C11A 1_555 1_555
C12A C11A 1_555 1_555
H5A C12A 1_555 1_555
C13A C12A 1_555 1_555
C14A C13A 1_555 1_555
C15A C13A 1_555 1_555
H6A C15A 1_555 1_555
C16A C10A 1_555 1_555
H7A C16A 1_555 1_555
C17A C6A 1_555 1_555
C18A C17A 1_555 1_555
C19A C18A 1_555 1_555
C20A C19A 1_555 1_555
H8A C20A 1_555 1_555
C21A C20A 1_555 1_555
H9A C21A 1_555 1_555
C22A C21A 1_555 1_555
C23A C22A 1_555 1_555
C24A C22A 1_555 1_555
H10A C24A 1_555 1_555
C25A C19A 1_555 1_555
H11A C25A 1_555 1_555
O1A C1A 1_555 1_555
O2A C1A 1_555 1_555
O3A Cu3 1_555 1_555
O4A C14A 1_555 1_555
O5A C23A 1_555 1_555
O6A C23A 1_555 1_555
Cu1A O2A 1_555 1_555
Cu1F O5A 1_555 1_555
Cu1G O5 1_555 1_555
Cu2A O1A 1_555 1_555
Cu2F O6A 1_555 1_555
Cu2G O6 1_555 1_555
Cu3N Cu3 1_555 1_555
O1I Cu2 1_555 1_555
O2I Cu1 1_555 1_555
O4N Cu3 1_555 1_555
O4O Cu3 1_555 1_555
O5F Cu1 1_555 1_555
O5O Cu1 1_555 1_555
O6F Cu2 1_555 1_555
O6O Cu2 1_555 1_555
C6 C7 1_555 1_555
C15 C16 1_555 1_555
C24 C25 1_555 1_555
Cu1 O2 1_555 1_555
O4 Cu3N 1_555 1_555
O7 O7I 1_555 1_555
C6A C7A 1_555 1_555
C14A O3A 1_555 1_555
C15A C16A 1_555 1_555
C24A C25A 1_555 1_555
O4A Cu3N 1_555 1_555
Cu1A Cu2A 1_555 1_555
Cu1F Cu2F 1_555 1_555
Cu1G Cu2G 1_555 1_555

#END
