
#######################################################################
#
#                 Cambridge Crystallographic Data Centre
#                                CCDC 
#
#######################################################################
#
# If this CIF has been generated from an entry in the Cambridge 
# Structural Database, then it will include bibliographic, chemical, 
# crystal, experimental, refinement or atomic coordinate data resulting 
# from the CCDC's data processing and validation procedures.
#
#######################################################################

data_AQIXEF
_chemical_formula_moiety         '(C26 H28 Cu1 N4 2+)n,2(C3 H6 O1),2(F6 P1 1-)'
_chemical_name_systematic        
"catena-(bis(\m-4,4'-propane-1,3-diyldipyridine)-copper(ii) bis(hexafluorophosphate) acetone solvate)"
_symmetry_cell_setting           orthorhombic
_symmetry_space_group_name_H-M   'F m m m'
_symmetry_Int_Tables_number      69
_space_group_name_Hall           '-F 2 2'
loop_
_symmetry_equiv_pos_site_id
_symmetry_equiv_pos_as_xyz
1 x,y,z
2 -x,-y,z
3 x,-y,-z
4 -x,y,-z
5 x,1/2+y,1/2+z
6 -x,1/2-y,1/2+z
7 x,1/2-y,1/2-z
8 -x,1/2+y,1/2-z
9 1/2+x,y,1/2+z
10 1/2-x,-y,1/2+z
11 1/2+x,-y,1/2-z
12 1/2-x,y,1/2-z
13 1/2+x,1/2+y,z
14 1/2-x,1/2-y,z
15 1/2+x,1/2-y,-z
16 1/2-x,1/2+y,-z
17 -x,-y,-z
18 x,y,-z
19 -x,y,z
20 x,-y,z
21 -x,1/2-y,1/2-z
22 x,1/2+y,1/2-z
23 -x,1/2+y,1/2+z
24 x,1/2-y,1/2+z
25 1/2-x,-y,1/2-z
26 1/2+x,y,1/2-z
27 1/2-x,y,1/2+z
28 1/2+x,-y,1/2+z
29 1/2-x,1/2-y,-z
30 1/2+x,1/2+y,-z
31 1/2-x,1/2+y,z
32 1/2+x,1/2-y,z
_cell_length_a                   12.7518(11)
_cell_length_b                   16.9282(14)
_cell_length_c                   17.7198(18)
_cell_angle_alpha                90
_cell_angle_beta                 90
_cell_angle_gamma                90
_cell_volume                     3825.08
_exptl_crystal_colour            'light purple'
_cell_formula_units_Z            4
loop_
_atom_site_label
_atom_site_type_symbol
_atom_site_fract_x
_atom_site_fract_y
_atom_site_fract_z
C6 C 0.0000 0.2548(4) 0.0000
C7 C 0.0987(6) 0.2092(4) 0.0000
O1 O 0.0000 0.3263(3) 0.0000
C7C C -0.0987(6) 0.2092(4) 0.0000
P1 P 0.0000 0.2500 0.2500
F1 F 0.0000 0.1763(3) 0.2998(4)
F2 F 0.0000 0.3034(4) 0.3193(4)
F3 F 0.1101(6) 0.2679(10) 0.2746(11)
F1F F 0.0000 0.3237(3) 0.2002(4)
F2F F 0.0000 0.1966(4) 0.1807(4)
F3F F 0.1101(6) 0.2321(10) 0.2254(11)
F3R F -0.1101(6) 0.2679(10) 0.2746(11)
F3T F -0.1101(6) 0.2321(10) 0.2254(11)
C1 C 0.3395(3) 0.0676(3) 0.0992(2)
H1 H 0.3718 0.1161 0.0857
C2 C 0.2476(3) 0.0693(2) 0.1408(2)
H2 H 0.2180 0.1186 0.1552
C3 C 0.1990(3) 0.0000 0.1614(2)
C4 C 0.0976(3) 0.0000 0.2057(3)
H3 H 0.0957 0.0472 0.2386
C5 C 0.0000 0.0000 0.1551(3)
H4 H 0.0000 0.0474 0.1224
Cu1 Cu 0.5000 0.0000 0.0000
N1 N 0.3843(3) 0.0000 0.0775(2)
C1A C -0.3395(3) -0.0676(3) 0.0992(2)
H1A H -0.3718 -0.1161 0.0857
C2A C -0.2476(3) -0.0693(2) 0.1408(2)
H2A H -0.2180 -0.1186 0.1552
C3A C -0.1990(3) 0.0000 0.1614(2)
C4A C -0.0976(3) 0.0000 0.2057(3)
H3A H -0.0957 -0.0472 0.2386
H4A H 0.0000 -0.0474 0.1224
N1A N -0.3843(3) 0.0000 0.0775(2)
C1R C -0.3395(3) 0.0676(3) 0.0992(2)
H1R H -0.3718 0.1161 0.0857
C2R C -0.2476(3) 0.0693(2) 0.1408(2)
H2R H -0.2180 0.1186 0.1552
H3R H -0.0957 0.0472 0.2386
C1S C 0.3395(3) -0.0676(3) 0.0992(2)
H1S H 0.3718 -0.1161 0.0857
C2S C 0.2476(3) -0.0693(2) 0.1408(2)
H2S H 0.2180 -0.1186 0.1552
H3S H 0.0957 -0.0472 0.2386
C1B C 0.3395(3) -0.0676(3) -0.0992(2)
H1B H 0.3718 -0.1161 -0.0857
C2B C 0.2476(3) -0.0693(2) -0.1408(2)
H2B H 0.2180 -0.1186 -0.1552
C3B C 0.1990(3) 0.0000 -0.1614(2)
C4B C 0.0976(3) 0.0000 -0.2057(3)
H3B H 0.0957 -0.0472 -0.2386
C5B C 0.0000 0.0000 -0.1551(3)
H4B H 0.0000 -0.0474 -0.1224
N1B N 0.3843(3) 0.0000 -0.0775(2)
C1C C -0.3395(3) 0.0676(3) -0.0992(2)
H1C H -0.3718 0.1161 -0.0857
C2C C -0.2476(3) 0.0693(2) -0.1408(2)
H2C H -0.2180 0.1186 -0.1552
C3C C -0.1990(3) 0.0000 -0.1614(2)
C4C C -0.0976(3) 0.0000 -0.2057(3)
H3C H -0.0957 0.0472 -0.2386
H4C H 0.0000 0.0474 -0.1224
N1C N -0.3843(3) 0.0000 -0.0775(2)
C1P C -0.3395(3) -0.0676(3) -0.0992(2)
H1P H -0.3718 -0.1161 -0.0857
C2P C -0.2476(3) -0.0693(2) -0.1408(2)
H2P H -0.2180 -0.1186 -0.1552
H3P H -0.0957 -0.0472 -0.2386
C1Q C 0.3395(3) 0.0676(3) -0.0992(2)
H1Q H 0.3718 0.1161 -0.0857
C2Q C 0.2476(3) 0.0693(2) -0.1408(2)
H2Q H 0.2180 0.1186 -0.1552
H3Q H 0.0957 0.0472 -0.2386
Cu1_2 Cu -0.5000 0.0000 0.0000
N1A_2 N 0.6157(3) 0.0000 0.0775(2)
N1C_2 N 0.6157(3) 0.0000 -0.0775(2)
H5? H 0.0000 0.0474 0.1224
H6? H 0.0957 0.0472 0.2386
H7? H 0.0904 0.1620 0.0316
H8? H 0.1555 0.2420 0.0202
H9? H 0.1158 0.1932 -0.0517
loop_
_geom_bond_atom_site_label_1
_geom_bond_atom_site_label_2
_geom_bond_site_symmetry_1
_geom_bond_site_symmetry_2
C1 H1 1_555 1_555
C2 C1 1_555 1_555
H2 C2 1_555 1_555
C3 C2 1_555 1_555
C4 C3 1_555 1_555
H3 C4 1_555 1_555
C5 C4 1_555 1_555
H4 C5 1_555 1_555
Cu1 N1 1_555 1_555
N1 C1 1_555 1_555
C6 C7 1_555 1_555
O1 C6 1_555 1_555
P1 F1 1_555 1_555
F2 P1 1_555 1_555
F3 P1 1_555 1_555
C1A H1A 1_555 1_555
C2A C1A 1_555 1_555
H2A C2A 1_555 1_555
C3A C2A 1_555 1_555
C4A C5 1_555 1_555
H3A C4A 1_555 1_555
H4A C5 1_555 1_555
N1A C1A 1_555 1_555
C1R N1A 1_555 1_555
H1R C1R 1_555 1_555
C2R C3A 1_555 1_555
H2R C2R 1_555 1_555
H3R C4A 1_555 1_555
C1S N1 1_555 1_555
H1S C1S 1_555 1_555
C2S C3 1_555 1_555
H2S C2S 1_555 1_555
H3S C4 1_555 1_555
C1B H1B 1_555 1_555
C2B C1B 1_555 1_555
H2B C2B 1_555 1_555
C3B C2B 1_555 1_555
C4B C3B 1_555 1_555
H3B C4B 1_555 1_555
C5B C4B 1_555 1_555
H4B C5B 1_555 1_555
N1B Cu1 1_555 1_555
C1C H1C 1_555 1_555
C2C C1C 1_555 1_555
H2C C2C 1_555 1_555
C3C C2C 1_555 1_555
C4C C5B 1_555 1_555
H3C C4C 1_555 1_555
H4C C5B 1_555 1_555
N1C C1C 1_555 1_555
C1P N1C 1_555 1_555
H1P C1P 1_555 1_555
C2P C3C 1_555 1_555
H2P C2P 1_555 1_555
H3P C4C 1_555 1_555
C1Q N1B 1_555 1_555
H1Q C1Q 1_555 1_555
C2Q C3B 1_555 1_555
H2Q C2Q 1_555 1_555
H3Q C4B 1_555 1_555
Cu1_2 N1A 1_555 1_555
N1A_2 Cu1 1_555 1_555
N1C_2 Cu1 1_555 1_555
C7C C6 1_555 1_555
F1F P1 1_555 1_555
F2F P1 1_555 1_555
F3F P1 1_555 1_555
F3R P1 1_555 1_555
F3T P1 1_555 1_555
F3 F3F 1_555 1_555
C3A C4A 1_555 1_555
C1R C2R 1_555 1_555
C1S C2S 1_555 1_555
C1B N1B 1_555 1_555
C3C C4C 1_555 1_555
N1C Cu1_2 1_555 1_555
C1P C2P 1_555 1_555
C1Q C2Q 1_555 1_555
F3R F3T 1_555 1_555

#END
