
#######################################################################
#
#                 Cambridge Crystallographic Data Centre
#                                CCDC 
#
#######################################################################
#
# If this CIF has been generated from an entry in the Cambridge 
# Structural Database, then it will include bibliographic, chemical, 
# crystal, experimental, refinement or atomic coordinate data resulting 
# from the CCDC's data processing and validation procedures.
#
#######################################################################

data_NUVXOT
_chemical_formula_moiety         '(C12 H6 N6 O7 Zn3)n,5.5n(H2 O1)'
_chemical_name_systematic        
'catena-(tris(\m~3~-4-Carboxylatopyrazolato)-(\m~3~-oxo)-tri-zinc hydrate)'
_symmetry_cell_setting           cubic
_symmetry_space_group_name_H-M   'P a -3'
_symmetry_Int_Tables_number      205
_space_group_name_Hall           '-P 2ac 2ab 3'
loop_
_symmetry_equiv_pos_site_id
_symmetry_equiv_pos_as_xyz
1 x,y,z
2 1/2-x,-y,1/2+z
3 -x,1/2+y,1/2-z
4 1/2+x,1/2-y,-z
5 z,x,y
6 1/2+z,1/2-x,-y
7 1/2-z,-x,1/2+y
8 -z,1/2+x,1/2-y
9 y,z,x
10 -y,1/2+z,1/2-x
11 1/2+y,1/2-z,-x
12 1/2-y,-z,1/2+x
13 -x,-y,-z
14 1/2+x,y,1/2-z
15 x,1/2-y,1/2+z
16 1/2-x,1/2+y,z
17 -z,-x,-y
18 1/2-z,1/2+x,y
19 1/2+z,x,1/2-y
20 z,1/2-x,1/2+y
21 -y,-z,-x
22 y,1/2-z,1/2+x
23 1/2-y,1/2+z,x
24 1/2+y,z,1/2-x
_cell_length_a                   20.123(2)
_cell_length_b                   20.123(2)
_cell_length_c                   20.123(2)
_cell_angle_alpha                90
_cell_angle_beta                 90
_cell_angle_gamma                90
_cell_volume                     8148.51
_exptl_crystal_colour            colorless
_exptl_crystal_description       parallelepiped
_cell_formula_units_Z            8
loop_
_atom_site_label
_atom_site_type_symbol
_atom_site_fract_x
_atom_site_fract_y
_atom_site_fract_z
_atom_site_U_iso_or_equiv
_atom_site_thermal_displace_type
Zn1 Zn 0.35581(3) 0.25061(3) 0.23074(3) 0.0289 Uani
O1 O 0.30003(18) 0.30003(18) 0.30003(18) 0.0268 Uani
O2 O 0.4467(2) 0.2827(3) 0.2423(3) 0.0477 Uani
O3 O 0.4532(3) 0.2072(3) 0.1638(3) 0.0577 Uani
C1 C 0.4796(3) 0.2500(4) 0.1993(4) 0.0433 Uani
C2 C 0.5999(3) 0.2318(3) 0.1578(3) 0.0400 Uani
H1 H 0.5918 0.1973 0.1281 0.0480 Uiso
C3 C 0.5513(3) 0.2634(3) 0.1958(4) 0.0410 Uani
C4 C 0.5872(3) 0.3100(4) 0.2319(3) 0.0430 Uani
H2 H 0.5690 0.3391 0.2628 0.0520 Uiso
N1 N 0.6510(2) 0.3070(3) 0.2161(3) 0.0360 Uani
N2 N 0.6590(2) 0.2576(3) 0.1698(3) 0.0347 Uani
Zn1D Zn 0.23074(3) 0.35581(3) 0.25061(3) 0.0289 Uani
O2D O 0.2423(3) 0.4467(2) 0.2827(3) 0.0477 Uani
O3D O 0.1638(3) 0.4532(3) 0.2072(3) 0.0577 Uani
C1D C 0.1993(4) 0.4796(3) 0.2500(4) 0.0433 Uani
C2D C 0.1578(3) 0.5999(3) 0.2318(3) 0.0400 Uani
H1D H 0.1281 0.5918 0.1973 0.0480 Uiso
C3D C 0.1958(4) 0.5513(3) 0.2634(3) 0.0410 Uani
C4D C 0.2319(3) 0.5872(3) 0.3100(4) 0.0430 Uani
H2D H 0.2628 0.5690 0.3391 0.0520 Uiso
N1D N 0.2161(3) 0.6510(2) 0.3070(3) 0.0360 Uani
N2D N 0.1698(3) 0.6590(2) 0.2576(3) 0.0347 Uani
Zn1H Zn 0.25061(3) 0.23074(3) 0.35581(3) 0.0289 Uani
O2H O 0.2827(3) 0.2423(3) 0.4467(2) 0.0477 Uani
O3H O 0.2072(3) 0.1638(3) 0.4532(3) 0.0577 Uani
C1H C 0.2500(4) 0.1993(4) 0.4796(3) 0.0433 Uani
C2H C 0.2318(3) 0.1578(3) 0.5999(3) 0.0400 Uani
H1H H 0.1973 0.1281 0.5918 0.0480 Uiso
C3H C 0.2634(3) 0.1958(4) 0.5513(3) 0.0410 Uani
C4H C 0.3100(4) 0.2319(3) 0.5872(3) 0.0430 Uani
H2H H 0.3391 0.2628 0.5690 0.0520 Uiso
N1H N 0.3070(3) 0.2161(3) 0.6510(2) 0.0360 Uani
N2H N 0.2576(3) 0.1698(3) 0.6590(2) 0.0347 Uani
Zn1N Zn 0.35581(3) 0.24939(3) 0.73074(3) 0.0289 Uani
Zn1O Zn 0.14419(3) 0.75061(3) 0.23074(3) 0.0289 Uani
Zn1R Zn 0.73074(3) 0.35581(3) 0.24939(3) 0.0289 Uani
Zn1S Zn 0.23074(3) 0.14419(3) 0.75061(3) 0.0289 Uani
Zn1V Zn 0.24939(3) 0.73074(3) 0.35581(3) 0.0289 Uani
Zn1W Zn 0.75061(3) 0.23074(3) 0.14419(3) 0.0289 Uani
N1M N 0.1510(2) 0.3070(3) 0.2839(3) 0.0360 Uani
N1Q N 0.2839(3) 0.1510(2) 0.3070(3) 0.0360 Uani
N1U N 0.3070(3) 0.2839(3) 0.1510(2) 0.0360 Uani
N2M N 0.1590(2) 0.2576(3) 0.3302(3) 0.0347 Uani
N2Q N 0.3302(3) 0.1590(2) 0.2576(3) 0.0347 Uani
N2U N 0.2576(3) 0.3302(3) 0.1590(2) 0.0347 Uani
O4 O 0.5057(9) 0.1850(8) -0.0377(9) 0.1910 Uiso
O5 O 0.3760(8) 0.3760(8) 0.3760(8) 0.1760 Uiso
O6 O 0.4790(14) 0.1534(13) 0.0629(14) 0.1500 Uiso
loop_
_atom_site_aniso_label
_atom_site_aniso_U_11
_atom_site_aniso_U_22
_atom_site_aniso_U_33
_atom_site_aniso_U_23
_atom_site_aniso_U_13
_atom_site_aniso_U_12
Zn1 0.0256(3) 0.0299(4) 0.0311(4) 0.0001(2) 0.0002(2) -0.0015(2)
O1 0.0268(13) 0.0268(13) 0.0268(13) -0.0005(14) -0.0005(14) -0.0005(14)
O2 0.026(2) 0.062(3) 0.055(3) -0.007(2) 0.0037(19) -0.004(2)
O3 0.035(2) 0.069(3) 0.069(4) -0.014(3) -0.001(2) -0.014(2)
C1 0.027(3) 0.051(4) 0.052(4) 0.003(3) -0.001(3) -0.004(3)
C2 0.025(3) 0.050(4) 0.045(3) -0.009(3) -0.001(2) -0.009(2)
C3 0.031(3) 0.046(4) 0.046(3) -0.003(3) 0.002(3) -0.004(2)
C4 0.033(3) 0.050(4) 0.046(4) -0.007(3) 0.007(3) 0.004(3)
N1 0.029(2) 0.040(3) 0.039(3) -0.007(2) 0.003(2) 0.000(2)
N2 0.025(2) 0.038(3) 0.041(3) -0.007(2) 0.0038(19) -0.0017(19)
Zn1D 0.0311 0.0256 0.0299 -0.0015 0.0001 0.0002
O2D 0.055 0.026 0.062 -0.004 -0.007 0.0037
O3D 0.069 0.035 0.069 -0.014 -0.014 -0.001
C1D 0.052 0.027 0.051 -0.004 0.003 -0.001
C2D 0.045 0.025 0.05 -0.009 -0.009 -0.001
C3D 0.046 0.031 0.046 -0.004 -0.003 0.002
C4D 0.046 0.033 0.05 0.004 -0.007 0.007
N1D 0.039 0.029 0.04 0 -0.007 0.003
N2D 0.041 0.025 0.038 -0.0017 -0.007 0.0038
Zn1H 0.0299 0.0311 0.0256 0.0002 -0.0015 0.0001
O2H 0.062 0.055 0.026 0.0037 -0.004 -0.007
O3H 0.069 0.069 0.035 -0.001 -0.014 -0.014
C1H 0.051 0.052 0.027 -0.001 -0.004 0.003
C2H 0.05 0.045 0.025 -0.001 -0.009 -0.009
C3H 0.046 0.046 0.031 0.002 -0.004 -0.003
C4H 0.05 0.046 0.033 0.007 0.004 -0.007
N1H 0.04 0.039 0.029 0.003 0 -0.007
N2H 0.038 0.041 0.025 0.0038 -0.0017 -0.007
Zn1N 0.0256 0.0299 0.0311 -0.0001 0.0002 0.0015
Zn1O 0.0256 0.0299 0.0311 0.0001 -0.0002 0.0015
Zn1R 0.0311 0.0256 0.0299 0.0015 -0.0001 0.0002
Zn1S 0.0311 0.0256 0.0299 0.0015 0.0001 -0.0002
Zn1V 0.0299 0.0311 0.0256 0.0002 0.0015 -0.0001
Zn1W 0.0299 0.0311 0.0256 -0.0002 0.0015 0.0001
N1M 0.029 0.04 0.039 0.007 -0.003 0
N1Q 0.039 0.029 0.04 0 0.007 -0.003
N1U 0.04 0.039 0.029 -0.003 0 0.007
N2M 0.025 0.038 0.041 0.007 -0.0038 -0.0017
N2Q 0.041 0.025 0.038 -0.0017 0.007 -0.0038
N2U 0.038 0.041 0.025 -0.0038 -0.0017 0.007
loop_
_geom_bond_atom_site_label_1
_geom_bond_atom_site_label_2
_geom_bond_site_symmetry_1
_geom_bond_site_symmetry_2
Zn1 O1 1_555 1_555
O1 Zn1D 1_555 1_555
O2 Zn1 1_555 1_555
O3 Zn1 1_555 1_555
C1 O2 1_555 1_555
C2 H1 1_555 1_555
C3 C1 1_555 1_555
C4 C3 1_555 1_555
H2 C4 1_555 1_555
N1 C4 1_555 1_555
N2 C2 1_555 1_555
Zn1D O2D 1_555 1_555
O2D C1D 1_555 1_555
O3D Zn1D 1_555 1_555
C1D O3D 1_555 1_555
C2D H1D 1_555 1_555
C3D C1D 1_555 1_555
C4D C3D 1_555 1_555
H2D C4D 1_555 1_555
N1D C4D 1_555 1_555
N2D C2D 1_555 1_555
Zn1H O1 1_555 1_555
O2H Zn1H 1_555 1_555
O3H Zn1H 1_555 1_555
C1H O2H 1_555 1_555
C2H H1H 1_555 1_555
C3H C1H 1_555 1_555
C4H C3H 1_555 1_555
H2H C4H 1_555 1_555
N1H C4H 1_555 1_555
N2H C2H 1_555 1_555
Zn1N N1H 1_555 1_555
Zn1O N2D 1_555 1_555
Zn1R N1 1_555 1_555
Zn1S N2H 1_555 1_555
Zn1V N1D 1_555 1_555
Zn1W N2 1_555 1_555
N1M Zn1D 1_555 1_555
N1Q Zn1H 1_555 1_555
N1U Zn1 1_555 1_555
N2M Zn1H 1_555 1_555
N2Q Zn1 1_555 1_555
N2U Zn1D 1_555 1_555
O3 C1 1_555 1_555
C2 C3 1_555 1_555
N1 N2 1_555 1_555
C2D C3D 1_555 1_555
N1D N2D 1_555 1_555
O3H C1H 1_555 1_555
C2H C3H 1_555 1_555
N1H N2H 1_555 1_555
N1M N2M 1_555 1_555
N1Q N2Q 1_555 1_555
N1U N2U 1_555 1_555

#END
