
#######################################################################
#
#                 Cambridge Crystallographic Data Centre
#                                CCDC 
#
#######################################################################
#
# If this CIF has been generated from an entry in the Cambridge 
# Structural Database, then it will include bibliographic, chemical, 
# crystal, experimental, refinement or atomic coordinate data resulting 
# from the CCDC's data processing and validation procedures.
#
#######################################################################

data_NUVYEK
_chemical_name_common            IRMOF-61
_chemical_formula_moiety         '(C48 H24 O13 Zn4)n,17n(C3 H7 N1 O1),7n(H2 O1)'
_chemical_name_systematic        
"catena-(tris(\m~4~-4,4'-Ethyne-1,2-diyldibenzoato)-(\m~4~-oxo)-tetra-zinc dimethylformamide solvate heptahydrate)"
_symmetry_cell_setting           tetragonal
_symmetry_space_group_name_H-M   'P 42/n c m'
_symmetry_Int_Tables_number      138
_space_group_name_Hall           '-P 4ac 2ac'
loop_
_symmetry_equiv_pos_site_id
_symmetry_equiv_pos_as_xyz
1 x,y,z
2 1/2-x,1/2-y,z
3 1/2-y,x,1/2+z
4 y,1/2-x,1/2+z
5 -x,1/2+y,1/2-z
6 1/2+x,-y,1/2-z
7 1/2+y,1/2+x,-z
8 -y,-x,-z
9 -x,-y,-z
10 1/2+x,1/2+y,-z
11 1/2+y,-x,1/2-z
12 -y,1/2+x,1/2-z
13 x,1/2-y,1/2+z
14 1/2-x,y,1/2+z
15 1/2-y,1/2-x,z
16 y,x,z
_cell_length_a                   19.7213(13)
_cell_length_b                   19.7213(13)
_cell_length_c                   39.411(3)
_cell_angle_alpha                90
_cell_angle_beta                 90
_cell_angle_gamma                90
_cell_volume                     15328.1
_exptl_crystal_colour            colorless
_exptl_crystal_description       plate
_cell_formula_units_Z            4
loop_
_atom_site_label
_atom_site_type_symbol
_atom_site_fract_x
_atom_site_fract_y
_atom_site_fract_z
Zn1 Zn 0.306533(19) 0.193467(19) 0.324397(14)
Zn2 Zn 0.30702(2) 0.30702(2) 0.267452(14)
O1 O 0.2500 0.2500 0.29559(9)
O2 O 0.40107(14) 0.28923(17) 0.27559(9)
O3 O 0.40343(12) 0.20962(15) 0.31583(8)
O4 O 0.29014(17) 0.20986(17) 0.37228(10)
O5 O 0.28989(16) 0.21011(16) 0.72041(10)
C1 C 0.4314(2) 0.2505(2) 0.29509(12)
C2 C 0.50554(18) 0.2508(2) 0.29622(11)
C3 C 0.5412(2) 0.2929(3) 0.27533(17)
H1 H 0.5180 0.3218 0.2607
C4 C 0.6106(3) 0.2933(4) 0.27557(19)
H2 H 0.6335 0.3234 0.2615
C5 C 0.6468(2) 0.2514(3) 0.29554(14)
C6 C 0.6123(3) 0.2078(3) 0.31588(17)
H3 H 0.6361 0.1776 0.3295
C7 C 0.5413(2) 0.2079(3) 0.31650(16)
H4 H 0.5184 0.1785 0.3309
C8 C 0.7200(2) 0.2493(3) 0.29669(11)
C9 C 0.2500 0.2500 0.3875(2)
C10 C 0.2500 0.2500 0.4234(2)
C11 C 0.2914(4) 0.2086(4) 0.44097(18)
H5 H 0.3205 0.1795 0.4295
C12 C 0.2907(4) 0.2093(4) 0.4769(2)
H6 H 0.3198 0.1802 0.4884
C13 C 0.2500 0.2500 0.4951(3)
C14 C 0.2500 0.2500 0.5315(3)
C15 C 0.2500 0.2500 0.5608(3)
C16 C 0.2500 0.2500 0.5985(3)
C17 C 0.2928(3) 0.2072(3) 0.61492(18)
H7 H 0.3216 0.1784 0.6030
C18 C 0.2919(3) 0.2081(3) 0.64959(16)
H8 H 0.3208 0.1792 0.6614
C19 C 0.2500 0.2500 0.6675(2)
C20 C 0.2500 0.2500 0.7065(2)
O2A O 1.09893(14) 0.21077(17) 0.27559(9)
O3A O 1.09657(12) 0.29038(15) 0.31583(8)
C1A C 1.0686(2) 0.2495(2) 0.29509(12)
C2A C 0.99446(18) 0.2492(2) 0.29622(11)
C3A C 0.9588(2) 0.2071(3) 0.27533(17)
H1A H 0.9820 0.1782 0.2607
C4A C 0.8894(3) 0.2067(4) 0.27557(19)
H2A H 0.8665 0.1766 0.2615
C5A C 0.8532(2) 0.2486(3) 0.29554(14)
C6A C 0.8877(3) 0.2922(3) 0.31588(17)
H3A H 0.8639 0.3224 0.3295
C7A C 0.9587(2) 0.2921(3) 0.31650(16)
H4A H 0.9816 0.3215 0.3309
C8A C 0.7800(2) 0.2507(3) 0.29669(11)
O4A O 0.20986(17) 0.29014(17) 0.37228(10)
O5A O 0.21011(16) 0.28989(16) 0.72041(10)
C11A C 0.2086(4) 0.2914(4) 0.44097(18)
H5A H 0.1795 0.3205 0.4295
C12A C 0.2093(4) 0.2907(4) 0.4769(2)
H6A H 0.1802 0.3198 0.4884
C17A C 0.2072(3) 0.2928(3) 0.61492(18)
H7A H 0.1784 0.3216 0.6030
C18A C 0.2081(3) 0.2919(3) 0.64959(16)
H8A H 0.1792 0.3208 0.6614
Zn1A Zn 0.193467(19) 0.306533(19) 0.324397(14)
Zn2A Zn 0.19298(2) 0.19298(2) 0.267452(14)
O2A_2 O 0.09893(14) 0.21077(17) 0.27559(9)
O3A_2 O 0.09657(12) 0.29038(15) 0.31583(8)
C1A_2 C 0.0686(2) 0.2495(2) 0.29509(12)
C2A_2 C -0.00554(18) 0.2492(2) 0.29622(11)
C3A_2 C -0.0412(2) 0.2071(3) 0.27533(17)
H1A_2 H -0.0180 0.1782 0.2607
C4A_2 C -0.1106(3) 0.2067(4) 0.27557(19)
H2A_2 H -0.1335 0.1766 0.2615
C5A_2 C -0.1468(2) 0.2486(3) 0.29554(14)
C6A_2 C -0.1123(3) 0.2922(3) 0.31588(17)
H3A_2 H -0.1361 0.3224 0.3295
C7A_2 C -0.0413(2) 0.2921(3) 0.31650(16)
H4A_2 H -0.0184 0.3215 0.3309
C8A_2 C -0.2200(2) 0.2507(3) 0.29669(11)
O2_2 O -0.59893(14) 0.28923(17) 0.27559(9)
O3_2 O -0.59657(12) 0.20962(15) 0.31583(8)
C1_2 C -0.5686(2) 0.2505(2) 0.29509(12)
C2_2 C -0.49446(18) 0.2508(2) 0.29622(11)
C3_2 C -0.4588(2) 0.2929(3) 0.27533(17)
H1_2 H -0.4820 0.3218 0.2607
C4_2 C -0.3894(3) 0.2933(4) 0.27557(19)
H2_2 H -0.3665 0.3234 0.2615
C5_2 C -0.3532(2) 0.2514(3) 0.29554(14)
C6_2 C -0.3877(3) 0.2078(3) 0.31588(17)
H3_2 H -0.3639 0.1776 0.3295
C7_2 C -0.4587(2) 0.2079(3) 0.31650(16)
H4_2 H -0.4816 0.1785 0.3309
C8_2 C -0.2800(2) 0.2493(3) 0.29669(11)
Zn1_2 Zn -0.693467(19) 0.193467(19) 0.324397(14)
Zn1A_2 Zn 1.193467(19) 0.306533(19) 0.324397(14)
Zn2_2 Zn -0.69298(2) 0.30702(2) 0.267452(14)
Zn2A_2 Zn 1.19298(2) 0.19298(2) 0.267452(14)
Zn2B Zn 0.19298(2) 0.30702(2) 0.767452(14)
Zn2C Zn 0.30702(2) 0.19298(2) 0.767452(14)
O2N O 0.21077(17) 0.09893(14) 0.27559(9)
O2O O 0.28923(17) 0.40107(14) 0.27559(9)
O3N O 0.29038(15) 0.09657(12) 0.31583(8)
O3O O 0.20962(15) 0.40343(12) 0.31583(8)
O5B O 0.28989(16) 0.28989(16) 0.22041(10)
O5C O 0.21011(16) 0.21011(16) 0.22041(10)
loop_
_geom_bond_atom_site_label_1
_geom_bond_atom_site_label_2
_geom_bond_site_symmetry_1
_geom_bond_site_symmetry_2
Zn1 O1 1_555 1_555
Zn2 O1 1_555 1_555
O1 Zn1A 1_555 1_555
O2 Zn2 1_555 1_555
O3 Zn1 1_555 1_555
O4 Zn1 1_555 1_555
O5 C20 1_555 1_555
C1 O2 1_555 1_555
C2 C1 1_555 1_555
C3 C2 1_555 1_555
H1 C3 1_555 1_555
C4 C3 1_555 1_555
H2 C4 1_555 1_555
C5 C4 1_555 1_555
C6 C5 1_555 1_555
H3 C6 1_555 1_555
C7 C2 1_555 1_555
H4 C7 1_555 1_555
C8 C5 1_555 1_555
C9 O4 1_555 1_555
C10 C9 1_555 1_555
C11 C10 1_555 1_555
H5 C11 1_555 1_555
C12 C11 1_555 1_555
H6 C12 1_555 1_555
C13 C12 1_555 1_555
C14 C13 1_555 1_555
C15 C14 1_555 1_555
C16 C15 1_555 1_555
C17 C16 1_555 1_555
H7 C17 1_555 1_555
C18 C17 1_555 1_555
H8 C18 1_555 1_555
C19 C18 1_555 1_555
C20 C19 1_555 1_555
O2A C1A 1_555 1_555
O3A C1A 1_555 1_555
C1A C2A 1_555 1_555
C2A C3A 1_555 1_555
C3A H1A 1_555 1_555
C4A C3A 1_555 1_555
H2A C4A 1_555 1_555
C5A C4A 1_555 1_555
C6A C5A 1_555 1_555
H3A C6A 1_555 1_555
C7A C2A 1_555 1_555
H4A C7A 1_555 1_555
C8A C8 1_555 1_555
O4A C9 1_555 1_555
O5A C20 1_555 1_555
C11A C10 1_555 1_555
H5A C11A 1_555 1_555
C12A C13 1_555 1_555
H6A C12A 1_555 1_555
C17A C16 1_555 1_555
H7A C17A 1_555 1_555
C18A C19 1_555 1_555
H8A C18A 1_555 1_555
Zn1A O4A 1_555 1_555
Zn2A O1 1_555 1_555
O2A_2 Zn2A 1_555 1_555
O3A_2 Zn1A 1_555 1_555
C1A_2 O2A_2 1_555 1_555
C2A_2 C1A_2 1_555 1_555
C3A_2 C2A_2 1_555 1_555
H1A_2 C3A_2 1_555 1_555
C4A_2 C3A_2 1_555 1_555
H2A_2 C4A_2 1_555 1_555
C5A_2 C4A_2 1_555 1_555
C6A_2 C5A_2 1_555 1_555
H3A_2 C6A_2 1_555 1_555
C7A_2 C2A_2 1_555 1_555
H4A_2 C7A_2 1_555 1_555
C8A_2 C5A_2 1_555 1_555
O2_2 C1_2 1_555 1_555
O3_2 C1_2 1_555 1_555
C1_2 C2_2 1_555 1_555
C2_2 C3_2 1_555 1_555
C3_2 H1_2 1_555 1_555
C4_2 C3_2 1_555 1_555
H2_2 C4_2 1_555 1_555
C5_2 C4_2 1_555 1_555
C6_2 C5_2 1_555 1_555
H3_2 C6_2 1_555 1_555
C7_2 C2_2 1_555 1_555
H4_2 C7_2 1_555 1_555
C8_2 C8A_2 1_555 1_555
Zn1_2 O3_2 1_555 1_555
Zn1A_2 O3A 1_555 1_555
Zn2_2 O2_2 1_555 1_555
Zn2A_2 O2A 1_555 1_555
Zn2B O5A 1_555 1_555
Zn2C O5 1_555 1_555
O2N Zn2A 1_555 1_555
O2O Zn2 1_555 1_555
O3N Zn1 1_555 1_555
O3O Zn1A 1_555 1_555
O5B Zn2 1_555 1_555
O5C Zn2A 1_555 1_555
O3 C1 1_555 1_555
C6 C7 1_555 1_555
C5A C8A 1_555 1_555
C6A C7A 1_555 1_555
C11A C12A 1_555 1_555
C17A C18A 1_555 1_555
O3A_2 C1A_2 1_555 1_555
C6A_2 C7A_2 1_555 1_555
C5_2 C8_2 1_555 1_555
C6_2 C7_2 1_555 1_555

#END
