
#######################################################################
#
#                 Cambridge Crystallographic Data Centre
#                                CCDC 
#
#######################################################################
#
# If this CIF has been generated from an entry in the Cambridge 
# Structural Database, then it will include bibliographic, chemical, 
# crystal, experimental, refinement or atomic coordinate data resulting 
# from the CCDC's data processing and validation procedures.
#
#######################################################################

data_FIHKOY
_chemical_name_common            FJI-2
_chemical_formula_moiety         '(C126 H108 N6 O36 Zn9)n,16n(C5 H11 N1 O1)'
_chemical_name_systematic        
'catena-[tetrakis(\m~6~-1,3,5-tris(4-carboxylatophenyl)benzene)-tris(\m~3~-1,4-diazabicyclo[2.2.2]octane 1-oxide)-tris(\m~3~-oxo)-hexakis(\m~2~-aqua)-nona-zinc N,N-diethylformamide solvate]'
_symmetry_cell_setting           cubic
_symmetry_space_group_name_H-M   'I m -3'
_symmetry_Int_Tables_number      204
_space_group_name_Hall           '-I 2 2 3'
loop_
_symmetry_equiv_pos_site_id
_symmetry_equiv_pos_as_xyz
1 x,y,z
2 z,x,y
3 y,z,x
4 -y,-z,x
5 z,-x,-y
6 -y,z,-x
7 -z,-x,y
8 -z,x,-y
9 y,-z,-x
10 -x,-y,z
11 x,-y,-z
12 -x,y,-z
13 1/2+x,1/2+y,1/2+z
14 1/2+z,1/2+x,1/2+y
15 1/2+y,1/2+z,1/2+x
16 1/2-y,1/2-z,1/2+x
17 1/2+z,1/2-x,1/2-y
18 1/2-y,1/2+z,1/2-x
19 1/2-z,1/2-x,1/2+y
20 1/2-z,1/2+x,1/2-y
21 1/2+y,1/2-z,1/2-x
22 1/2-x,1/2-y,1/2+z
23 1/2+x,1/2-y,1/2-z
24 1/2-x,1/2+y,1/2-z
25 -x,-y,-z
26 -z,-x,-y
27 -y,-z,-x
28 y,z,-x
29 -z,x,y
30 y,-z,x
31 z,x,-y
32 z,-x,y
33 -y,z,x
34 x,y,-z
35 -x,y,z
36 x,-y,z
37 1/2-x,1/2-y,1/2-z
38 1/2-z,1/2-x,1/2-y
39 1/2-y,1/2-z,1/2-x
40 1/2+y,1/2+z,1/2-x
41 1/2-z,1/2+x,1/2+y
42 1/2+y,1/2-z,1/2+x
43 1/2+z,1/2+x,1/2-y
44 1/2+z,1/2-x,1/2+y
45 1/2-y,1/2+z,1/2+x
46 1/2+x,1/2+y,1/2-z
47 1/2-x,1/2+y,1/2+z
48 1/2+x,1/2-y,1/2+z
_cell_length_a                   27.3685(2)
_cell_length_b                   27.3685(2)
_cell_length_c                   27.3685(2)
_cell_angle_alpha                90
_cell_angle_beta                 90
_cell_angle_gamma                90
_cell_volume                     20500
_exptl_crystal_colour            colorless
_exptl_crystal_description       block
_cell_formula_units_Z            4
loop_
_atom_site_label
_atom_site_type_symbol
_atom_site_fract_x
_atom_site_fract_y
_atom_site_fract_z
Zn1 Zn 0.5000 0.16598(3) 0.0000
Zn2 Zn 0.5000 0.05910(3) 0.06332(4)
O1 O 0.44591(10) 0.16687(10) 0.05364(11)
O2 O 0.44185(12) 0.09395(11) 0.09009(13)
O3 O 0.5000 0.09046(15) 0.0000
O4 O 0.5000 0.3919(3) 0.0000
C1 C 0.42764(14) 0.13697(13) 0.08115(15)
C2 C 0.38267(14) 0.15268(13) 0.10968(14)
C3 C 0.36987(16) 0.20171(14) 0.11207(17)
H1 H 0.3895 0.2254 0.0961
C4 C 0.32885(16) 0.21633(15) 0.13751(17)
H2 H 0.3213 0.2501 0.1400
C5 C 0.29836(14) 0.18198(15) 0.15954(15)
C6 C 0.31111(16) 0.13314(14) 0.15688(16)
H3 H 0.2909 0.1093 0.1720
C7 C 0.35350(15) 0.11845(14) 0.13206(15)
H4 H 0.3621 0.0848 0.1307
C8 C 0.25398(15) 0.19783(15) 0.18669(15)
C9 C 0.23842(16) 0.17167(15) 0.22763(16)
H5 H 0.2558 0.1433 0.2375
C10 C 0.5000 0.2695(3) 0.0484(3)
C11 C 0.5439(6) 0.2653(6) -0.0257(7)
C12 C 0.5000 0.3255(3) 0.0463(3)
C13 C 0.5446(4) 0.3243(6) -0.0200(6)
N1 N 0.5000 0.2466(2) 0.0000
N2 N 0.5000 0.3394(3) 0.0000
O5 O 0.4521(4) 0.0000 0.0313(3)
O1A O 0.05364(11) 0.44591(10) 0.16687(10)
O2A O 0.09009(13) 0.44185(12) 0.09395(11)
C1A C 0.08115(15) 0.42764(14) 0.13697(13)
C2A C 0.10968(14) 0.38267(14) 0.15268(13)
C3A C 0.11207(17) 0.36987(16) 0.20171(14)
H1A H 0.0961 0.3895 0.2254
C4A C 0.13751(17) 0.32885(16) 0.21633(15)
H2A H 0.1400 0.3213 0.2501
C5A C 0.15954(15) 0.29836(14) 0.18198(15)
C6A C 0.15688(16) 0.31111(16) 0.13314(14)
H3A H 0.1720 0.2909 0.1093
C7A C 0.13206(15) 0.35350(15) 0.11845(14)
H4A H 0.1307 0.3621 0.0848
C8A C 0.18669(15) 0.25398(15) 0.19783(15)
C9A C 0.22763(16) 0.23842(16) 0.17167(15)
H5A H 0.2375 0.2558 0.1433
O1B O 0.16687(10) 0.05364(11) 0.44591(10)
O2B O 0.09395(11) 0.09009(13) 0.44185(12)
C1B C 0.13697(13) 0.08115(15) 0.42764(14)
C2B C 0.15268(13) 0.10968(14) 0.38267(14)
C3B C 0.20171(14) 0.11207(17) 0.36987(16)
H1B H 0.2254 0.0961 0.3895
C4B C 0.21633(15) 0.13751(17) 0.32885(16)
H2B H 0.2501 0.1400 0.3213
C5B C 0.18198(15) 0.15954(15) 0.29836(14)
C6B C 0.13314(14) 0.15688(16) 0.31111(16)
H3B H 0.1093 0.1720 0.2909
C7B C 0.11845(14) 0.13206(15) 0.35350(15)
H4B H 0.0848 0.1307 0.3621
C8B C 0.19783(15) 0.18669(15) 0.25398(15)
C9B C 0.17167(15) 0.22763(16) 0.23842(16)
H5B H 0.1433 0.2375 0.2558
C10K C 0.5000 0.2695(3) -0.0484(3)
C11K C 0.4561(6) 0.2653(6) 0.0257(7)
C12K C 0.5000 0.3255(3) -0.0463(3)
C13K C 0.4554(4) 0.3243(6) 0.0200(6)
C11GA C 0.5439(6) 0.2653(6) 0.0257(7)
C13GA C 0.5446(4) 0.3243(6) 0.0200(6)
C11HA C 0.4561(6) 0.2653(6) -0.0257(7)
C13HA C 0.4554(4) 0.3243(6) -0.0200(6)
O5J O 0.4521(4) 0.0000 -0.0313(3)
Zn1A Zn 0.0000 0.5000 0.16598(3)
Zn2A Zn 0.06332(4) 0.5000 0.05910(3)
O3A O 0.0000 0.5000 0.09046(15)
O4A O 0.0000 0.5000 0.3919(3)
C10A C 0.0484(3) 0.5000 0.2695(3)
C11A C -0.0257(7) 0.5439(6) 0.2653(6)
C12A C 0.0463(3) 0.5000 0.3255(3)
C13A C -0.0200(6) 0.5446(4) 0.3243(6)
N1A N 0.0000 0.5000 0.2466(2)
N2A N 0.0000 0.5000 0.3394(3)
O5A O 0.0313(3) 0.4521(4) 0.0000
C10F C -0.0484(3) 0.5000 0.2695(3)
C11F C 0.0257(7) 0.4561(6) 0.2653(6)
C12F C -0.0463(3) 0.5000 0.3255(3)
C13F C 0.0200(6) 0.4554(4) 0.3243(6)
C11BA C 0.0257(7) 0.5439(6) 0.2653(6)
C13BA C 0.0200(6) 0.5446(4) 0.3243(6)
C11EA C -0.0257(7) 0.4561(6) 0.2653(6)
C13EA C -0.0200(6) 0.4554(4) 0.3243(6)
O5G O -0.0313(3) 0.4521(4) 0.0000
Zn2B Zn 0.05910(3) 0.06332(4) 0.5000
O5B O 0.0000 0.0313(3) 0.4521(4)
O5C O 0.0000 -0.0313(3) 0.4521(4)
Zn2C Zn -0.05910(3) -0.06332(4) 0.5000
O1C O -0.16687(10) -0.05364(11) 0.44591(10)
O2C O -0.09395(11) -0.09009(13) 0.44185(12)
C1C C -0.13697(13) -0.08115(15) 0.42764(14)
C2C C -0.15268(13) -0.10968(14) 0.38267(14)
C3C C -0.20171(14) -0.11207(17) 0.36987(16)
H1C H -0.2254 -0.0961 0.3895
C4C C -0.21633(15) -0.13751(17) 0.32885(16)
H2C H -0.2501 -0.1400 0.3213
C5C C -0.18198(15) -0.15954(15) 0.29836(14)
C6C C -0.13314(14) -0.15688(16) 0.31111(16)
H3C H -0.1093 -0.1720 0.2909
C7C C -0.11845(14) -0.13206(15) 0.35350(15)
H4C H -0.0848 -0.1307 0.3621
C8C C -0.19783(15) -0.18669(15) 0.25398(15)
C9C C -0.17167(15) -0.22763(16) 0.23842(16)
H5C H -0.1433 -0.2375 0.2558
O1I O -0.44591(10) -0.16687(10) 0.05364(11)
O2I O -0.44185(12) -0.09395(11) 0.09009(13)
C1I C -0.42764(14) -0.13697(13) 0.08115(15)
C2I C -0.38267(14) -0.15268(13) 0.10968(14)
C3I C -0.36987(16) -0.20171(14) 0.11207(17)
H1I H -0.3895 -0.2254 0.0961
C4I C -0.32885(16) -0.21633(15) 0.13751(17)
H2I H -0.3213 -0.2501 0.1400
C5I C -0.29836(14) -0.18198(15) 0.15954(15)
C6I C -0.31111(16) -0.13314(14) 0.15688(16)
H3I H -0.2909 -0.1093 0.1720
C7I C -0.35350(15) -0.11845(14) 0.13206(15)
H4I H -0.3621 -0.0848 0.1307
C8I C -0.25398(15) -0.19783(15) 0.18669(15)
C9I C -0.23842(16) -0.17167(15) 0.22763(16)
H5I H -0.2558 -0.1433 0.2375
O1F O -0.05364(11) -0.44591(10) 0.16687(10)
O2F O -0.09009(13) -0.44185(12) 0.09395(11)
C1F C -0.08115(15) -0.42764(14) 0.13697(13)
C2F C -0.10968(14) -0.38267(14) 0.15268(13)
C3F C -0.11207(17) -0.36987(16) 0.20171(14)
H1F H -0.0961 -0.3895 0.2254
C4F C -0.13751(17) -0.32885(16) 0.21633(15)
H2F H -0.1400 -0.3213 0.2501
C5F C -0.15954(15) -0.29836(14) 0.18198(15)
C6F C -0.15688(16) -0.31111(16) 0.13314(14)
H3F H -0.1720 -0.2909 0.1093
C7F C -0.13206(15) -0.35350(15) 0.11845(14)
H4F H -0.1307 -0.3621 0.0848
C8F C -0.18669(15) -0.25398(15) 0.19783(15)
C9F C -0.22763(16) -0.23842(16) 0.17167(15)
H5F H -0.2375 -0.2558 0.1433
Zn2G Zn -0.06332(4) 0.5000 -0.05910(3)
O1G O -0.05364(11) 0.44591(10) -0.16687(10)
O2G O -0.09009(13) 0.44185(12) -0.09395(11)
C1G C -0.08115(15) 0.42764(14) -0.13697(13)
C2G C -0.10968(14) 0.38267(14) -0.15268(13)
C3G C -0.11207(17) 0.36987(16) -0.20171(14)
H1G H -0.0961 0.3895 -0.2254
C4G C -0.13751(17) 0.32885(16) -0.21633(15)
H2G H -0.1400 0.3213 -0.2501
C5G C -0.15954(15) 0.29836(14) -0.18198(15)
C6G C -0.15688(16) 0.31111(16) -0.13314(14)
H3G H -0.1720 0.2909 -0.1093
C7G C -0.13206(15) 0.35350(15) -0.11845(14)
H4G H -0.1307 0.3621 -0.0848
C8G C -0.18669(15) 0.25398(15) -0.19783(15)
C9G C -0.22763(16) 0.23842(16) -0.17167(15)
H5G H -0.2375 0.2558 -0.1433
O1E O -0.16687(10) 0.05364(11) -0.44591(10)
O2E O -0.09395(11) 0.09009(13) -0.44185(12)
C1E C -0.13697(13) 0.08115(15) -0.42764(14)
C2E C -0.15268(13) 0.10968(14) -0.38267(14)
C3E C -0.20171(14) 0.11207(17) -0.36987(16)
H1E H -0.2254 0.0961 -0.3895
C4E C -0.21633(15) 0.13751(17) -0.32885(16)
H2E H -0.2501 0.1400 -0.3213
C5E C -0.18198(15) 0.15954(15) -0.29836(14)
C6E C -0.13314(14) 0.15688(16) -0.31111(16)
H3E H -0.1093 0.1720 -0.2909
C7E C -0.11845(14) 0.13206(15) -0.35350(15)
H4E H -0.0848 0.1307 -0.3621
C8E C -0.19783(15) 0.18669(15) -0.25398(15)
C9E C -0.17167(15) 0.22763(16) -0.23842(16)
H5E H -0.1433 0.2375 -0.2558
O1K O -0.44591(10) 0.16687(10) -0.05364(11)
O2K O -0.44185(12) 0.09395(11) -0.09009(13)
C1K C -0.42764(14) 0.13697(13) -0.08115(15)
C2K C -0.38267(14) 0.15268(13) -0.10968(14)
C3K C -0.36987(16) 0.20171(14) -0.11207(17)
H1K H -0.3895 0.2254 -0.0961
C4K C -0.32885(16) 0.21633(15) -0.13751(17)
H2K H -0.3213 0.2501 -0.1400
C5K C -0.29836(14) 0.18198(15) -0.15954(15)
C6K C -0.31111(16) 0.13314(14) -0.15688(16)
H3K H -0.2909 0.1093 -0.1720
C7K C -0.35350(15) 0.11845(14) -0.13206(15)
H4K H -0.3621 0.0848 -0.1307
C8K C -0.25398(15) 0.19783(15) -0.18669(15)
C9K C -0.23842(16) 0.17167(15) -0.22763(16)
H5K H -0.2558 0.1433 -0.2375
Zn1I Zn 0.5000 -0.16598(3) 0.0000
Zn2J Zn 0.5000 -0.05910(3) -0.06332(4)
O1J O 0.44591(10) -0.16687(10) -0.05364(11)
O2J O 0.44185(12) -0.09395(11) -0.09009(13)
O3I O 0.5000 -0.09046(15) 0.0000
O4I O 0.5000 -0.3919(3) 0.0000
C1J C 0.42764(14) -0.13697(13) -0.08115(15)
C2J C 0.38267(14) -0.15268(13) -0.10968(14)
C3J C 0.36987(16) -0.20171(14) -0.11207(17)
H1J H 0.3895 -0.2254 -0.0961
C4J C 0.32885(16) -0.21633(15) -0.13751(17)
H2J H 0.3213 -0.2501 -0.1400
C5J C 0.29836(14) -0.18198(15) -0.15954(15)
C6J C 0.31111(16) -0.13314(14) -0.15688(16)
H3J H 0.2909 -0.1093 -0.1720
C7J C 0.35350(15) -0.11845(14) -0.13206(15)
H4J H 0.3621 -0.0848 -0.1307
C8J C 0.25398(15) -0.19783(15) -0.18669(15)
C9J C 0.23842(16) -0.17167(15) -0.22763(16)
H5J H 0.2558 -0.1433 -0.2375
C10J C 0.5000 -0.2695(3) -0.0484(3)
C11J C 0.5439(6) -0.2653(6) 0.0257(7)
C12J C 0.5000 -0.3255(3) -0.0463(3)
C13J C 0.5446(4) -0.3243(6) 0.0200(6)
N1I N 0.5000 -0.2466(2) 0.0000
N2I N 0.5000 -0.3394(3) 0.0000
O1D O 0.05364(11) -0.44591(10) -0.16687(10)
O2D O 0.09009(13) -0.44185(12) -0.09395(11)
C1D C 0.08115(15) -0.42764(14) -0.13697(13)
C2D C 0.10968(14) -0.38267(14) -0.15268(13)
C3D C 0.11207(17) -0.36987(16) -0.20171(14)
H1D H 0.0961 -0.3895 -0.2254
C4D C 0.13751(17) -0.32885(16) -0.21633(15)
H2D H 0.1400 -0.3213 -0.2501
C5D C 0.15954(15) -0.29836(14) -0.18198(15)
C6D C 0.15688(16) -0.31111(16) -0.13314(14)
H3D H 0.1720 -0.2909 -0.1093
C7D C 0.13206(15) -0.35350(15) -0.11845(14)
H4D H 0.1307 -0.3621 -0.0848
C8D C 0.18669(15) -0.25398(15) -0.19783(15)
C9D C 0.22763(16) -0.23842(16) -0.17167(15)
H5D H 0.2375 -0.2558 -0.1433
O1H O 0.16687(10) -0.05364(11) -0.44591(10)
O2H O 0.09395(11) -0.09009(13) -0.44185(12)
C1H C 0.13697(13) -0.08115(15) -0.42764(14)
C2H C 0.15268(13) -0.10968(14) -0.38267(14)
C3H C 0.20171(14) -0.11207(17) -0.36987(16)
H1H H 0.2254 -0.0961 -0.3895
C4H C 0.21633(15) -0.13751(17) -0.32885(16)
H2H H 0.2501 -0.1400 -0.3213
C5H C 0.18198(15) -0.15954(15) -0.29836(14)
C6H C 0.13314(14) -0.15688(16) -0.31111(16)
H3H H 0.1093 -0.1720 -0.2909
C7H C 0.11845(14) -0.13206(15) -0.35350(15)
H4H H 0.0848 -0.1307 -0.3621
C8H C 0.19783(15) -0.18669(15) -0.25398(15)
C9H C 0.17167(15) -0.22763(16) -0.23842(16)
H5H H 0.1433 -0.2375 -0.2558
C10I C 0.5000 -0.2695(3) 0.0484(3)
C11I C 0.4561(6) -0.2653(6) -0.0257(7)
C12I C 0.5000 -0.3255(3) 0.0463(3)
C13I C 0.4554(4) -0.3243(6) -0.0200(6)
C11IA C 0.5439(6) -0.2653(6) -0.0257(7)
C13IA C 0.5446(4) -0.3243(6) -0.0200(6)
C11X C 0.4561(6) -0.2653(6) 0.0257(7)
C13X C 0.4554(4) -0.3243(6) 0.0200(6)
Zn1_2 Zn -0.5000 0.16598(3) 0.0000
Zn1A_2 Zn 0.0000 -0.5000 0.16598(3)
Zn1B Zn 0.16598(3) 0.0000 -0.5000
Zn1B_2 Zn 0.16598(3) 0.0000 0.5000
Zn1C Zn -0.16598(3) 0.0000 -0.5000
Zn1C_2 Zn -0.16598(3) 0.0000 0.5000
Zn1D Zn 0.0000 -0.5000 -0.16598(3)
Zn1D_2 Zn 0.0000 0.5000 -0.16598(3)
Zn1I_2 Zn -0.5000 -0.16598(3) 0.0000
Zn2D Zn 0.06332(4) -0.5000 -0.05910(3)
Zn2D_2 Zn 0.06332(4) 0.5000 -0.05910(3)
Zn2E Zn -0.05910(3) 0.06332(4) -0.5000
Zn2E_2 Zn -0.05910(3) 0.06332(4) 0.5000
Zn2F Zn -0.06332(4) -0.5000 0.05910(3)
Zn2F_2 Zn -0.06332(4) 0.5000 0.05910(3)
Zn2H Zn 0.05910(3) -0.06332(4) -0.5000
Zn2H_2 Zn 0.05910(3) -0.06332(4) 0.5000
Zn2I Zn -0.5000 -0.05910(3) 0.06332(4)
Zn2I_2 Zn 0.5000 -0.05910(3) 0.06332(4)
Zn2K Zn -0.5000 0.05910(3) -0.06332(4)
Zn2K_2 Zn 0.5000 0.05910(3) -0.06332(4)
Zn2N Zn 0.55910(3) -0.43668(4) 0.0000
Zn2O Zn 0.44090(3) 0.43668(4) 0.0000
Zn2Q Zn 0.44090(3) -0.43668(4) 0.0000
Zn2T Zn 0.55910(3) 0.43668(4) 0.0000
Zn2V Zn 0.0000 0.44090(3) 0.43668(4)
Zn2W Zn 0.0000 0.55910(3) 0.43668(4)
O1F_2 O -0.05364(11) 0.55409(10) 0.16687(10)
O1I_2 O 0.55409(10) -0.16687(10) 0.05364(11)
O1K_2 O 0.55409(10) 0.16687(10) -0.05364(11)
O1X O 0.55409(10) -0.16687(10) -0.05364(11)
O1BA O -0.05364(11) 0.44591(10) 0.16687(10)
O1EA O 0.05364(11) 0.55409(10) 0.16687(10)
O1GA O 0.44591(10) 0.16687(10) -0.05364(11)
O1HA O 0.55409(10) 0.16687(10) 0.05364(11)
O1IA O 0.44591(10) -0.16687(10) 0.05364(11)
O2X O 0.55815(12) -0.09395(11) -0.09009(13)
O2Y O -0.09009(13) 0.55815(12) -0.09395(11)
O2Z O -0.09395(11) -0.09009(13) 0.55815(12)
O2AA O 0.09395(11) 0.09009(13) 0.55815(12)
O2EA O 0.09009(13) 0.55815(12) 0.09395(11)
O2HA O 0.55815(12) 0.09395(11) 0.09009(13)
O3B O 0.09046(15) 0.0000 0.5000
O3C O -0.09046(15) 0.0000 0.5000
O3D O 0.0000 0.5000 -0.09046(15)
O4L O 0.0000 -0.1081(3) 0.5000
O4M O 0.5000 0.0000 -0.1081(3)
O4N O -0.1081(3) 0.5000 0.0000
O4O O 0.1081(3) 0.5000 0.0000
O4P O 0.5000 0.0000 0.1081(3)
O4U O 0.0000 0.1081(3) 0.5000
O5D O 0.0313(3) 0.5479(4) 0.0000
O5E O 0.0000 0.0313(3) 0.5479(4)
O5F O -0.0313(3) 0.5479(4) 0.0000
O5H O 0.0000 -0.0313(3) 0.5479(4)
O5I O 0.5479(4) 0.0000 0.0313(3)
O5K O 0.5479(4) 0.0000 -0.0313(3)
loop_
_geom_bond_atom_site_label_1
_geom_bond_atom_site_label_2
_geom_bond_site_symmetry_1
_geom_bond_site_symmetry_2
Zn1 O1 1_555 1_555
Zn2 O2 1_555 1_555
O1 C1 1_555 1_555
O2 C1 1_555 1_555
O3 Zn1 1_555 1_555
O4 N2 1_555 1_555
C1 C2 1_555 1_555
C2 C3 1_555 1_555
C3 H1 1_555 1_555
C4 C3 1_555 1_555
H2 C4 1_555 1_555
C5 C4 1_555 1_555
C6 C5 1_555 1_555
H3 C6 1_555 1_555
C7 C2 1_555 1_555
H4 C7 1_555 1_555
C8 C5 1_555 1_555
C9 C8 1_555 1_555
H5 C9 1_555 1_555
C10 C12 1_555 1_555
C11 C13 1_555 1_555
C12 N2 1_555 1_555
C13 N2 1_555 1_555
N1 Zn1 1_555 1_555
N2 C12K 1_555 1_555
O5 Zn2 1_555 1_555
O1A C1A 1_555 1_555
O2A C1A 1_555 1_555
C1A C2A 1_555 1_555
C2A C3A 1_555 1_555
C3A H1A 1_555 1_555
C4A C3A 1_555 1_555
H2A C4A 1_555 1_555
C5A C4A 1_555 1_555
C6A C5A 1_555 1_555
H3A C6A 1_555 1_555
C7A C2A 1_555 1_555
H4A C7A 1_555 1_555
C8A C5A 1_555 1_555
C9A C8 1_555 1_555
H5A C9A 1_555 1_555
O1B C1B 1_555 1_555
O2B C1B 1_555 1_555
C1B C2B 1_555 1_555
C2B C3B 1_555 1_555
C3B H1B 1_555 1_555
C4B C3B 1_555 1_555
H2B C4B 1_555 1_555
C5B C4B 1_555 1_555
C6B C5B 1_555 1_555
H3B C6B 1_555 1_555
C7B C2B 1_555 1_555
H4B C7B 1_555 1_555
C8B C9 1_555 1_555
C9B C8A 1_555 1_555
H5B C9B 1_555 1_555
C10K C11 1_555 1_555
C11K C10 1_555 1_555
C12K C13 1_555 1_555
C13K C12 1_555 1_555
C11GA C10 1_555 1_555
C13GA C12 1_555 1_555
C11HA N1 1_555 1_555
C13HA N2 1_555 1_555
O5J O5 1_555 1_555
Zn1A O1A 1_555 1_555
Zn2A O2A 1_555 1_555
O3A Zn1A 1_555 1_555
O4A N2A 1_555 1_555
C10A C12A 1_555 1_555
C11A C13A 1_555 1_555
C12A N2A 1_555 1_555
C13A N2A 1_555 1_555
N1A Zn1A 1_555 1_555
N2A C12F 1_555 1_555
O5A Zn2A 1_555 1_555
C10F C11A 1_555 1_555
C11F C10A 1_555 1_555
C12F C13A 1_555 1_555
C13F C12A 1_555 1_555
C11BA C10A 1_555 1_555
C13BA C12A 1_555 1_555
C11EA N1A 1_555 1_555
C13EA N2A 1_555 1_555
O5G O5A 1_555 1_555
Zn2B O2B 1_555 1_555
O5B Zn2B 1_555 1_555
O5C O5B 1_555 1_555
Zn2C O5C 1_555 1_555
O1C C1C 1_555 1_555
O2C Zn2C 1_555 1_555
C1C O2C 1_555 1_555
C2C C1C 1_555 1_555
C3C C2C 1_555 1_555
H1C C3C 1_555 1_555
C4C C3C 1_555 1_555
H2C C4C 1_555 1_555
C5C C4C 1_555 1_555
C6C C5C 1_555 1_555
H3C C6C 1_555 1_555
C7C C2C 1_555 1_555
H4C C7C 1_555 1_555
C8C C5C 1_555 1_555
C9C C8C 1_555 1_555
H5C C9C 1_555 1_555
O1I C1I 1_555 1_555
O2I C1I 1_555 1_555
C1I C2I 1_555 1_555
C2I C3I 1_555 1_555
C3I H1I 1_555 1_555
C4I C3I 1_555 1_555
H2I C4I 1_555 1_555
C5I C4I 1_555 1_555
C6I C5I 1_555 1_555
H3I C6I 1_555 1_555
C7I C2I 1_555 1_555
H4I C7I 1_555 1_555
C8I C5I 1_555 1_555
C9I C8C 1_555 1_555
H5I C9I 1_555 1_555
O1F C1F 1_555 1_555
O2F C1F 1_555 1_555
C1F C2F 1_555 1_555
C2F C3F 1_555 1_555
C3F H1F 1_555 1_555
C4F C3F 1_555 1_555
H2F C4F 1_555 1_555
C5F C4F 1_555 1_555
C6F C5F 1_555 1_555
H3F C6F 1_555 1_555
C7F C2F 1_555 1_555
H4F C7F 1_555 1_555
C8F C9C 1_555 1_555
C9F C8I 1_555 1_555
H5F C9F 1_555 1_555
Zn2G O5G 1_555 1_555
O1G C1G 1_555 1_555
O2G Zn2G 1_555 1_555
C1G O2G 1_555 1_555
C2G C1G 1_555 1_555
C3G C2G 1_555 1_555
H1G C3G 1_555 1_555
C4G C3G 1_555 1_555
H2G C4G 1_555 1_555
C5G C4G 1_555 1_555
C6G C5G 1_555 1_555
H3G C6G 1_555 1_555
C7G C2G 1_555 1_555
H4G C7G 1_555 1_555
C8G C5G 1_555 1_555
C9G C8G 1_555 1_555
H5G C9G 1_555 1_555
O1E C1E 1_555 1_555
O2E C1E 1_555 1_555
C1E C2E 1_555 1_555
C2E C3E 1_555 1_555
C3E H1E 1_555 1_555
C4E C3E 1_555 1_555
H2E C4E 1_555 1_555
C5E C4E 1_555 1_555
C6E C5E 1_555 1_555
H3E C6E 1_555 1_555
C7E C2E 1_555 1_555
H4E C7E 1_555 1_555
C8E C5E 1_555 1_555
C9E C8G 1_555 1_555
H5E C9E 1_555 1_555
O1K C1K 1_555 1_555
O2K C1K 1_555 1_555
C1K C2K 1_555 1_555
C2K C3K 1_555 1_555
C3K H1K 1_555 1_555
C4K C3K 1_555 1_555
H2K C4K 1_555 1_555
C5K C4K 1_555 1_555
C6K C5K 1_555 1_555
H3K C6K 1_555 1_555
C7K C2K 1_555 1_555
H4K C7K 1_555 1_555
C8K C9G 1_555 1_555
C9K C8E 1_555 1_555
H5K C9K 1_555 1_555
Zn1I O1J 1_555 1_555
Zn2J O5J 1_555 1_555
O1J C1J 1_555 1_555
O2J Zn2J 1_555 1_555
O3I Zn1I 1_555 1_555
O4I N2I 1_555 1_555
C1J O2J 1_555 1_555
C2J C1J 1_555 1_555
C3J C2J 1_555 1_555
H1J C3J 1_555 1_555
C4J C3J 1_555 1_555
H2J C4J 1_555 1_555
C5J C4J 1_555 1_555
C6J C5J 1_555 1_555
H3J C6J 1_555 1_555
C7J C2J 1_555 1_555
H4J C7J 1_555 1_555
C8J C5J 1_555 1_555
C9J C8J 1_555 1_555
H5J C9J 1_555 1_555
C10J C12J 1_555 1_555
C11J C13J 1_555 1_555
C12J N2I 1_555 1_555
C13J N2I 1_555 1_555
N1I Zn1I 1_555 1_555
N2I C12I 1_555 1_555
O1D C1D 1_555 1_555
O2D C1D 1_555 1_555
C1D C2D 1_555 1_555
C2D C3D 1_555 1_555
C3D H1D 1_555 1_555
C4D C3D 1_555 1_555
H2D C4D 1_555 1_555
C5D C4D 1_555 1_555
C6D C5D 1_555 1_555
H3D C6D 1_555 1_555
C7D C2D 1_555 1_555
H4D C7D 1_555 1_555
C8D C5D 1_555 1_555
C9D C8J 1_555 1_555
H5D C9D 1_555 1_555
O1H C1H 1_555 1_555
O2H C1H 1_555 1_555
C1H C2H 1_555 1_555
C2H C3H 1_555 1_555
C3H H1H 1_555 1_555
C4H C3H 1_555 1_555
H2H C4H 1_555 1_555
C5H C4H 1_555 1_555
C6H C5H 1_555 1_555
H3H C6H 1_555 1_555
C7H C2H 1_555 1_555
H4H C7H 1_555 1_555
C8H C9J 1_555 1_555
C9H C8D 1_555 1_555
H5H C9H 1_555 1_555
C10I C11J 1_555 1_555
C11I C10J 1_555 1_555
C12I C13J 1_555 1_555
C13I C12J 1_555 1_555
C11IA C10J 1_555 1_555
C13IA C12J 1_555 1_555
C11X N1I 1_555 1_555
C13X N2I 1_555 1_555
Zn1_2 O1K 1_555 1_555
Zn1A_2 O1F 1_555 1_555
Zn1B O1H 1_555 1_555
Zn1B_2 O1B 1_555 1_555
Zn1C O1E 1_555 1_555
Zn1C_2 O1C 1_555 1_555
Zn1D O1D 1_555 1_555
Zn1D_2 O1G 1_555 1_555
Zn1I_2 O1I 1_555 1_555
Zn2D O2D 1_555 1_555
Zn2D_2 O5A 1_555 1_555
Zn2E O2E 1_555 1_555
Zn2E_2 O5B 1_555 1_555
Zn2F O2F 1_555 1_555
Zn2F_2 O3A 1_555 1_555
Zn2H O2H 1_555 1_555
Zn2H_2 O5C 1_555 1_555
Zn2I O2I 1_555 1_555
Zn2I_2 O5 1_555 1_555
Zn2K O2K 1_555 1_555
Zn2K_2 O3 1_555 1_555
Zn2N O4I 1_555 1_555
Zn2O O4 1_555 1_555
Zn2Q O4I 1_555 1_555
Zn2T O4 1_555 1_555
Zn2V O4A 1_555 1_555
Zn2W O4A 1_555 1_555
O1F_2 Zn1A 1_555 1_555
O1I_2 Zn1I 1_555 1_555
O1K_2 Zn1 1_555 1_555
O1X Zn1I 1_555 1_555
O1BA Zn1A 1_555 1_555
O1EA Zn1A 1_555 1_555
O1GA Zn1 1_555 1_555
O1HA Zn1 1_555 1_555
O1IA Zn1I 1_555 1_555
O2X Zn2J 1_555 1_555
O2Y Zn2G 1_555 1_555
O2Z Zn2C 1_555 1_555
O2AA Zn2B 1_555 1_555
O2EA Zn2A 1_555 1_555
O2HA Zn2 1_555 1_555
O3B Zn2B 1_555 1_555
O3C Zn2C 1_555 1_555
O3D Zn2G 1_555 1_555
O4L Zn2C 1_555 1_555
O4M Zn2J 1_555 1_555
O4N Zn2G 1_555 1_555
O4O Zn2A 1_555 1_555
O4P Zn2 1_555 1_555
O4U Zn2B 1_555 1_555
O5D Zn2A 1_555 1_555
O5E Zn2B 1_555 1_555
O5F Zn2G 1_555 1_555
O5H Zn2C 1_555 1_555
O5I Zn2 1_555 1_555
O5K Zn2J 1_555 1_555
Zn2 O3 1_555 1_555
C6 C7 1_555 1_555
C10 N1 1_555 1_555
C11 N1 1_555 1_555
C11 C11GA 1_555 1_555
C13 C13GA 1_555 1_555
N1 C10K 1_555 1_555
N1 C11K 1_555 1_555
N1 C11GA 1_555 1_555
N2 C13K 1_555 1_555
N2 C13GA 1_555 1_555
C6A C7A 1_555 1_555
C8A C9A 1_555 1_555
C5B C8B 1_555 1_555
C6B C7B 1_555 1_555
C8B C9B 1_555 1_555
C10K C12K 1_555 1_555
C10K C11HA 1_555 1_555
C11K C13K 1_555 1_555
C11K C11HA 1_555 1_555
C12K C13HA 1_555 1_555
C13K C13HA 1_555 1_555
C11GA C13GA 1_555 1_555
C11HA C13HA 1_555 1_555
O5J Zn2K_2 1_555 1_555
Zn2A O3A 1_555 1_555
C10A N1A 1_555 1_555
C11A N1A 1_555 1_555
C11A C11BA 1_555 1_555
C13A C13BA 1_555 1_555
N1A C10F 1_555 1_555
N1A C11F 1_555 1_555
N1A C11BA 1_555 1_555
N2A C13F 1_555 1_555
N2A C13BA 1_555 1_555
C10F C12F 1_555 1_555
C10F C11EA 1_555 1_555
C11F C13F 1_555 1_555
C11F C11EA 1_555 1_555
C12F C13EA 1_555 1_555
C13F C13EA 1_555 1_555
C11BA C13BA 1_555 1_555
C11EA C13EA 1_555 1_555
O5G Zn2F_2 1_555 1_555
C6C C7C 1_555 1_555
C6I C7I 1_555 1_555
C8I C9I 1_555 1_555
C5F C8F 1_555 1_555
C6F C7F 1_555 1_555
C8F C9F 1_555 1_555
C6G C7G 1_555 1_555
C6E C7E 1_555 1_555
C8E C9E 1_555 1_555
C5K C8K 1_555 1_555
C6K C7K 1_555 1_555
C8K C9K 1_555 1_555
Zn2J O3I 1_555 1_555
O3I Zn2I_2 1_555 1_555
C6J C7J 1_555 1_555
C10J N1I 1_555 1_555
C11J N1I 1_555 1_555
C11J C11IA 1_555 1_555
C13J C13IA 1_555 1_555
N1I C10I 1_555 1_555
N1I C11I 1_555 1_555
N1I C11IA 1_555 1_555
N2I C13I 1_555 1_555
N2I C13IA 1_555 1_555
C6D C7D 1_555 1_555
C8D C9D 1_555 1_555
C5H C8H 1_555 1_555
C6H C7H 1_555 1_555
C8H C9H 1_555 1_555
C10I C12I 1_555 1_555
C10I C11X 1_555 1_555
C11I C13I 1_555 1_555
C11I C11X 1_555 1_555
C12I C13X 1_555 1_555
C13I C13X 1_555 1_555
C11IA C13IA 1_555 1_555
C11X C13X 1_555 1_555
Zn1B_2 O3B 1_555 1_555
Zn1C_2 O3C 1_555 1_555
Zn1D_2 O3D 1_555 1_555
Zn2D_2 O3D 1_555 1_555
Zn2D_2 O4O 1_555 1_555
Zn2D_2 O5D 1_555 1_555
Zn2E_2 O3C 1_555 1_555
Zn2E_2 O4U 1_555 1_555
Zn2E_2 O5E 1_555 1_555
Zn2F_2 O4N 1_555 1_555
Zn2F_2 O5F 1_555 1_555
Zn2H_2 O3B 1_555 1_555
Zn2H_2 O4L 1_555 1_555
Zn2H_2 O5H 1_555 1_555
Zn2I_2 O4P 1_555 1_555
Zn2I_2 O5I 1_555 1_555
Zn2K_2 O4M 1_555 1_555
Zn2K_2 O5K 1_555 1_555
O5D O5F 1_555 1_555
O5E O5H 1_555 1_555
O5I O5K 1_555 1_555

#END
