
#######################################################################
#
#                 Cambridge Crystallographic Data Centre
#                                CCDC 
#
#######################################################################
#
# If this CIF has been generated from an entry in the Cambridge 
# Structural Database, then it will include bibliographic, chemical, 
# crystal, experimental, refinement or atomic coordinate data resulting 
# from the CCDC's data processing and validation procedures.
#
#######################################################################

data_UHITAH
_chemical_formula_moiety         '(C10 H14 Mg2 O14)n'
_chemical_name_systematic        
catena-((\m~6~-Benzene-1,2,4,5-tetracarboxylato)-hexa-aqua-di-magnesium)
_symmetry_cell_setting           triclinic
_symmetry_space_group_name_H-M   'P -1'
_symmetry_Int_Tables_number      2
_space_group_name_Hall           '-P 1'
loop_
_symmetry_equiv_pos_site_id
_symmetry_equiv_pos_as_xyz
1 x,y,z
2 -x,-y,-z
_cell_length_a                   5.9502(2)
_cell_length_b                   7.4323(2)
_cell_length_c                   8.9898(3)
_cell_angle_alpha                104.787(2)
_cell_angle_beta                 106.197(2)
_cell_angle_gamma                97.590(2)
_cell_volume                     360.183
_exptl_crystal_colour            colorless
_exptl_crystal_description       lamellar
_cell_formula_units_Z            1
loop_
_atom_site_label
_atom_site_type_symbol
_atom_site_fract_x
_atom_site_fract_y
_atom_site_fract_z
Mg1 Mg 0.00164(6) 0.82152(5) 0.68231(4)
O1 O -0.82167(16) 0.06161(11) 0.66686(10)
O2 O -0.79154(14) 0.30008(11) 0.56092(9)
O3 O -0.15554(16) 0.60648(12) 0.74143(11)
O4 O -0.27353(16) 0.29221(12) 0.67144(10)
O5 O 0.23685(19) 0.90656(18) 0.93087(12)
H1 H 0.2121 0.9323 1.0242
H2 H 0.3535 0.9957 0.9546
O6 O 0.27087(14) 0.69558(11) 0.62186(10)
H3 H 0.2580 0.6959 0.5287
H4 H 0.2686 0.5803 0.6147
O7 O -0.26321(15) 0.96171(12) 0.74018(10)
H5 H -0.2915 1.0626 0.7150
H6 H -0.3901 0.8870 0.7059
C1 C -0.75409(18) 0.23131(14) 0.67753(12)
C2 C -0.61728(18) 0.36829(14) 0.84523(12)
C3 C -0.72275(18) 0.38663(15) 0.96679(12)
H7 H -0.8720 0.3097 0.9448
C4 C -0.39072(18) 0.48214(14) 0.87929(12)
C5 C -0.26434(18) 0.45875(15) 0.75387(12)
Mg1A Mg -1.00164(6) 0.17848(5) 1.31769(4)
Mg1_2 Mg -0.99836(6) -0.17848(5) 0.68231(4)
Mg1A_2 Mg -1.00164(6) 0.17848(5) 0.31769(4)
Mg1A_3 Mg -0.00164(6) 1.17848(5) 1.31769(4)
Mg1_3 Mg 0.00164(6) 0.82152(5) 1.68231(4)
O1A O -0.17833(16) 0.93839(11) 1.33314(10)
O1_2 O 0.17833(16) 1.06161(11) 0.66686(10)
O1A_2 O -1.17833(16) -0.06161(11) 0.33314(10)
O2A O -0.20846(14) 0.69992(11) 1.43908(9)
O2A_2 O -0.20846(14) 0.69992(11) 0.43908(9)
O3A O -0.84446(16) 0.39352(12) 1.25857(11)
O3A_2 O -0.84446(16) 0.39352(12) 0.25857(11)
O4A O -0.72647(16) 0.70779(12) 1.32856(10)
O5A O -1.23685(19) 0.09344(18) 0.06913(12)
H1A H -1.2121 0.0677 -0.0242
H2A H -1.3535 0.0043 0.0454
O6A O -1.27087(14) 0.30442(11) 0.37814(10)
H3A H -1.2580 0.3041 0.4713
H4A H -1.2686 0.4197 0.3853
O7A O -0.73679(15) 0.03829(12) 0.25982(10)
H5A H -0.7085 -0.0626 0.2850
H6A H -0.6099 0.1130 0.2941
C1A C -0.24591(18) 0.76869(14) 1.32247(12)
C2A C -0.38272(18) 0.63171(14) 1.15477(12)
C3A C -0.27725(18) 0.61337(15) 1.03321(12)
H7A H -0.1280 0.6903 1.0552
C4A C -0.60928(18) 0.51786(14) 1.12071(12)
C5A C -0.73566(18) 0.54125(15) 1.24613(12)
loop_
_geom_bond_atom_site_label_1
_geom_bond_atom_site_label_2
_geom_bond_site_symmetry_1
_geom_bond_site_symmetry_2
Mg1 O3 1_555 1_555
O1 C1 1_555 1_555
O2 C1 1_555 1_555
O3 C5 1_555 1_555
O4 C5 1_555 1_555
O5 Mg1 1_555 1_555
H1 O5 1_555 1_555
H2 O5 1_555 1_555
O6 Mg1 1_555 1_555
H3 O6 1_555 1_555
H4 O6 1_555 1_555
O7 Mg1 1_555 1_555
H5 O7 1_555 1_555
H6 O7 1_555 1_555
C1 C2 1_555 1_555
C2 C3 1_555 1_555
C3 H7 1_555 1_555
C4 C2 1_555 1_555
C5 C4 1_555 1_555
Mg1A O3A 1_555 1_555
Mg1_2 O1 1_555 1_555
Mg1A_2 O2 1_555 1_555
Mg1A_3 O1A 1_555 1_555
Mg1_3 O2A 1_555 1_555
O1A C1A 1_555 1_555
O1_2 Mg1 1_555 1_555
O1A_2 Mg1A_2 1_555 1_555
O2A C1A 1_555 1_555
O2A_2 Mg1 1_555 1_555
O3A C5A 1_555 1_555
O3A_2 Mg1A_2 1_555 1_555
O4A C5A 1_555 1_555
O5A Mg1A_2 1_555 1_555
H1A O5A 1_555 1_555
H2A O5A 1_555 1_555
O6A Mg1A_2 1_555 1_555
H3A O6A 1_555 1_555
H4A O6A 1_555 1_555
O7A Mg1A_2 1_555 1_555
H5A O7A 1_555 1_555
H6A O7A 1_555 1_555
C1A C2A 1_555 1_555
C2A C3A 1_555 1_555
C3A C4 1_555 1_555
H7A C3A 1_555 1_555
C4A C3 1_555 1_555
C5A C4A 1_555 1_555
C2A C4A 1_555 1_555

#END
