
#######################################################################
#
#                 Cambridge Crystallographic Data Centre
#                                CCDC 
#
#######################################################################
#
# If this CIF has been generated from an entry in the Cambridge 
# Structural Database, then it will include bibliographic, chemical, 
# crystal, experimental, refinement or atomic coordinate data resulting 
# from the CCDC's data processing and validation procedures.
#
#######################################################################

data_LUFNAC01
_chemical_formula_moiety         
'(C28 H24 Mn2 N4 O10)n,2n(C3 H7 N1 O1),3n(H2 O1)'
_chemical_name_systematic        
'catena-(bis(\m~4~-5-((Pyridin-4-ylmethyl)amino)isophthalato)-diaqua-di-manganese(ii) dimethylformamide solvate trihydrate)'
_symmetry_cell_setting           monoclinic
_symmetry_space_group_name_H-M   'C 2/c'
_symmetry_Int_Tables_number      15
_space_group_name_Hall           '-C 2yc'
loop_
_symmetry_equiv_pos_site_id
_symmetry_equiv_pos_as_xyz
1 x,y,z
2 -x,y,1/2-z
3 1/2+x,1/2+y,z
4 1/2-x,1/2+y,1/2-z
5 -x,-y,-z
6 x,-y,1/2+z
7 1/2-x,1/2-y,-z
8 1/2+x,1/2-y,1/2+z
_cell_length_a                   18.406(7)
_cell_length_b                   15.041(5)
_cell_length_c                   16.344(4)
_cell_angle_alpha                90
_cell_angle_beta                 111.540(4)
_cell_angle_gamma                90
_cell_volume                     4208.75
_exptl_crystal_colour            'pale yellow'
_exptl_crystal_description       block
_cell_formula_units_Z            4
loop_
_atom_site_label
_atom_site_type_symbol
_atom_site_fract_x
_atom_site_fract_y
_atom_site_fract_z
_atom_site_U_iso_or_equiv
_atom_site_thermal_displace_type
Mn1 Mn -0.22394(6) 0.10856(7) 0.54706(6) 0.0299 Uani
O1 O 0.2871(3) 0.5246(3) 0.6644(3) 0.0387 Uani
O2 O 0.2600(3) 0.4572(4) 0.5369(3) 0.0423 Uani
O3 O 0.2528(3) 0.3672(3) 0.9112(3) 0.0351 Uani
O4 O 0.1962(3) 0.2339(3) 0.8914(3) 0.0354 Uani
C1 C 0.2017(4) 0.2200(5) 0.6365(4) 0.0334 Uani
C2 C 0.2249(4) 0.2994(5) 0.7744(4) 0.0296 Uani
N1 N -0.0954(4) 0.0909(4) 0.5685(4) 0.0342 Uani
N2 N 0.1828(4) 0.1450(4) 0.5851(4) 0.0348 Uani
H1 H 0.1913 0.1440 0.5368 0.0420 Uiso
C3 C 0.2663(5) 0.4561(5) 0.6164(5) 0.0362 Uani
C4 C 0.2465(4) 0.3728(5) 0.6552(4) 0.0324 Uani
C5 C 0.2013(4) 0.2223(5) 0.7223(5) 0.0321 Uani
H2 H 0.1853 0.1724 0.7449 0.0380 Uiso
C6 C 0.2468(4) 0.3742(5) 0.7406(4) 0.0321 Uani
H3 H 0.2616 0.4254 0.7746 0.0380 Uiso
C7 C 0.0640(5) 0.0774(5) 0.5958(5) 0.0362 Uani
C8 C 0.2256(4) 0.2990(5) 0.8665(4) 0.0351 Uani
C9 C 0.2235(4) 0.2972(5) 0.6037(5) 0.0360 Uani
H4 H 0.2225 0.2977 0.5464 0.0430 Uiso
C10 C 0.1492(4) 0.0680(5) 0.6100(5) 0.0351 Uani
H5 H 0.1780 0.0556 0.6718 0.0420 Uiso
H6 H 0.1554 0.0173 0.5766 0.0420 Uiso
O5 O -0.3534(5) 0.1223(6) 0.5165(6) 0.0349 Uani
C11 C 0.0157(5) 0.1349(7) 0.5339(7) 0.0581 Uani
H7 H 0.0354 0.1696 0.4997 0.0700 Uiso
C12 C 0.0297(6) 0.0238(7) 0.6395(6) 0.0564 Uani
H8 H 0.0591 -0.0187 0.6792 0.0680 Uiso
C13 C -0.0491(6) 0.0337(7) 0.6237(6) 0.0512 Uani
H9 H -0.0708 -0.0029 0.6546 0.0740 Uiso
C14 C -0.0623(5) 0.1403(6) 0.5232(6) 0.0496 Uani
H10 H -0.0937 0.1806 0.4821 0.0600 Uiso
Mn1A Mn 0.22394(6) 0.10856(7) 0.95294(6) 0.0299 Uani
Mn1B Mn 0.27606(6) 0.60856(7) 0.54706(6) 0.0299 Uani
Mn1C Mn -0.27606(6) 0.60856(7) 0.95294(6) 0.0299 Uani
Mn1F Mn -0.27606(6) 0.39144(7) 0.45294(6) 0.0299 Uani
Mn1G Mn 0.27606(6) 0.39144(7) 1.04706(6) 0.0299 Uani
O1A O -0.2871(3) 0.5246(3) 0.8356(3) 0.0387 Uani
O1B O -0.2129(3) 0.0246(3) 0.6644(3) 0.0387 Uani
O1C O 0.2129(3) 0.0246(3) 0.8356(3) 0.0387 Uani
O2A O -0.2600(3) 0.4572(4) 0.9631(3) 0.0423 Uani
O2B O -0.2400(3) -0.0428(4) 0.5369(3) 0.0423 Uani
O2C O 0.2400(3) -0.0428(4) 0.9631(3) 0.0423 Uani
O3A O -0.2528(3) 0.3672(3) 0.5888(3) 0.0351 Uani
O3F O 0.2472(3) 0.1328(3) 1.0888(3) 0.0351 Uani
O3G O -0.2472(3) 0.1328(3) 0.4112(3) 0.0351 Uani
O4A O -0.1962(3) 0.2339(3) 0.6086(3) 0.0354 Uani
C1A C -0.2017(4) 0.2200(5) 0.8635(4) 0.0334 Uani
C2A C -0.2249(4) 0.2994(5) 0.7256(4) 0.0296 Uani
N1A N 0.0954(4) 0.0909(4) 0.9315(4) 0.0342 Uani
N2A N -0.1828(4) 0.1450(4) 0.9149(4) 0.0348 Uani
H1A H -0.1913 0.1440 0.9632 0.0420 Uiso
C3A C -0.2663(5) 0.4561(5) 0.8836(5) 0.0362 Uani
C4A C -0.2465(4) 0.3728(5) 0.8448(4) 0.0324 Uani
C5A C -0.2013(4) 0.2223(5) 0.7777(5) 0.0321 Uani
H2A H -0.1853 0.1724 0.7551 0.0380 Uiso
C6A C -0.2468(4) 0.3742(5) 0.7594(4) 0.0321 Uani
H3A H -0.2616 0.4254 0.7254 0.0380 Uiso
C7A C -0.0640(5) 0.0774(5) 0.9042(5) 0.0362 Uani
C8A C -0.2256(4) 0.2990(5) 0.6335(4) 0.0351 Uani
C9A C -0.2235(4) 0.2972(5) 0.8963(5) 0.0360 Uani
H4A H -0.2225 0.2977 0.9536 0.0430 Uiso
C10A C -0.1492(4) 0.0680(5) 0.8900(5) 0.0351 Uani
H5A H -0.1780 0.0556 0.8282 0.0420 Uiso
H6A H -0.1554 0.0173 0.9234 0.0420 Uiso
O5A O 0.3534(5) 0.1223(6) 0.9835(6) 0.0349 Uani
C11A C -0.0157(5) 0.1349(7) 0.9661(7) 0.0581 Uani
H7A H -0.0354 0.1696 1.0003 0.0700 Uiso
C12A C -0.0297(6) 0.0238(7) 0.8605(6) 0.0564 Uani
H8A H -0.0591 -0.0187 0.8208 0.0680 Uiso
C13A C 0.0491(6) 0.0337(7) 0.8763(6) 0.0512 Uani
H9A H 0.0708 -0.0029 0.8454 0.0740 Uiso
C14A C 0.0623(5) 0.1403(6) 0.9768(6) 0.0496 Uani
H10A H 0.0937 0.1806 1.0179 0.0600 Uiso
N3 N 0.3910(9) 0.1613(19) 0.7403(17) 0.0398 Uani
C15 C 0.3914(12) 0.157(3) 0.6591(19) 0.0503 Uani
H11 H 0.3821 0.1022 0.6315 0.0830 Uiso
O6 O 0.4029(18) 0.220(3) 0.6174(18) 0.0530 Uani
C16 C 0.3700(16) 0.082(3) 0.775(3) 0.0550 Uani
H12 H 0.3722 0.0936 0.8338 0.0890 Uiso
H13 H 0.4058 0.0355 0.7762 0.0890 Uiso
H14 H 0.3179 0.0650 0.7387 0.0890 Uiso
C17 C 0.4101(18) 0.242(3) 0.791(3) 0.0671 Uani
H15 H 0.4066 0.2318 0.8477 0.0990 Uiso
H16 H 0.3741 0.2879 0.7610 0.0990 Uiso
H17 H 0.4623 0.2599 0.7991 0.0990 Uiso
O7 O -0.5171(14) 0.111(2) 0.4161(15) 0.0462 Uani
O8 O -0.5000 0.130(5) 0.2500 0.0536 Uani
loop_
_atom_site_aniso_label
_atom_site_aniso_U_11
_atom_site_aniso_U_22
_atom_site_aniso_U_33
_atom_site_aniso_U_23
_atom_site_aniso_U_13
_atom_site_aniso_U_12
Mn1 0.0446(7) 0.0276(6) 0.0208(6) 0.0010(4) 0.0158(5) 0.0001(4)
O1 0.057(3) 0.033(3) 0.028(3) -0.002(2) 0.018(2) -0.009(2)
O2 0.071(4) 0.036(3) 0.026(3) 0.000(2) 0.025(3) -0.008(3)
O3 0.048(3) 0.036(3) 0.017(2) 0.0143(19) 0.007(2) -0.002(2)
O4 0.059(3) 0.025(3) 0.023(2) 0.0033(19) 0.016(2) -0.003(2)
C1 0.037(4) 0.038(4) 0.025(3) -0.002(3) 0.011(3) -0.001(3)
C2 0.040(4) 0.031(4) 0.018(3) 0.001(3) 0.011(3) -0.002(3)
N1 0.047(4) 0.032(3) 0.023(3) 0.000(2) 0.012(3) 0.003(3)
N2 0.050(4) 0.034(3) 0.024(3) -0.004(2) 0.018(3) -0.001(3)
C3 0.053(5) 0.034(4) 0.027(3) -0.002(3) 0.021(3) -0.004(3)
C4 0.039(4) 0.037(4) 0.022(3) -0.003(3) 0.012(3) -0.005(3)
C5 0.046(4) 0.025(3) 0.031(3) -0.005(3) 0.021(3) -0.005(3)
C6 0.043(4) 0.032(4) 0.025(3) -0.001(3) 0.017(3) -0.004(3)
C7 0.051(4) 0.023(3) 0.032(4) -0.008(3) 0.012(3) -0.005(3)
C8 0.041(4) 0.032(4) 0.026(3) 0.011(3) 0.005(3) 0.002(3)
C9 0.043(4) 0.040(4) 0.026(3) -0.007(3) 0.014(3) -0.004(3)
C10 0.050(4) 0.028(4) 0.030(4) -0.010(3) 0.018(3) -0.005(3)
O5 0.052(6) 0.031(6) 0.022(7) 0.008(5) 0.014(6) 0.002(4)
C11 0.043(5) 0.063(6) 0.062(6) 0.035(5) 0.012(4) -0.004(4)
C12 0.059(6) 0.065(6) 0.048(5) 0.031(4) 0.023(4) 0.016(4)
C13 0.064(6) 0.039(7) 0.044(6) 0.008(5) 0.012(5) 0.004(5)
C14 0.043(5) 0.044(5) 0.061(6) 0.022(4) 0.018(4) 0.001(4)
Mn1A 0.0446 0.0276 0.0208 -0.001 0.0158 -0.0001
Mn1B 0.0446 0.0276 0.0208 0.001 0.0158 0.0001
Mn1C 0.0446 0.0276 0.0208 -0.001 0.0158 -0.0001
Mn1F 0.0446 0.0276 0.0208 0.001 0.0158 0.0001
Mn1G 0.0446 0.0276 0.0208 -0.001 0.0158 -0.0001
O1A 0.057 0.033 0.028 0.002 0.018 0.009
O1B 0.057 0.033 0.028 -0.002 0.018 -0.009
O1C 0.057 0.033 0.028 0.002 0.018 0.009
O2A 0.071 0.036 0.026 0 0.025 0.008
O2B 0.071 0.036 0.026 0 0.025 -0.008
O2C 0.071 0.036 0.026 0 0.025 0.008
O3A 0.048 0.036 0.017 -0.0143 0.007 0.002
O3F 0.048 0.036 0.017 0.0143 0.007 -0.002
O3G 0.048 0.036 0.017 -0.0143 0.007 0.002
O4A 0.059 0.025 0.023 -0.0033 0.016 0.003
C1A 0.037 0.038 0.025 0.002 0.011 0.001
C2A 0.04 0.031 0.018 -0.001 0.011 0.002
N1A 0.047 0.032 0.023 0 0.012 -0.003
N2A 0.05 0.034 0.024 0.004 0.018 0.001
C3A 0.053 0.034 0.027 0.002 0.021 0.004
C4A 0.039 0.037 0.022 0.003 0.012 0.005
C5A 0.046 0.025 0.031 0.005 0.021 0.005
C6A 0.043 0.032 0.025 0.001 0.017 0.004
C7A 0.051 0.023 0.032 0.008 0.012 0.005
C8A 0.041 0.032 0.026 -0.011 0.005 -0.002
C9A 0.043 0.04 0.026 0.007 0.014 0.004
C10A 0.05 0.028 0.03 0.01 0.018 0.005
O5A 0.052 0.031 0.022 -0.008 0.014 -0.002
C11A 0.043 0.063 0.062 -0.035 0.012 0.004
C12A 0.059 0.065 0.048 -0.031 0.023 -0.016
C13A 0.064 0.039 0.044 -0.008 0.012 -0.004
C14A 0.043 0.044 0.061 -0.022 0.018 -0.001
N3 0.052(6) 0.034(6) 0.024(6) 0.007(7) 0.003(7) -0.001(7)
C15 0.045(4) 0.06(2) 0.055(8) 0.033(4) 0.029(3) 0.015(4)
O6 0.065(4) 0.048(4) 0.037(4) 0.015(5) 0.008(5) 0.002(5)
C16 0.064(3) 0.053(4) 0.041(3) 0.028(9) 0.011(5) 0.005(4)
C17 0.054(6) 0.063(9) 0.051(2) -0.032(4) -0.020(10) 0.012(4)
O7 0.058(6) 0.046(6) 0.025(6) 0.009(8) 0.004(7) -0.002(7)
O8 0.076(5) 0.045(5) 0.027(6) 0.007(7) 0.004(7) 0.002(7)
loop_
_geom_bond_atom_site_label_1
_geom_bond_atom_site_label_2
_geom_bond_site_symmetry_1
_geom_bond_site_symmetry_2
Mn1 N1 1_555 1_555
O1 C3 1_555 1_555
O2 C3 1_555 1_555
O3 C8 1_555 1_555
O4 C8 1_555 1_555
C1 N2 1_555 1_555
C2 C5 1_555 1_555
N1 C13 1_555 1_555
N2 H1 1_555 1_555
C3 C4 1_555 1_555
C4 C6 1_555 1_555
C5 C1 1_555 1_555
H2 C5 1_555 1_555
C6 C2 1_555 1_555
H3 C6 1_555 1_555
C7 C10 1_555 1_555
C8 C2 1_555 1_555
C9 C1 1_555 1_555
H4 C9 1_555 1_555
C10 N2 1_555 1_555
H5 C10 1_555 1_555
H6 C10 1_555 1_555
O5 Mn1 1_555 1_555
C11 C7 1_555 1_555
H7 C11 1_555 1_555
C12 C7 1_555 1_555
H8 C12 1_555 1_555
C13 C12 1_555 1_555
H9 C13 1_555 1_555
C14 N1 1_555 1_555
H10 C14 1_555 1_555
N3 C15 1_555 1_555
C15 H11 1_555 1_555
O6 C15 1_555 1_555
C16 N3 1_555 1_555
H12 C16 1_555 1_555
H13 C16 1_555 1_555
H14 C16 1_555 1_555
C17 N3 1_555 1_555
H15 C17 1_555 1_555
H16 C17 1_555 1_555
H17 C17 1_555 1_555
Mn1A O4 1_555 1_555
Mn1B O1 1_555 1_555
Mn1C O1A 1_555 1_555
Mn1F O3A 1_555 1_555
Mn1G O3 1_555 1_555
O1A C3A 1_555 1_555
O1B Mn1 1_555 1_555
O1C Mn1A 1_555 1_555
O2A Mn1C 1_555 1_555
O2B Mn1 1_555 1_555
O2C Mn1A 1_555 1_555
O3A C8A 1_555 1_555
O3F Mn1A 1_555 1_555
O3G Mn1 1_555 1_555
O4A Mn1 1_555 1_555
C1A N2A 1_555 1_555
C2A C5A 1_555 1_555
N1A Mn1A 1_555 1_555
N2A H1A 1_555 1_555
C3A O2A 1_555 1_555
C4A C3A 1_555 1_555
C5A C1A 1_555 1_555
H2A C5A 1_555 1_555
C6A C2A 1_555 1_555
H3A C6A 1_555 1_555
C7A C10A 1_555 1_555
C8A O4A 1_555 1_555
C9A C1A 1_555 1_555
H4A C9A 1_555 1_555
C10A N2A 1_555 1_555
H5A C10A 1_555 1_555
H6A C10A 1_555 1_555
O5A Mn1A 1_555 1_555
C11A C7A 1_555 1_555
H7A C11A 1_555 1_555
C12A C7A 1_555 1_555
H8A C12A 1_555 1_555
C13A N1A 1_555 1_555
H9A C13A 1_555 1_555
C14A N1A 1_555 1_555
H10A C14A 1_555 1_555
O2 Mn1B 1_555 1_555
C4 C9 1_555 1_555
C11 C14 1_555 1_555
C2A C8A 1_555 1_555
C4A C6A 1_555 1_555
C4A C9A 1_555 1_555
C11A C14A 1_555 1_555
C12A C13A 1_555 1_555

#END
