
#######################################################################
#
#                 Cambridge Crystallographic Data Centre
#                                CCDC 
#
#######################################################################
#
# If this CIF has been generated from an entry in the Cambridge 
# Structural Database, then it will include bibliographic, chemical, 
# crystal, experimental, refinement or atomic coordinate data resulting 
# from the CCDC's data processing and validation procedures.
#
#######################################################################

data_LUFNAC05
_chemical_formula_moiety         
'(C28 H24 Mn2 N4 O10)n,2n(C3 H7 N1 O1),3n(H2 O1)'
_chemical_name_systematic        
'catena-(bis(\m~4~-5-((Pyridin-4-ylmethyl)amino)isophthalato)-diaqua-di-manganese(ii) dimethylformamide solvate trihydrate)'
_symmetry_cell_setting           monoclinic
_symmetry_space_group_name_H-M   'C 2/c'
_symmetry_Int_Tables_number      15
_space_group_name_Hall           '-C 2yc'
loop_
_symmetry_equiv_pos_site_id
_symmetry_equiv_pos_as_xyz
1 x,y,z
2 -x,y,1/2-z
3 1/2+x,1/2+y,z
4 1/2-x,1/2+y,1/2-z
5 -x,-y,-z
6 x,-y,1/2+z
7 1/2-x,1/2-y,-z
8 1/2+x,1/2-y,1/2+z
_cell_length_a                   18.343(6)
_cell_length_b                   15.054(4)
_cell_length_c                   16.343(5)
_cell_angle_alpha                90
_cell_angle_beta                 111.808(4)
_cell_angle_gamma                90
_cell_volume                     4189.91
_exptl_crystal_colour            'pale yellow'
_exptl_crystal_description       block
_cell_formula_units_Z            4
loop_
_atom_site_label
_atom_site_type_symbol
_atom_site_fract_x
_atom_site_fract_y
_atom_site_fract_z
_atom_site_U_iso_or_equiv
_atom_site_thermal_displace_type
Mn1 Mn 0.27551(7) 0.10879(6) 0.54688(6) 0.0343 Uani
O1 O 0.2863(3) -0.0252(3) 0.1638(3) 0.0322 Uani
O2 O 0.2591(3) 0.0431(3) 0.0360(3) 0.0324 Uani
O3 O 0.2535(3) 0.1330(3) 0.4119(3) 0.0290 Uani
C1 C 0.2250(5) 0.2008(4) 0.2742(4) 0.0357 Uani
O4 O 0.1972(3) 0.2666(3) 0.3914(3) 0.0382 Uani
C2 C 0.2022(4) 0.2800(5) 0.1362(4) 0.0368 Uani
N1 N 0.1828(4) 0.3550(4) 0.0853(4) 0.0426 Uani
H1 H 0.1908 0.3560 0.0366 0.0510 Uiso
C3 C 0.2461(5) 0.1267(4) 0.1548(4) 0.0355 Uani
N2 N -0.0959(4) 0.4086(4) 0.0688(4) 0.0321 Uani
C4 C 0.2468(4) 0.1256(4) 0.2406(4) 0.0329 Uani
H2 H 0.2619 0.0746 0.2748 0.0390 Uiso
C5 C 0.2658(5) 0.0434(5) 0.1166(4) 0.0365 Uani
C6 C 0.0644(5) 0.4229(4) 0.0963(5) 0.0391 Uani
C7 C 0.2021(4) 0.2779(4) 0.2224(4) 0.0365 Uani
H3 H 0.1867 0.3280 0.2452 0.0430 Uiso
C8 C 0.2253(4) 0.2009(4) 0.3661(4) 0.0325 Uani
C9 C 0.1497(5) 0.4318(5) 0.1100(5) 0.0413 Uani
H4 H 0.1559 0.4822 0.0762 0.0550 Uiso
H5 H 0.1792 0.4444 0.1717 0.0550 Uiso
C10 C 0.2232(5) 0.2023(5) 0.1033(5) 0.0392 Uani
H6 H 0.2218 0.2014 0.0458 0.0770 Uiso
O5 O 0.1492(4) 0.1213(5) 0.5232(5) 0.0292 Uani
C11 C 0.0303(6) 0.4756(7) 0.1395(6) 0.0346 Uani
H7 H 0.0601 0.5174 0.1801 0.0810 Uiso
C12 C 0.0153(6) 0.3637(6) 0.0350(7) 0.0507 Uani
H8 H 0.0349 0.3280 0.0015 0.0800 Uiso
C13 C -0.0490(6) 0.4669(7) 0.1231(6) 0.0375 Uani
H9 H -0.0707 0.5050 0.1526 0.0860 Uiso
C14 C -0.0618(6) 0.3587(6) 0.0248(7) 0.0358 Uani
H10 H -0.0932 0.3177 -0.0156 0.0760 Uiso
Mn1F Mn 0.22449(7) 0.39121(6) 0.45312(6) 0.0343 Uani
Mn1E Mn 0.27551(7) -0.10879(6) 0.04688(6) 0.0343 Uani
Mn1G Mn -0.22449(7) 0.39121(6) 0.04688(6) 0.0343 Uani
Mn1C Mn 0.22449(7) 0.60879(6) 0.95312(6) 0.0343 Uani
Mn1A Mn 0.72449(7) 0.10879(6) 0.95312(6) 0.0343 Uani
O1F O 0.2137(3) 0.5252(3) 0.8362(3) 0.0322 Uani
O1E O 0.2863(3) 0.0252(3) 0.6638(3) 0.0322 Uani
O1C O 0.2137(3) 0.4748(3) 0.3362(3) 0.0322 Uani
O2F O 0.2409(3) 0.4569(3) 0.9640(3) 0.0324 Uani
O2E O 0.2591(3) -0.0431(3) 0.5360(3) 0.0324 Uani
O2C O 0.2409(3) 0.5431(3) 0.4640(3) 0.0324 Uani
O3F O 0.2465(3) 0.3670(3) 0.5881(3) 0.0290 Uani
C1F C 0.2750(5) 0.2992(4) 0.7258(4) 0.0357 Uani
O4F O 0.3028(3) 0.2334(3) 0.6086(3) 0.0382 Uani
C2F C 0.2978(4) 0.2200(5) 0.8638(4) 0.0368 Uani
N1F N 0.3172(4) 0.1450(4) 0.9147(4) 0.0426 Uani
H1F H 0.3092 0.1440 0.9634 0.0510 Uiso
C3F C 0.2539(5) 0.3733(4) 0.8452(4) 0.0355 Uani
N2F N 0.5959(4) 0.0914(4) 0.9312(4) 0.0321 Uani
N2G N 0.4041(4) 0.0914(4) 0.5688(4) 0.0321 Uani
N2A N 0.0959(4) 0.4086(4) 0.4312(4) 0.0321 Uani
C4F C 0.2532(4) 0.3744(4) 0.7594(4) 0.0329 Uani
H2F H 0.2381 0.4254 0.7252 0.0390 Uiso
C5F C 0.2342(5) 0.4566(5) 0.8834(4) 0.0365 Uani
C6F C 0.4356(5) 0.0771(4) 0.9037(5) 0.0391 Uani
C7F C 0.2979(4) 0.2221(4) 0.7776(4) 0.0365 Uani
H3F H 0.3133 0.1720 0.7548 0.0430 Uiso
C8F C 0.2747(4) 0.2991(4) 0.6339(4) 0.0325 Uani
C9F C 0.3503(5) 0.0682(5) 0.8900(5) 0.0413 Uani
H4F H 0.3441 0.0178 0.9238 0.0550 Uiso
H5F H 0.3208 0.0556 0.8283 0.0550 Uiso
C10F C 0.2768(5) 0.2977(5) 0.8967(5) 0.0392 Uani
H6F H 0.2782 0.2986 0.9542 0.0770 Uiso
O5F O 0.3508(4) 0.3787(5) 0.4768(5) 0.0292 Uani
C11F C 0.4697(6) 0.0244(7) 0.8605(6) 0.0346 Uani
H7F H 0.4399 -0.0174 0.8199 0.0810 Uiso
C12F C 0.4847(6) 0.1363(6) 0.9650(7) 0.0507 Uani
H8F H 0.4651 0.1720 0.9985 0.0800 Uiso
C13F C 0.5490(6) 0.0331(7) 0.8769(6) 0.0375 Uani
H9F H 0.5707 -0.0050 0.8474 0.0860 Uiso
C14F C 0.5618(6) 0.1413(6) 0.9752(7) 0.0358 Uani
H10F H 0.5932 0.1823 1.0156 0.0760 Uiso
N3 N 0.1105(7) 0.1536(18) 0.7686(16) 0.0543 Uani
C15 C 0.1141(18) 0.162(3) 0.8521(19) 0.0316 Uani
H11 H 0.1278 0.1119 0.8880 0.0870 Uiso
O6 O 0.1002(13) 0.233(3) 0.8849(15) 0.0459 Uani
C16 C 0.0907(15) 0.229(3) 0.709(3) 0.0630 Uani
H12 H 0.0978 0.2133 0.6552 0.0910 Uiso
H13 H 0.1242 0.2784 0.7359 0.0910 Uiso
H14 H 0.0369 0.2457 0.6954 0.0910 Uiso
C17 C 0.1318(19) 0.069(2) 0.740(3) 0.0595 Uani
H15 H 0.1338 0.0763 0.6823 0.0740 Uiso
H16 H 0.0932 0.0252 0.7374 0.0740 Uiso
H17 H 0.1823 0.0508 0.7806 0.0740 Uiso
O7 O -0.0155(13) 0.113(2) 0.4173(13) 0.0523 Uani
O8 O 0.0000 0.135(3) 0.2500 0.0608 Uani
loop_
_atom_site_aniso_label
_atom_site_aniso_U_11
_atom_site_aniso_U_22
_atom_site_aniso_U_33
_atom_site_aniso_U_23
_atom_site_aniso_U_13
_atom_site_aniso_U_12
Mn1 0.0561(7) 0.0256(5) 0.0230(5) 0.0015(4) 0.0169(4) 0.0005(5)
O1 0.046 0.026 0.029 -0.0009 0.019 0.004
O2 0.049 0.029 0.024 0.002 0.019 0.003
O3 0.041(3) 0.032(2) 0.019(2) 0.0015(18) 0.017(2) 0.006(2)
C1 0.062(5) 0.028(3) 0.021(3) 0.005(2) 0.020(3) 0.002(3)
O4 0.068 0.026 0.027 -0.0028 0.025 0.004
C2 0.052(4) 0.035(3) 0.025(3) 0.005(3) 0.016(3) 0.002(3)
N1 0.074(5) 0.036(3) 0.029(3) 0.006(2) 0.032(3) 0.011(3)
C3 0.061 0.029 0.023 0.004 0.023 0.007
N2 0.048 0.029 0.022 -0.001 0.016 -0.004
C4 0.057(4) 0.025(3) 0.023(3) 0.001(2) 0.022(3) 0.001(3)
C5 0.056 0.037 0.022 -0.002 0.021 0.005
C6 0.051 0.026 0.036 -0.007 0.011 0.001
C7 0.058(5) 0.028(3) 0.030(3) 0.000(3) 0.024(3) 0.004(3)
C8 0.058(4) 0.025(3) 0.017(3) 0.001(2) 0.017(3) -0.003(3)
C9 0.068(5) 0.030(3) 0.033(4) 0.007(3) 0.027(3) 0.003(3)
C10 0.056 0.037 0.029 0.004 0.021 0.004
O5 0.045(5) 0.023(6) 0.021(6) 0.002(4) 0.014(4) -0.002(4)
C11 0.048 0.024 0.032 -0.008 0.015 -0.002
C12 0.068 0.049 0.029 -0.008 0.011 0.003
C13 0.047 0.026 0.032 -0.009 0.006 -0.002
C14 0.046 0.032 0.028 -0.002 0.012 0.002
Mn1F 0.0561 0.0256 0.023 0.0015 0.0169 0.0005
Mn1E 0.0561 0.0256 0.023 -0.0015 0.0169 -0.0005
Mn1G 0.0561 0.0256 0.023 -0.0015 0.0169 -0.0005
Mn1C 0.0561 0.0256 0.023 -0.0015 0.0169 -0.0005
Mn1A 0.0561 0.0256 0.023 -0.0015 0.0169 -0.0005
O1F 0.046 0.026 0.029 -0.0009 0.019 0.004
O1E 0.046 0.026 0.029 0.0009 0.019 -0.004
O1C 0.046 0.026 0.029 0.0009 0.019 -0.004
O2F 0.049 0.029 0.024 0.002 0.019 0.003
O2E 0.049 0.029 0.024 -0.002 0.019 -0.003
O2C 0.049 0.029 0.024 -0.002 0.019 -0.003
O3F 0.041 0.032 0.019 0.0015 0.017 0.006
C1F 0.062 0.028 0.021 0.005 0.02 0.002
O4F 0.068 0.026 0.027 -0.0028 0.025 0.004
C2F 0.052 0.035 0.025 0.005 0.016 0.002
N1F 0.074 0.036 0.029 0.006 0.032 0.011
C3F 0.061 0.029 0.023 0.004 0.023 0.007
N2F 0.048 0.029 0.022 -0.001 0.016 -0.004
N2G 0.048 0.029 0.022 0.001 0.016 0.004
N2A 0.048 0.029 0.022 0.001 0.016 0.004
C4F 0.057 0.025 0.023 0.001 0.022 0.001
C5F 0.056 0.037 0.022 -0.002 0.021 0.005
C6F 0.051 0.026 0.036 -0.007 0.011 0.001
C7F 0.058 0.028 0.03 0 0.024 0.004
C8F 0.058 0.025 0.017 0.001 0.017 -0.003
C9F 0.068 0.03 0.033 0.007 0.027 0.003
C10F 0.056 0.037 0.029 0.004 0.021 0.004
O5F 0.045 0.023 0.021 0.002 0.014 -0.002
C11F 0.048 0.024 0.032 -0.008 0.015 -0.002
C12F 0.068 0.049 0.029 -0.008 0.011 0.003
C13F 0.047 0.026 0.032 -0.009 0.006 -0.002
C14F 0.046 0.032 0.028 -0.002 0.012 0.002
N3 0.066(5) 0.046(5) 0.037(5) 0.006(4) 0.003(4) -0.002(4)
C15 0.046(6) 0.023(6) 0.021(6) -0.004(7) 0.007(7) -0.002(7)
O6 0.063(8) 0.048(7) 0.021(8) 0.015(9) 0.009(9) -0.001(9)
C16 0.082(6) 0.058(6) 0.036(6) 0.014(7) 0.007(8) -0.002(7)
C17 0.073(4) 0.052(5) 0.042(4) 0.016(7) 0.008(6) -0.002(7)
O7 0.077(7) 0.046(6) 0.023(7) 0.013(8) 0.006(7) -0.002(8)
O8 0.076(7) 0.058(7) 0.035(7) 0.021(8) 0.005(8) 0.003(8)
loop_
_geom_bond_atom_site_label_1
_geom_bond_atom_site_label_2
_geom_bond_site_symmetry_1
_geom_bond_site_symmetry_2
Mn1 O3 1_555 1_555
O1 C5 1_555 1_555
O2 C5 1_555 1_555
O3 C8 1_555 1_555
C1 C4 1_555 1_555
O4 C8 1_555 1_555
C2 N1 1_555 1_555
N1 H1 1_555 1_555
C3 C4 1_555 1_555
N2 C13 1_555 1_555
C4 H2 1_555 1_555
C5 C3 1_555 1_555
C6 C9 1_555 1_555
C7 C1 1_555 1_555
H3 C7 1_555 1_555
C8 C1 1_555 1_555
C9 N1 1_555 1_555
H4 C9 1_555 1_555
H5 C9 1_555 1_555
C10 C2 1_555 1_555
H6 C10 1_555 1_555
O5 Mn1 1_555 1_555
C11 C6 1_555 1_555
H7 C11 1_555 1_555
C12 C6 1_555 1_555
H8 C12 1_555 1_555
C13 C11 1_555 1_555
H9 C13 1_555 1_555
C14 N2 1_555 1_555
H10 C14 1_555 1_555
N3 C15 1_555 1_555
C15 H11 1_555 1_555
O6 C15 1_555 1_555
C16 N3 1_555 1_555
H12 C16 1_555 1_555
H13 C16 1_555 1_555
H14 C16 1_555 1_555
C17 N3 1_555 1_555
H15 C17 1_555 1_555
H16 C17 1_555 1_555
H17 C17 1_555 1_555
Mn1F O4 1_555 1_555
Mn1E O1 1_555 1_555
Mn1G N2 1_555 1_555
Mn1C O1F 1_555 1_555
Mn1A N2F 1_555 1_555
O1F C5F 1_555 1_555
O1E Mn1 1_555 1_555
O1C Mn1F 1_555 1_555
O2F Mn1C 1_555 1_555
O2E Mn1 1_555 1_555
O2C Mn1F 1_555 1_555
O3F Mn1F 1_555 1_555
C1F C4F 1_555 1_555
O4F Mn1 1_555 1_555
C2F N1F 1_555 1_555
N1F H1F 1_555 1_555
C3F C4F 1_555 1_555
N2F C13F 1_555 1_555
N2G Mn1 1_555 1_555
N2A Mn1F 1_555 1_555
C4F H2F 1_555 1_555
C5F O2F 1_555 1_555
C6F C9F 1_555 1_555
C7F C1F 1_555 1_555
H3F C7F 1_555 1_555
C8F O3F 1_555 1_555
C9F N1F 1_555 1_555
H4F C9F 1_555 1_555
H5F C9F 1_555 1_555
C10F C2F 1_555 1_555
H6F C10F 1_555 1_555
O5F Mn1F 1_555 1_555
C11F C6F 1_555 1_555
H7F C11F 1_555 1_555
C12F C6F 1_555 1_555
H8F C12F 1_555 1_555
C13F C11F 1_555 1_555
H9F C13F 1_555 1_555
C14F N2F 1_555 1_555
H10F C14F 1_555 1_555
O2 Mn1E 1_555 1_555
C2 C7 1_555 1_555
C3 C10 1_555 1_555
C12 C14 1_555 1_555
C1F C8F 1_555 1_555
O4F C8F 1_555 1_555
C2F C7F 1_555 1_555
C3F C5F 1_555 1_555
C3F C10F 1_555 1_555
C12F C14F 1_555 1_555

#END
