
#######################################################################
#
#                 Cambridge Crystallographic Data Centre
#                                CCDC 
#
#######################################################################
#
# If this CIF has been generated from an entry in the Cambridge 
# Structural Database, then it will include bibliographic, chemical, 
# crystal, experimental, refinement or atomic coordinate data resulting 
# from the CCDC's data processing and validation procedures.
#
#######################################################################

data_LUFNAC04
_chemical_formula_moiety         
'(C28 H24 Mn2 N4 O10)n,2n(C3 H7 N1 O1),3n(H2 O1)'
_chemical_name_systematic        
'catena-(bis(\m~4~-5-((Pyridin-4-ylmethyl)amino)isophthalato)-diaqua-di-manganese(ii) dimethylformamide solvate trihydrate)'
_symmetry_cell_setting           monoclinic
_symmetry_space_group_name_H-M   'C 2/c'
_symmetry_Int_Tables_number      15
_space_group_name_Hall           '-C 2yc'
loop_
_symmetry_equiv_pos_site_id
_symmetry_equiv_pos_as_xyz
1 x,y,z
2 -x,y,1/2-z
3 1/2+x,1/2+y,z
4 1/2-x,1/2+y,1/2-z
5 -x,-y,-z
6 x,-y,1/2+z
7 1/2-x,1/2-y,-z
8 1/2+x,1/2-y,1/2+z
_cell_length_a                   18.421(5)
_cell_length_b                   15.029(4)
_cell_length_c                   16.355(5)
_cell_angle_alpha                90
_cell_angle_beta                 111.668(6)
_cell_angle_gamma                90
_cell_volume                     4207.92
_exptl_crystal_colour            'pale yellow'
_exptl_crystal_description       block
_cell_formula_units_Z            4
loop_
_atom_site_label
_atom_site_type_symbol
_atom_site_fract_x
_atom_site_fract_y
_atom_site_fract_z
_atom_site_U_iso_or_equiv
_atom_site_thermal_displace_type
Mn1 Mn 0.27585(8) 0.10828(8) 0.54667(7) 0.0344 Uani
O1 O 0.2868(4) -0.0242(4) 0.1638(4) 0.0335 Uani
O2 O 0.2595(4) 0.0444(4) 0.0363(4) 0.0339 Uani
O3 O 0.1971(4) 0.2662(4) 0.3921(3) 0.0383 Uani
O4 O 0.2535(4) 0.1331(4) 0.4124(3) 0.0371 Uani
C1 C 0.2250(5) 0.2018(6) 0.2738(5) 0.0359 Uani
N1 N 0.1823(5) 0.3559(5) 0.0858(5) 0.0351 Uani
H1 H 0.1904 0.3570 0.0372 0.0390 Uiso
N2 N -0.0959(4) 0.4094(5) 0.0683(4) 0.0351 Uani
C2 C 0.2018(5) 0.2802(6) 0.1376(5) 0.0286 Uani
C3 C 0.2665(5) 0.0443(6) 0.1167(5) 0.0328 Uani
C4 C 0.2468(5) 0.1263(5) 0.2403(5) 0.0387 Uani
H2 H 0.2616 0.0751 0.2745 0.0330 Uiso
C5 C 0.2465(5) 0.1275(6) 0.1552(5) 0.0333 Uani
C6 C 0.2015(5) 0.2786(6) 0.2227(5) 0.0371 Uani
H3 H 0.1856 0.3284 0.2454 0.0340 Uiso
C7 C 0.2251(5) 0.2018(5) 0.3665(4) 0.0354 Uani
C8 C 0.2238(6) 0.2031(6) 0.1038(5) 0.0407 Uani
H4 H 0.2231 0.2030 0.0466 0.0400 Uiso
C9 C 0.0640(5) 0.4239(6) 0.0962(6) 0.0320 Uani
O5 O 0.1479(5) 0.1212(7) 0.5165(7) 0.0450 Uani
C10 C 0.1488(6) 0.4326(6) 0.1110(6) 0.0328 Uani
H5 H 0.1555 0.4837 0.0781 0.0380 Uiso
H6 H 0.1775 0.4444 0.1729 0.0380 Uiso
C11 C 0.0151(6) 0.3652(8) 0.0357(8) 0.0348 Uani
H7 H 0.0350 0.3288 0.0030 0.0630 Uiso
C12 C 0.0292(7) 0.4759(9) 0.1394(7) 0.0420 Uani
H8 H 0.0587 0.5174 0.1803 0.0680 Uiso
C13 C -0.0497(7) 0.4674(9) 0.1229(7) 0.0415 Uani
H9 H -0.0716 0.5054 0.1524 0.0660 Uiso
C14 C -0.0626(6) 0.3601(8) 0.0235(8) 0.0346 Uani
H10 H -0.0939 0.3203 -0.0182 0.0590 Uiso
Mn1F Mn 0.22415(8) 0.39172(8) 0.45333(7) 0.0344 Uani
Mn1E Mn 0.27585(8) -0.10828(8) 0.04667(7) 0.0344 Uani
Mn1G Mn -0.22415(8) 0.39172(8) 0.04667(7) 0.0344 Uani
Mn1C Mn 0.22415(8) 0.60828(8) 0.95333(7) 0.0344 Uani
Mn1A Mn 0.72415(8) 0.10828(8) 0.95333(7) 0.0344 Uani
O1F O 0.2132(4) 0.5242(4) 0.8362(4) 0.0335 Uani
O1E O 0.2868(4) 0.0242(4) 0.6638(4) 0.0335 Uani
O1C O 0.2132(4) 0.4758(4) 0.3362(4) 0.0335 Uani
O2F O 0.2405(4) 0.4556(4) 0.9637(4) 0.0339 Uani
O2E O 0.2595(4) -0.0444(4) 0.5363(4) 0.0339 Uani
O2C O 0.2405(4) 0.5444(4) 0.4637(4) 0.0339 Uani
O3F O 0.3029(4) 0.2338(4) 0.6079(3) 0.0383 Uani
O4F O 0.2465(4) 0.3669(4) 0.5876(3) 0.0371 Uani
C1F C 0.2750(5) 0.2982(6) 0.7262(5) 0.0359 Uani
N1F N 0.3177(5) 0.1441(5) 0.9142(5) 0.0351 Uani
H1F H 0.3096 0.1430 0.9628 0.0390 Uiso
N2F N 0.5959(4) 0.0906(5) 0.9317(4) 0.0351 Uani
N2G N 0.4041(4) 0.0906(5) 0.5683(4) 0.0351 Uani
N2A N 0.0959(4) 0.4094(5) 0.4317(4) 0.0351 Uani
C2F C 0.2982(5) 0.2198(6) 0.8624(5) 0.0286 Uani
C3F C 0.2335(5) 0.4557(6) 0.8833(5) 0.0328 Uani
C4F C 0.2532(5) 0.3737(5) 0.7597(5) 0.0387 Uani
H2F H 0.2384 0.4249 0.7255 0.0330 Uiso
C5F C 0.2535(5) 0.3725(6) 0.8448(5) 0.0333 Uani
C6F C 0.2985(5) 0.2214(6) 0.7773(5) 0.0371 Uani
H3F H 0.3144 0.1716 0.7546 0.0340 Uiso
C7F C 0.2749(5) 0.2982(5) 0.6335(4) 0.0354 Uani
C8F C 0.2762(6) 0.2969(6) 0.8962(5) 0.0407 Uani
H4F H 0.2769 0.2970 0.9534 0.0400 Uiso
C9F C 0.4360(5) 0.0761(6) 0.9038(6) 0.0320 Uani
O5F O 0.3521(5) 0.3788(7) 0.4835(7) 0.0450 Uani
C10F C 0.3512(6) 0.0674(6) 0.8890(6) 0.0328 Uani
H5F H 0.3445 0.0163 0.9219 0.0380 Uiso
H6F H 0.3225 0.0556 0.8271 0.0380 Uiso
C11F C 0.4849(6) 0.1348(8) 0.9643(8) 0.0348 Uani
H7F H 0.4650 0.1712 0.9970 0.0630 Uiso
C12F C 0.4708(7) 0.0241(9) 0.8606(7) 0.0420 Uani
H8F H 0.4413 -0.0174 0.8197 0.0680 Uiso
C13F C 0.5497(7) 0.0326(9) 0.8771(7) 0.0415 Uani
H9F H 0.5716 -0.0054 0.8476 0.0660 Uiso
C14F C 0.5626(6) 0.1399(8) 0.9765(8) 0.0346 Uani
H10F H 0.5939 0.1797 1.0182 0.0590 Uiso
N3 N 0.3929(13) 0.328(2) 0.2398(18) 0.0536 Uani
C15 C 0.3924(14) 0.333(3) 0.158(2) 0.0605 Uani
H11 H 0.3792 0.3869 0.1286 0.0950 Uiso
C16 C 0.4136(19) 0.243(3) 0.285(4) 0.0497 Uani
H12 H 0.4115 0.2473 0.3422 0.0990 Uiso
H13 H 0.4656 0.2267 0.2897 0.0990 Uiso
H14 H 0.3775 0.1982 0.2514 0.0990 Uiso
C17 C 0.3714(19) 0.405(3) 0.281(4) 0.0589 Uani
H15 H 0.3744 0.3890 0.3388 0.0880 Uiso
H16 H 0.3191 0.4228 0.2460 0.0880 Uiso
H17 H 0.4067 0.4531 0.2846 0.0880 Uiso
O6 O 0.409(3) 0.269(5) 0.119(3) 0.0476 Uani
O7 O -0.0149(9) 0.1047(11) 0.4156(9) 0.0460 Uani
O8 O 0.0000 0.1340(4) 0.2500 0.0400 Uani
loop_
_atom_site_aniso_label
_atom_site_aniso_U_11
_atom_site_aniso_U_22
_atom_site_aniso_U_33
_atom_site_aniso_U_23
_atom_site_aniso_U_13
_atom_site_aniso_U_12
Mn1 0.0512(11) 0.0311(6) 0.0226(7) 0.0013(6) 0.0156(7) 0.0003(7)
O1 0.057(4) 0.028(3) 0.021(3) 0.001(2) 0.021(3) 0.002(3)
O2 0.052(5) 0.034(4) 0.019(3) 0.004(2) 0.017(3) 0.002(3)
O3 0.054(4) 0.038(3) 0.025(3) 0.011(2) 0.017(3) 0.002(3)
O4 0.048(4) 0.034(3) 0.024(4) 0.011(3) 0.007(3) 0.004(3)
C1 0.041(5) 0.037(4) 0.023(3) 0.007(3) 0.004(3) 0.002(4)
N1 0.047(5) 0.029(4) 0.024(4) 0.017(3) 0.007(4) 0.004(3)
N2 0.042(4) 0.033(4) 0.025(3) 0.013(3) 0.006(3) 0.001(3)
C2 0.035(5) 0.026(4) 0.021(4) 0.012(3) 0.006(3) -0.001(3)
C3 0.044(5) 0.036(4) 0.021(3) 0.008(3) 0.015(3) -0.002(4)
C4 0.045(5) 0.035(4) 0.028(4) 0.013(3) 0.004(3) 0.002(3)
C5 0.037(5) 0.037(5) 0.021(4) 0.011(3) 0.005(3) 0.004(3)
C6 0.047(5) 0.034(4) 0.022(4) 0.008(3) 0.003(4) -0.001(4)
C7 0.042(4) 0.032(4) 0.025(3) 0.007(3) 0.004(3) 0.002(3)
C8 0.053(6) 0.035(5) 0.026(4) 0.012(3) 0.005(4) 0.002(4)
C9 0.041(5) 0.029(4) 0.022(4) 0.014(4) 0.007(4) 0.004(4)
O5 0.051(7) 0.041(7) 0.034(8) 0.011(6) 0.005(6) -0.002(5)
C10 0.044(5) 0.028(4) 0.022(4) 0.014(3) 0.007(4) -0.002(4)
C11 0.044(6) 0.032(7) 0.023(7) 0.015(6) 0.006(5) 0.003(5)
C12 0.056(7) 0.037(9) 0.026(5) 0.012(6) 0.007(5) 0.004(6)
C13 0.057(7) 0.035(8) 0.024(6) 0.007(6) 0.005(5) -0.002(6)
C14 0.041(6) 0.031(6) 0.027(7) 0.014(5) 0.007(5) -0.003(5)
Mn1F 0.0512 0.0311 0.0226 0.0013 0.0156 0.0003
Mn1E 0.0512 0.0311 0.0226 -0.0013 0.0156 -0.0003
Mn1G 0.0512 0.0311 0.0226 -0.0013 0.0156 -0.0003
Mn1C 0.0512 0.0311 0.0226 -0.0013 0.0156 -0.0003
Mn1A 0.0512 0.0311 0.0226 -0.0013 0.0156 -0.0003
O1F 0.057 0.028 0.021 0.001 0.021 0.002
O1E 0.057 0.028 0.021 -0.001 0.021 -0.002
O1C 0.057 0.028 0.021 -0.001 0.021 -0.002
O2F 0.052 0.034 0.019 0.004 0.017 0.002
O2E 0.052 0.034 0.019 -0.004 0.017 -0.002
O2C 0.052 0.034 0.019 -0.004 0.017 -0.002
O3F 0.054 0.038 0.025 0.011 0.017 0.002
O4F 0.048 0.034 0.024 0.011 0.007 0.004
C1F 0.041 0.037 0.023 0.007 0.004 0.002
N1F 0.047 0.029 0.024 0.017 0.007 0.004
N2F 0.042 0.033 0.025 0.013 0.006 0.001
N2G 0.042 0.033 0.025 -0.013 0.006 -0.001
N2A 0.042 0.033 0.025 -0.013 0.006 -0.001
C2F 0.035 0.026 0.021 0.012 0.006 -0.001
C3F 0.044 0.036 0.021 0.008 0.015 -0.002
C4F 0.045 0.035 0.028 0.013 0.004 0.002
C5F 0.037 0.037 0.021 0.011 0.005 0.004
C6F 0.047 0.034 0.022 0.008 0.003 -0.001
C7F 0.042 0.032 0.025 0.007 0.004 0.002
C8F 0.053 0.035 0.026 0.012 0.005 0.002
C9F 0.041 0.029 0.022 0.014 0.007 0.004
O5F 0.051 0.041 0.034 0.011 0.005 -0.002
C10F 0.044 0.028 0.022 0.014 0.007 -0.002
C11F 0.044 0.032 0.023 0.015 0.006 0.003
C12F 0.056 0.037 0.026 0.012 0.007 0.004
C13F 0.057 0.035 0.024 0.007 0.005 -0.002
C14F 0.041 0.031 0.027 0.014 0.007 -0.003
N3 0.074(5) 0.045(5) 0.032(5) 0.012(4) 0.008(4) 0.004(4)
C15 0.072(8) 0.054(8) 0.047(8) 0.021(7) 0.012(7) 0.005(7)
C16 0.064(7) 0.045(7) 0.031(7) 0.013(6) 0.007(6) 0.003(6)
C17 0.074(4) 0.056(4) 0.037(4) 0.012(5) 0.009(5) 0.002(5)
O6 0.066(5) 0.043(5) 0.026(5) 0.013(4) 0.008(4) -0.002(4)
O7 0.054(3) 0.043(4) 0.031(3) 0.006(4) 0.004(4) -0.002(4)
O8 0.051(7) 0.041(8) 0.021(7) 0.008(6) 0.005(6) 0.002(6)
loop_
_geom_bond_atom_site_label_1
_geom_bond_atom_site_label_2
_geom_bond_site_symmetry_1
_geom_bond_site_symmetry_2
Mn1 O4 1_555 1_555
O1 C3 1_555 1_555
O2 C3 1_555 1_555
O3 C7 1_555 1_555
O4 C7 1_555 1_555
C1 C4 1_555 1_555
N1 H1 1_555 1_555
N2 C13 1_555 1_555
C2 N1 1_555 1_555
C3 C5 1_555 1_555
C4 H2 1_555 1_555
C5 C4 1_555 1_555
C6 C1 1_555 1_555
H3 C6 1_555 1_555
C7 C1 1_555 1_555
C8 C2 1_555 1_555
H4 C8 1_555 1_555
C9 C10 1_555 1_555
O5 Mn1 1_555 1_555
C10 N1 1_555 1_555
H5 C10 1_555 1_555
H6 C10 1_555 1_555
C11 C9 1_555 1_555
H7 C11 1_555 1_555
C12 C9 1_555 1_555
H8 C12 1_555 1_555
C13 C12 1_555 1_555
H9 C13 1_555 1_555
C14 N2 1_555 1_555
H10 C14 1_555 1_555
N3 C15 1_555 1_555
C15 H11 1_555 1_555
C16 N3 1_555 1_555
H12 C16 1_555 1_555
H13 C16 1_555 1_555
H14 C16 1_555 1_555
C17 N3 1_555 1_555
H15 C17 1_555 1_555
H16 C17 1_555 1_555
H17 C17 1_555 1_555
O6 C15 1_555 1_555
Mn1F O3 1_555 1_555
Mn1E O1 1_555 1_555
Mn1G N2 1_555 1_555
Mn1C O1F 1_555 1_555
Mn1A N2F 1_555 1_555
O1F C3F 1_555 1_555
O1E Mn1 1_555 1_555
O1C Mn1F 1_555 1_555
O2F Mn1C 1_555 1_555
O2E Mn1 1_555 1_555
O2C Mn1F 1_555 1_555
O3F Mn1 1_555 1_555
O4F Mn1F 1_555 1_555
C1F C4F 1_555 1_555
N1F H1F 1_555 1_555
N2F C13F 1_555 1_555
N2G Mn1 1_555 1_555
N2A Mn1F 1_555 1_555
C2F N1F 1_555 1_555
C3F O2F 1_555 1_555
C4F H2F 1_555 1_555
C5F C3F 1_555 1_555
C6F C1F 1_555 1_555
H3F C6F 1_555 1_555
C7F O3F 1_555 1_555
C8F C2F 1_555 1_555
H4F C8F 1_555 1_555
C9F C10F 1_555 1_555
O5F Mn1F 1_555 1_555
C10F N1F 1_555 1_555
H5F C10F 1_555 1_555
H6F C10F 1_555 1_555
C11F C9F 1_555 1_555
H7F C11F 1_555 1_555
C12F C9F 1_555 1_555
H8F C12F 1_555 1_555
C13F C12F 1_555 1_555
H9F C13F 1_555 1_555
C14F N2F 1_555 1_555
H10F C14F 1_555 1_555
O2 Mn1E 1_555 1_555
C2 C6 1_555 1_555
C5 C8 1_555 1_555
C11 C14 1_555 1_555
O4F C7F 1_555 1_555
C1F C7F 1_555 1_555
C2F C6F 1_555 1_555
C4F C5F 1_555 1_555
C5F C8F 1_555 1_555
C11F C14F 1_555 1_555

#END
