
#######################################################################
#
#                 Cambridge Crystallographic Data Centre
#                                CCDC 
#
#######################################################################
#
# If this CIF has been generated from an entry in the Cambridge 
# Structural Database, then it will include bibliographic, chemical, 
# crystal, experimental, refinement or atomic coordinate data resulting 
# from the CCDC's data processing and validation procedures.
#
#######################################################################

data_LUFNEG
_chemical_formula_moiety         
'(C28 H24 Mn2 N4 O10)n,2n(C3 H7 N1 O1),n(H2 O1)'
_chemical_name_systematic        
'catena-(bis(\m~4~-5-((Pyridin-4-ylmethyl)amino)isophthalato)-diaqua-di-manganese(ii) dimethylformamide solvate monohydrate)'
_symmetry_cell_setting           monoclinic
_symmetry_space_group_name_H-M   'P 21/n'
_symmetry_Int_Tables_number      14
_space_group_name_Hall           '-P 2yn'
loop_
_symmetry_equiv_pos_site_id
_symmetry_equiv_pos_as_xyz
1 x,y,z
2 1/2-x,1/2+y,1/2-z
3 -x,-y,-z
4 1/2+x,1/2-y,1/2+z
_cell_length_a                   14.918(5)
_cell_length_b                   15.596(5)
_cell_length_c                   16.442(5)
_cell_angle_alpha                90
_cell_angle_beta                 105.606(5)
_cell_angle_gamma                90
_cell_volume                     3684.39
_exptl_crystal_colour            'pale yellow'
_exptl_crystal_description       block
_cell_formula_units_Z            4
loop_
_atom_site_label
_atom_site_type_symbol
_atom_site_fract_x
_atom_site_fract_y
_atom_site_fract_z
_atom_site_U_iso_or_equiv
_atom_site_thermal_displace_type
Mn1 Mn 0.74609(9) 0.06840(6) 0.03709(6) 0.0339 Uani
Mn2 Mn 0.72412(9) 0.35406(6) -0.04599(6) 0.0315 Uani
O1 O 0.7629(4) -0.0651(3) -0.3457(3) 0.0335 Uani
O2 O 0.7379(4) 0.4890(3) 0.3464(3) 0.0286 Uani
O3 O 0.7441(4) 0.4175(3) 0.4633(3) 0.0321 Uani
O4 O 0.7253(4) 0.3305(3) 0.0812(3) 0.0341 Uani
O5 O 0.7454(4) 0.0036(3) -0.4649(3) 0.0329 Uani
O6 O 0.7224(4) 0.0952(3) -0.0932(3) 0.0330 Uani
C1 C 0.7193(5) 0.1635(4) -0.2233(4) 0.0324 Uani
O7 O 0.6932(4) 0.2354(3) -0.1052(3) 0.0306 Uani
C2 C 0.7386(5) 0.0859(4) -0.3446(4) 0.0262 Uani
C3 C 0.7111(6) 0.1658(4) -0.1333(4) 0.0339 Uani
N1 N 1.0712(5) 0.1084(4) 0.4236(4) 0.0333 Uani
C4 C 0.7494(5) 0.0031(4) -0.3875(4) 0.0295 Uani
C5 C 0.7303(5) 0.3356(4) 0.3369(4) 0.0294 Uani
C6 C 0.7266(5) 0.0860(4) -0.2627(4) 0.0258 Uani
H1 H 0.7235 0.0345 -0.2351 0.0310 Uiso
C7 C 0.7377(5) 0.4188(4) 0.3853(4) 0.0296 Uani
N2 N 0.7177(5) 0.1030(3) 0.3745(4) 0.0258 Uani
H2 H 0.6844 0.0948 0.4081 0.0480 Uiso
O8 O 0.7550(5) 0.1922(3) 0.0898(3) 0.0340 Uani
C8 C 0.7323(5) 0.3364(4) 0.2526(4) 0.0289 Uani
H3 H 0.7351 0.3884 0.2256 0.0350 Uiso
N3 N 0.7372(5) 0.3180(3) -0.3881(4) 0.0344 Uani
H4 H 0.7616 0.3180 -0.4297 0.0490 Uiso
N4 N 0.4024(5) 0.4296(4) -0.4380(4) 0.0409 Uani
O9 O 0.8775(5) 0.3384(4) -0.0173(4) 0.0379 Uani
C9 C 0.7018(6) 0.3980(4) -0.3649(4) 0.0386 Uani
H5 H 0.7229 0.4042 -0.3040 0.0460 Uiso
H6 H 0.7285 0.4448 -0.3895 0.0460 Uiso
C10 C 0.7301(5) 0.2604(4) 0.2090(4) 0.0281 Uani
C11 C 0.7211(6) 0.1802(4) 0.3338(4) 0.0316 Uani
C12 C 0.7264(5) 0.1826(4) 0.2491(4) 0.0300 Uani
H7 H 0.7273 0.1316 0.2200 0.0360 Uiso
C13 C 0.7407(5) 0.1640(4) -0.3850(4) 0.0305 Uani
H8 H 0.7482 0.1640 -0.4393 0.0370 Uiso
C14 C 0.7802(6) 0.0346(4) 0.3589(4) 0.0295 Uani
H9 H 0.7607 0.0190 0.2997 0.0480 Uiso
H10 H 0.7733 -0.0157 0.3914 0.0480 Uiso
C15 C 0.7201(5) 0.2403(4) -0.2659(4) 0.0330 Uani
H11 H 0.7125 0.2917 -0.2398 0.0400 Uiso
C16 C 0.7319(5) 0.2418(4) -0.3469(4) 0.0306 Uani
C17 C 0.5560(7) 0.4827(5) -0.3764(5) 0.0501 Uani
H12 H 0.5932 0.5277 -0.3493 0.0600 Uiso
C18 C 0.7362(5) 0.2602(4) 0.1188(4) 0.0296 Uani
C19 C 0.5970(6) 0.4067(4) -0.3920(4) 0.0361 Uani
C20 C 0.7246(5) 0.2590(4) 0.3771(4) 0.0340 Uani
H13 H 0.7229 0.2591 0.4332 0.0410 Uiso
C21 C 0.8813(6) 0.0595(4) 0.3814(5) 0.0385 Uani
C22 C 0.9266(6) 0.0925(5) 0.4601(5) 0.0415 Uani
H14 H 0.8944 0.0997 0.5008 0.0500 Uiso
C23 C 1.0177(7) 0.1143(5) 0.4777(5) 0.0345 Uani
H15 H 1.0456 0.1350 0.5316 0.0540 Uiso
C24 C 0.9329(6) 0.0526(5) 0.3238(5) 0.0449 Uani
H16 H 0.9055 0.0316 0.2699 0.0530 Uiso
C25 C 0.4419(7) 0.3564(5) -0.4533(5) 0.0451 Uani
H17 H 0.4036 0.3116 -0.4791 0.0640 Uiso
C26 C 1.0247(7) 0.0765(5) 0.3457(5) 0.0489 Uani
H18 H 1.0576 0.0709 0.3054 0.0590 Uiso
C27 C 0.4621(7) 0.4919(5) -0.4005(5) 0.0477 Uani
H19 H 0.4373 0.5443 -0.3904 0.0570 Uiso
O10 O 0.5992(5) 0.0582(5) 0.0292(5) 0.0429 Uani
C28 C 0.5369(7) 0.3446(5) -0.4325(5) 0.0505 Uani
H20 H 0.5606 0.2931 -0.4462 0.0610 Uiso
Mn1A Mn 0.75391(9) 0.56840(6) 0.46291(6) 0.0339 Uani
Mn1C Mn 0.24609(9) 0.43160(6) -0.46291(6) 0.0339 Uani
Mn2A Mn 0.77588(9) -0.14594(6) -0.45401(6) 0.0315 Uani
Mn2C Mn 1.22412(9) 0.14594(6) 0.45401(6) 0.0315 Uani
O1A O 0.7371(4) 0.4349(3) -0.1543(3) 0.0335 Uani
O2A O 0.7621(4) -0.0110(3) 0.1536(3) 0.0286 Uani
O3A O 0.7559(4) -0.0825(3) 0.0367(3) 0.0321 Uani
O5A O 0.7546(4) 0.5036(3) -0.0351(3) 0.0329 Uani
N1C N 0.5712(5) 0.3916(4) -0.0764(4) 0.0333 Uani
N4C N 0.9024(5) 0.0704(4) 0.0620(4) 0.0409 Uani
N5 N 0.4693(6) 0.1491(4) 0.7979(6) 0.0438 Uani
C29 C 0.4626(9) 0.1797(10) 0.8793(8) 0.0343 Uani
H21 H 0.4564 0.2410 0.8778 0.0970 Uiso
H22 H 0.5178 0.1638 0.9221 0.0970 Uiso
H23 H 0.4093 0.1545 0.8921 0.0970 Uiso
O11 O 0.4805(10) 0.0166(7) 0.8469(8) 0.0487 Uani
C31 C 0.4724(9) 0.2037(8) 0.7289(7) 0.0536 Uani
H27 H 0.4649 0.2623 0.7439 0.0850 Uiso
H28 H 0.4231 0.1885 0.6802 0.0850 Uiso
H29 H 0.5312 0.1971 0.7163 0.0850 Uiso
C32 C 0.4774(10) 0.0652(7) 0.7887(9) 0.0488 Uani
H30 H 0.4806 0.0435 0.7369 0.0890 Uiso
N6 N 0.5317(7) 0.7724(8) 0.7683(7) 0.0495 Uani
C30 C 0.5195(10) 0.6839(10) 0.7438(15) 0.0448 Uani
H24 H 0.5091 0.6507 0.7896 0.0840 Uiso
H25 H 0.5744 0.6634 0.7301 0.0840 Uiso
H26 H 0.4669 0.6783 0.6954 0.0840 Uiso
O12 O 0.5444(14) 0.818(2) 0.6404(11) 0.0447 Uani
C33 C 0.5299(11) 0.7969(13) 0.8520(9) 0.0519 Uani
H31 H 0.5183 0.7472 0.8821 0.0960 Uiso
H32 H 0.4815 0.8383 0.8487 0.0960 Uiso
H33 H 0.5888 0.8214 0.8811 0.0960 Uiso
C34 C 0.5446(15) 0.8336(15) 0.7150(14) 0.0473 Uani
H34 H 0.5539 0.8898 0.7344 0.0910 Uiso
O13 O 0.9604(8) 0.4916(7) 0.0629(9) 0.0491 Uani
loop_
_atom_site_aniso_label
_atom_site_aniso_U_11
_atom_site_aniso_U_22
_atom_site_aniso_U_33
_atom_site_aniso_U_23
_atom_site_aniso_U_13
_atom_site_aniso_U_12
Mn1 0.0644(9) 0.0228(5) 0.0185(5) 0.0020(4) 0.0181(5) 0.0021(5)
Mn2 0.0533(9) 0.0283(5) 0.0196(5) 0.0013(4) 0.0211(5) -0.0005(5)
O1 0.063 0.022 0.019 0 0.017 0.004
O2 0.052 0.018 0.019 0.0005 0.015 0
O3 0.055 0.023 0.019 -0.0014 0.011 0.001
O4 0.065(4) 0.021(2) 0.020(2) 0.0064(19) 0.018(3) 0.010(2)
O5 0.054 0.026 0.02 0.003 0.012 0.007
O6 0.053(4) 0.031(2) 0.016(2) 0.0092(19) 0.011(2) 0.003(2)
C1 0.049(4) 0.026(3) 0.025(3) 0.003(3) 0.015(3) 0.003(3)
O7 0.052(5) 0.024(2) 0.019(3) 0.007(2) 0.015(3) -0.002(3)
C2 0.037(4) 0.021(3) 0.023(3) 0.001(3) 0.012(3) -0.006(3)
C3 0.049(5) 0.031(4) 0.022(4) 0.008(3) 0.010(3) -0.002(3)
N1 0.048 0.031 0.024 0.004 0.015 0.004
C4 0.048 0.028 0.013 0.002 0.009 0.004
C5 0.042 0.025 0.022 -0.002 0.01 -0.001
C6 0.033(4) 0.019(3) 0.026(4) 0.006(3) 0.009(3) 0.002(3)
C7 0.041 0.03 0.02 0.004 0.012 -0.001
N2 0.043(5) 0.019(3) 0.023(3) -0.001(2) 0.022(3) -0.001(3)
O8 0.064(6) 0.024(3) 0.016(3) 0.005(2) 0.014(3) 0.002(3)
C8 0.051 0.016 0.022 0 0.014 0.006
N3 0.065(6) 0.018(3) 0.020(3) -0.002(2) 0.011(3) 0.005(3)
N4 0.069 0.028 0.028 -0.002 0.017 0.001
O9 0.057(5) 0.035(4) 0.024(5) 0.008(3) 0.015(4) 0.002(4)
C9 0.075 0.026 0.017 -0.005 0.016 -0.003
C10 0.044(5) 0.026(3) 0.015(3) 0.003(3) 0.009(3) 0.005(3)
C11 0.056(5) 0.024(3) 0.016(3) 0.003(3) 0.012(3) 0.002(3)
C12 0.048(5) 0.022(3) 0.022(3) -0.003(3) 0.013(3) 0.003(3)
C13 0.051(5) 0.023(3) 0.020(3) 0.001(3) 0.014(3) -0.003(3)
C14 0.047(6) 0.025(4) 0.021(4) 0.003(3) 0.017(4) -0.002(4)
C15 0.054(5) 0.022(3) 0.026(4) 0.002(3) 0.016(3) 0.002(3)
C16 0.051(5) 0.024(3) 0.019(3) 0.004(3) 0.013(3) 0.005(3)
C17 0.07 0.039 0.043 -0.012 0.018 -0.009
C18 0.054(5) 0.018(3) 0.017(3) -0.004(3) 0.010(3) 0.000(3)
C19 0.07 0.024 0.019 0.002 0.02 -0.007
C20 0.06 0.027 0.014 0 0.008 -0.006
C21 0.072(6) 0.021(3) 0.027(4) 0.006(3) 0.021(4) 0.005(4)
C22 0.062 0.041 0.023 -0.003 0.014 0.001
C23 0.051 0.036 0.018 -0.004 0.012 0.002
C24 0.066 0.041 0.03 -0.006 0.017 -0.001
C25 0.058 0.033 0.044 -0.012 0.013 -0.006
C26 0.08 0.043 0.028 -0.004 0.022 0
C27 0.067 0.033 0.041 -0.007 0.011 0
O10 0.062(5) 0.045(6) 0.022(7) -0.004(5) 0.012(5) 0.004(5)
C28 0.063 0.041 0.045 -0.018 0.01 0.004
Mn1A 0.0644 0.0228 0.0185 -0.002 0.0181 -0.0021
Mn1C 0.0644 0.0228 0.0185 -0.002 0.0181 -0.0021
Mn2A 0.0533 0.0283 0.0196 -0.0013 0.0211 0.0005
Mn2C 0.0533 0.0283 0.0196 -0.0013 0.0211 0.0005
O1A 0.063 0.022 0.019 0 0.017 -0.004
O2A 0.052 0.018 0.019 -0.0005 0.015 0
O3A 0.055 0.023 0.019 0.0014 0.011 -0.001
O5A 0.054 0.026 0.02 -0.003 0.012 -0.007
N1C 0.048 0.031 0.024 -0.004 0.015 -0.004
N4C 0.069 0.028 0.028 0.002 0.017 -0.001
N5 0.058(5) 0.036(4) 0.043(7) 0.006(4) 0.023(5) 0.006(4)
C29 0.051(9) 0.033(19) 0.022(17) -0.002(16) 0.015(9) 0.005(10)
O11 0.066(12) 0.033(10) 0.047(18) -0.004(10) 0.015(12) -0.004(9)
C31 0.082(9) 0.049(12) 0.026(8) 0.015(9) 0.008(7) 0.004(9)
C32 0.075(12) 0.045(11) 0.026(15) 0.019(10) 0.013(11) 0.005(9)
N6 0.069(7) 0.033(10) 0.045(9) -0.006(8) 0.013(7) 0.004(7)
C30 0.061(5) 0.045(5) 0.029(5) -0.004(2) 0.013(2) 0.003(2)
O12 0.064(5) 0.042(5) 0.024(5) 0.008(3) 0.005(3) -0.003(3)
C33 0.079(12) 0.043(3) 0.032(16) -0.016(18) 0.012(11) 0.006(14)
C34 0.071(4) 0.041(4) 0.027(4) 0.014(3) 0.008(3) 0.004(3)
O13 0.074(10) 0.046(11) 0.027(15) -0.004(10) 0.013(9) 0.003(9)
loop_
_geom_bond_atom_site_label_1
_geom_bond_atom_site_label_2
_geom_bond_site_symmetry_1
_geom_bond_site_symmetry_2
Mn1 O6 1_555 1_555
Mn2 O4 1_555 1_555
O1 C4 1_555 1_555
O2 C7 1_555 1_555
O3 C7 1_555 1_555
O4 C18 1_555 1_555
O5 C4 1_555 1_555
O6 C3 1_555 1_555
C1 C3 1_555 1_555
O7 Mn2 1_555 1_555
C2 C4 1_555 1_555
C3 O7 1_555 1_555
N1 C23 1_555 1_555
C5 C7 1_555 1_555
C6 C1 1_555 1_555
H1 C6 1_555 1_555
N2 H2 1_555 1_555
O8 Mn1 1_555 1_555
C8 C5 1_555 1_555
H3 C8 1_555 1_555
N3 H4 1_555 1_555
N4 C25 1_555 1_555
O9 Mn2 1_555 1_555
C9 N3 1_555 1_555
H5 C9 1_555 1_555
H6 C9 1_555 1_555
C10 C8 1_555 1_555
C11 N2 1_555 1_555
C12 C10 1_555 1_555
H7 C12 1_555 1_555
C13 C2 1_555 1_555
H8 C13 1_555 1_555
C14 N2 1_555 1_555
H9 C14 1_555 1_555
H10 C14 1_555 1_555
C15 C1 1_555 1_555
H11 C15 1_555 1_555
C16 N3 1_555 1_555
C17 H12 1_555 1_555
C18 O8 1_555 1_555
C19 C9 1_555 1_555
C20 C5 1_555 1_555
H13 C20 1_555 1_555
C21 C14 1_555 1_555
C22 C21 1_555 1_555
H14 C22 1_555 1_555
C23 C22 1_555 1_555
H15 C23 1_555 1_555
N5 C29 1_555 1_555
C24 C21 1_555 1_555
H16 C24 1_555 1_555
C25 H17 1_555 1_555
C26 N1 1_555 1_555
H18 C26 1_555 1_555
C27 N4 1_555 1_555
H19 C27 1_555 1_555
O10 Mn1 1_555 1_555
C28 C19 1_555 1_555
H20 C28 1_555 1_555
N6 C30 1_555 1_555
C29 H21 1_555 1_555
H22 C29 1_555 1_555
H23 C29 1_555 1_555
C30 H24 1_555 1_555
H25 C30 1_555 1_555
H26 C30 1_555 1_555
O11 C32 1_555 1_555
C31 N5 1_555 1_555
H27 C31 1_555 1_555
H28 C31 1_555 1_555
H29 C31 1_555 1_555
O12 C34 1_555 1_555
C32 N5 1_555 1_555
H30 C32 1_555 1_555
C33 N6 1_555 1_555
H31 C33 1_555 1_555
H32 C33 1_555 1_555
H33 C33 1_555 1_555
C34 N6 1_555 1_555
H34 C34 1_555 1_555
Mn1A O2 1_555 1_555
Mn1C N4 1_555 1_555
Mn2A O1 1_555 1_555
Mn2C N1 1_555 1_555
O1A Mn2 1_555 1_555
O2A Mn1 1_555 1_555
O3A Mn1 1_555 1_555
O5A Mn2 1_555 1_555
N1C Mn2 1_555 1_555
N4C Mn1 1_555 1_555
O3 Mn1A 1_555 1_555
O5 Mn2A 1_555 1_555
C2 C6 1_555 1_555
C10 C18 1_555 1_555
C11 C12 1_555 1_555
C11 C20 1_555 1_555
C13 C16 1_555 1_555
C15 C16 1_555 1_555
C17 C19 1_555 1_555
C17 C27 1_555 1_555
C24 C26 1_555 1_555
C25 C28 1_555 1_555

#END
