
#######################################################################
#
#                 Cambridge Crystallographic Data Centre
#                                CCDC 
#
#######################################################################
#
# If this CIF has been generated from an entry in the Cambridge 
# Structural Database, then it will include bibliographic, chemical, 
# crystal, experimental, refinement or atomic coordinate data resulting 
# from the CCDC's data processing and validation procedures.
#
#######################################################################

data_LUFNAC
_chemical_formula_moiety         
'(C28 H24 Mn2 N4 O10)n,2n(C3 H7 N1 O1),3n(H2 O1)'
_chemical_name_systematic        
'catena-(bis(\m~4~-5-((Pyridin-4-ylmethyl)amino)isophthalato)-diaqua-di-manganese(ii) dimethylformamide solvate trihydrate)'
_symmetry_cell_setting           monoclinic
_symmetry_space_group_name_H-M   'C 2/c'
_symmetry_Int_Tables_number      15
_space_group_name_Hall           '-C 2yc'
loop_
_symmetry_equiv_pos_site_id
_symmetry_equiv_pos_as_xyz
1 x,y,z
2 -x,y,1/2-z
3 1/2+x,1/2+y,z
4 1/2-x,1/2+y,1/2-z
5 -x,-y,-z
6 x,-y,1/2+z
7 1/2-x,1/2-y,-z
8 1/2+x,1/2-y,1/2+z
_cell_length_a                   18.278(6)
_cell_length_b                   15.032(4)
_cell_length_c                   16.444(5)
_cell_angle_alpha                90
_cell_angle_beta                 112.032(5)
_cell_angle_gamma                90
_cell_volume                     4188.14
_exptl_crystal_colour            'pale yellow'
_exptl_crystal_description       block
_cell_formula_units_Z            4
loop_
_atom_site_label
_atom_site_type_symbol
_atom_site_fract_x
_atom_site_fract_y
_atom_site_fract_z
_atom_site_U_iso_or_equiv
_atom_site_thermal_displace_type
Mn1 Mn 0.27202(6) 0.10813(5) 0.04414(5) 0.0473 Uani
O1 O 0.7814(3) 0.5257(2) 0.1607(3) 0.0496 Uani
O2 O 0.7562(3) 0.4557(3) 0.0351(2) 0.0519 Uani
C1 C 0.7278(4) 0.2985(3) 0.2746(3) 0.0556 Uani
O3 O 0.7533(3) 0.3690(2) 0.4109(2) 0.0474 Uani
O4 O 0.7031(3) 0.2322(2) 0.3929(3) 0.0510 Uani
C2 C 0.7033(4) 0.2190(4) 0.1382(4) 0.0537 Uani
C3 C 0.7443(4) 0.3731(4) 0.1534(4) 0.0520 Uani
C4 C 0.7467(4) 0.3739(3) 0.2396(3) 0.0547 Uani
H1 H 0.7610 0.4255 0.2731 0.0530 Uiso
N1 N 0.4022(3) 0.0909(3) 0.0705(3) 0.0538 Uani
C5 C 0.7288(4) 0.2985(4) 0.3667(3) 0.0503 Uani
N2 N 0.6830(4) 0.1437(3) 0.0866(3) 0.0606 Uani
H2 H 0.6908 0.1427 0.0382 0.0760 Uiso
C6 C 0.7619(4) 0.4554(4) 0.1146(3) 0.0515 Uani
C7 C 0.5636(4) 0.0766(4) 0.0983(4) 0.0530 Uani
C8 C 0.7236(4) 0.2960(4) 0.1045(4) 0.0536 Uani
H3 H 0.7232 0.2955 0.0478 0.0650 Uiso
C9 C 0.6490(4) 0.0664(4) 0.1112(4) 0.0535 Uani
H4 H 0.6790 0.0532 0.1725 0.0700 Uiso
H5 H 0.6542 0.0159 0.0770 0.0700 Uiso
C10 C 0.7036(4) 0.2218(3) 0.2242(4) 0.0511 Uani
H6 H 0.6877 0.1723 0.2472 0.0660 Uiso
O5 O 0.1466(5) 0.1182(5) 0.0201(6) 0.0637 Uani
C11 C 0.5156(5) 0.1368(6) 0.0401(6) 0.0718 Uani
H7 H 0.5362 0.1752 0.0098 0.1120 Uiso
C12 C 0.5280(6) 0.0225(7) 0.1383(6) 0.0660 Uani
H8 H 0.5575 -0.0207 0.1773 0.1210 Uiso
C13 C 0.4364(5) 0.1402(6) 0.0266(6) 0.0618 Uani
H9 H 0.4047 0.1793 -0.0158 0.1060 Uiso
C14 C 0.4481(6) 0.0307(7) 0.1219(6) 0.0687 Uani
H10 H 0.4259 -0.0092 0.1492 0.1140 Uiso
H18 H 0.106(2) 0.127(3) -0.032(2) 0.0810 Uiso
H19 H 0.15(2) 0.057(11) 0.033(16) 0.0850 Uiso
Mn1A Mn 0.72798(6) 0.10813(5) 0.45586(5) 0.0473 Uani
Mn1B Mn 0.77202(6) 0.60813(5) 0.04414(5) 0.0473 Uani
Mn1G Mn 0.77202(6) 0.39187(5) 0.54414(5) 0.0473 Uani
Mn1C Mn 0.22798(6) 0.60813(5) 0.45586(5) 0.0473 Uani
Mn1F Mn 0.22798(6) 0.39187(5) -0.04414(5) 0.0473 Uani
O1A O 0.2186(3) 0.5257(2) 0.3393(3) 0.0496 Uani
O1B O 0.2814(3) 0.0257(2) 0.1607(3) 0.0496 Uani
O1C O 0.7186(3) 0.0257(2) 0.3393(3) 0.0496 Uani
O2A O 0.2438(3) 0.4557(3) 0.4649(2) 0.0519 Uani
O2B O 0.2562(3) -0.0443(3) 0.0351(2) 0.0519 Uani
O2C O 0.7438(3) -0.0443(3) 0.4649(2) 0.0519 Uani
C1A C 0.2722(4) 0.2985(3) 0.2254(3) 0.0556 Uani
O3A O 0.2467(3) 0.3690(2) 0.0891(2) 0.0474 Uani
O3G O 0.2533(3) 0.1310(2) -0.0891(2) 0.0474 Uani
O3F O 0.7467(3) 0.1310(2) 0.5891(2) 0.0474 Uani
O4A O 0.2969(3) 0.2322(2) 0.1071(3) 0.0510 Uani
C2A C 0.2967(4) 0.2190(4) 0.3618(4) 0.0537 Uani
C3A C 0.2557(4) 0.3731(4) 0.3466(4) 0.0520 Uani
C4A C 0.2533(4) 0.3739(3) 0.2604(3) 0.0547 Uani
H1A H 0.2390 0.4255 0.2269 0.0530 Uiso
N1A N 0.5978(3) 0.0909(3) 0.4295(3) 0.0538 Uani
C5A C 0.2712(4) 0.2985(4) 0.1333(3) 0.0503 Uani
N2A N 0.3170(4) 0.1437(3) 0.4134(3) 0.0606 Uani
H2A H 0.3092 0.1427 0.4618 0.0760 Uiso
C6A C 0.2381(4) 0.4554(4) 0.3854(3) 0.0515 Uani
C7A C 0.4364(4) 0.0766(4) 0.4017(4) 0.0530 Uani
C8A C 0.2764(4) 0.2960(4) 0.3955(4) 0.0536 Uani
H3A H 0.2768 0.2955 0.4522 0.0650 Uiso
C9A C 0.3510(4) 0.0664(4) 0.3888(4) 0.0535 Uani
H4A H 0.3210 0.0532 0.3275 0.0700 Uiso
H5A H 0.3458 0.0159 0.4230 0.0700 Uiso
C10A C 0.2964(4) 0.2218(3) 0.2758(4) 0.0511 Uani
H6A H 0.3123 0.1723 0.2528 0.0660 Uiso
O5A O 0.8534(5) 0.1182(5) 0.4799(6) 0.0637 Uani
C11A C 0.4844(5) 0.1368(6) 0.4599(6) 0.0718 Uani
H7A H 0.4638 0.1752 0.4902 0.1120 Uiso
C12A C 0.4720(6) 0.0225(7) 0.3617(6) 0.0660 Uani
H8A H 0.4425 -0.0207 0.3227 0.1210 Uiso
C13A C 0.5636(5) 0.1402(6) 0.4734(6) 0.0618 Uani
H9A H 0.5953 0.1793 0.5158 0.1060 Uiso
C14A C 0.5519(6) 0.0307(7) 0.3781(6) 0.0687 Uani
H10A H 0.5741 -0.0092 0.3508 0.1140 Uiso
H18A H 0.894(2) 0.127(3) 0.532(2) 0.0810 Uiso
H19A H 0.85(2) 0.057(11) 0.467(16) 0.0850 Uiso
N3 N 0.1085(7) 0.1585(11) 0.2848(8) 0.0569 Uani
O6 O 0.091(2) 0.2624(19) 0.3748(18) 0.0568 Uani
C15 C 0.120(3) 0.0666(14) 0.265(3) 0.0596 Uani
H11 H 0.1322 0.0314 0.3176 0.0920 Uiso
H12 H 0.1626 0.0630 0.2450 0.0920 Uiso
H13 H 0.0725 0.0445 0.2209 0.0920 Uiso
C16 C 0.1082(12) 0.1831(16) 0.3639(10) 0.0634 Uani
H14 H 0.1204 0.1421 0.4095 0.0940 Uiso
C17 C 0.0924(12) 0.223(2) 0.2155(16) 0.0604 Uani
H15 H 0.0955 0.1950 0.1645 0.0990 Uiso
H16 H 0.1305 0.2702 0.2344 0.0990 Uiso
H17 H 0.0404 0.2471 0.2015 0.0990 Uiso
O7 O -0.0184(13) 0.1177(10) -0.0854(13) 0.0692 Uani
O8 O 0.0000 0.138(4) -0.2500 0.0741 Uani
loop_
_atom_site_aniso_label
_atom_site_aniso_U_11
_atom_site_aniso_U_22
_atom_site_aniso_U_33
_atom_site_aniso_U_23
_atom_site_aniso_U_13
_atom_site_aniso_U_12
Mn1 0.0714(8) 0.0333(5) 0.0324(5) 0.0045(3) 0.0141(5) 0.0049(4)
O1 0.069 0.0335 0.042 0.0017 0.016 -0.003
O2 0.069 0.043 0.0324 0.002 0.006 -0.003
C1 0.071 0.034 0.049 -0.011 0.008 -0.002
O3 0.073 0.0412 0.0295 -0.0066 0.021 -0.0031
O4 0.071 0.0321 0.039 -0.0081 0.008 -0.005
C2 0.068(4) 0.048(3) 0.033(3) 0.009(2) 0.005(3) -0.002(3)
C3 0.066 0.035 0.044 -0.004 0.008 -0.002
C4 0.072 0.034 0.048 -0.0057 0.011 -0.005
N1 0.071(4) 0.039(2) 0.044(3) -0.001(2) 0.013(2) 0.005(2)
C5 0.065 0.044 0.032 -0.012 0.007 -0.003
N2 0.068(5) 0.049(3) 0.052(3) 0.012(2) 0.008(3) -0.004(3)
C6 0.072 0.045 0.031 0.002 0.012 0.005
C7 0.069(5) 0.045(3) 0.035(3) -0.004(2) 0.008(3) -0.003(3)
C8 0.071 0.051 0.033 -0.005 0.013 -0.004
C9 0.074(5) 0.035(3) 0.039(3) -0.004(2) 0.007(3) -0.003(3)
C10 0.065 0.033 0.042 -0.008 0.005 -0.003
O5 0.063(6) 0.046(4) 0.058(8) 0.008(4) -0.005(6) 0.003(4)
C11 0.079(7) 0.057(5) 0.054(7) 0.007(5) -0.004(5) 0.002(4)
C12 0.071(7) 0.056(7) 0.057(6) 0.011(5) 0.008(5) 0.004(5)
C13 0.073(6) 0.042(5) 0.054(7) 0.009(5) 0.005(5) 0.001(4)
C14 0.072(7) 0.063(8) 0.057(6) 0.011(6) 0.008(5) 0.003(6)
Mn1A 0.0714 0.0333 0.0324 -0.0045 0.0141 -0.0049
Mn1B 0.0714 0.0333 0.0324 0.0045 0.0141 0.0049
Mn1G 0.0714 0.0333 0.0324 -0.0045 0.0141 -0.0049
Mn1C 0.0714 0.0333 0.0324 -0.0045 0.0141 -0.0049
Mn1F 0.0714 0.0333 0.0324 0.0045 0.0141 0.0049
O1A 0.069 0.0335 0.042 -0.0017 0.016 0.003
O1B 0.069 0.0335 0.042 0.0017 0.016 -0.003
O1C 0.069 0.0335 0.042 -0.0017 0.016 0.003
O2A 0.069 0.043 0.0324 -0.002 0.006 0.003
O2B 0.069 0.043 0.0324 0.002 0.006 -0.003
O2C 0.069 0.043 0.0324 -0.002 0.006 0.003
C1A 0.071 0.034 0.049 0.011 0.008 0.002
O3A 0.073 0.0412 0.0295 0.0066 0.021 0.0031
O3G 0.073 0.0412 0.0295 0.0066 0.021 0.0031
O3F 0.073 0.0412 0.0295 -0.0066 0.021 -0.0031
O4A 0.071 0.0321 0.039 0.0081 0.008 0.005
C2A 0.068 0.048 0.033 -0.009 0.005 0.002
C3A 0.066 0.035 0.044 0.004 0.008 0.002
C4A 0.072 0.034 0.048 0.0057 0.011 0.005
N1A 0.071 0.039 0.044 0.001 0.013 -0.005
C5A 0.065 0.044 0.032 0.012 0.007 0.003
N2A 0.068 0.049 0.052 -0.012 0.008 0.004
C6A 0.072 0.045 0.031 -0.002 0.012 -0.005
C7A 0.069 0.045 0.035 0.004 0.008 0.003
C8A 0.071 0.051 0.033 0.005 0.013 0.004
C9A 0.074 0.035 0.039 0.004 0.007 0.003
C10A 0.065 0.033 0.042 0.008 0.005 0.003
O5A 0.063 0.046 0.058 -0.008 -0.005 -0.003
C11A 0.079 0.057 0.054 -0.007 -0.004 -0.002
C12A 0.071 0.056 0.057 -0.011 0.008 -0.004
C13A 0.073 0.042 0.054 -0.009 0.005 -0.001
C14A 0.072 0.063 0.057 -0.011 0.008 -0.003
N3 0.062(6) 0.044(6) 0.052(6) 0.012(4) 0.007(7) -0.004(7)
O6 0.075(4) 0.052(7) 0.032(4) -0.004(4) 0.007(3) -0.002(3)
C15 0.073(7) 0.051(7) 0.042(7) 0.013(7) 0.007(7) 0.005(6)
C16 0.076(8) 0.061(8) 0.041(8) 0.011(7) 0.008(7) -0.002(7)
C17 0.072(8) 0.051(8) 0.046(8) 0.014(6) 0.008(7) -0.004(7)
O7 0.072(8) 0.055(9) 0.065(8) -0.013(7) 0.008(7) 0.005(7)
O8 0.075(7) 0.058(7) 0.064(7) 0.007(6) -0.003(7) 0.004(6)
loop_
_geom_bond_atom_site_label_1
_geom_bond_atom_site_label_2
_geom_bond_site_symmetry_1
_geom_bond_site_symmetry_2
Mn1 N1 1_555 1_555
O1 C6 1_555 1_555
O2 C6 1_555 1_555
C1 C4 1_555 1_555
O3 C5 1_555 1_555
O4 C5 1_555 1_555
C2 N2 1_555 1_555
C3 C4 1_555 1_555
C4 H1 1_555 1_555
N1 C13 1_555 1_555
C5 C1 1_555 1_555
N2 H2 1_555 1_555
C6 C3 1_555 1_555
C7 C9 1_555 1_555
C8 C2 1_555 1_555
H3 C8 1_555 1_555
C9 N2 1_555 1_555
H4 C9 1_555 1_555
H5 C9 1_555 1_555
C10 C1 1_555 1_555
H6 C10 1_555 1_555
O5 Mn1 1_555 1_555
C11 C7 1_555 1_555
H7 C11 1_555 1_555
N3 C15 1_555 1_555
C12 C7 1_555 1_555
H8 C12 1_555 1_555
C13 C11 1_555 1_555
H9 C13 1_555 1_555
C14 N1 1_555 1_555
H10 C14 1_555 1_555
O6 C16 1_555 1_555
C15 H11 1_555 1_555
H12 C15 1_555 1_555
H13 C15 1_555 1_555
C16 N3 1_555 1_555
H14 C16 1_555 1_555
C17 N3 1_555 1_555
H15 C17 1_555 1_555
H16 C17 1_555 1_555
H17 C17 1_555 1_555
H18 O5 1_555 1_555
H19 O5 1_555 1_555
Mn1A O4 1_555 1_555
Mn1B O1 1_555 1_555
Mn1G O3 1_555 1_555
Mn1C O1A 1_555 1_555
Mn1F O3A 1_555 1_555
O1A C6A 1_555 1_555
O1B Mn1 1_555 1_555
O1C Mn1A 1_555 1_555
O2A Mn1C 1_555 1_555
O2B Mn1 1_555 1_555
O2C Mn1A 1_555 1_555
C1A C4A 1_555 1_555
O3A C5A 1_555 1_555
O3G Mn1 1_555 1_555
O3F Mn1A 1_555 1_555
O4A Mn1 1_555 1_555
C2A N2A 1_555 1_555
C3A C4A 1_555 1_555
C4A H1A 1_555 1_555
N1A Mn1A 1_555 1_555
C5A C1A 1_555 1_555
N2A H2A 1_555 1_555
C6A O2A 1_555 1_555
C7A C9A 1_555 1_555
C8A C2A 1_555 1_555
H3A C8A 1_555 1_555
C9A N2A 1_555 1_555
H4A C9A 1_555 1_555
H5A C9A 1_555 1_555
C10A C1A 1_555 1_555
H6A C10A 1_555 1_555
O5A Mn1A 1_555 1_555
C11A C7A 1_555 1_555
H7A C11A 1_555 1_555
C12A C7A 1_555 1_555
H8A C12A 1_555 1_555
C13A N1A 1_555 1_555
H9A C13A 1_555 1_555
C14A N1A 1_555 1_555
H10A C14A 1_555 1_555
H18A O5A 1_555 1_555
H19A O5A 1_555 1_555
O2 Mn1B 1_555 1_555
C2 C10 1_555 1_555
C3 C8 1_555 1_555
C12 C14 1_555 1_555
O4A C5A 1_555 1_555
C2A C10A 1_555 1_555
C3A C6A 1_555 1_555
C3A C8A 1_555 1_555
C11A C13A 1_555 1_555
C12A C14A 1_555 1_555

#END
