
#######################################################################
#
#                 Cambridge Crystallographic Data Centre
#                                CCDC 
#
#######################################################################
#
# If this CIF has been generated from an entry in the Cambridge 
# Structural Database, then it will include bibliographic, chemical, 
# crystal, experimental, refinement or atomic coordinate data resulting 
# from the CCDC's data processing and validation procedures.
#
#######################################################################

data_LUFNAC03
_chemical_formula_moiety         
'(C28 H24 Mn2 N4 O10)n,2n(C3 H7 N1 O1),3n(H2 O1)'
_chemical_name_systematic        
'catena-(bis(\m~4~-5-((Pyridin-4-ylmethyl)amino)isophthalato)-diaqua-di-manganese(ii) dimethylformamide solvate trihydrate)'
_symmetry_cell_setting           monoclinic
_symmetry_space_group_name_H-M   'C 2/c'
_symmetry_Int_Tables_number      15
_space_group_name_Hall           '-C 2yc'
loop_
_symmetry_equiv_pos_site_id
_symmetry_equiv_pos_as_xyz
1 x,y,z
2 -x,y,1/2-z
3 1/2+x,1/2+y,z
4 1/2-x,1/2+y,1/2-z
5 -x,-y,-z
6 x,-y,1/2+z
7 1/2-x,1/2-y,-z
8 1/2+x,1/2-y,1/2+z
_cell_length_a                   18.408(6)
_cell_length_b                   15.037(5)
_cell_length_c                   16.357(6)
_cell_angle_alpha                90
_cell_angle_beta                 111.575(5)
_cell_angle_gamma                90
_cell_volume                     4210.42
_exptl_crystal_colour            'pale yellow'
_exptl_crystal_description       block
_cell_formula_units_Z            4
loop_
_atom_site_label
_atom_site_type_symbol
_atom_site_fract_x
_atom_site_fract_y
_atom_site_fract_z
_atom_site_U_iso_or_equiv
_atom_site_thermal_displace_type
Mn1 Mn 0.27593(5) 0.10845(5) 0.54678(5) 0.0265 Uani
O1 O 0.2874(3) -0.0248(2) 0.1642(2) 0.0354 Uani
O2 O 0.1975(2) 0.2671(2) 0.3921(2) 0.0333 Uani
O3 O 0.2590(3) 0.0433(3) 0.0364(2) 0.0341 Uani
O4 O 0.2529(2) 0.1331(2) 0.4122(2) 0.0298 Uani
C1 C 0.2017(3) 0.2793(4) 0.1364(3) 0.0272 Uani
N1 N -0.0960(3) 0.4089(3) 0.0677(3) 0.0310 Uani
C2 C 0.2249(3) 0.2013(3) 0.2740(3) 0.0266 Uani
N2 N 0.1825(3) 0.3546(3) 0.0851(3) 0.0322 Uani
H1 H 0.1902 0.3558 0.0364 0.0390 Uiso
C3 C 0.2473(3) 0.1260(3) 0.2403(3) 0.0292 Uani
H2 H 0.2635 0.0754 0.2748 0.0350 Uiso
C4 C 0.2454(3) 0.1268(4) 0.1541(4) 0.0312 Uani
C5 C 0.2655(3) 0.0439(4) 0.1163(3) 0.0328 Uani
C6 C 0.0638(3) 0.4237(3) 0.0965(3) 0.0362 Uani
C7 C 0.2009(3) 0.2777(3) 0.2225(3) 0.0283 Uani
H3 H 0.1845 0.3274 0.2448 0.0340 Uiso
C8 C 0.2258(3) 0.2011(3) 0.3672(3) 0.0241 Uani
C9 C 0.2230(3) 0.2033(4) 0.1040(3) 0.0317 Uani
H4 H 0.2223 0.2033 0.0468 0.0380 Uiso
C10 C 0.1492(3) 0.4322(3) 0.1115(3) 0.0326 Uani
H5 H 0.1563 0.4835 0.0792 0.0390 Uiso
H6 H 0.1779 0.4433 0.1735 0.0390 Uiso
O5 O 0.1520(3) 0.1204(4) 0.5272(4) 0.0352 Uani
C11 C 0.0161(4) 0.3647(5) 0.0350(5) 0.0494 Uani
H7 H 0.0363 0.3290 0.0021 0.0640 Uiso
C12 C 0.0287(5) 0.4769(5) 0.1394(5) 0.0478 Uani
H8 H 0.0581 0.5187 0.1801 0.0660 Uiso
C13 C -0.0493(4) 0.4687(5) 0.1224(5) 0.0427 Uani
H9 H -0.0715 0.5074 0.1509 0.0670 Uiso
C14 C -0.0625(4) 0.3600(4) 0.0234(5) 0.0452 Uani
H10 H -0.0938 0.3201 -0.0181 0.0540 Uiso
Mn1F Mn 0.22407(5) 0.39155(5) 0.45322(5) 0.0265 Uani
Mn1E Mn 0.27593(5) -0.10845(5) 0.04678(5) 0.0265 Uani
Mn1G Mn -0.22407(5) 0.39155(5) 0.04678(5) 0.0265 Uani
Mn1C Mn 0.22407(5) 0.60845(5) 0.95322(5) 0.0265 Uani
Mn1A Mn 0.72407(5) 0.10845(5) 0.95322(5) 0.0265 Uani
O1F O 0.2126(3) 0.5248(2) 0.8358(2) 0.0354 Uani
O1E O 0.2874(3) 0.0248(2) 0.6642(2) 0.0354 Uani
O1C O 0.2126(3) 0.4752(2) 0.3358(2) 0.0354 Uani
O2F O 0.3025(2) 0.2329(2) 0.6079(2) 0.0333 Uani
O3F O 0.2410(3) 0.4567(3) 0.9636(2) 0.0341 Uani
O3E O 0.2590(3) -0.0433(3) 0.5364(2) 0.0341 Uani
O3C O 0.2410(3) 0.5433(3) 0.4636(2) 0.0341 Uani
O4F O 0.2471(2) 0.3669(2) 0.5878(2) 0.0298 Uani
C1F C 0.2983(3) 0.2207(4) 0.8636(3) 0.0272 Uani
N1F N 0.5960(3) 0.0911(3) 0.9323(3) 0.0310 Uani
N1G N 0.4040(3) 0.0911(3) 0.5677(3) 0.0310 Uani
N1A N 0.0960(3) 0.4089(3) 0.4323(3) 0.0310 Uani
C2F C 0.2751(3) 0.2987(3) 0.7260(3) 0.0266 Uani
N2F N 0.3175(3) 0.1454(3) 0.9149(3) 0.0322 Uani
H1F H 0.3098 0.1442 0.9636 0.0390 Uiso
C3F C 0.2527(3) 0.3740(3) 0.7597(3) 0.0292 Uani
H2F H 0.2365 0.4246 0.7252 0.0350 Uiso
C4F C 0.2546(3) 0.3732(4) 0.8459(4) 0.0312 Uani
C5F C 0.2345(3) 0.4561(4) 0.8837(3) 0.0328 Uani
C6F C 0.4362(3) 0.0763(3) 0.9035(3) 0.0362 Uani
C7F C 0.2991(3) 0.2223(3) 0.7775(3) 0.0283 Uani
H3F H 0.3155 0.1726 0.7552 0.0340 Uiso
C8F C 0.2742(3) 0.2989(3) 0.6328(3) 0.0241 Uani
C9F C 0.2770(3) 0.2967(4) 0.8960(3) 0.0317 Uani
H4F H 0.2777 0.2967 0.9532 0.0380 Uiso
C10F C 0.3508(3) 0.0678(3) 0.8885(3) 0.0326 Uani
H5F H 0.3437 0.0165 0.9208 0.0390 Uiso
H6F H 0.3221 0.0567 0.8265 0.0390 Uiso
O5F O 0.3480(3) 0.3796(4) 0.4728(4) 0.0352 Uani
C11F C 0.4839(4) 0.1353(5) 0.9650(5) 0.0494 Uani
H7F H 0.4637 0.1710 0.9979 0.0640 Uiso
C12F C 0.4713(5) 0.0231(5) 0.8606(5) 0.0478 Uani
H8F H 0.4419 -0.0187 0.8199 0.0660 Uiso
C13F C 0.5493(4) 0.0313(5) 0.8776(5) 0.0427 Uani
H9F H 0.5715 -0.0074 0.8491 0.0670 Uiso
C14F C 0.5625(4) 0.1400(4) 0.9766(5) 0.0452 Uani
H10F H 0.5938 0.1799 1.0181 0.0540 Uiso
O6 O -0.0107(12) 0.1246(17) 0.4180(13) 0.0529 Uani
O7 O 0.0000 0.156(2) 0.2500 0.0513 Uani
N3 N 0.3950(6) 0.3306(13) 0.2244(12) 0.0450 Uani
C15 C 0.3932(9) 0.334(2) 0.1428(13) 0.0611 Uani
H11 H 0.3757 0.3874 0.1127 0.0870 Uiso
O8 O 0.412(2) 0.276(5) 0.102(3) 0.0474 Uani
C16 C 0.3712(11) 0.405(2) 0.265(3) 0.0602 Uani
H12 H 0.3786 0.3906 0.3250 0.0630 Uiso
H13 H 0.3171 0.4184 0.2333 0.0630 Uiso
H14 H 0.4022 0.4566 0.2648 0.0630 Uiso
C17 C 0.4184(13) 0.248(2) 0.274(3) 0.0660 Uani
H15 H 0.4171 0.2559 0.3321 0.0950 Uiso
H16 H 0.4703 0.2321 0.2793 0.0950 Uiso
H17 H 0.3829 0.2011 0.2447 0.0950 Uiso
loop_
_atom_site_aniso_label
_atom_site_aniso_U_11
_atom_site_aniso_U_22
_atom_site_aniso_U_33
_atom_site_aniso_U_23
_atom_site_aniso_U_13
_atom_site_aniso_U_12
Mn1 0.0392(6) 0.0235(5) 0.0202(5) 0.0014(3) 0.0150(4) 0.0003(3)
O1 0.055(2) 0.031(2) 0.0244(19) 0.0044(15) 0.0195(17) 0.0126(17)
O2 0.052(2) 0.0271(19) 0.0256(19) -0.0036(14) 0.0199(17) 0.0019(16)
O3 0.052(3) 0.034(2) 0.0226(19) 0.0000(15) 0.0213(17) 0.0073(19)
O4 0.046(2) 0.0271(17) 0.0190(17) 0.0038(13) 0.0150(15) 0.0058(15)
C1 0.028(2) 0.034(3) 0.021(2) 0.0001(19) 0.0105(18) 0.001(2)
N1 0.035(2) 0.029(2) 0.028(2) 0.0046(18) 0.0103(18) -0.0021(18)
C2 0.042(3) 0.025(2) 0.016(2) 0.0025(18) 0.0143(19) 0.003(2)
N2 0.046(3) 0.031(2) 0.023(2) 0.0087(17) 0.0166(19) 0.005(2)
C3 0.036(3) 0.025(2) 0.027(3) 0.0050(19) 0.012(2) 0.007(2)
C4 0.040(3) 0.029(3) 0.027(3) -0.003(2) 0.015(2) 0.008(2)
C5 0.048(3) 0.032(3) 0.019(2) 0.000(2) 0.013(2) 0.005(2)
C6 0.048(3) 0.022(2) 0.035(2) 0.006(3) 0.011(3) 0.002(3)
C7 0.038(3) 0.027(2) 0.023(2) 0.0008(19) 0.015(2) 0.001(2)
C8 0.033(2) 0.028(2) 0.011(2) -0.0056(17) 0.0077(17) 0.0002(19)
C9 0.041(3) 0.033(3) 0.023(2) 0.000(2) 0.014(2) -0.001(2)
C10 0.051(3) 0.026(3) 0.022(2) 0.0068(19) 0.015(2) 0.001(2)
O5 0.049(3) 0.039(4) 0.021(4) -0.003(3) 0.017(3) 0.005(3)
C11 0.046(4) 0.046(4) 0.055(5) -0.004(3) 0.017(3) 0.005(3)
C12 0.051(4) 0.044(5) 0.043(4) -0.003(3) 0.011(3) -0.001(3)
C13 0.044(4) 0.050(5) 0.033(4) -0.004(4) 0.013(3) -0.002(3)
C14 0.037(3) 0.046(3) 0.050(4) -0.004(3) 0.013(3) 0.002(3)
Mn1F 0.0392 0.0235 0.0202 0.0014 0.015 0.0003
Mn1E 0.0392 0.0235 0.0202 -0.0014 0.015 -0.0003
Mn1G 0.0392 0.0235 0.0202 -0.0014 0.015 -0.0003
Mn1C 0.0392 0.0235 0.0202 -0.0014 0.015 -0.0003
Mn1A 0.0392 0.0235 0.0202 -0.0014 0.015 -0.0003
O1F 0.055 0.031 0.0244 0.0044 0.0195 0.0126
O1E 0.055 0.031 0.0244 -0.0044 0.0195 -0.0126
O1C 0.055 0.031 0.0244 -0.0044 0.0195 -0.0126
O2F 0.052 0.0271 0.0256 -0.0036 0.0199 0.0019
O3F 0.052 0.034 0.0226 0 0.0213 0.0073
O3E 0.052 0.034 0.0226 0 0.0213 -0.0073
O3C 0.052 0.034 0.0226 0 0.0213 -0.0073
O4F 0.046 0.0271 0.019 0.0038 0.015 0.0058
C1F 0.028 0.034 0.021 0.0001 0.0105 0.001
N1F 0.035 0.029 0.028 0.0046 0.0103 -0.0021
N1G 0.035 0.029 0.028 -0.0046 0.0103 0.0021
N1A 0.035 0.029 0.028 -0.0046 0.0103 0.0021
C2F 0.042 0.025 0.016 0.0025 0.0143 0.003
N2F 0.046 0.031 0.023 0.0087 0.0166 0.005
C3F 0.036 0.025 0.027 0.005 0.012 0.007
C4F 0.04 0.029 0.027 -0.003 0.015 0.008
C5F 0.048 0.032 0.019 0 0.013 0.005
C6F 0.048 0.022 0.035 0.006 0.011 0.002
C7F 0.038 0.027 0.023 0.0008 0.015 0.001
C8F 0.033 0.028 0.011 -0.0056 0.0077 0.0002
C9F 0.041 0.033 0.023 0 0.014 -0.001
C10F 0.051 0.026 0.022 0.0068 0.015 0.001
O5F 0.049 0.039 0.021 -0.003 0.017 0.005
C11F 0.046 0.046 0.055 -0.004 0.017 0.005
C12F 0.051 0.044 0.043 -0.003 0.011 -0.001
C13F 0.044 0.05 0.033 -0.004 0.013 -0.002
C14F 0.037 0.046 0.05 -0.004 0.013 0.002
O6 0.065(9) 0.042(3) 0.038(14) 0.005(4) 0.003(8) -0.002(4)
O7 0.062(5) 0.041(3) 0.032(18) 0.008(9) -0.005(9) 0.003(10)
N3 0.051(5) 0.043(2) 0.038(17) -0.028(17) 0.013(8) -0.007(9)
C15 0.063(9) 0.083(8) 0.054(4) 0.021(4) 0.041(11) 0.002(2)
O8 0.061(6) 0.044(6) 0.032(6) 0.021(5) 0.011(5) -0.002(5)
C16 0.058(14) 0.055(6) 0.052(8) -0.008(6) 0.002(3) -0.001(3)
C17 0.052(3) 0.079(6) 0.042(5) -0.020(6) -0.012(6) -0.002(5)
loop_
_geom_bond_atom_site_label_1
_geom_bond_atom_site_label_2
_geom_bond_site_symmetry_1
_geom_bond_site_symmetry_2
Mn1 O4 1_555 1_555
O1 C5 1_555 1_555
O2 C8 1_555 1_555
O3 C5 1_555 1_555
O4 C8 1_555 1_555
C1 N2 1_555 1_555
N1 C13 1_555 1_555
C2 C3 1_555 1_555
N2 H1 1_555 1_555
C3 H2 1_555 1_555
C4 C3 1_555 1_555
C5 C4 1_555 1_555
C6 C10 1_555 1_555
C7 C1 1_555 1_555
H3 C7 1_555 1_555
C8 C2 1_555 1_555
C9 C1 1_555 1_555
H4 C9 1_555 1_555
C10 N2 1_555 1_555
H5 C10 1_555 1_555
H6 C10 1_555 1_555
O5 Mn1 1_555 1_555
C11 C6 1_555 1_555
H7 C11 1_555 1_555
C12 C6 1_555 1_555
H8 C12 1_555 1_555
C13 C12 1_555 1_555
H9 C13 1_555 1_555
C14 N1 1_555 1_555
H10 C14 1_555 1_555
N3 C15 1_555 1_555
C15 H11 1_555 1_555
O8 C15 1_555 1_555
C16 N3 1_555 1_555
H12 C16 1_555 1_555
H13 C16 1_555 1_555
H14 C16 1_555 1_555
C17 N3 1_555 1_555
H15 C17 1_555 1_555
H16 C17 1_555 1_555
H17 C17 1_555 1_555
Mn1F O2 1_555 1_555
Mn1E O1 1_555 1_555
Mn1G N1 1_555 1_555
Mn1C O1F 1_555 1_555
Mn1A N1F 1_555 1_555
O1F C5F 1_555 1_555
O1E Mn1 1_555 1_555
O1C Mn1F 1_555 1_555
O2F Mn1 1_555 1_555
O3F Mn1C 1_555 1_555
O3E Mn1 1_555 1_555
O3C Mn1F 1_555 1_555
O4F Mn1F 1_555 1_555
C1F N2F 1_555 1_555
N1F C13F 1_555 1_555
N1G Mn1 1_555 1_555
N1A Mn1F 1_555 1_555
C2F C3F 1_555 1_555
N2F H1F 1_555 1_555
C3F H2F 1_555 1_555
C4F C3F 1_555 1_555
C5F O3F 1_555 1_555
C6F C10F 1_555 1_555
C7F C1F 1_555 1_555
H3F C7F 1_555 1_555
C8F O2F 1_555 1_555
C9F C1F 1_555 1_555
H4F C9F 1_555 1_555
C10F N2F 1_555 1_555
H5F C10F 1_555 1_555
H6F C10F 1_555 1_555
O5F Mn1F 1_555 1_555
C11F C6F 1_555 1_555
H7F C11F 1_555 1_555
C12F C6F 1_555 1_555
H8F C12F 1_555 1_555
C13F C12F 1_555 1_555
H9F C13F 1_555 1_555
C14F N1F 1_555 1_555
H10F C14F 1_555 1_555
O3 Mn1E 1_555 1_555
C2 C7 1_555 1_555
C4 C9 1_555 1_555
C11 C14 1_555 1_555
O4F C8F 1_555 1_555
C2F C7F 1_555 1_555
C2F C8F 1_555 1_555
C4F C5F 1_555 1_555
C4F C9F 1_555 1_555
C11F C14F 1_555 1_555

#END
