
#######################################################################
#
#                 Cambridge Crystallographic Data Centre
#                                CCDC 
#
#######################################################################
#
# If this CIF has been generated from an entry in the Cambridge 
# Structural Database, then it will include bibliographic, chemical, 
# crystal, experimental, refinement or atomic coordinate data resulting 
# from the CCDC's data processing and validation procedures.
#
#######################################################################

data_LUFPAE
_chemical_formula_moiety         '(C18 H15 Mn1 N3 O4)n,n(C4 H5 N1)'
_chemical_name_systematic        
'catena-((\m~4~-5-((Pyridin-4-ylmethyl)amino)isophthalato)-(cis-crotononitrile)-manganese(ii) cis-crotononitrile solvate)'
_symmetry_cell_setting           monoclinic
_symmetry_space_group_name_H-M   'C 2/c'
_symmetry_Int_Tables_number      15
_space_group_name_Hall           '-C 2yc'
loop_
_symmetry_equiv_pos_site_id
_symmetry_equiv_pos_as_xyz
1 x,y,z
2 -x,y,1/2-z
3 1/2+x,1/2+y,z
4 1/2-x,1/2+y,1/2-z
5 -x,-y,-z
6 x,-y,1/2+z
7 1/2-x,1/2-y,-z
8 1/2+x,1/2-y,1/2+z
_cell_length_a                   18.874(6)
_cell_length_b                   14.891(5)
_cell_length_c                   16.299(4)
_cell_angle_alpha                90
_cell_angle_beta                 114.015(2)
_cell_angle_gamma                90
_cell_volume                     4184.35
_exptl_crystal_colour            'pale yellow'
_exptl_crystal_description       block
_cell_formula_units_Z            8
loop_
_atom_site_label
_atom_site_type_symbol
_atom_site_fract_x
_atom_site_fract_y
_atom_site_fract_z
_atom_site_U_iso_or_equiv
_atom_site_thermal_displace_type
Mn1 Mn 0.28026(6) 0.10870(6) 0.54824(6) 0.0299 Uani
O1 O 0.7866(3) 0.5247(3) 0.6630(3) 0.0403 Uani
O2 O 0.7644(3) 0.4537(3) 0.5368(3) 0.0341 Uani
O3 O 0.7552(3) 0.3676(3) 0.9112(3) 0.0353 Uani
O4 O 0.6980(3) 0.2345(3) 0.8898(3) 0.0375 Uani
C1 C 0.6969(4) 0.2229(4) 0.7172(4) 0.0295 Uani
H1 H 0.6781 0.1745 0.7383 0.0360 Uiso
N1 N 0.6730(4) 0.1445(4) 0.5772(4) 0.0356 Uani
H2 H 0.6761 0.1440 0.5260 0.0430 Uiso
C2 C 0.7465(4) 0.3709(4) 0.6522(4) 0.0320 Uani
C3 C 0.7686(4) 0.4539(4) 0.6156(4) 0.0327 Uani
C4 C 0.7497(4) 0.3727(4) 0.7392(4) 0.0314 Uani
H3 H 0.7682 0.4231 0.7753 0.0380 Uiso
C5 C 0.6971(4) 0.2197(4) 0.6319(4) 0.0301 Uani
N2 N 0.4060(4) 0.0943(3) 0.5728(4) 0.0337 Uani
C6 C 0.7219(4) 0.2950(5) 0.6008(4) 0.0336 Uani
H4 H 0.7218 0.2940 0.5437 0.0400 Uiso
C7 C 0.7249(4) 0.2984(4) 0.7706(4) 0.0325 Uani
C8 C 0.7262(4) 0.2994(4) 0.8646(4) 0.0297 Uani
C9 C 0.6428(4) 0.0672(4) 0.6053(5) 0.0359 Uani
H5 H 0.6750 0.0552 0.6680 0.0430 Uiso
H6 H 0.6460 0.0155 0.5708 0.0430 Uiso
C10 C 0.5600(4) 0.0781(4) 0.5942(4) 0.0329 Uani
C11 C 0.5110(5) 0.1407(5) 0.5390(6) 0.0530 Uani
H7 H 0.5286 0.1801 0.5071 0.0640 Uiso
C12 C 0.5298(5) 0.0217(5) 0.6388(5) 0.0457 Uani
H8 H 0.5606 -0.0226 0.6768 0.0550 Uiso
N3 N 0.1540(4) 0.1185(4) 0.5137(4) 0.0418 Uani
C13 C 0.4367(5) 0.1457(5) 0.5307(6) 0.0472 Uani
H9 H 0.4050 0.1889 0.4919 0.0560 Uiso
C14 C 0.4529(5) 0.0319(6) 0.6263(5) 0.0456 Uani
H10 H 0.4332 -0.0068 0.6567 0.0670 Uiso
C19 C 0.0135(3) 0.1024(3) 0.4901(3) 0.0545 Uani
H16 H 0.0002 0.0866 0.5371 0.0630 Uiso
C20 C 0.0901(4) 0.1129(4) 0.5024(4) 0.0465 Uani
C21 C -0.0438(4) 0.1173(4) 0.4015(4) 0.0464 Uani
H17 H -0.0954 0.1059 0.3902 0.0820 Uiso
C22 C -0.026(4) 0.149(4) 0.3281(14) 0.0569 Uani
H18 H -0.0727 0.1544 0.2746 0.0970 Uiso
H19 H 0.0087 0.1077 0.3178 0.0970 Uiso
H20 H -0.0011 0.2071 0.3432 0.0970 Uiso
Mn1B Mn 0.78026(6) 0.60870(6) 0.54824(6) 0.0299 Uani
Mn1G Mn 0.78026(6) 0.39130(6) 1.04824(6) 0.0299 Uani
Mn1A Mn 0.71974(6) 0.10870(6) 0.95176(6) 0.0299 Uani
O1B O 0.2866(3) 0.0247(3) 0.6630(3) 0.0403 Uani
O2B O 0.2644(3) -0.0463(3) 0.5368(3) 0.0341 Uani
O3G O 0.2552(3) 0.1324(3) 0.4112(3) 0.0353 Uani
O4A O 0.3020(3) 0.2345(3) 0.6102(3) 0.0375 Uani
C15 C 0.1438(5) 0.0554(5) 0.8098(5) 0.0458 Uani
H11 H 0.1717 0.0034 0.8343 0.0740 Uiso
C16 C 0.1451(5) 0.0907(5) 0.7291(5) 0.0474 Uani
H12 H 0.1729 0.0612 0.7014 0.0770 Uiso
C17 C 0.1005(5) 0.0979(5) 0.8545(5) 0.0465 Uani
H13 H 0.1073 0.0640 0.9073 0.0820 Uiso
H14 H 0.0469 0.0996 0.8147 0.0820 Uiso
H15 H 0.1197 0.1577 0.8713 0.0820 Uiso
C18 C 0.1053(4) 0.1684(4) 0.6919(4) 0.0442 Uani
N4 N 0.0728(5) 0.2333(5) 0.6641(5) 0.0410 Uani
loop_
_atom_site_aniso_label
_atom_site_aniso_U_11
_atom_site_aniso_U_22
_atom_site_aniso_U_33
_atom_site_aniso_U_23
_atom_site_aniso_U_13
_atom_site_aniso_U_12
Mn1 0.0454(7) 0.0273(5) 0.0237(5) 0.0007(4) 0.0208(5) 0.0007(4)
O1 0.068 0.035 0.028 -0.0035 0.03 -0.008
O2 0.05 0.035 0.024 -0.0002 0.022 -0.008
O3 0.053 0.035 0.024 -0.0053 0.022 -0.01
O4 0.067 0.028 0.027 0.004 0.029 -0.005
C1 0.041 0.029 0.025 0.002 0.02 -0.004
N1 0.053 0.036 0.028 -0.005 0.027 -0.004
C2 0.036 0.037 0.027 0 0.017 0
C3 0.046 0.031 0.027 -0.006 0.021 -0.002
C4 0.046 0.028 0.023 -0.003 0.017 -0.004
C5 0.035 0.03 0.03 -0.002 0.018 0.001
N2 0.045(4) 0.030(3) 0.029(3) -0.006(2) 0.018(3) -0.004(2)
C6 0.043 0.042 0.019 -0.002 0.016 -0.003
C7 0.048 0.025 0.028 0.004 0.019 -0.002
C8 0.035 0.028 0.029 0.001 0.016 0.002
C9 0.051(5) 0.030(3) 0.031(3) -0.006(3) 0.021(4) -0.006(3)
C10 0.052(5) 0.024(3) 0.025(3) -0.003(2) 0.018(3) -0.001(3)
C11 0.058(6) 0.042(4) 0.064(6) 0.009(4) 0.030(5) -0.004(4)
C12 0.048(5) 0.051(4) 0.041(4) 0.016(3) 0.021(4) 0.005(4)
N3 0.054(5) 0.035(5) 0.028(5) -0.004(4) 0.008(4) 0.002(4)
C13 0.053(6) 0.035(4) 0.058(5) 0.015(3) 0.027(4) 0.004(4)
C14 0.052(6) 0.049(6) 0.040(5) 0.029(4) 0.023(4) 0.005(4)
C19 0.071(5) 0.052(5) 0.027(5) -0.003(4) 0.006(4) 0.001(4)
C20 0.062(5) 0.034(5) 0.030(5) 0.008(4) 0.005(4) 0.002(4)
C21 0.054(4) 0.043(4) 0.028(4) 0.004(3) 0.002(3) 0.001(3)
C22 0.063(6) 0.052(6) 0.040(5) 0.008(5) 0.005(5) 0.002(5)
Mn1B 0.0454 0.0273 0.0237 0.0007 0.0208 0.0007
Mn1G 0.0454 0.0273 0.0237 -0.0007 0.0208 -0.0007
Mn1A 0.0454 0.0273 0.0237 -0.0007 0.0208 -0.0007
O1B 0.068 0.035 0.028 -0.0035 0.03 -0.008
O2B 0.05 0.035 0.024 -0.0002 0.022 -0.008
O3G 0.053 0.035 0.024 0.0053 0.022 0.01
O4A 0.067 0.028 0.027 -0.004 0.029 0.005
C15 0.065(7) 0.039(7) 0.026(7) 0.008(6) 0.011(6) -0.002(6)
C16 0.070(4) 0.041(4) 0.025(4) -0.004(3) 0.013(3) -0.003(3)
C17 0.065(6) 0.043(6) 0.027(6) 0.005(5) 0.014(5) 0.004(5)
C18 0.062(6) 0.032(6) 0.030(6) -0.011(4) 0.010(5) -0.003(5)
N4 0.056(6) 0.033(6) 0.028(6) -0.004(5) 0.011(5) -0.004(5)
loop_
_geom_bond_atom_site_label_1
_geom_bond_atom_site_label_2
_geom_bond_site_symmetry_1
_geom_bond_site_symmetry_2
Mn1 N2 1_555 1_555
O1 C3 1_555 1_555
O2 C3 1_555 1_555
O3 C8 1_555 1_555
O4 C8 1_555 1_555
C1 H1 1_555 1_555
N1 H2 1_555 1_555
C2 C3 1_555 1_555
C4 C2 1_555 1_555
H3 C4 1_555 1_555
C5 C1 1_555 1_555
N2 C13 1_555 1_555
C6 C2 1_555 1_555
H4 C6 1_555 1_555
C7 C1 1_555 1_555
C8 C7 1_555 1_555
C9 N1 1_555 1_555
H5 C9 1_555 1_555
H6 C9 1_555 1_555
C10 C9 1_555 1_555
C11 C10 1_555 1_555
H7 C11 1_555 1_555
C12 C10 1_555 1_555
H8 C12 1_555 1_555
N3 Mn1 1_555 1_555
C13 C11 1_555 1_555
H9 C13 1_555 1_555
C14 N2 1_555 1_555
H10 C14 1_555 1_555
C15 H11 1_555 1_555
C16 C15 1_555 1_555
H12 C16 1_555 1_555
C17 C15 1_555 1_555
H13 C17 1_555 1_555
H14 C17 1_555 1_555
H15 C17 1_555 1_555
C18 C16 1_555 1_555
N4 C18 1_555 1_555
C19 H16 1_555 1_555
C20 N3 1_555 1_555
C21 C19 1_555 1_555
H17 C21 1_555 1_555
C22 C21 1_555 1_555
H18 C22 1_555 1_555
H19 C22 1_555 1_555
H20 C22 1_555 1_555
Mn1B O1 1_555 1_555
Mn1G O3 1_555 1_555
Mn1A O4 1_555 1_555
O1B Mn1 1_555 1_555
O2B Mn1 1_555 1_555
O3G Mn1 1_555 1_555
O4A Mn1 1_555 1_555
O2 Mn1B 1_555 1_555
N1 C5 1_555 1_555
C4 C7 1_555 1_555
C5 C6 1_555 1_555
C12 C14 1_555 1_555
C19 C20 1_555 1_555

#END
