
#######################################################################
#
#                 Cambridge Crystallographic Data Centre
#                                CCDC 
#
#######################################################################
#
# If this CIF has been generated from an entry in the Cambridge 
# Structural Database, then it will include bibliographic, chemical, 
# crystal, experimental, refinement or atomic coordinate data resulting 
# from the CCDC's data processing and validation procedures.
#
#######################################################################

data_PIHQUU01
_chemical_formula_moiety         '(C11 H11 N4 O4 P1 Zn1)n,n(C1 H4 O1),n(H2 O1)'
_chemical_name_systematic        
"catena-[(\m~3~-N,N'-dipyridin-4-ylphosphorodiamidato)-formato-zinc(ii) methanol solvate monohydrate]"
_symmetry_cell_setting           orthorhombic
_symmetry_space_group_name_H-M   'P b c a'
_symmetry_Int_Tables_number      61
_space_group_name_Hall           '-P 2ac 2ab'
loop_
_symmetry_equiv_pos_site_id
_symmetry_equiv_pos_as_xyz
1 x,y,z
2 1/2+x,1/2-y,-z
3 -x,1/2+y,1/2-z
4 1/2-x,-y,1/2+z
5 -x,-y,-z
6 1/2-x,1/2+y,z
7 x,1/2-y,1/2+z
8 1/2+x,y,1/2-z
_cell_length_a                   14.135(2)
_cell_length_b                   15.420(3)
_cell_length_c                   18.524(3)
_cell_angle_alpha                90
_cell_angle_beta                 90
_cell_angle_gamma                90
_cell_volume                     4037.52
_exptl_crystal_colour            colorless
_exptl_crystal_description       prism
_cell_formula_units_Z            8
loop_
_atom_site_label
_atom_site_type_symbol
_atom_site_fract_x
_atom_site_fract_y
_atom_site_fract_z
_atom_site_U_iso_or_equiv
_atom_site_thermal_displace_type
Zn1 Zn 0.66487(2) 1.03516(2) 0.356659(17) 0.0268 Uani
P1 P 0.84368(5) 0.99552(5) 0.46064(4) 0.0248 Uani
O1 O 0.78498(14) 0.99366(13) 0.39285(10) 0.0300 Uani
O2 O 0.90803(14) 1.06976(13) 0.47423(11) 0.0322 Uani
N1 N 0.91229(17) 0.90752(14) 0.46133(13) 0.0314 Uani
H1 H 0.9703 0.9158 0.4772 0.0380 Uiso
N2 N 0.76435(16) 0.98410(16) 0.52723(12) 0.0304 Uani
H2 H 0.7047 0.9801 0.5140 0.0370 Uiso
C1 C 0.5341(2) 0.9304(2) 0.42612(18) 0.0434 Uani
H3 H 0.4765 0.8991 0.4304 0.0520 Uiso
O3 O 0.54716(17) 0.97013(15) 0.36786(12) 0.0442 Uani
O4 O 0.58722(17) 0.9277(2) 0.47760(14) 0.0621 Uani
C2 C 0.8915(2) 0.82399(18) 0.44078(16) 0.0331 Uani
C3 C 0.8010(2) 0.7978(2) 0.4196(2) 0.0533 Uani
H4 H 0.7497 0.8377 0.4199 0.0640 Uiso
C4 C 0.7874(3) 0.7142(2) 0.3983(2) 0.0525 Uani
H5 H 0.7256 0.6972 0.3841 0.0630 Uiso
N3 N 0.85704(18) 0.65367(16) 0.39635(14) 0.0356 Uani
C5 C 0.9423(2) 0.6786(2) 0.41933(17) 0.0374 Uani
H6 H 0.9920 0.6371 0.4196 0.0450 Uiso
C6 C 0.9619(2) 0.7613(2) 0.44268(17) 0.0377 Uani
H7 H 1.0233 0.7755 0.4600 0.0450 Uiso
C7 C 0.7820(2) 0.98020(19) 0.60050(15) 0.0299 Uani
C8 C 0.7067(2) 0.9691(2) 0.64863(16) 0.0367 Uani
H8 H 0.6437 0.9645 0.6311 0.0440 Uiso
C9 C 0.7247(2) 0.9650(2) 0.72143(16) 0.0376 Uani
H9 H 0.6727 0.9580 0.7534 0.0450 Uiso
N4 N 0.81157(17) 0.97030(16) 0.74958(13) 0.0310 Uani
C10 C 0.8838(2) 0.9809(2) 0.70357(16) 0.0393 Uani
H10 H 0.9460 0.9846 0.7227 0.0470 Uiso
C11 C 0.8723(2) 0.9865(3) 0.63039(16) 0.0441 Uani
H11 H 0.9257 0.9946 0.6000 0.0530 Uiso
Zn1C Zn 0.83513(2) 0.96484(2) 0.856659(17) 0.0268 Uani
Zn1E Zn 0.83513(2) 0.53516(2) 0.356659(17) 0.0268 Uani
N3E N 0.64296(18) 1.15367(16) 0.39635(14) 0.0356 Uani
N4C N 0.68843(17) 1.02970(16) 0.24958(13) 0.0310 Uani
loop_
_atom_site_aniso_label
_atom_site_aniso_U_11
_atom_site_aniso_U_22
_atom_site_aniso_U_33
_atom_site_aniso_U_23
_atom_site_aniso_U_13
_atom_site_aniso_U_12
Zn1 0.02922(19) 0.03292(18) 0.01814(16) -0.00245(13) -0.00071(14) 0.00040(14)
P1 0.0244(4) 0.0307(4) 0.0193(3) -0.0025(3) -0.0024(3) -0.0023(3)
O1 0.0275(11) 0.0419(11) 0.0206(10) -0.0015(9) -0.0031(8) -0.0007(9)
O2 0.0303(11) 0.0322(10) 0.0340(11) -0.0007(9) -0.0071(9) -0.0052(9)
N1 0.0247(13) 0.0299(12) 0.0395(14) -0.0051(11) -0.0056(11) -0.0035(10)
N2 0.0193(12) 0.0533(16) 0.0187(11) -0.0019(10) -0.0041(9) -0.0024(10)
C1 0.0325(18) 0.062(2) 0.0358(18) 0.0013(16) -0.0012(15) -0.0162(16)
O3 0.0404(13) 0.0577(15) 0.0345(12) 0.0009(11) -0.0022(10) -0.0135(11)
O4 0.0363(14) 0.107(2) 0.0429(15) 0.0216(15) -0.0057(12) -0.0258(14)
C2 0.0298(16) 0.0330(15) 0.0365(17) -0.0039(13) -0.0066(13) 0.0002(12)
C3 0.0285(17) 0.0385(18) 0.093(3) -0.0179(19) -0.0226(19) 0.0050(14)
C4 0.0322(18) 0.0402(18) 0.085(3) -0.0138(18) -0.0186(19) 0.0015(14)
N3 0.0348(15) 0.0327(13) 0.0393(15) -0.0053(11) -0.0080(11) -0.0006(11)
C5 0.0302(16) 0.0401(17) 0.0420(18) -0.0066(14) -0.0093(14) 0.0049(13)
C6 0.0259(15) 0.0455(18) 0.0416(18) -0.0083(14) -0.0110(13) 0.0031(13)
C7 0.0250(15) 0.0437(17) 0.0209(13) -0.0006(12) -0.0005(11) 0.0000(12)
C8 0.0222(15) 0.062(2) 0.0258(15) 0.0015(14) -0.0004(12) -0.0003(14)
C9 0.0274(16) 0.059(2) 0.0265(15) 0.0030(14) 0.0021(12) -0.0020(14)
N4 0.0269(13) 0.0463(14) 0.0197(11) 0.0033(11) 0.0010(9) 0.0026(11)
C10 0.0229(15) 0.073(2) 0.0220(14) -0.0009(15) -0.0039(12) -0.0002(15)
C11 0.0252(16) 0.087(3) 0.0202(15) -0.0032(15) 0.0025(12) -0.0022(17)
Zn1C 0.02922 0.03292 0.01814 0.00245 0.00071 0.0004
Zn1E 0.02922 0.03292 0.01814 -0.00245 0.00071 -0.0004
N3E 0.0348 0.0327 0.0393 -0.0053 0.008 0.0006
N4C 0.0269 0.0463 0.0197 -0.0033 -0.001 0.0026
loop_
_geom_bond_atom_site_label_1
_geom_bond_atom_site_label_2
_geom_bond_site_symmetry_1
_geom_bond_site_symmetry_2
Zn1 O1 1_555 1_555
P1 O1 1_555 1_555
O2 P1 1_555 1_555
N1 P1 1_555 1_555
H1 N1 1_555 1_555
N2 P1 1_555 1_555
H2 N2 1_555 1_555
C1 H3 1_555 1_555
O3 Zn1 1_555 1_555
O4 C1 1_555 1_555
C2 N1 1_555 1_555
C3 C2 1_555 1_555
H4 C3 1_555 1_555
C4 C3 1_555 1_555
H5 C4 1_555 1_555
N3 C4 1_555 1_555
C5 N3 1_555 1_555
H6 C5 1_555 1_555
C6 C2 1_555 1_555
H7 C6 1_555 1_555
C7 N2 1_555 1_555
C8 C7 1_555 1_555
H8 C8 1_555 1_555
C9 C8 1_555 1_555
H9 C9 1_555 1_555
N4 C9 1_555 1_555
C10 N4 1_555 1_555
H10 C10 1_555 1_555
C11 C7 1_555 1_555
H11 C11 1_555 1_555
Zn1C N4 1_555 1_555
Zn1E N3 1_555 1_555
N3E Zn1 1_555 1_555
N4C Zn1 1_555 1_555
C1 O3 1_555 1_555
C5 C6 1_555 1_555
C10 C11 1_555 1_555

#END
