
#######################################################################
#
#                 Cambridge Crystallographic Data Centre
#                                CCDC 
#
#######################################################################
#
# If this CIF has been generated from an entry in the Cambridge 
# Structural Database, then it will include bibliographic, chemical, 
# crystal, experimental, refinement or atomic coordinate data resulting 
# from the CCDC's data processing and validation procedures.
#
#######################################################################

data_FUMYES
_chemical_formula_moiety         '(C24 H20 B2 Co1 Fe2 N18)n'
_chemical_name_systematic        
'catena-(tetrakis(\m~2~-cyano)-dicyano-bis(hydrogen tris(1H-pyrazolyl)borato)-cobalt(ii)-di-iron(iii))'
_symmetry_cell_setting           orthorhombic
_symmetry_space_group_name_H-M   'I b a m'
_symmetry_Int_Tables_number      72
_space_group_name_Hall           '-I 2 2c'
loop_
_symmetry_equiv_pos_site_id
_symmetry_equiv_pos_as_xyz
1 x,y,z
2 -x,-y,z
3 1/2-x,1/2+y,-z
4 1/2+x,1/2-y,-z
5 1/2+x,1/2+y,1/2+z
6 1/2-x,1/2-y,1/2+z
7 -x,y,1/2-z
8 x,-y,1/2-z
9 -x,-y,-z
10 x,y,-z
11 1/2+x,1/2-y,z
12 1/2-x,1/2+y,z
13 1/2-x,1/2-y,1/2-z
14 1/2+x,1/2+y,1/2-z
15 x,-y,1/2+z
16 -x,y,1/2+z
_cell_length_a                   14.438(3)
_cell_length_b                   18.437(4)
_cell_length_c                   12.997(3)
_cell_angle_alpha                90
_cell_angle_beta                 90
_cell_angle_gamma                90
_cell_volume                     3459.72
_exptl_crystal_colour            'black red'
_cell_formula_units_Z            4
loop_
_atom_site_label
_atom_site_type_symbol
_atom_site_fract_x
_atom_site_fract_y
_atom_site_fract_z
_atom_site_U_iso_or_equiv
_atom_site_thermal_displace_type
Fe1 Fe 0.20053(12) 0.36108(11) 0.0000 0.0272 Uani
Co1 Co 0.0000 0.5000 0.2500 0.0292 Uani
N1 N 0.2808(5) 0.3147(4) 0.1038(6) 0.0280 Uani
N2 N 0.1224(7) 0.2733(6) 0.0000 0.0287 Uani
N3 N 0.0771(5) 0.4396(4) 0.1601(6) 0.0270 Uani
N4 N 0.3044(5) 0.2429(5) 0.0951(6) 0.0280 Uani
N5 N 0.1616(7) 0.2059(6) 0.0000 0.0280 Uani
C1 C 0.1238(6) 0.4097(5) 0.1027(7) 0.0290 Uani
C2 C 0.0093(9) 0.1898(8) 0.0000 0.0277 Uani
H1 H -0.0493 0.1688 0.0000 0.0330 Uiso
C3 C 0.3715(6) 0.2823(6) 0.2362(8) 0.0373 Uani
H2 H 0.4063 0.2841 0.2963 0.0450 Uiso
C4 C 0.3582(6) 0.2233(6) 0.1746(7) 0.0307 Uani
H3 H 0.3824 0.1773 0.1859 0.0370 Uiso
C5 C 0.0298(8) 0.2636(8) 0.0000 0.0267 Uani
H4 H -0.0138 0.3007 0.0000 0.0320 Uiso
C6 C 0.3228(6) 0.3393(6) 0.1916(7) 0.0357 Uani
H5 H 0.3194 0.3863 0.2172 0.0430 Uiso
C7 C 0.0944(8) 0.1537(7) 0.0000 0.0257 Uani
H6 H 0.1036 0.1038 0.0000 0.0310 Uiso
B1 B 0.2696(9) 0.1997(8) 0.0000 0.0210 Uani
H7 H 0.2910 0.1492 0.0000 0.0250 Uiso
C8 C 0.2804(10) 0.4441(10) 0.0000 0.0473 Uani
N6 N 0.3290(11) 0.4945(9) 0.0000 0.0750 Uani
Fe1A Fe -0.20053(12) 0.63892(11) 0.0000 0.0272 Uani
Fe1F Fe -0.20053(12) 0.36108(11) 0.5000 0.0272 Uani
Fe1G Fe 0.20053(12) 0.63892(11) 0.5000 0.0272 Uani
N1I N 0.2808(5) 0.3147(4) -0.1038(6) 0.0280 Uani
N1A N -0.2808(5) 0.6853(4) 0.1038(6) 0.0280 Uani
N1H N -0.2808(5) 0.6853(4) -0.1038(6) 0.0280 Uani
N2A N -0.1224(7) 0.7267(6) 0.0000 0.0287 Uani
N3A N -0.0771(5) 0.5604(4) 0.1601(6) 0.0270 Uani
N3F N -0.0771(5) 0.4396(4) 0.3399(6) 0.0270 Uani
N3G N 0.0771(5) 0.5604(4) 0.3399(6) 0.0270 Uani
N4I N 0.3044(5) 0.2429(5) -0.0951(6) 0.0280 Uani
N4A N -0.3044(5) 0.7571(5) 0.0951(6) 0.0280 Uani
N4H N -0.3044(5) 0.7571(5) -0.0951(6) 0.0280 Uani
N5A N -0.1616(7) 0.7941(6) 0.0000 0.0280 Uani
C1A C -0.1238(6) 0.5903(5) 0.1027(7) 0.0290 Uani
C1F C -0.1238(6) 0.4097(5) 0.3973(7) 0.0290 Uani
C1G C 0.1238(6) 0.5903(5) 0.3973(7) 0.0290 Uani
C1I C 0.1238(6) 0.4097(5) -0.1027(7) 0.0290 Uani
C1H C -0.1238(6) 0.5903(5) -0.1027(7) 0.0290 Uani
C2A C -0.0093(9) 0.8102(8) 0.0000 0.0277 Uani
H1A H 0.0493 0.8312 0.0000 0.0330 Uiso
C3I C 0.3715(6) 0.2823(6) -0.2362(8) 0.0373 Uani
C3A C -0.3715(6) 0.7177(6) 0.2362(8) 0.0373 Uani
C3H C -0.3715(6) 0.7177(6) -0.2362(8) 0.0373 Uani
H2I H 0.4063 0.2841 -0.2963 0.0450 Uiso
H2A H -0.4063 0.7159 0.2963 0.0450 Uiso
H2H H -0.4063 0.7159 -0.2963 0.0450 Uiso
C4I C 0.3582(6) 0.2233(6) -0.1746(7) 0.0307 Uani
C4A C -0.3582(6) 0.7767(6) 0.1746(7) 0.0307 Uani
C4H C -0.3582(6) 0.7767(6) -0.1746(7) 0.0307 Uani
H3I H 0.3824 0.1773 -0.1859 0.0370 Uiso
H3A H -0.3824 0.8227 0.1859 0.0370 Uiso
H3H H -0.3824 0.8227 -0.1859 0.0370 Uiso
C5A C -0.0298(8) 0.7364(8) 0.0000 0.0267 Uani
H4A H 0.0138 0.6993 0.0000 0.0320 Uiso
C6I C 0.3228(6) 0.3393(6) -0.1916(7) 0.0357 Uani
C6A C -0.3228(6) 0.6607(6) 0.1916(7) 0.0357 Uani
C6H C -0.3228(6) 0.6607(6) -0.1916(7) 0.0357 Uani
H5I H 0.3194 0.3863 -0.2172 0.0430 Uiso
H5A H -0.3194 0.6137 0.2172 0.0430 Uiso
H5H H -0.3194 0.6137 -0.2172 0.0430 Uiso
C7A C -0.0944(8) 0.8463(7) 0.0000 0.0257 Uani
H6A H -0.1036 0.8962 0.0000 0.0310 Uiso
B1A B -0.2696(9) 0.8003(8) 0.0000 0.0210 Uani
H7A H -0.2910 0.8508 0.0000 0.0250 Uiso
C8A C -0.2804(10) 0.5559(10) 0.0000 0.0473 Uani
N6A N -0.3290(11) 0.5055(9) 0.0000 0.0750 Uani
loop_
_atom_site_aniso_label
_atom_site_aniso_U_11
_atom_site_aniso_U_22
_atom_site_aniso_U_33
_atom_site_aniso_U_23
_atom_site_aniso_U_13
_atom_site_aniso_U_12
Fe1 0.0157(9) 0.0349(12) 0.0309(11) 0.000 0.000 -0.0014(8)
Co1 0.0241(13) 0.0337(15) 0.0298(14) 0.000 0.000 0.000
N1 0.016(4) 0.044(5) 0.024(4) -0.001(4) 0.003(3) 0.001(3)
N2 0.009(5) 0.046(7) 0.031(6) 0.000 0.000 0.004(5)
N3 0.021(4) 0.026(4) 0.034(5) -0.004(4) 0.000(4) 0.002(3)
N4 0.014(4) 0.043(5) 0.027(4) 0.002(4) 0.003(3) -0.001(4)
N5 0.021(6) 0.027(6) 0.036(6) 0.000 0.000 0.014(5)
C1 0.015(5) 0.036(6) 0.036(6) 0.001(4) -0.009(4) 0.010(4)
C2 0.016(6) 0.042(8) 0.025(7) 0.000 0.000 -0.006(6)
C3 0.022(5) 0.053(7) 0.037(6) 0.015(5) -0.001(4) 0.007(5)
C4 0.020(5) 0.034(6) 0.038(6) -0.001(5) -0.001(4) 0.003(4)
C5 0.013(6) 0.052(10) 0.015(6) 0.000 0.000 0.001(6)
C6 0.030(5) 0.053(7) 0.024(5) -0.001(5) 0.006(4) -0.010(5)
C7 0.010(6) 0.020(7) 0.047(8) 0.000 0.000 -0.006(5)
B1 0.016(7) 0.016(7) 0.031(8) 0.000 0.000 -0.003(5)
C8 0.033(9) 0.084(13) 0.025(8) 0.000 0.000 -0.003(9)
N6 0.048(9) 0.048(10) 0.129(15) 0.000 0.000 -0.011(8)
Fe1A 0.0157 0.0349 0.0309 0 0 -0.0014
Fe1F 0.0157 0.0349 0.0309 0 0 0.0014
Fe1G 0.0157 0.0349 0.0309 0 0 0.0014
N1I 0.016 0.044 0.024 0.001 -0.003 0.001
N1A 0.016 0.044 0.024 0.001 -0.003 0.001
N1H 0.016 0.044 0.024 -0.001 0.003 0.001
N2A 0.009 0.046 0.031 0 0 0.004
N3A 0.021 0.026 0.034 0.004 0 0.002
N3F 0.021 0.026 0.034 0.004 0 -0.002
N3G 0.021 0.026 0.034 -0.004 0 -0.002
N4I 0.014 0.043 0.027 -0.002 -0.003 -0.001
N4A 0.014 0.043 0.027 -0.002 -0.003 -0.001
N4H 0.014 0.043 0.027 0.002 0.003 -0.001
N5A 0.021 0.027 0.036 0 0 0.014
C1A 0.015 0.036 0.036 -0.001 0.009 0.01
C1F 0.015 0.036 0.036 -0.001 -0.009 -0.01
C1G 0.015 0.036 0.036 0.001 0.009 -0.01
C1I 0.015 0.036 0.036 -0.001 0.009 0.01
C1H 0.015 0.036 0.036 0.001 -0.009 0.01
C2A 0.016 0.042 0.025 0 0 -0.006
C3I 0.022 0.053 0.037 -0.015 0.001 0.007
C3A 0.022 0.053 0.037 -0.015 0.001 0.007
C3H 0.022 0.053 0.037 0.015 -0.001 0.007
C4I 0.02 0.034 0.038 0.001 0.001 0.003
C4A 0.02 0.034 0.038 0.001 0.001 0.003
C4H 0.02 0.034 0.038 -0.001 -0.001 0.003
C5A 0.013 0.052 0.015 0 0 0.001
C6I 0.03 0.053 0.024 0.001 -0.006 -0.01
C6A 0.03 0.053 0.024 0.001 -0.006 -0.01
C6H 0.03 0.053 0.024 -0.001 0.006 -0.01
C7A 0.01 0.02 0.047 0 0 -0.006
B1A 0.016 0.016 0.031 0 0 -0.003
C8A 0.033 0.084 0.025 0 0 -0.003
N6A 0.048 0.048 0.129 0 0 -0.011
loop_
_geom_bond_atom_site_label_1
_geom_bond_atom_site_label_2
_geom_bond_site_symmetry_1
_geom_bond_site_symmetry_2
Fe1 N1 1_555 1_555
Co1 N3 1_555 1_555
N1 N4 1_555 1_555
N2 Fe1 1_555 1_555
N3 C1 1_555 1_555
N4 C4 1_555 1_555
N5 N2 1_555 1_555
C1 Fe1 1_555 1_555
C2 H1 1_555 1_555
C3 H2 1_555 1_555
C4 C3 1_555 1_555
H3 C4 1_555 1_555
C5 N2 1_555 1_555
H4 C5 1_555 1_555
C6 N1 1_555 1_555
H5 C6 1_555 1_555
C7 N5 1_555 1_555
H6 C7 1_555 1_555
B1 N4 1_555 1_555
H7 B1 1_555 1_555
C8 Fe1 1_555 1_555
N6 C8 1_555 1_555
Fe1A N1A 1_555 1_555
Fe1F C1F 1_555 1_555
Fe1G C1G 1_555 1_555
N1I Fe1 1_555 1_555
N1A N4A 1_555 1_555
N1H Fe1A 1_555 1_555
N2A Fe1A 1_555 1_555
N3A Co1 1_555 1_555
N3F Co1 1_555 1_555
N3G Co1 1_555 1_555
N4I B1 1_555 1_555
N4A C4A 1_555 1_555
N4H N1H 1_555 1_555
N5A N2A 1_555 1_555
C1A Fe1A 1_555 1_555
C1F N3F 1_555 1_555
C1G N3G 1_555 1_555
C1I Fe1 1_555 1_555
C1H Fe1A 1_555 1_555
C2A H1A 1_555 1_555
C3I H2I 1_555 1_555
C3A H2A 1_555 1_555
C3H H2H 1_555 1_555
C4I N4I 1_555 1_555
C4A C3A 1_555 1_555
C4H N4H 1_555 1_555
H3I C4I 1_555 1_555
H3A C4A 1_555 1_555
H3H C4H 1_555 1_555
C5A N2A 1_555 1_555
H4A C5A 1_555 1_555
C6I N1I 1_555 1_555
C6A N1A 1_555 1_555
C6H N1H 1_555 1_555
H5I C6I 1_555 1_555
H5A C6A 1_555 1_555
H5H C6H 1_555 1_555
C7A N5A 1_555 1_555
H6A C7A 1_555 1_555
B1A N4A 1_555 1_555
H7A B1A 1_555 1_555
C8A Fe1A 1_555 1_555
N6A C8A 1_555 1_555
N5 B1 1_555 1_555
C2 C5 1_555 1_555
C2 C7 1_555 1_555
C3 C6 1_555 1_555
N1I N4I 1_555 1_555
N3A C1A 1_555 1_555
N4H B1A 1_555 1_555
N5A B1A 1_555 1_555
C2A C5A 1_555 1_555
C2A C7A 1_555 1_555
C3I C4I 1_555 1_555
C3I C6I 1_555 1_555
C3A C6A 1_555 1_555
C3H C4H 1_555 1_555
C3H C6H 1_555 1_555

#END
