
#######################################################################
#
#                 Cambridge Crystallographic Data Centre
#                                CCDC 
#
#######################################################################
#
# If this CIF has been generated from an entry in the Cambridge 
# Structural Database, then it will include bibliographic, chemical, 
# crystal, experimental, refinement or atomic coordinate data resulting 
# from the CCDC's data processing and validation procedures.
#
#######################################################################

data_TEYBUW
_chemical_formula_moiety         '(C26 H18 N4 O8 Pb1)n,n(C3 H7 N1 O1),2n(H2 O1)'
_chemical_name_systematic        
'catena-((\m~4~-N-(4-Carboxylatophenyl)isonicotinamide 1-oxide)-(\m~2~-N-(4-carboxylatophenyl)isonicotinamide 1-oxide)-lead dimethylformamide solvate dihydrate)'
_symmetry_cell_setting           monoclinic
_symmetry_space_group_name_H-M   'C 2/c'
_symmetry_Int_Tables_number      15
_space_group_name_Hall           '-C 2yc'
loop_
_symmetry_equiv_pos_site_id
_symmetry_equiv_pos_as_xyz
1 x,y,z
2 -x,y,1/2-z
3 1/2+x,1/2+y,z
4 1/2-x,1/2+y,1/2-z
5 -x,-y,-z
6 x,-y,1/2+z
7 1/2-x,1/2-y,-z
8 1/2+x,1/2-y,1/2+z
_cell_length_a                   43.753(3)
_cell_length_b                   7.7050(3)
_cell_length_c                   28.326(2)
_cell_angle_alpha                90
_cell_angle_beta                 129.724(12)
_cell_angle_gamma                90
_cell_volume                     7344.57
_exptl_crystal_colour            colorless
_exptl_crystal_description       block
_cell_formula_units_Z            8
loop_
_atom_site_label
_atom_site_type_symbol
_atom_site_fract_x
_atom_site_fract_y
_atom_site_fract_z
_atom_site_U_iso_or_equiv
_atom_site_thermal_displace_type
Pb1 Pb 0.724221(10) -1.37372(5) 0.721690(16) 0.0165 Uani
C1 C 0.7126(3) -1.5498(13) 0.7991(4) 0.0156 Uani
C2 C 0.7070(3) -1.6480(14) 0.8388(4) 0.0215 Uani
C3 C 0.7065(3) -1.8295(13) 0.8382(5) 0.0242 Uani
H1 H 0.7100 -1.8894 0.8127 0.0290 Uiso
C4 C 0.7010(3) -1.9221(14) 0.8728(5) 0.0253 Uani
H2 H 0.6995 -2.0451 0.8699 0.0310 Uiso
C5 C 0.6977(3) -1.8345(13) 0.9138(5) 0.0241 Uani
C6 C 0.6977(3) -1.6557(13) 0.9139(5) 0.0282 Uani
H3 H 0.6949 -1.5955 0.9402 0.0330 Uiso
C7 C 0.7018(3) -1.5616(14) 0.8765(5) 0.0278 Uani
H4 H 0.7010 -1.4384 0.8765 0.0330 Uiso
N1 N 0.6942(3) -1.9207(11) 0.9532(4) 0.0258 Uani
H5 H 0.6880 -1.8547 0.9714 0.0310 Uiso
C8 C 0.7011(3) -2.1413(15) 1.0204(5) 0.0291 Uani
C9 C 0.7108(4) -2.3129(14) 1.0403(5) 0.0320 Uani
H6 H 0.7145 -2.3937 1.0189 0.0390 Uiso
C10 C 0.7152(3) -2.3654(14) 1.0900(5) 0.0277 Uani
H7 H 0.7216 -2.4832 1.1026 0.0330 Uiso
C11 C 0.7004(3) -2.0879(13) 1.1034(5) 0.0234 Uani
H8 H 0.6968 -2.0109 1.1257 0.0280 Uiso
C12 C 0.6952(3) -2.0293(15) 1.0529(5) 0.0277 Uani
H9 H 0.6876 -1.9122 1.0400 0.0330 Uiso
C13 C 0.3599(3) -0.6422(15) 0.4018(5) 0.0281 Uani
C14 C 0.4026(3) -0.6761(16) 0.4471(5) 0.0342 Uani
C15 C 0.4264(3) -0.6559(14) 0.4310(5) 0.0270 Uani
H10 H 0.4148 -0.6172 0.3909 0.0320 Uiso
C16 C 0.4673(3) -0.6915(15) 0.4729(5) 0.0314 Uani
H11 H 0.4833 -0.6727 0.4616 0.0380 Uiso
C17 C 0.4842(3) -0.7543(19) 0.5308(5) 0.0393 Uani
C18 C 0.4617(4) -0.775(2) 0.5487(7) 0.0625 Uani
H12 H 0.4735 -0.8160 0.5888 0.0750 Uiso
C19 C 0.4205(4) -0.734(2) 0.5064(7) 0.0621 Uani
H13 H 0.4048 -0.7470 0.5186 0.0740 Uiso
C20 C 0.5474(3) -0.8710(16) 0.6246(5) 0.0328 Uani
C21 C 0.5895(3) -0.9086(14) 0.6506(5) 0.0300 Uani
C22 C 0.6108(3) -0.8094(16) 0.6412(5) 0.0301 Uani
H14 H 0.5998 -0.7056 0.6178 0.0360 Uiso
C23 C 0.6495(3) -0.8610(14) 0.6660(4) 0.0223 Uani
H15 H 0.6648 -0.7902 0.6606 0.0270 Uiso
C24 C 0.6450(3) -1.1083(14) 0.7107(5) 0.0248 Uani
H16 H 0.6570 -1.2097 0.7352 0.0300 Uiso
C25 C 0.6074(3) -1.0569(15) 0.6877(5) 0.0281 Uani
H17 H 0.5936 -1.1229 0.6972 0.0340 Uiso
C26 C 0.6988(4) -2.0873(14) 0.9675(5) 0.0345 Uani
N2 N 0.7106(2) -2.2564(11) 1.1215(4) 0.0204 Uani
N3 N 0.5254(3) -0.7948(15) 0.5703(5) 0.0425 Uani
H18 H 0.5380 -0.7650 0.5567 0.0510 Uiso
N4 N 0.6644(2) -1.0089(11) 0.6971(4) 0.0206 Uani
O1 O 0.7071(2) -1.3885(9) 0.7928(3) 0.0237 Uani
O2 O 0.7244(2) -1.6291(9) 0.7744(3) 0.0229 Uani
O3 O 0.7017(4) -2.1984(13) 0.9396(5) 0.0729 Uani
O4 O 0.7173(2) -2.3057(9) 1.1720(3) 0.0191 Uani
O5 O 0.34659(19) -0.5872(9) 0.3496(3) 0.0238 Uani
O6 O 0.3375(2) -0.6736(11) 0.4151(4) 0.0360 Uani
O7 O 0.5357(2) -0.9157(13) 0.6519(4) 0.0502 Uani
O8 O 0.7001(2) -1.0588(9) 0.7171(3) 0.0232 Uani
Pb1C Pb 0.775779(10) -1.87372(5) 0.778310(16) 0.0165 Uani
Pb1D Pb 0.275779(10) -0.62628(5) 0.278310(16) 0.0165 Uani
Pb1E Pb 0.724221(10) -2.62628(5) 1.221690(16) 0.0165 Uani
Pb1F Pb 0.775779(10) -2.12628(5) 1.278310(16) 0.0165 Uani
O2C O 0.7756(2) -1.1291(9) 0.7256(3) 0.0229 Uani
O4E O 0.7173(2) -1.6943(9) 0.6720(3) 0.0191 Uani
O4F O 0.7827(2) -1.1943(9) 0.8280(3) 0.0191 Uani
O5D O 0.65341(19) -1.4128(9) 0.6504(3) 0.0238 Uani
O9 O 0.4518(3) -0.2384(16) 0.5043(6) 0.0805 Uani
N5 N 0.4337(5) -0.2483(19) 0.5570(9) 0.1542 Uani
C27 C 0.4750(7) -0.265(4) 0.6119(9) 0.1912 Uani
H19 H 0.4908 -0.1744 0.6118 0.2870 Uiso
H20 H 0.4850 -0.3792 0.6125 0.2870 Uiso
H21 H 0.4772 -0.2511 0.6483 0.2870 Uiso
C28 C 0.3927(7) -0.240(4) 0.5378(13) 0.1867 Uani
H22 H 0.3781 -0.1422 0.5097 0.2800 Uiso
H23 H 0.3948 -0.2247 0.5741 0.2800 Uiso
H24 H 0.3785 -0.3483 0.5170 0.2800 Uiso
C29 C 0.4288(6) -0.2363(17) 0.5061(9) 0.1232 Uani
H25 H 0.4024 -0.2251 0.4685 0.1480 Uiso
O10 O 0.6580(2) 0.6661(10) 0.4826(4) 0.0384 Uani
O11 O 0.5832(7) 0.710(3) 0.3631(12) 0.0867 Uani
O12 O 0.5770(7) 0.382(3) 0.2628(11) 0.0782 Uani
loop_
_atom_site_aniso_label
_atom_site_aniso_U_11
_atom_site_aniso_U_22
_atom_site_aniso_U_33
_atom_site_aniso_U_23
_atom_site_aniso_U_13
_atom_site_aniso_U_12
Pb1 0.0173(2) 0.0200(2) 0.0167(2) 0.00144(19) 0.01298(18) 0.00020(19)
C1 0.018(5) 0.021(5) 0.019(5) -0.001(4) 0.017(4) -0.005(4)
C2 0.023(5) 0.028(6) 0.019(5) -0.004(5) 0.016(5) -0.002(5)
C3 0.031(6) 0.028(6) 0.021(5) -0.006(4) 0.020(5) -0.003(5)
C4 0.032(6) 0.027(6) 0.025(6) 0.004(5) 0.022(5) 0.001(5)
C5 0.026(6) 0.027(7) 0.025(6) 0.001(5) 0.019(5) -0.001(5)
C6 0.041(7) 0.025(7) 0.030(6) -0.006(5) 0.028(6) -0.002(5)
C7 0.044(7) 0.022(5) 0.032(6) -0.002(5) 0.031(6) -0.003(5)
N1 0.046(6) 0.024(5) 0.029(5) -0.001(4) 0.034(5) 0.001(4)
C8 0.042(7) 0.030(6) 0.029(6) -0.005(5) 0.029(6) -0.007(6)
C9 0.058(8) 0.025(6) 0.039(7) 0.001(5) 0.043(7) 0.006(6)
C10 0.044(7) 0.020(5) 0.038(6) 0.001(5) 0.035(6) 0.005(6)
C11 0.038(6) 0.020(6) 0.030(6) 0.000(5) 0.030(5) 0.002(5)
C12 0.036(7) 0.028(6) 0.026(6) 0.002(5) 0.023(6) 0.003(5)
C13 0.032(6) 0.031(6) 0.029(6) -0.009(5) 0.023(5) -0.007(5)
C14 0.028(6) 0.053(8) 0.023(6) 0.003(5) 0.017(5) 0.004(6)
C15 0.022(5) 0.043(7) 0.021(5) 0.002(5) 0.016(5) -0.003(5)
C16 0.034(7) 0.038(6) 0.035(7) -0.003(5) 0.028(6) -0.004(5)
C17 0.014(6) 0.066(9) 0.027(7) 0.005(6) 0.008(5) 0.009(6)
C18 0.028(6) 0.115(10) 0.043(7) 0.033(7) 0.022(6) 0.029(7)
C19 0.029(6) 0.112(10) 0.052(8) 0.027(8) 0.029(6) 0.019(7)
C20 0.021(5) 0.048(7) 0.028(6) 0.011(6) 0.015(5) 0.011(6)
C21 0.026(6) 0.036(7) 0.029(6) -0.004(5) 0.018(5) -0.001(5)
C22 0.021(6) 0.038(7) 0.024(6) 0.006(5) 0.011(5) 0.000(5)
C23 0.022(5) 0.021(6) 0.023(5) -0.007(5) 0.014(5) -0.009(5)
C24 0.021(5) 0.027(6) 0.030(6) -0.008(5) 0.018(5) -0.004(5)
C25 0.022(6) 0.037(6) 0.029(6) 0.002(5) 0.018(5) 0.004(5)
C26 0.067(9) 0.027(7) 0.032(6) -0.010(5) 0.042(7) -0.008(6)
N2 0.023(5) 0.024(5) 0.022(5) 0.003(4) 0.018(4) -0.002(4)
N3 0.021(5) 0.073(8) 0.038(6) 0.013(6) 0.021(5) 0.012(5)
N4 0.022(5) 0.020(5) 0.018(4) 0.002(4) 0.012(4) 0.003(4)
O1 0.028(4) 0.024(4) 0.028(4) 0.003(3) 0.022(3) 0.006(3)
O2 0.032(4) 0.026(4) 0.024(4) 0.001(4) 0.024(3) -0.004(4)
O3 0.158(10) 0.037(5) 0.076(7) 0.004(5) 0.099(8) 0.002(6)
O4 0.022(4) 0.026(4) 0.017(4) 0.002(3) 0.016(3) 0.003(3)
O5 0.009(3) 0.035(5) 0.019(4) 0.000(3) 0.005(3) -0.008(3)
O6 0.024(4) 0.059(6) 0.037(5) 0.002(4) 0.025(4) 0.001(4)
O7 0.028(4) 0.085(7) 0.044(5) 0.022(5) 0.026(4) 0.016(5)
O8 0.019(4) 0.021(4) 0.034(4) -0.003(3) 0.019(4) 0.003(3)
Pb1C 0.0173 0.02 0.0167 -0.00144 0.01298 -0.0002
Pb1D 0.0173 0.02 0.0167 0.00144 0.01298 0.0002
Pb1E 0.0173 0.02 0.0167 -0.00144 0.01298 -0.0002
Pb1F 0.0173 0.02 0.0167 0.00144 0.01298 0.0002
O2C 0.032 0.026 0.024 -0.001 0.024 0.004
O4E 0.022 0.026 0.017 -0.002 0.016 -0.003
O4F 0.022 0.026 0.017 0.002 0.016 0.003
O5D 0.009 0.035 0.019 0 0.005 -0.008
O9 0.069(6) 0.111(7) 0.104(6) 0.009(5) 0.075(5) 0.008(5)
N5 0.150(9) 0.178(9) 0.164(9) -0.002(7) 0.114(8) 0.018(8)
C27 0.177(10) 0.189(10) 0.186(10) -0.003(8) 0.106(7) 0.004(8)
C28 0.175(10) 0.187(10) 0.185(10) 0.006(8) 0.109(7) 0.006(8)
C29 0.108(9) 0.131(9) 0.129(9) 0.014(8) 0.075(7) 0.008(8)
O10 0.043(4) 0.044(5) 0.040(4) -0.004(4) 0.032(4) -0.006(4)
O11 0.070(10) 0.102(11) 0.090(11) 0.004(8) 0.052(8) -0.006(8)
O12 0.079(10) 0.080(10) 0.079(10) -0.034(8) 0.052(8) 0.008(8)
loop_
_geom_bond_atom_site_label_1
_geom_bond_atom_site_label_2
_geom_bond_site_symmetry_1
_geom_bond_site_symmetry_2
Pb1 O1 1_555 1_555
C1 C2 1_555 1_555
C2 C3 1_555 1_555
C3 H1 1_555 1_555
C4 C3 1_555 1_555
H2 C4 1_555 1_555
C5 C4 1_555 1_555
C6 C5 1_555 1_555
H3 C6 1_555 1_555
C7 C2 1_555 1_555
H4 C7 1_555 1_555
N1 C5 1_555 1_555
H5 N1 1_555 1_555
C8 C9 1_555 1_555
C9 H6 1_555 1_555
C10 C9 1_555 1_555
H7 C10 1_555 1_555
C11 H8 1_555 1_555
C12 C8 1_555 1_555
H9 C12 1_555 1_555
C13 C14 1_555 1_555
C14 C15 1_555 1_555
C15 H10 1_555 1_555
C16 C15 1_555 1_555
H11 C16 1_555 1_555
C17 C16 1_555 1_555
C18 C17 1_555 1_555
H12 C18 1_555 1_555
C19 C14 1_555 1_555
H13 C19 1_555 1_555
C20 C21 1_555 1_555
C21 C22 1_555 1_555
C22 H14 1_555 1_555
C23 C22 1_555 1_555
H15 C23 1_555 1_555
C24 H16 1_555 1_555
C25 C21 1_555 1_555
H17 C25 1_555 1_555
C26 N1 1_555 1_555
N2 C10 1_555 1_555
N3 C17 1_555 1_555
H18 N3 1_555 1_555
N4 C23 1_555 1_555
O1 C1 1_555 1_555
O2 Pb1 1_555 1_555
O3 C26 1_555 1_555
O4 N2 1_555 1_555
O5 C13 1_555 1_555
O6 C13 1_555 1_555
O7 C20 1_555 1_555
O8 Pb1 1_555 1_555
O9 C29 1_555 1_555
N5 C27 1_555 1_555
C27 H19 1_555 1_555
H20 C27 1_555 1_555
H21 C27 1_555 1_555
C28 N5 1_555 1_555
H22 C28 1_555 1_555
H23 C28 1_555 1_555
H24 C28 1_555 1_555
C29 N5 1_555 1_555
H25 C29 1_555 1_555
Pb1C O2 1_555 1_555
Pb1D O5 1_555 1_555
Pb1E O4 1_555 1_555
Pb1F O4 1_555 1_555
O2C Pb1 1_555 1_555
O4E Pb1 1_555 1_555
O4F Pb1 1_555 1_555
O5D Pb1 1_555 1_555
C1 O2 1_555 1_555
C6 C7 1_555 1_555
C8 C26 1_555 1_555
C11 C12 1_555 1_555
C11 N2 1_555 1_555
C18 C19 1_555 1_555
C20 N3 1_555 1_555
C24 C25 1_555 1_555
C24 N4 1_555 1_555
N4 O8 1_555 1_555
Pb1C O4E 1_555 1_555

#END
