
#######################################################################
#
#                 Cambridge Crystallographic Data Centre
#                                CCDC 
#
#######################################################################
#
# If this CIF has been generated from an entry in the Cambridge 
# Structural Database, then it will include bibliographic, chemical, 
# crystal, experimental, refinement or atomic coordinate data resulting 
# from the CCDC's data processing and validation procedures.
#
#######################################################################

data_PITRIV
_chemical_formula_moiety         '(C30 H18 N4 O8 S4 Zn2)n,10(H2 O1)'
_chemical_name_systematic        
"catena-[(\m~4~-benzene-1,2,4,5-tetracarboxylate)-bis(\m~2~-4,4'-disulfanediyldipyridine)-di-zinc decahydrate]"
_symmetry_cell_setting           triclinic
_symmetry_space_group_name_H-M   'P -1'
_symmetry_Int_Tables_number      2
_space_group_name_Hall           '-P 1'
loop_
_symmetry_equiv_pos_site_id
_symmetry_equiv_pos_as_xyz
1 x,y,z
2 -x,-y,-z
_cell_length_a                   9.042(2)
_cell_length_b                   10.886(3)
_cell_length_c                   11.504(3)
_cell_angle_alpha                92.538(10)
_cell_angle_beta                 107.026(9)
_cell_angle_gamma                104.393(9)
_cell_volume                     1040.33
_exptl_crystal_colour            white
_exptl_crystal_description       block
_cell_formula_units_Z            1
loop_
_atom_site_label
_atom_site_type_symbol
_atom_site_fract_x
_atom_site_fract_y
_atom_site_fract_z
Zn1 Zn 0.66362(2) 0.663637(18) 0.110923(17)
S1 S 0.93649(6) 0.18938(4) 0.50169(4)
S2 S 1.09344(5) 0.32394(4) 0.44648(4)
O1 O 0.26970(16) 0.28638(13) 0.03015(13)
O2 O 0.2654(2) 0.34905(16) 0.21580(14)
O3 O 0.43783(16) 0.57072(15) 0.07643(14)
O4 O 0.37798(18) 0.75512(16) 0.09642(18)
N1 N 0.79001(18) 0.55399(15) 0.21224(14)
N2 N 0.74911(18) -0.16784(16) 0.22308(15)
C1 C 0.1643(2) 0.56333(17) 0.03857(16)
C2 C 1.0453(2) 0.52531(18) 0.32620(16)
H1 H 1.1568 0.5561 0.3543
C3 C 0.8684(2) 0.05664(17) 0.38719(17)
C4 C 0.1153(2) 0.43351(17) 0.04836(16)
C5 C 0.9518(2) 0.59476(18) 0.25510(16)
H2 H 1.0031 0.6729 0.2362
C6 C 0.9680(2) 0.40775(17) 0.35472(17)
C7 C 0.3398(2) 0.63763(19) 0.07447(16)
C8 C 0.7156(2) 0.4402(2) 0.23945(19)
H3 H 0.6039 0.4117 0.2100
C9 C 0.7445(2) -0.04448(19) 0.39956(17)
H4 H 0.7002 -0.0376 0.4622
C10 C 0.2278(2) 0.35350(18) 0.10303(17)
C11 C 0.0493(2) 0.62912(18) -0.00993(16)
H5 H 0.0830 0.7157 -0.0166
C12 C 0.8001(2) 0.3640(2) 0.30993(19)
H6 H 0.7460 0.2858 0.3268
C13 C 0.8666(2) -0.07013(19) 0.21082(18)
H7 H 0.9073 -0.0793 0.1464
C14 C 0.9298(2) 0.04368(19) 0.29007(18)
H8 H 1.0105 0.1094 0.2789
C15 C 0.6899(2) -0.1545(2) 0.31640(18)
H9 H 0.6092 -0.2218 0.3253
O3A O -0.43783(16) 0.42928(15) -0.07643(14)
O4A O -0.37798(18) 0.24488(16) -0.09642(18)
C1A C -0.1643(2) 0.43667(17) -0.03857(16)
C4A C -0.1153(2) 0.56649(17) -0.04836(16)
C7A C -0.3398(2) 0.36237(19) -0.07447(16)
C11A C -0.0493(2) 0.37088(18) 0.00993(16)
H5A H -0.0830 0.2843 0.0166
O1A O -0.26970(16) 0.71362(13) -0.03015(13)
O2A O -0.2654(2) 0.65095(16) -0.21580(14)
C10A C -0.2278(2) 0.64650(18) -0.10303(17)
Zn1A Zn -0.66362(2) 0.336363(18) -0.110923(17)
S1A S -0.93649(6) 0.81062(4) -0.50169(4)
S2A S -1.09344(5) 0.67606(4) -0.44648(4)
N1A N -0.79001(18) 0.44601(15) -0.21224(14)
N2A N -0.74911(18) 1.16784(16) -0.22308(15)
C2A C -1.0453(2) 0.47469(18) -0.32620(16)
H1A H -1.1568 0.4439 -0.3543
C3A C -0.8684(2) 0.94336(17) -0.38719(17)
C5A C -0.9518(2) 0.40524(18) -0.25510(16)
H2A H -1.0031 0.3271 -0.2362
C6A C -0.9680(2) 0.59225(17) -0.35472(17)
C8A C -0.7156(2) 0.5598(2) -0.23945(19)
H3A H -0.6039 0.5883 -0.2100
C9A C -0.7445(2) 1.04448(19) -0.39956(17)
H4A H -0.7002 1.0376 -0.4622
C12A C -0.8001(2) 0.6360(2) -0.30993(19)
H6A H -0.7460 0.7142 -0.3268
C13A C -0.8666(2) 1.07013(19) -0.21082(18)
H7A H -0.9073 1.0793 -0.1464
C14A C -0.9298(2) 0.95632(19) -0.29007(18)
H8A H -1.0105 0.8906 -0.2789
C15A C -0.6899(2) 1.1545(2) -0.31640(18)
H9A H -0.6092 1.2218 -0.3253
Zn1_2 Zn -0.33638(2) 0.663637(18) 0.110923(17)
Zn1_3 Zn 0.66362(2) -0.336363(18) 0.110923(17)
Zn1A_2 Zn -0.66362(2) 1.336363(18) -0.110923(17)
Zn1A_3 Zn 0.33638(2) 0.336363(18) -0.110923(17)
O1_2 O -0.73030(16) 0.28638(13) 0.03015(13)
O1A_2 O 0.73030(16) 0.71362(13) -0.03015(13)
N2_2 N 0.74911(18) 0.83216(16) 0.22308(15)
N2A_2 N -0.74911(18) 0.16784(16) -0.22308(15)
O5 O 0.7484(3) 0.1218(2) 0.7441(2)
O6 O 0.5839(3) 0.2257(4) 0.5424(3)
O7 O 0.4736(3) 0.5540(4) 0.3911(2)
O8 O 0.3997(5) 0.1471(3) 0.2981(4)
O9 O 0.5279(7) 0.0634(6) 0.0899(7)
loop_
_geom_bond_atom_site_label_1
_geom_bond_atom_site_label_2
_geom_bond_site_symmetry_1
_geom_bond_site_symmetry_2
Zn1 O3 1_555 1_555
S1 S2 1_555 1_555
S2 C6 1_555 1_555
O1 C10 1_555 1_555
O2 C10 1_555 1_555
O3 C7 1_555 1_555
O4 C7 1_555 1_555
N1 Zn1 1_555 1_555
N2 C13 1_555 1_555
C1 C4 1_555 1_555
C2 H1 1_555 1_555
C3 S1 1_555 1_555
C4 C10 1_555 1_555
C5 N1 1_555 1_555
H2 C5 1_555 1_555
C6 C2 1_555 1_555
C7 C1 1_555 1_555
C8 N1 1_555 1_555
H3 C8 1_555 1_555
C9 C3 1_555 1_555
H4 C9 1_555 1_555
C11 C1 1_555 1_555
H5 C11 1_555 1_555
C12 C6 1_555 1_555
H6 C12 1_555 1_555
C13 H7 1_555 1_555
C14 C3 1_555 1_555
H8 C14 1_555 1_555
C15 N2 1_555 1_555
H9 C15 1_555 1_555
O3A C7A 1_555 1_555
O4A C7A 1_555 1_555
C1A C4A 1_555 1_555
C4A C11 1_555 1_555
C7A C1A 1_555 1_555
C11A C4 1_555 1_555
H5A C11A 1_555 1_555
O1A C10A 1_555 1_555
O2A C10A 1_555 1_555
C10A C4A 1_555 1_555
Zn1A O3A 1_555 1_555
S1A S2A 1_555 1_555
S2A C6A 1_555 1_555
N1A Zn1A 1_555 1_555
N2A C13A 1_555 1_555
C2A H1A 1_555 1_555
C3A S1A 1_555 1_555
C5A N1A 1_555 1_555
H2A C5A 1_555 1_555
C6A C2A 1_555 1_555
C8A N1A 1_555 1_555
H3A C8A 1_555 1_555
C9A C3A 1_555 1_555
H4A C9A 1_555 1_555
C12A C6A 1_555 1_555
H6A C12A 1_555 1_555
C13A H7A 1_555 1_555
C14A C3A 1_555 1_555
H8A C14A 1_555 1_555
C15A N2A 1_555 1_555
H9A C15A 1_555 1_555
Zn1_2 O1A 1_555 1_555
Zn1_3 N2 1_555 1_555
Zn1A_2 N2A 1_555 1_555
Zn1A_3 O1 1_555 1_555
O1_2 Zn1A 1_555 1_555
O1A_2 Zn1 1_555 1_555
N2_2 Zn1 1_555 1_555
N2A_2 Zn1A 1_555 1_555
C2 C5 1_555 1_555
C8 C12 1_555 1_555
C9 C15 1_555 1_555
C13 C14 1_555 1_555
C1A C11A 1_555 1_555
C2A C5A 1_555 1_555
C8A C12A 1_555 1_555
C9A C15A 1_555 1_555
C13A C14A 1_555 1_555

#END
