
#######################################################################
#
#                 Cambridge Crystallographic Data Centre
#                                CCDC 
#
#######################################################################
#
# If this CIF has been generated from an entry in the Cambridge 
# Structural Database, then it will include bibliographic, chemical, 
# crystal, experimental, refinement or atomic coordinate data resulting 
# from the CCDC's data processing and validation procedures.
#
#######################################################################

data_XAFFAN
_chemical_name_common            DUT-10(Zn)
_chemical_formula_moiety         '(C40 H28 N2 O10 Zn2)n'
_chemical_name_systematic        
"catena-((\m~8~-4,4',4'',4'''-(biphenyl-4,4'-diyldinitrilo)tetrabenzoato)-diaqua-di-zinc unknown solvate)"
_symmetry_cell_setting           orthorhombic
_symmetry_space_group_name_H-M   'I m m a'
_symmetry_Int_Tables_number      74
_space_group_name_Hall           '-I 2b 2'
loop_
_symmetry_equiv_pos_site_id
_symmetry_equiv_pos_as_xyz
1 x,y,z
2 -x,1/2-y,z
3 -x,1/2+y,-z
4 x,-y,-z
5 1/2+x,1/2+y,1/2+z
6 1/2-x,-y,1/2+z
7 1/2-x,y,1/2-z
8 1/2+x,1/2-y,1/2-z
9 -x,-y,-z
10 x,1/2+y,-z
11 x,1/2-y,z
12 -x,y,z
13 1/2-x,1/2-y,1/2-z
14 1/2+x,y,1/2-z
15 1/2+x,-y,1/2+z
16 1/2-x,1/2+y,1/2+z
_cell_length_a                   23.353(5)
_cell_length_b                   35.883(7)
_cell_length_c                   17.178(3)
_cell_angle_alpha                90
_cell_angle_beta                 90
_cell_angle_gamma                90
_cell_volume                     14394.7
_exptl_crystal_colour            colorless
_exptl_crystal_description       needles
_cell_formula_units_Z            4
loop_
_atom_site_label
_atom_site_type_symbol
_atom_site_fract_x
_atom_site_fract_y
_atom_site_fract_z
_atom_site_U_iso_or_equiv
_atom_site_thermal_displace_type
C1 C 0.57781(9) 0.96560(6) 0.07790(14) 0.0893 Uani
C2 C 0.7500 0.84872(7) 0.2500 0.1163 Uani
C3 C 0.64311(9) 0.95959(5) 0.19290(15) 0.1062 Uani
H1 H 0.6284 0.9819 0.2119 0.1270 Uiso
C4 C 0.68429(10) 0.94085(6) 0.23526(15) 0.1179 Uani
H2 H 0.6963 0.9502 0.2830 0.1420 Uiso
C5 C 0.68827(10) 0.89439(6) 0.13693(16) 0.1205 Uani
H3 H 0.7038 0.8725 0.1169 0.1450 Uiso
C6 C 0.64577(9) 0.91256(6) 0.09581(15) 0.1061 Uani
H4 H 0.6322 0.9023 0.0496 0.1270 Uiso
C7 C 0.70795(9) 0.90791(5) 0.20668(16) 0.1099 Uani
C8 C 0.79902(10) 0.82948(6) 0.2363(2) 0.1458 Uani
H5 H 0.8328 0.8422 0.2256 0.1750 Uiso
C9 C 0.79869(10) 0.79072(6) 0.2384(2) 0.1460 Uani
H6 H 0.8330 0.7780 0.2315 0.1750 Uiso
C10 C 0.7500 0.77077(7) 0.2500 0.1072 Uani
C11 C 0.62329(8) 0.94571(5) 0.12243(13) 0.0911 Uani
N1 N 0.7500 0.88886(6) 0.2500 0.1291 Uani
O1 O 0.56056(6) 0.95054(4) 0.01624(10) 0.1017 Uani
O2 O 0.56065(5) 0.99642(4) 0.10528(10) 0.1009 Uani
O3 O 0.5000 0.92886(6) -0.13614(16) 0.1392 Uani
Zn1 Zn 0.5000 0.969968(7) -0.058255(16) 0.0703 Uani
C1J C 0.57781(9) 0.53440(6) 0.07790(14) 0.0893 Uani
C1L C 0.92219(9) 0.53440(6) 0.42210(14) 0.0893 Uani
C1F C 0.92219(9) 0.96560(6) 0.42210(14) 0.0893 Uani
C2J C 0.7500 0.65128(7) 0.2500 0.1163 Uani
C3J C 0.64311(9) 0.54041(5) 0.19290(15) 0.1062 Uani
C3L C 0.85689(9) 0.54041(5) 0.30710(15) 0.1062 Uani
C3F C 0.85689(9) 0.95959(5) 0.30710(15) 0.1062 Uani
H1J H 0.6284 0.5181 0.2119 0.1270 Uiso
H1L H 0.8716 0.5181 0.2881 0.1270 Uiso
H1F H 0.8716 0.9819 0.2881 0.1270 Uiso
C4J C 0.68429(10) 0.55915(6) 0.23526(15) 0.1179 Uani
C4L C 0.81571(10) 0.55915(6) 0.26474(15) 0.1179 Uani
C4F C 0.81571(10) 0.94085(6) 0.26474(15) 0.1179 Uani
H2J H 0.6963 0.5498 0.2830 0.1420 Uiso
H2L H 0.8037 0.5498 0.2170 0.1420 Uiso
H2F H 0.8037 0.9502 0.2170 0.1420 Uiso
C5J C 0.68827(10) 0.60561(6) 0.13693(16) 0.1205 Uani
C5L C 0.81173(10) 0.60561(6) 0.36307(16) 0.1205 Uani
C5F C 0.81173(10) 0.89439(6) 0.36307(16) 0.1205 Uani
H3J H 0.7038 0.6275 0.1169 0.1450 Uiso
H3L H 0.7962 0.6275 0.3831 0.1450 Uiso
H3F H 0.7962 0.8725 0.3831 0.1450 Uiso
C6J C 0.64577(9) 0.58744(6) 0.09581(15) 0.1061 Uani
C6L C 0.85423(9) 0.58744(6) 0.40419(15) 0.1061 Uani
C6F C 0.85423(9) 0.91256(6) 0.40419(15) 0.1061 Uani
H4J H 0.6322 0.5977 0.0496 0.1270 Uiso
H4L H 0.8678 0.5977 0.4504 0.1270 Uiso
H4F H 0.8678 0.9023 0.4504 0.1270 Uiso
C7J C 0.70795(9) 0.59209(5) 0.20668(16) 0.1099 Uani
C7L C 0.79205(9) 0.59209(5) 0.29332(16) 0.1099 Uani
C7F C 0.79205(9) 0.90791(5) 0.29332(16) 0.1099 Uani
C8F C 0.70098(10) 0.82948(6) 0.2637(2) 0.1458 Uani
C8J C 0.79902(10) 0.67052(6) 0.2363(2) 0.1458 Uani
C8L C 0.70098(10) 0.67052(6) 0.2637(2) 0.1458 Uani
H5F H 0.6672 0.8422 0.2744 0.1750 Uiso
H5L H 0.6672 0.6578 0.2744 0.1750 Uiso
H5J H 0.8328 0.6578 0.2256 0.1750 Uiso
C9F C 0.70131(10) 0.79072(6) 0.2616(2) 0.1460 Uani
C9J C 0.79869(10) 0.70928(6) 0.2384(2) 0.1460 Uani
C9L C 0.70131(10) 0.70928(6) 0.2616(2) 0.1460 Uani
H6F H 0.6670 0.7780 0.2685 0.1750 Uiso
H6L H 0.6670 0.7220 0.2685 0.1750 Uiso
H6J H 0.8330 0.7220 0.2315 0.1750 Uiso
C10J C 0.7500 0.72923(7) 0.2500 0.1072 Uani
C11J C 0.62329(8) 0.55429(5) 0.12243(13) 0.0911 Uani
C11L C 0.87671(8) 0.55429(5) 0.37757(13) 0.0911 Uani
C11F C 0.87671(8) 0.94571(5) 0.37757(13) 0.0911 Uani
N1J N 0.7500 0.61114(6) 0.2500 0.1291 Uani
O1J O 0.56056(6) 0.54946(4) 0.01624(10) 0.1017 Uani
O1L O 0.93944(6) 0.54946(4) 0.48376(10) 0.1017 Uani
O1F O 0.93944(6) 0.95054(4) 0.48376(10) 0.1017 Uani
O1K O 0.43944(6) 0.95054(4) 0.01624(10) 0.1017 Uani
O1A O 0.43944(6) 0.54946(4) 0.01624(10) 0.1017 Uani
O2J O 0.56065(5) 0.50358(4) 0.10528(10) 0.1009 Uani
O2L O 0.93935(5) 0.50358(4) 0.39472(10) 0.1009 Uani
O2F O 0.93935(5) 0.99642(4) 0.39472(10) 0.1009 Uani
O2C O 0.56065(5) 1.00358(4) -0.10528(10) 0.1009 Uani
O2H O 0.43935(5) 1.00358(4) -0.10528(10) 0.1009 Uani
O2I O 0.56065(5) 0.49642(4) -0.10528(10) 0.1009 Uani
O2B O 0.43935(5) 0.49642(4) -0.10528(10) 0.1009 Uani
O3A O 0.5000 0.57114(6) -0.13614(16) 0.1392 Uani
Zn1A Zn 0.5000 0.530032(7) -0.058255(16) 0.0703 Uani
Zn1C Zn 0.5000 1.030032(7) 0.058255(16) 0.0703 Uani
Zn1B Zn 0.5000 0.469968(7) 0.058255(16) 0.0703 Uani
Zn1G Zn 1.0000 0.530032(7) 0.558255(16) 0.0703 Uani
Zn1D Zn 1.0000 0.469968(7) 0.441745(16) 0.0703 Uani
Zn1F Zn 1.0000 0.969968(7) 0.558255(16) 0.0703 Uani
Zn1E Zn 1.0000 1.030032(7) 0.441745(16) 0.0703 Uani
loop_
_atom_site_aniso_label
_atom_site_aniso_U_11
_atom_site_aniso_U_22
_atom_site_aniso_U_33
_atom_site_aniso_U_23
_atom_site_aniso_U_13
_atom_site_aniso_U_12
C1 0.0720(13) 0.0830(14) 0.1130(17) 0.0292(12) -0.0146(11) -0.0023(10)
C2 0.104(2) 0.0588(14) 0.186(3) 0.000 -0.078(2) 0.000
C3 0.1002(15) 0.0705(11) 0.148(2) 0.0000(12) -0.0402(14) 0.0095(10)
C4 0.1207(17) 0.0820(13) 0.151(2) -0.0132(13) -0.0655(16) 0.0067(12)
C5 0.1256(18) 0.0730(12) 0.163(2) -0.0196(13) -0.0660(17) 0.0169(12)
C6 0.1056(15) 0.0826(13) 0.1302(17) -0.0123(12) -0.0453(14) 0.0150(11)
C7 0.1019(15) 0.0608(10) 0.167(2) 0.0021(12) -0.0639(15) -0.0034(10)
C8 0.1033(17) 0.0711(13) 0.263(4) -0.0019(17) -0.049(2) -0.0117(12)
C9 0.1011(17) 0.0689(12) 0.268(4) -0.0170(16) -0.044(2) 0.0062(11)
C10 0.090(2) 0.0636(14) 0.168(3) 0.000 -0.0590(19) 0.000
C11 0.0795(12) 0.0744(11) 0.1195(16) 0.0151(11) -0.0254(11) -0.0013(9)
N1 0.124(2) 0.0602(12) 0.203(3) 0.000 -0.101(2) 0.000
O1 0.0926(10) 0.0946(9) 0.1180(12) 0.0184(9) -0.0309(9) 0.0100(8)
O2 0.0836(9) 0.0861(9) 0.1330(13) 0.0187(8) -0.0172(8) 0.0153(7)
O3 0.171(2) 0.1005(15) 0.146(2) -0.0384(15) 0.000 0.000
Zn1 0.0655(2) 0.05792(17) 0.0875(2) 0.00382(13) 0.000 0.000
C1J 0.072 0.083 0.113 -0.0292 -0.0146 0.0023
C1L 0.072 0.083 0.113 0.0292 -0.0146 -0.0023
C1F 0.072 0.083 0.113 -0.0292 -0.0146 0.0023
C2J 0.104 0.0588 0.186 0 -0.078 0
C3J 0.1002 0.0705 0.148 0 -0.0402 -0.0095
C3L 0.1002 0.0705 0.148 0 -0.0402 0.0095
C3F 0.1002 0.0705 0.148 0 -0.0402 -0.0095
C4J 0.1207 0.082 0.151 0.0132 -0.0655 -0.0067
C4L 0.1207 0.082 0.151 -0.0132 -0.0655 0.0067
C4F 0.1207 0.082 0.151 0.0132 -0.0655 -0.0067
C5J 0.1256 0.073 0.163 0.0196 -0.066 -0.0169
C5L 0.1256 0.073 0.163 -0.0196 -0.066 0.0169
C5F 0.1256 0.073 0.163 0.0196 -0.066 -0.0169
C6J 0.1056 0.0826 0.1302 0.0123 -0.0453 -0.015
C6L 0.1056 0.0826 0.1302 -0.0123 -0.0453 0.015
C6F 0.1056 0.0826 0.1302 0.0123 -0.0453 -0.015
C7J 0.1019 0.0608 0.167 -0.0021 -0.0639 0.0034
C7L 0.1019 0.0608 0.167 0.0021 -0.0639 -0.0034
C7F 0.1019 0.0608 0.167 -0.0021 -0.0639 0.0034
C8F 0.1033 0.0711 0.263 0.0019 -0.049 0.0117
C8J 0.1033 0.0711 0.263 0.0019 -0.049 0.0117
C8L 0.1033 0.0711 0.263 -0.0019 -0.049 -0.0117
C9F 0.1011 0.0689 0.268 0.017 -0.044 -0.0062
C9J 0.1011 0.0689 0.268 0.017 -0.044 -0.0062
C9L 0.1011 0.0689 0.268 -0.017 -0.044 0.0062
C10J 0.09 0.0636 0.168 0 -0.059 0
C11J 0.0795 0.0744 0.1195 -0.0151 -0.0254 0.0013
C11L 0.0795 0.0744 0.1195 0.0151 -0.0254 -0.0013
C11F 0.0795 0.0744 0.1195 -0.0151 -0.0254 0.0013
N1J 0.124 0.0602 0.203 0 -0.101 0
O1J 0.0926 0.0946 0.118 -0.0184 -0.0309 -0.01
O1L 0.0926 0.0946 0.118 0.0184 -0.0309 0.01
O1F 0.0926 0.0946 0.118 -0.0184 -0.0309 -0.01
O1K 0.0926 0.0946 0.118 0.0184 0.0309 -0.01
O1A 0.0926 0.0946 0.118 -0.0184 0.0309 0.01
O2J 0.0836 0.0861 0.133 -0.0187 -0.0172 -0.0153
O2L 0.0836 0.0861 0.133 0.0187 -0.0172 0.0153
O2F 0.0836 0.0861 0.133 -0.0187 -0.0172 -0.0153
O2C 0.0836 0.0861 0.133 0.0187 0.0172 -0.0153
O2H 0.0836 0.0861 0.133 0.0187 -0.0172 0.0153
O2I 0.0836 0.0861 0.133 -0.0187 0.0172 0.0153
O2B 0.0836 0.0861 0.133 -0.0187 -0.0172 -0.0153
O3A 0.171 0.1005 0.146 0.0384 0 0
Zn1A 0.0655 0.05792 0.0875 -0.00382 0 0
Zn1C 0.0655 0.05792 0.0875 0.00382 0 0
Zn1B 0.0655 0.05792 0.0875 -0.00382 0 0
Zn1G 0.0655 0.05792 0.0875 0.00382 0 0
Zn1D 0.0655 0.05792 0.0875 0.00382 0 0
Zn1F 0.0655 0.05792 0.0875 -0.00382 0 0
Zn1E 0.0655 0.05792 0.0875 -0.00382 0 0
loop_
_geom_bond_atom_site_label_1
_geom_bond_atom_site_label_2
_geom_bond_site_symmetry_1
_geom_bond_site_symmetry_2
C1 C11 1_555 1_555
C2 C8 1_555 1_555
C3 H1 1_555 1_555
C4 C3 1_555 1_555
H2 C4 1_555 1_555
C5 H3 1_555 1_555
C6 C5 1_555 1_555
H4 C6 1_555 1_555
C7 C4 1_555 1_555
C8 H5 1_555 1_555
C9 C8 1_555 1_555
H6 C9 1_555 1_555
C10 C9 1_555 1_555
C11 C3 1_555 1_555
N1 C2 1_555 1_555
O1 C1 1_555 1_555
O2 C1 1_555 1_555
O3 Zn1 1_555 1_555
Zn1 O1 1_555 1_555
C1J C11J 1_555 1_555
C1L C11L 1_555 1_555
C1F C11F 1_555 1_555
C2J C8J 1_555 1_555
C3J H1J 1_555 1_555
C3L H1L 1_555 1_555
C3F H1F 1_555 1_555
C4J C3J 1_555 1_555
C4L C3L 1_555 1_555
C4F C3F 1_555 1_555
H2J C4J 1_555 1_555
H2L C4L 1_555 1_555
H2F C4F 1_555 1_555
C5J H3J 1_555 1_555
C5L H3L 1_555 1_555
C5F H3F 1_555 1_555
C6J C5J 1_555 1_555
C6L C5L 1_555 1_555
C6F C5F 1_555 1_555
H4J C6J 1_555 1_555
H4L C6L 1_555 1_555
H4F C6F 1_555 1_555
C7J C4J 1_555 1_555
C7L C4L 1_555 1_555
C7F N1 1_555 1_555
C8F C2 1_555 1_555
C8J H5J 1_555 1_555
C8L C2J 1_555 1_555
H5F C8F 1_555 1_555
H5L C8L 1_555 1_555
C9F C10 1_555 1_555
C9J C8J 1_555 1_555
C9L C8L 1_555 1_555
H6F C9F 1_555 1_555
H6L C9L 1_555 1_555
H6J C9J 1_555 1_555
C10J C10 1_555 1_555
C11J C3J 1_555 1_555
C11L C3L 1_555 1_555
C11F C3F 1_555 1_555
N1J C2J 1_555 1_555
O1J C1J 1_555 1_555
O1L C1L 1_555 1_555
O1F C1F 1_555 1_555
O1K Zn1 1_555 1_555
O1A Zn1A 1_555 1_555
O2J C1J 1_555 1_555
O2L C1L 1_555 1_555
O2F C1F 1_555 1_555
O2C Zn1 1_555 1_555
O2H Zn1 1_555 1_555
O2I Zn1A 1_555 1_555
O2B Zn1A 1_555 1_555
O3A Zn1A 1_555 1_555
Zn1A O1J 1_555 1_555
Zn1C O2 1_555 1_555
Zn1B O2J 1_555 1_555
Zn1G O1L 1_555 1_555
Zn1D O2L 1_555 1_555
Zn1F O1F 1_555 1_555
Zn1E O2F 1_555 1_555
C5 C7 1_555 1_555
C6 C11 1_555 1_555
C7 N1 1_555 1_555
C4F C7F 1_555 1_555
C5J C7J 1_555 1_555
C5L C7L 1_555 1_555
C5F C7F 1_555 1_555
C6J C11J 1_555 1_555
C6L C11L 1_555 1_555
C6F C11F 1_555 1_555
C7J N1J 1_555 1_555
C7L N1J 1_555 1_555
C8F C9F 1_555 1_555
C9J C10J 1_555 1_555
C9L C10J 1_555 1_555

#END
