
#######################################################################
#
#                 Cambridge Crystallographic Data Centre
#                                CCDC 
#
#######################################################################
#
# If this CIF has been generated from an entry in the Cambridge 
# Structural Database, then it will include bibliographic, chemical, 
# crystal, experimental, refinement or atomic coordinate data resulting 
# from the CCDC's data processing and validation procedures.
#
#######################################################################

data_IPIVOT
_chemical_name_common            STAM-1
_chemical_formula_moiety         '(C30 H24 Cu3 O21)n,5n(H2 O1)'
_chemical_name_systematic        
'catena-(tris(\m~4~-5-(methoxycarbonyl)benzene-1,3-dicarboxylato)-triaqua-tri-copper pentahydrate)'
_symmetry_cell_setting           trigonal
_symmetry_space_group_name_H-M   'P -3 m 1'
_symmetry_Int_Tables_number      164
_space_group_name_Hall           '-P 3 2"'
loop_
_symmetry_equiv_pos_site_id
_symmetry_equiv_pos_as_xyz
1 x,y,z
2 -y,x-y,z
3 -x+y,-x,z
4 y,x,-z
5 -x,-x+y,-z
6 x-y,-y,-z
7 -x,-y,-z
8 y,-x+y,-z
9 x-y,x,-z
10 -y,-x,z
11 x,x-y,z
12 -x+y,y,z
_cell_length_a                   18.6500(17)
_cell_length_b                   18.6500(17)
_cell_length_c                   6.8329(9)
_cell_angle_alpha                90
_cell_angle_beta                 90
_cell_angle_gamma                120
_cell_volume                     2058.23
_exptl_crystal_colour            blue
_exptl_crystal_description       block
_cell_formula_units_Z            2
loop_
_atom_site_label
_atom_site_type_symbol
_atom_site_fract_x
_atom_site_fract_y
_atom_site_fract_z
O2 O 0.6667 0.3333 0.467(3)
O3 O 0.3333 0.6667 0.130(3)
Cu1 Cu 0.523298(19) 0.476702(19) 0.34331(9)
O4 O 0.2842(3) 0.0824(3) 1.2533(6)
O5 O 0.4806(2) 0.3712(3) 0.4823(5)
O6 O 0.44200(18) 0.4110(2) 0.7500(4)
O7 O 0.56273(13) 0.43727(13) 0.0893(6)
H1 H 0.5249 0.4170 0.0093
C1 C 0.3038(2) 0.1519(5) 1.1839(11)
C2 C 0.3550(2) 0.1775(4) 0.9989(10)
C3 C 0.3781(3) 0.2535(3) 0.9148(6)
H2 H 0.3640 0.2895 0.9750
C4 C 0.4227(3) 0.2762(3) 0.7393(6)
C5 C 0.44390(18) 0.2220(4) 0.6517(8)
H3 H 0.4725 0.2363 0.5336
C6 C 0.4503(3) 0.3590(2) 0.6507(6)
C7 C 0.2371(10) 0.0498(10) 1.428(2)
Cu1A Cu 0.523298(19) 0.046596(27) 0.34331(9)
Cu1C Cu 0.476702(19) 0.523298(19) 0.65669(9)
Cu1D Cu 0.476702(19) -0.046596(27) 0.65669(9)
Cu1E Cu 0.046596(27) 0.523298(19) 0.65669(9)
Cu1B Cu -0.046596(27) 0.476702(19) 0.34331(9)
Cu1B_2 Cu 0.953404(27) 0.476702(19) 0.34331(9)
Cu1E_2 Cu 1.046596(27) 0.523298(19) 0.65669(9)
O4J O 0.2842(3) 0.2018(4) 1.2533(6)
O4C O 0.0824(3) 0.2842(3) -0.2533(6)
O4H O 0.2018(4) 0.2842(3) -0.2533(6)
O4I O 0.9176(3) 0.7158(3) 1.2533(6)
O4B O 0.7982(4) 0.7158(3) 1.2533(6)
O5J O 0.4806(2) 0.1094(4) 0.4823(5)
O5C O 0.3712(3) 0.4806(2) 0.5177(5)
O5H O 0.1094(4) 0.4806(2) 0.5177(5)
O5I O 0.6288(3) 0.5194(2) 0.4823(5)
O5B O 0.8906(4) 0.5194(2) 0.4823(5)
O5A O 0.6288(3) 0.1094(4) 0.4823(5)
O5F O 0.5194(2) 0.6288(3) 0.5177(5)
O6J O 0.44200(18) 0.03100(27) 0.7500(4)
O6C O 0.4110(2) 0.44200(18) 0.2500(4)
O6H O 0.03100(27) 0.44200(18) 0.2500(4)
O6I O 0.5890(2) 0.55800(18) 0.7500(4)
O6B O 0.96900(27) 0.55800(18) 0.7500(4)
O6F O 0.55800(18) 0.5890(2) 0.2500(4)
O6G O 0.4110(2) -0.03100(27) 0.2500(4)
O6D O 0.55800(18) -0.03100(27) 0.2500(4)
O7A O 0.56273(13) 0.12546(18) 0.0893(6)
O7C O 0.43727(13) 0.56273(13) 0.9107(6)
H1I H 0.5830 0.4751 0.0093
H1J H 0.5249 0.1079 0.0093
H1A H 0.5830 0.1079 0.0093
H1C H 0.4170 0.5249 0.9907
H1F H 0.4751 0.5830 0.9907
C1C C 0.1519(5) 0.3038(2) -0.1839(11)
C1B C 0.8481(5) 0.6962(2) 1.1839(11)
C2C C 0.1775(4) 0.3550(2) 0.0011(10)
C2B C 0.8225(4) 0.6450(2) 0.9989(10)
C3J C 0.3781(3) 0.1246(4) 0.9148(6)
C3C C 0.2535(3) 0.3781(3) 0.0852(6)
C3H C 0.1246(4) 0.3781(3) 0.0852(6)
C3I C 0.7465(3) 0.6219(3) 0.9148(6)
C3B C 0.8754(4) 0.6219(3) 0.9148(6)
H2J H 0.3640 0.0745 0.9750
H2C H 0.2895 0.3640 0.0250
H2H H 0.0745 0.3640 0.0250
H2I H 0.7105 0.6360 0.9750
H2B H 0.9255 0.6360 0.9750
C4J C 0.4227(3) 0.1465(4) 0.7393(6)
C4C C 0.2762(3) 0.4227(3) 0.2607(6)
C4H C 0.1465(4) 0.4227(3) 0.2607(6)
C4I C 0.7238(3) 0.5773(3) 0.7393(6)
C4B C 0.8535(4) 0.5773(3) 0.7393(6)
C5C C 0.2220(4) 0.44390(18) 0.3483(8)
C5I C 0.7780(4) 0.55610(18) 0.6517(8)
H3C H 0.2363 0.4725 0.4664
H3I H 0.7637 0.5275 0.5336
C6J C 0.4503(3) 0.0913(4) 0.6507(6)
C6C C 0.3590(2) 0.4503(3) 0.3493(6)
C6H C 0.0913(4) 0.4503(3) 0.3493(6)
C6I C 0.6410(2) 0.5497(3) 0.6507(6)
C6B C 0.9087(4) 0.5497(3) 0.6507(6)
C7J C 0.2371(10) 0.1873(14) 1.428(2)
C7C C 0.0498(10) 0.2371(10) -0.428(2)
C7H C 0.1873(14) 0.2371(10) -0.428(2)
C7I C 0.9502(10) 0.7629(10) 1.428(2)
C7B C 0.8127(14) 0.7629(10) 1.428(2)
O1 O 0.5487(6) 0.2743(3) 0.1687(12)
H4? H -0.0042 0.2294 -0.4533
H5? H 0.0459 0.1841 -0.4130
H6? H 0.0858 0.2660 -0.5359
loop_
_geom_bond_atom_site_label_1
_geom_bond_atom_site_label_2
_geom_bond_site_symmetry_1
_geom_bond_site_symmetry_2
Cu1 O5 1_555 1_555
O4 C1 1_555 1_555
O5 C6 1_555 1_555
O6 C6 1_555 1_555
O7 Cu1 1_555 1_555
H1 O7 1_555 1_555
C1 C2 1_555 1_555
C2 C3 1_555 1_555
C3 H2 1_555 1_555
C4 C3 1_555 1_555
C5 C4 1_555 1_555
H3 C5 1_555 1_555
C6 C4 1_555 1_555
C7 O4 1_555 1_555
Cu1A Cu1D 1_555 1_555
Cu1C Cu1 1_555 1_555
Cu1D O6J 1_555 1_555
Cu1E Cu1B 1_555 1_555
Cu1B O6H 1_555 1_555
Cu1B_2 Cu1E_2 1_555 1_555
Cu1E_2 O6B 1_555 1_555
O4J C1 1_555 1_555
O4C C1C 1_555 1_555
O4H C1C 1_555 1_555
O4I C1B 1_555 1_555
O4B C1B 1_555 1_555
O5J Cu1A 1_555 1_555
O5C Cu1C 1_555 1_555
O5H Cu1E 1_555 1_555
O5I Cu1 1_555 1_555
O5B Cu1B_2 1_555 1_555
O5A Cu1A 1_555 1_555
O5F Cu1C 1_555 1_555
O6J C6J 1_555 1_555
O6C Cu1 1_555 1_555
O6H C6H 1_555 1_555
O6I Cu1C 1_555 1_555
O6B C6B 1_555 1_555
O6F Cu1 1_555 1_555
O6G Cu1A 1_555 1_555
O6D Cu1A 1_555 1_555
O7A Cu1A 1_555 1_555
O7C Cu1C 1_555 1_555
H1I O7 1_555 1_555
H1J O7A 1_555 1_555
H1A O7A 1_555 1_555
H1C O7C 1_555 1_555
H1F O7C 1_555 1_555
C1C C2C 1_555 1_555
C1B C2B 1_555 1_555
C2C C3C 1_555 1_555
C2B C3I 1_555 1_555
C3J C2 1_555 1_555
C3C H2C 1_555 1_555
C3H C2C 1_555 1_555
C3I H2I 1_555 1_555
C3B C2B 1_555 1_555
H2J C3J 1_555 1_555
H2H C3H 1_555 1_555
H2B C3B 1_555 1_555
C4J C5 1_555 1_555
C4C C3C 1_555 1_555
C4H C3H 1_555 1_555
C4I C3I 1_555 1_555
C4B C3B 1_555 1_555
C5C C4C 1_555 1_555
C5I C4I 1_555 1_555
H3C C5C 1_555 1_555
H3I C5I 1_555 1_555
C6J O5J 1_555 1_555
C6C O5C 1_555 1_555
C6H O5H 1_555 1_555
C6I O5I 1_555 1_555
C6B O5B 1_555 1_555
C7J O4J 1_555 1_555
C7C O4C 1_555 1_555
C7H O4H 1_555 1_555
C7I O4I 1_555 1_555
C7B O4B 1_555 1_555
O6 Cu1C 1_555 1_555
O6C C6C 1_555 1_555
O6I C6I 1_555 1_555
C3J C4J 1_555 1_555
C4J C6J 1_555 1_555
C4C C6C 1_555 1_555
C4H C5C 1_555 1_555
C4H C6H 1_555 1_555
C4I C6I 1_555 1_555
C4B C5I 1_555 1_555
C4B C6B 1_555 1_555

#END
