
#######################################################################
#
#                 Cambridge Crystallographic Data Centre
#                                CCDC 
#
#######################################################################
#
# If this CIF has been generated from an entry in the Cambridge 
# Structural Database, then it will include bibliographic, chemical, 
# crystal, experimental, refinement or atomic coordinate data resulting 
# from the CCDC's data processing and validation procedures.
#
#######################################################################

data_PIRYOF
_chemical_formula_moiety         '(C30 H24 Cd1 Fe1 N4 O6 S2)n,4n(C1 H4 O1)'
_chemical_name_systematic        
"catena-((\m~2~-Ferrocene-1,1'-disulfonato)-bis(\m~2~-4,4'-bipyridyl)-cadmium(ii) methanol solvate)"
_symmetry_cell_setting           orthorhombic
_symmetry_space_group_name_H-M   'P 21 21 2'
_symmetry_Int_Tables_number      18
_space_group_name_Hall           'P 2 2ab'
loop_
_symmetry_equiv_pos_site_id
_symmetry_equiv_pos_as_xyz
1 x,y,z
2 -x,-y,z
3 1/2-x,1/2+y,-z
4 1/2+x,1/2-y,-z
_cell_length_a                   11.8429(9)
_cell_length_b                   13.4829(9)
_cell_length_c                   11.6921(11)
_cell_angle_alpha                90
_cell_angle_beta                 90
_cell_angle_gamma                90
_cell_volume                     1866.96
_cell_formula_units_Z            2
loop_
_atom_site_label
_atom_site_type_symbol
_atom_site_fract_x
_atom_site_fract_y
_atom_site_fract_z
Cd1 Cd 0.0000 0.0000 0.28270(4)
Fe1 Fe 0.0000 -0.5000 0.21339(12)
S1 S -0.03847(16) -0.25981(12) 0.27910(17)
O1 O 0.0358(5) -0.1725(3) 0.2847(5)
O2 O -0.0841(5) -0.2858(5) 0.3890(5)
O3 O -0.1218(5) -0.2504(5) 0.1914(6)
N1 N -0.2019(4) -0.0047(5) 0.2853(4)
N2 N 0.0000 0.0000 0.0845(5)
N3 N 0.0000 0.0000 -0.5187(5)
C1 C -0.2618(6) -0.0446(6) 0.2028(7)
H1 H -0.2239 -0.0764 0.1436
C2 C -0.3788(6) -0.0418(6) 0.1995(7)
H2 H -0.4175 -0.0686 0.1375
C3 C -0.4367(4) 0.0004(6) 0.2876(5)
C4 C -0.3756(6) 0.0421(6) 0.3747(6)
H3 H -0.4125 0.0711 0.4364
C5 C -0.2575(6) 0.0409(6) 0.3704(7)
H4 H -0.2166 0.0725 0.4277
C6 C 0.0461(7) -0.0765(6) 0.0257(6)
H5 H 0.0786 -0.1289 0.0655
C7 C 0.0457(8) -0.0779(6) -0.0930(6)
H6 H 0.0764 -0.1317 -0.1318
C8 C 0.0000 0.0000 -0.1539(7)
C9 C 0.0000 0.0000 -0.2795(7)
C10 C -0.0503(7) -0.0756(6) -0.3414(6)
H7 H -0.0849 -0.1279 -0.3032
C11 C -0.0493(7) -0.0736(6) -0.4600(6)
H8 H -0.0839 -0.1249 -0.5000
C12 C 0.0493(7) -0.3593(5) 0.2408(7)
C13 C 0.1084(6) -0.4224(6) 0.3149(8)
H9 H 0.1076 -0.4195 0.3943
C14 C 0.1696(6) -0.4910(6) 0.2480(10)
H10 H 0.2162 -0.5409 0.2759
C15 C 0.1476(9) -0.4707(6) 0.1305(10)
H11 H 0.1759 -0.5065 0.0688
C16 C 0.0750(8) -0.3866(7) 0.1232(8)
H12 H 0.0495 -0.3556 0.0570
Cd1_2 Cd 0.0000 -1.0000 0.28270(4)
Cd1_3 Cd -1.0000 0.0000 0.28270(4)
Cd1_4 Cd 0.0000 0.0000 -0.71730(4)
S1A S 0.03847(16) -0.74019(12) 0.27910(17)
O1A O -0.0358(5) 0.1725(3) 0.2847(5)
O1A_2 O -0.0358(5) -0.8275(3) 0.2847(5)
O2A O 0.0841(5) -0.7142(5) 0.3890(5)
O3A O 0.1218(5) -0.7496(5) 0.1914(6)
N1A N 0.2019(4) 0.0047(5) 0.2853(4)
N1A_2 N -0.7981(4) 0.0047(5) 0.2853(4)
N3_2 N 0.0000 0.0000 0.4813(5)
C1A C -0.7382(6) 0.0446(6) 0.2028(7)
H1A H -0.7761 0.0764 0.1436
C2A C -0.6212(6) 0.0418(6) 0.1995(7)
H2A H -0.5825 0.0686 0.1375
C3A C -0.5633(4) -0.0004(6) 0.2876(5)
C4A C -0.6244(6) -0.0421(6) 0.3747(6)
H3A H -0.5875 -0.0711 0.4364
C5A C -0.7425(6) -0.0409(6) 0.3704(7)
H4A H -0.7834 -0.0725 0.4277
C6A C -0.0461(7) 0.0765(6) 0.0257(6)
H5A H -0.0786 0.1289 0.0655
C7A C -0.0457(8) 0.0779(6) -0.0930(6)
H6A H -0.0764 0.1317 -0.1318
C10A C 0.0503(7) 0.0756(6) -0.3414(6)
H7A H 0.0849 0.1279 -0.3032
C11A C 0.0493(7) 0.0736(6) -0.4600(6)
H8A H 0.0839 0.1249 -0.5000
C12A C -0.0493(7) -0.6407(5) 0.2408(7)
C13A C -0.1084(6) -0.5776(6) 0.3149(8)
H9A H -0.1076 -0.5805 0.3943
C14A C -0.1696(6) -0.5090(6) 0.2480(10)
H10A H -0.2162 -0.4591 0.2759
C15A C -0.1476(9) -0.5293(6) 0.1305(10)
H11A H -0.1759 -0.4935 0.0688
C16A C -0.0750(8) -0.6134(7) 0.1232(8)
H12A H -0.0495 -0.6444 0.0570
O4 O -0.2262(15) -0.3081(14) -0.0078(13)
C17 C -0.1790(12) -0.2683(12) -0.1122(12)
O5 O -0.3360(13) -0.2806(14) 0.3108(15)
C18 C -0.3511(12) -0.2345(10) 0.4213(12)
Cu1? Cu 0.0000 0.0000 0.28270(4)
loop_
_geom_bond_atom_site_label_1
_geom_bond_atom_site_label_2
_geom_bond_site_symmetry_1
_geom_bond_site_symmetry_2
Cd1 O1 1_555 1_555
Fe1 C12 1_555 1_555
S1 O1 1_555 1_555
O2 S1 1_555 1_555
O3 S1 1_555 1_555
O4 C17 1_555 1_555
O5 C18 1_555 1_555
N1 Cd1 1_555 1_555
N2 Cd1 1_555 1_555
N3 C11 1_555 1_555
C1 N1 1_555 1_555
H1 C1 1_555 1_555
C2 C1 1_555 1_555
H2 C2 1_555 1_555
C3 C2 1_555 1_555
C4 C3 1_555 1_555
H3 C4 1_555 1_555
C5 N1 1_555 1_555
H4 C5 1_555 1_555
C6 N2 1_555 1_555
H5 C6 1_555 1_555
C7 C6 1_555 1_555
H6 C7 1_555 1_555
C8 C7 1_555 1_555
C9 C8 1_555 1_555
C10 C9 1_555 1_555
H7 C10 1_555 1_555
C11 C10 1_555 1_555
H8 C11 1_555 1_555
C12 S1 1_555 1_555
C13 Fe1 1_555 1_555
H9 C13 1_555 1_555
C14 Fe1 1_555 1_555
H10 C14 1_555 1_555
C15 Fe1 1_555 1_555
H11 C15 1_555 1_555
C16 Fe1 1_555 1_555
H12 C16 1_555 1_555
Cd1_2 O1A_2 1_555 1_555
Cd1_3 N1A_2 1_555 1_555
Cd1_4 N3 1_555 1_555
S1A O1A_2 1_555 1_555
O1A Cd1 1_555 1_555
O2A S1A 1_555 1_555
O3A S1A 1_555 1_555
N1A Cd1 1_555 1_555
N1A_2 C1A 1_555 1_555
N3_2 Cd1 1_555 1_555
C1A H1A 1_555 1_555
C2A C1A 1_555 1_555
H2A C2A 1_555 1_555
C3A C3 1_555 1_555
C4A C3A 1_555 1_555
H3A C4A 1_555 1_555
C5A N1A_2 1_555 1_555
H4A C5A 1_555 1_555
C6A N2 1_555 1_555
H5A C6A 1_555 1_555
C7A C8 1_555 1_555
H6A C7A 1_555 1_555
C10A C9 1_555 1_555
H7A C10A 1_555 1_555
C11A N3 1_555 1_555
H8A C11A 1_555 1_555
C12A Fe1 1_555 1_555
C13A Fe1 1_555 1_555
H9A C13A 1_555 1_555
C14A Fe1 1_555 1_555
H10A C14A 1_555 1_555
C15A Fe1 1_555 1_555
H11A C15A 1_555 1_555
C16A Fe1 1_555 1_555
H12A C16A 1_555 1_555
C4 C5 1_555 1_555
C12 C13 1_555 1_555
C12 C16 1_555 1_555
C13 C14 1_555 1_555
C14 C15 1_555 1_555
C15 C16 1_555 1_555
S1A C12A 1_555 1_555
C2A C3A 1_555 1_555
C4A C5A 1_555 1_555
C6A C7A 1_555 1_555
C10A C11A 1_555 1_555
C12A C13A 1_555 1_555
C12A C16A 1_555 1_555
C13A C14A 1_555 1_555
C14A C15A 1_555 1_555
C15A C16A 1_555 1_555

#END
