
#######################################################################
#
#                 Cambridge Crystallographic Data Centre
#                                CCDC 
#
#######################################################################
#
# If this CIF has been generated from an entry in the Cambridge 
# Structural Database, then it will include bibliographic, chemical, 
# crystal, experimental, refinement or atomic coordinate data resulting 
# from the CCDC's data processing and validation procedures.
#
#######################################################################

data_IBICED
_chemical_formula_moiety         '(C11 H15 Br1 N2 O2 Zn1)n,2n(H2 O1)'
_chemical_name_systematic        
'catena-((\m~3~-3-Methyl-2-(pyridin-4-ylmethylamino)butanoato)-bromo-zinc dihydrate)'
_symmetry_cell_setting           hexagonal
_symmetry_space_group_name_H-M   'P 61'
_symmetry_Int_Tables_number      169
_space_group_name_Hall           'P 61'
loop_
_symmetry_equiv_pos_site_id
_symmetry_equiv_pos_as_xyz
1 x,y,z
2 x-y,x,1/6+z
3 -y,x-y,1/3+z
4 -x,-y,1/2+z
5 -x+y,-x,2/3+z
6 y,-x+y,5/6+z
_cell_length_a                   17.768(2)
_cell_length_b                   17.768(2)
_cell_length_c                   10.4796(11)
_cell_angle_alpha                90
_cell_angle_beta                 90
_cell_angle_gamma                120
_cell_volume                     2865.18
_exptl_crystal_colour            colorless
_exptl_crystal_description       rod
_cell_formula_units_Z            6
loop_
_atom_site_label
_atom_site_type_symbol
_atom_site_fract_x
_atom_site_fract_y
_atom_site_fract_z
_atom_site_U_iso_or_equiv
_atom_site_thermal_displace_type
Br1 Br 0.67968(7) 0.13151(7) 0.25161(13) 0.0676 Uani
Zn1 Zn 0.52779(5) 0.07072(4) 0.26285(6) 0.0205 Uani
O1 O 0.5117(3) 0.0273(3) 0.4589(4) 0.0255 Uani
O2 O 0.4793(4) -0.0927(3) 0.5677(4) 0.0417 Uani
N1 N 0.4331(3) -0.0595(3) 0.2435(4) 0.0199 Uani
H1 H 0.4451 -0.0796 0.1708 0.0240 Uiso
N2 N 0.1548(4) -0.3267(3) 0.1361(5) 0.0278 Uani
C1 C 0.4790(4) -0.0532(4) 0.4690(6) 0.0219 Uani
C2 C 0.4356(5) -0.1133(4) 0.3529(6) 0.0231 Uani
H2 H 0.3752 -0.1539 0.3767 0.0280 Uiso
C3 C 0.4780(5) -0.1676(4) 0.3220(6) 0.0324 Uani
H3 H 0.4792 -0.1958 0.4018 0.0390 Uiso
C4 C 0.5713(6) -0.1119(5) 0.2800(10) 0.0457 Uani
H4 H 0.5915 -0.1480 0.2428 0.0680 Uiso
H5 H 0.6067 -0.0817 0.3524 0.0680 Uiso
H6 H 0.5750 -0.0704 0.2179 0.0680 Uiso
C5 C 0.4246(7) -0.2408(5) 0.2261(8) 0.0519 Uani
H7 H 0.4318 -0.2167 0.1421 0.0780 Uiso
H8 H 0.3643 -0.2693 0.2495 0.0780 Uiso
H9 H 0.4444 -0.2822 0.2270 0.0780 Uiso
C6 C 0.1488(5) -0.2913(4) 0.2432(7) 0.0299 Uani
H10 H 0.1027 -0.3241 0.2982 0.0360 Uiso
C7 C 0.2192(6) -0.2791(5) 0.0538(7) 0.0379 Uani
H11 H 0.2232 -0.3044 -0.0217 0.0450 Uiso
C8 C 0.2103(5) -0.2050(4) 0.2767(7) 0.0329 Uani
H12 H 0.2062 -0.1817 0.3542 0.0400 Uiso
C9 C 0.2762(5) -0.1561(4) 0.1932(7) 0.0310 Uani
C10 C 0.2793(6) -0.1940(5) 0.0786(7) 0.0440 Uani
H13 H 0.3222 -0.1615 0.0189 0.0530 Uiso
C11 C 0.3462(4) -0.0670(4) 0.2266(7) 0.0326 Uani
H14 H 0.3306 -0.0492 0.3051 0.0390 Uiso
H15 H 0.3503 -0.0273 0.1599 0.0390 Uiso
Zn1C Zn 0.47221(5) -0.07072(4) 0.76285(6) 0.0205 Uani
Zn1E Zn 0.07072(4) -0.45707(6) 0.09618(6) 0.0205 Uani
O2C O 0.5207(4) 0.0927(3) 0.0677(4) 0.0417 Uani
N2A N 0.4815(5) 0.1548(4) 0.3028(5) 0.0278 Uani
O3 O 0.3107(6) 0.2622(6) 0.6983(10) 0.0842 Uani
O4 O 0.190(2) 0.048(3) 0.649(5) 0.3270 Uiso
loop_
_atom_site_aniso_label
_atom_site_aniso_U_11
_atom_site_aniso_U_22
_atom_site_aniso_U_33
_atom_site_aniso_U_23
_atom_site_aniso_U_13
_atom_site_aniso_U_12
Br1 0.0517(6) 0.0606(6) 0.0672(7) 0.0044(6) 0.0014(5) 0.0105(4)
Zn1 0.0313(4) 0.0123(3) 0.0129(3) -0.0003(2) -0.0009(3) 0.0071(3)
O1 0.044(3) 0.017(2) 0.0097(19) -0.0025(15) -0.0035(17) 0.0109(19)
O2 0.091 0.021 0.009 0.0016 0 0.025
N1 0.029(3) 0.018(2) 0.009(2) -0.0011(18) -0.0016(19) 0.009(2)
N2 0.019 0.029 0.022 -0.001 -0.004 0.002
C1 0.043(4) 0.013(3) 0.011(3) 0.001(2) -0.003(2) 0.015(3)
C2 0.042(4) 0.013(3) 0.012(3) 0.002(2) -0.003(2) 0.012(3)
C3 0.060(5) 0.024(3) 0.016(3) -0.002(2) -0.001(3) 0.023(3)
C4 0.052(5) 0.034(4) 0.053(5) -0.005(4) 0.001(4) 0.023(3)
C5 0.089(7) 0.026(4) 0.037(4) -0.016(3) -0.005(4) 0.026(4)
C6 0.027 0.028 0.023 0 0.003 0.005
C7 0.033 0.037 0.015 -0.006 0.007 -0.004
C8 0.031 0.034 0.02 -0.004 0.002 0.006
C9 0.024 0.031 0.025 0.002 0.003 0.004
C10 0.027 0.046 0.02 -0.002 0.001 -0.011
C11 0.031(3) 0.020(3) 0.035(4) 0.005(3) -0.007(3) 0.004(3)
Zn1C 0.0313 0.0123 0.0129 0.0003 0.0009 0.0071
Zn1E 0.0123 0.0294 0.0129 0.0006 -0.0003 0.0052
O2C 0.091 0.021 0.009 -0.0016 0 0.025
N2A 0.044 0.019 0.022 -0.004 -0.003 0.017
O3 0.089(6) 0.073(5) 0.094(7) -0.015(5) 0.011(5) 0.043(5)
loop_
_geom_bond_atom_site_label_1
_geom_bond_atom_site_label_2
_geom_bond_site_symmetry_1
_geom_bond_site_symmetry_2
Br1 Zn1 1_555 1_555
Zn1 O1 1_555 1_555
O1 C1 1_555 1_555
O2 C1 1_555 1_555
N1 Zn1 1_555 1_555
H1 N1 1_555 1_555
N2 C6 1_555 1_555
C1 C2 1_555 1_555
C2 N1 1_555 1_555
H2 C2 1_555 1_555
C3 C2 1_555 1_555
H3 C3 1_555 1_555
C4 C3 1_555 1_555
H4 C4 1_555 1_555
H5 C4 1_555 1_555
H6 C4 1_555 1_555
C5 C3 1_555 1_555
H7 C5 1_555 1_555
H8 C5 1_555 1_555
H9 C5 1_555 1_555
C6 H10 1_555 1_555
C7 N2 1_555 1_555
H11 C7 1_555 1_555
C8 C6 1_555 1_555
H12 C8 1_555 1_555
C9 C8 1_555 1_555
C10 C7 1_555 1_555
H13 C10 1_555 1_555
C11 N1 1_555 1_555
H14 C11 1_555 1_555
H15 C11 1_555 1_555
Zn1C O2 1_555 1_555
Zn1E N2 1_555 1_555
O2C Zn1 1_555 1_555
N2A Zn1 1_555 1_555
C9 C10 1_555 1_555
C9 C11 1_555 1_555

#END
