
#######################################################################
#
#                 Cambridge Crystallographic Data Centre
#                                CCDC 
#
#######################################################################
#
# If this CIF has been generated from an entry in the Cambridge 
# Structural Database, then it will include bibliographic, chemical, 
# crystal, experimental, refinement or atomic coordinate data resulting 
# from the CCDC's data processing and validation procedures.
#
#######################################################################

data_RIWMUH
_chemical_formula_moiety         '(C16 H14 Cu1 O7)n'
_chemical_name_systematic        
catena-((\m~4~-2,2'-Dimethoxybiphenyl-4,4'-dicarboxylato)-aqua-copper)
_symmetry_cell_setting           tetragonal
_symmetry_space_group_name_H-M   'P 4/n b m'
_symmetry_Int_Tables_number      125
_space_group_name_Hall           '-P 4a 2b'
loop_
_symmetry_equiv_pos_site_id
_symmetry_equiv_pos_as_xyz
1 x,y,z
2 1/2-x,1/2-y,z
3 1/2-y,x,z
4 y,1/2-x,z
5 1/2-x,y,-z
6 x,1/2-y,-z
7 y,x,-z
8 1/2-y,1/2-x,-z
9 -x,-y,-z
10 1/2+x,1/2+y,-z
11 1/2+y,-x,-z
12 -y,1/2+x,-z
13 1/2+x,-y,z
14 -x,1/2+y,z
15 -y,-x,z
16 1/2+y,1/2+x,z
_cell_length_a                   27.086(3)
_cell_length_b                   27.086(3)
_cell_length_c                   6.7052(9)
_cell_angle_alpha                90
_cell_angle_beta                 90
_cell_angle_gamma                90
_cell_volume                     4919.28
_exptl_crystal_colour            blue
_exptl_crystal_description       block
_cell_formula_units_Z            8
loop_
_atom_site_label
_atom_site_type_symbol
_atom_site_fract_x
_atom_site_fract_y
_atom_site_fract_z
Cu1 Cu 0.520970(14) 0.020970(14) 0.15159(8)
C1 C 0.49113(13) 0.08374(13) -0.1638(5)
C2 C 0.48770(13) 0.13355(13) -0.2611(5)
C3 C 0.46563(14) 0.13756(12) -0.4455(5)
H1 H 0.4528 0.1098 -0.5083
C4 C 0.46274(15) 0.18349(13) -0.5366(5)
C5 C 0.48291(16) 0.22561(13) -0.4487(6)
C6 C 0.50385(19) 0.22068(14) -0.2641(7)
H2 H 0.5166 0.2484 -0.2004
C7 C 0.50643(19) 0.17522(15) -0.1702(6)
H3 H 0.5209 0.1728 -0.0448
C8 C 0.4124(2) 0.15184(17) -0.7968(7)
H4 H 0.3985 0.1620 -0.9219
H5 H 0.3863 0.1431 -0.7065
H6 H 0.4335 0.1238 -0.8177
O1 O 0.51076(11) 0.08266(9) 0.0048(4)
O2 O 0.55429(14) 0.05429(14) 0.4040(7)
O3 O 0.47496(10) 0.04689(9) -0.2545(4)
O4 O 0.44024(13) 0.19096(10) -0.7150(4)
C1E C 0.49113(13) 0.41626(13) -0.8362(5)
C2E C 0.48770(13) 0.36645(13) -0.7389(5)
C3E C 0.46563(14) 0.36244(12) -0.5545(5)
H1E H 0.4528 0.3902 -0.4917
C4E C 0.46274(15) 0.31651(13) -0.4634(5)
C5E C 0.48291(16) 0.27439(13) -0.5513(6)
C6E C 0.50385(19) 0.27932(14) -0.7359(7)
H2E H 0.5166 0.2516 -0.7996
C7E C 0.50643(19) 0.32478(15) -0.8298(6)
H3E H 0.5209 0.3272 -0.9552
C8E C 0.4124(2) 0.34816(17) -0.2032(7)
H4E H 0.3985 0.3380 -0.0781
H5E H 0.3863 0.3569 -0.2935
H6E H 0.4335 0.3762 -0.1823
O1E O 0.51076(11) 0.41734(9) -1.0048(4)
O3E O 0.47496(10) 0.45311(9) -0.7455(4)
O4E O 0.44024(13) 0.30904(10) -0.2850(4)
Cu1B Cu 0.479030(14) 0.520970(14) -0.84841(8)
Cu1E Cu 0.520970(14) 0.479030(14) -1.15159(8)
Cu1G Cu 0.479030(14) -0.020970(14) -0.15159(8)
O1O O 0.58266(9) 0.01076(11) 0.0048(4)
O3G O 0.45311(9) 0.02504(10) 0.2545(4)
O3H O 0.52504(10) -0.04689(9) 0.2545(4)
loop_
_geom_bond_atom_site_label_1
_geom_bond_atom_site_label_2
_geom_bond_site_symmetry_1
_geom_bond_site_symmetry_2
Cu1 O1 1_555 1_555
C1 C2 1_555 1_555
C2 C3 1_555 1_555
C3 H1 1_555 1_555
C4 C3 1_555 1_555
C5 C4 1_555 1_555
C6 C5 1_555 1_555
H2 C6 1_555 1_555
C7 C2 1_555 1_555
H3 C7 1_555 1_555
C8 H4 1_555 1_555
H5 C8 1_555 1_555
H6 C8 1_555 1_555
O1 C1 1_555 1_555
O2 Cu1 1_555 1_555
O3 C1 1_555 1_555
O4 C4 1_555 1_555
C1E C2E 1_555 1_555
C2E C3E 1_555 1_555
C3E H1E 1_555 1_555
C4E C3E 1_555 1_555
C5E C5 1_555 1_555
C6E C5E 1_555 1_555
H2E C6E 1_555 1_555
C7E C2E 1_555 1_555
H3E C7E 1_555 1_555
C8E H4E 1_555 1_555
H5E C8E 1_555 1_555
H6E C8E 1_555 1_555
O1E C1E 1_555 1_555
O3E C1E 1_555 1_555
O4E C4E 1_555 1_555
Cu1B O3E 1_555 1_555
Cu1E O1E 1_555 1_555
Cu1G O3 1_555 1_555
O1O Cu1 1_555 1_555
O3G Cu1 1_555 1_555
O3H Cu1 1_555 1_555
C6 C7 1_555 1_555
C8 O4 1_555 1_555
C4E C5E 1_555 1_555
C6E C7E 1_555 1_555
C8E O4E 1_555 1_555

#END
