
#######################################################################
#
#                 Cambridge Crystallographic Data Centre
#                                CCDC 
#
#######################################################################
#
# If this CIF has been generated from an entry in the Cambridge 
# Structural Database, then it will include bibliographic, chemical, 
# crystal, experimental, refinement or atomic coordinate data resulting 
# from the CCDC's data processing and validation procedures.
#
#######################################################################

data_RIWNAO
_chemical_formula_moiety         
'(C64 H48 Cd3 Na1 O24 1-)2n,n(C32 H24 Cd1 O12 2-),4n(C2 H8 N1 1+),2n(C3 H7 N1 O1),9n(H2 O1),17n(C2 H7 N1)'
_chemical_name_systematic        
"catena-[tetrakis(dimethylammonium) bis(tetrakis(\m-2,2'-dimethoxybiphenyl-4,4'-dicarboxylato)-tri-cadmium-sodium) bis(\m-2,2'-dimethoxybiphenyl-4,4'-dicarboxylato)-cadmium dimethylamine N,N-dimethylformamide solvate nonahydrate]"
_symmetry_cell_setting           tetragonal
_symmetry_space_group_name_H-M   'I -4 2 d'
_symmetry_Int_Tables_number      122
_space_group_name_Hall           'I -4 2bw'
loop_
_symmetry_equiv_pos_site_id
_symmetry_equiv_pos_as_xyz
1 x,y,z
2 -x,-y,z
3 y,-x,-z
4 -y,x,-z
5 1/2-x,y,3/4-z
6 1/2+x,-y,3/4-z
7 1/2-y,-x,3/4+z
8 1/2+y,x,3/4+z
9 1/2+x,1/2+y,1/2+z
10 1/2-x,1/2-y,1/2+z
11 1/2+y,1/2-x,1/2-z
12 1/2-y,1/2+x,1/2-z
13 -x,1/2+y,1/4-z
14 x,1/2-y,1/4-z
15 -y,1/2-x,1/4+z
16 y,1/2+x,1/4+z
_cell_length_a                   21.769(2)
_cell_length_b                   21.769(2)
_cell_length_c                   44.426(9)
_cell_angle_alpha                90
_cell_angle_beta                 90
_cell_angle_gamma                90
_cell_volume                     21053
_exptl_crystal_colour            colorless
_exptl_crystal_description       block
_cell_formula_units_Z            4
loop_
_atom_site_label
_atom_site_type_symbol
_atom_site_fract_x
_atom_site_fract_y
_atom_site_fract_z
Cd3 Cd 0.0000 0.0000 -0.5000
O13 O 0.0314(3) -0.0867(3) -0.47462(13)
O14 O -0.0538(3) -0.0538(3) -0.45780(18)
O15 O 0.0833(3) -0.2641(3) -0.40571(16)
C33 C -0.0109(5) -0.0913(4) -0.45739(19)
C34 C -0.0149(4) -0.1370(4) -0.43146(18)
C35 C 0.0326(5) -0.1770(4) -0.43089(19)
H24 H 0.0626 -0.1736 -0.4457
C36 C 0.0389(5) -0.2241(4) -0.40873(17)
C37 C -0.0106(4) -0.2246(3) -0.38707(14)
C38 C -0.0567(4) -0.1840(4) -0.3899(2)
H25 H -0.0891 -0.1856 -0.3763
C39 C -0.0579(4) -0.1418(4) -0.41152(16)
H26 H -0.0908 -0.1147 -0.4123
C40 C 0.1421(6) -0.2569(7) -0.4210(3)
H27 H 0.1673 -0.2923 -0.4172
H28 H 0.1625 -0.2208 -0.4135
H29 H 0.1354 -0.2528 -0.4423
O13M O 0.0314(3) -0.4133(3) -0.27538(13)
O14M O -0.0538(3) -0.4462(3) -0.29220(18)
O15M O 0.0833(3) -0.2359(3) -0.34429(16)
C33M C -0.0109(5) -0.4087(4) -0.29261(19)
C34M C -0.0149(4) -0.3630(4) -0.31854(18)
C35M C 0.0326(5) -0.3230(4) -0.31911(19)
H24M H 0.0626 -0.3264 -0.3043
C36M C 0.0389(5) -0.2759(4) -0.34127(17)
C37M C -0.0106(4) -0.2754(3) -0.36293(14)
C38M C -0.0567(4) -0.3160(4) -0.3601(2)
H25M H -0.0891 -0.3144 -0.3737
C39M C -0.0579(4) -0.3582(4) -0.33848(16)
H26M H -0.0908 -0.3853 -0.3377
C40M C 0.1421(6) -0.2431(7) -0.3290(3)
H27M H 0.1673 -0.2077 -0.3328
H28M H 0.1625 -0.2792 -0.3365
H29M H 0.1354 -0.2472 -0.3077
O13A O -0.0314(3) 0.0867(3) -0.47462(13)
O14A O 0.0538(3) 0.0538(3) -0.45780(18)
O15A O -0.0833(3) 0.2641(3) -0.40571(16)
C33A C 0.0109(5) 0.0913(4) -0.45739(19)
C34A C 0.0149(4) 0.1370(4) -0.43146(18)
C35A C -0.0326(5) 0.1770(4) -0.43089(19)
H24A H -0.0626 0.1736 -0.4457
C36A C -0.0389(5) 0.2241(4) -0.40873(17)
C37A C 0.0106(4) 0.2246(3) -0.38707(14)
C38A C 0.0567(4) 0.1840(4) -0.3899(2)
H25A H 0.0891 0.1856 -0.3763
C39A C 0.0579(4) 0.1418(4) -0.41152(16)
H26A H 0.0908 0.1147 -0.4123
C40A C -0.1421(6) 0.2569(7) -0.4210(3)
H27A H -0.1673 0.2923 -0.4172
H28A H -0.1625 0.2208 -0.4135
H29A H -0.1354 0.2528 -0.4423
O13L O -0.0314(3) 0.4133(3) -0.27538(13)
O14L O 0.0538(3) 0.4462(3) -0.29220(18)
O15L O -0.0833(3) 0.2359(3) -0.34429(16)
C33L C 0.0109(5) 0.4087(4) -0.29261(19)
C34L C 0.0149(4) 0.3630(4) -0.31854(18)
C35L C -0.0326(5) 0.3230(4) -0.31911(19)
H24L H -0.0626 0.3264 -0.3043
C36L C -0.0389(5) 0.2759(4) -0.34127(17)
C37L C 0.0106(4) 0.2754(3) -0.36293(14)
C38L C 0.0567(4) 0.3160(4) -0.3601(2)
H25L H 0.0891 0.3144 -0.3737
C39L C 0.0579(4) 0.3582(4) -0.33848(16)
H26L H 0.0908 0.3853 -0.3377
C40L C -0.1421(6) 0.2431(7) -0.3290(3)
H27L H -0.1673 0.2077 -0.3328
H28L H -0.1625 0.2792 -0.3365
H29L H -0.1354 0.2472 -0.3077
Cd3L Cd 0.0000 -0.5000 -0.2500
Cd3L_2 Cd 0.0000 0.5000 -0.2500
O13B O -0.0867(3) -0.0314(3) -0.52538(13)
O13C O 0.0867(3) 0.0314(3) -0.52538(13)
O14B O -0.0538(3) 0.0538(3) -0.54220(18)
O14C O 0.0538(3) -0.0538(3) -0.54220(18)
C41 C -0.2994(7) -0.4652(7) -0.9647(5)
H30 H -0.3228 -0.4282 -0.9621
H31 H -0.2799 -0.4647 -0.9840
H32 H -0.2687 -0.4678 -0.9492
C42 C -0.3217(11) -0.5809(7) -0.9785(5)
H33 H -0.3532 -0.5935 -0.9923
H34 H -0.3155 -0.6124 -0.9637
H35 H -0.2841 -0.5741 -0.9893
N1 N -0.3416(7) -0.5201(6) -0.9626(4)
H36 H -0.3783 -0.5090 -0.9702
H37 H -0.3473 -0.5286 -0.9430
Cd1 Cd -0.119549(14) -0.381783(14) -0.923975(6)
Cd2 Cd -0.12199(2) -0.2500 -0.8750
Na1 Na 0.0000 -0.5000 -0.92323(9)
O1 O -0.0747(2) -0.45961(19) -0.95409(9)
O2 O -0.1657(2) -0.4258(2) -0.96814(10)
O3 O -0.07913(19) -0.7956(2) -1.14698(11)
O4 O -0.17840(18) -0.80718(17) -1.14076(8)
O5 O -0.0510(3) -0.6560(3) -1.01662(15)
O6 O -0.2266(3) -0.6654(2) -1.05289(12)
O7 O -0.0442(2) -0.4248(2) -0.89132(11)
O8 O -0.05518(17) -0.32755(18) -0.88802(8)
O9 O 0.29894(18) -0.3893(2) -0.70124(8)
O10 O 0.21657(16) -0.3752(2) -0.67199(7)
O11 O 0.1378(4) -0.4625(3) -0.81632(19)
O12 O 0.0533(7) -0.3711(8) -0.7445(3)
C1 C -0.1174(3) -0.4621(2) -0.97032(12)
C2 C -0.1191(3) -0.5071(3) -0.99653(14)
C3 C -0.1654(3) -0.5074(3) -1.01766(14)
H1 H -0.1964 -0.4781 -1.0166
C4 C -0.1663(3) -0.5503(3) -1.04013(16)
H2 H -0.1980 -0.5489 -1.0542
C5 C -0.1225(3) -0.5951(3) -1.04285(15)
C6 C -0.0843(4) -0.6003(4) -1.01646(19)
C7 C -0.0796(4) -0.5566(4) -0.99653(17)
H3 H -0.0490 -0.5589 -0.9820
C8 C -0.1270(3) -0.6416(3) -1.06691(14)
C9 C -0.0774(3) -0.6527(3) -1.08388(16)
H4 H -0.0422 -0.6295 -1.0805
C10 C -0.0758(3) -0.6986(3) -1.10706(18)
H5 H -0.0405 -0.7045 -1.1185
C11 C -0.1274(3) -0.7338(2) -1.11205(13)
C12 C -0.1790(3) -0.7204(3) -1.09417(12)
H6 H -0.2156 -0.7409 -1.0980
C13 C -0.1770(3) -0.6771(3) -1.07081(14)
C14 C -0.1286(3) -0.7838(3) -1.13410(11)
C15 C -0.0082(6) -0.6691(7) -0.9878(3)
H7 H 0.0131 -0.7074 -0.9905
H8 H -0.0333 -0.6714 -0.9700
H9 H 0.0211 -0.6365 -0.9856
C16 C -0.2597(12) -0.6763(13) -1.0203(4)
H10 H -0.2584 -0.6389 -1.0089
H11 H -0.2385 -0.7081 -1.0096
H12 H -0.3017 -0.6882 -1.0234
C17 C -0.0295(2) -0.3737(3) -0.87922(12)
C18 C 0.0134(3) -0.3720(3) -0.85357(13)
C19 C 0.0498(4) -0.4238(4) -0.84663(19)
H13 H 0.0456 -0.4605 -0.8572
C20 C 0.0929(5) -0.4176(4) -0.8229(2)
C21 C 0.0908(4) -0.3715(4) -0.80279(16)
C22 C 0.0638(3) -0.3186(4) -0.81313(15)
H14 H 0.0734 -0.2814 -0.8040
C23 C 0.0217(3) -0.3196(3) -0.83723(14)
H15 H -0.0004 -0.2844 -0.8420
C24 C 0.1324(4) -0.3721(5) -0.77603(19)
C25 C 0.1075(5) -0.3641(6) -0.7473(2)
C26 C 0.1414(4) -0.3613(5) -0.7222(2)
H16 H 0.1239 -0.3494 -0.7040
C27 C 0.2038(3) -0.3767(4) -0.72396(14)
C28 C 0.2305(4) -0.3790(4) -0.75270(18)
H17 H 0.2730 -0.3783 -0.7547
C29 C 0.1942(4) -0.3823(5) -0.77761(18)
C30 C 0.2436(3) -0.3817(2) -0.69657(10)
C31 C 0.1704(12) -0.4846(12) -0.8451(4)
H18 H 0.1973 -0.5182 -0.8403
H19 H 0.1940 -0.4515 -0.8535
H20 H 0.1403 -0.4979 -0.8595
C32 C 0.0160(10) -0.3488(13) -0.7207(4)
H21 H -0.0185 -0.3271 -0.7289
H22 H 0.0396 -0.3216 -0.7083
H23 H 0.0016 -0.3827 -0.7089
Cd1A Cd 0.119549(14) -0.618217(14) -0.923975(6)
O1A O 0.0747(2) -0.54039(19) -0.95409(9)
O2A O 0.1657(2) -0.5742(2) -0.96814(10)
O3A O 0.07913(19) -0.2044(2) -1.14698(11)
O4A O 0.17840(18) -0.19282(17) -1.14076(8)
O5A O 0.0510(3) -0.3440(3) -1.01662(15)
O6A O 0.2266(3) -0.3346(2) -1.05289(12)
O7A O 0.0442(2) -0.5752(2) -0.89132(11)
O8A O 0.05518(17) -0.67245(18) -0.88802(8)
O9A O -0.29894(18) -0.6107(2) -0.70124(8)
O10A O -0.21657(16) -0.6248(2) -0.67199(7)
O11A O -0.1378(4) -0.5375(3) -0.81632(19)
O12A O -0.0533(7) -0.6289(8) -0.7445(3)
C1A C 0.1174(3) -0.5379(2) -0.97032(12)
C2A C 0.1191(3) -0.4929(3) -0.99653(14)
C3A C 0.1654(3) -0.4926(3) -1.01766(14)
H1A H 0.1964 -0.5219 -1.0166
C4A C 0.1663(3) -0.4497(3) -1.04013(16)
H2A H 0.1980 -0.4511 -1.0542
C5A C 0.1225(3) -0.4049(3) -1.04285(15)
C6A C 0.0843(4) -0.3997(4) -1.01646(19)
C7A C 0.0796(4) -0.4434(4) -0.99653(17)
H3A H 0.0490 -0.4411 -0.9820
C8A C 0.1270(3) -0.3584(3) -1.06691(14)
C9A C 0.0774(3) -0.3473(3) -1.08388(16)
H4A H 0.0422 -0.3705 -1.0805
C10A C 0.0758(3) -0.3014(3) -1.10706(18)
H5A H 0.0405 -0.2955 -1.1185
C11A C 0.1274(3) -0.2662(2) -1.11205(13)
C12A C 0.1790(3) -0.2796(3) -1.09417(12)
H6A H 0.2156 -0.2591 -1.0980
C13A C 0.1770(3) -0.3229(3) -1.07081(14)
C14A C 0.1286(3) -0.2162(3) -1.13410(11)
C15A C 0.0082(6) -0.3309(7) -0.9878(3)
H7A H -0.0131 -0.2926 -0.9905
H8A H 0.0333 -0.3286 -0.9700
H9A H -0.0211 -0.3635 -0.9856
C16A C 0.2597(12) -0.3237(13) -1.0203(4)
H10A H 0.2584 -0.3611 -1.0089
H11A H 0.2385 -0.2919 -1.0096
H12A H 0.3017 -0.3118 -1.0234
C17A C 0.0295(2) -0.6263(3) -0.87922(12)
C18A C -0.0134(3) -0.6280(3) -0.85357(13)
C19A C -0.0498(4) -0.5762(4) -0.84663(19)
H13A H -0.0456 -0.5395 -0.8572
C20A C -0.0929(5) -0.5824(4) -0.8229(2)
C21A C -0.0908(4) -0.6285(4) -0.80279(16)
C22A C -0.0638(3) -0.6814(4) -0.81313(15)
H14A H -0.0734 -0.7186 -0.8040
C23A C -0.0217(3) -0.6804(3) -0.83723(14)
H15A H 0.0004 -0.7156 -0.8420
C24A C -0.1324(4) -0.6279(5) -0.77603(19)
C25A C -0.1075(5) -0.6359(6) -0.7473(2)
C26A C -0.1414(4) -0.6387(5) -0.7222(2)
H16A H -0.1239 -0.6506 -0.7040
C27A C -0.2038(3) -0.6233(4) -0.72396(14)
C28A C -0.2305(4) -0.6210(4) -0.75270(18)
H17A H -0.2730 -0.6217 -0.7547
C29A C -0.1942(4) -0.6177(5) -0.77761(18)
C30A C -0.2436(3) -0.6183(2) -0.69657(10)
C31A C -0.1704(12) -0.5154(12) -0.8451(4)
H18A H -0.1973 -0.4818 -0.8403
H19A H -0.1940 -0.5485 -0.8535
H20A H -0.1403 -0.5021 -0.8595
C32A C -0.0160(10) -0.6512(13) -0.7207(4)
H21A H 0.0185 -0.6729 -0.7289
H22A H -0.0396 -0.6784 -0.7083
H23A H -0.0016 -0.6173 -0.7089
Cd1F Cd -0.118217(14) -0.880451(14) -1.173975(6)
Cd1G Cd 0.118217(14) -0.119549(14) -1.173975(6)
Cd1N Cd 0.381783(14) -0.380451(14) -0.673975(6)
Cd1O Cd -0.381783(14) -0.619549(14) -0.673975(6)
Cd2A Cd 0.12199(2) -0.7500 -0.8750
Cd2B Cd -0.2500 -0.87801(2) -1.1250
Cd2C Cd 0.2500 -0.12199(2) -1.1250
Cd2J Cd 0.2500 -0.37801(2) -0.6250
Cd2K Cd -0.2500 -0.62199(2) -0.6250
O3N O -0.2044(2) -0.42087(19) -0.89698(11)
O3O O 0.2044(2) -0.57913(19) -0.89698(11)
O4C O -0.19282(17) -0.17840(18) -0.85924(8)
O4N O -0.19282(17) -0.32160(18) -0.89076(8)
O4O O 0.19282(17) -0.67840(18) -0.89076(8)
O8M O -0.05518(17) -0.17245(18) -0.86198(8)
O9F O -0.1107(2) -0.29894(18) -0.95124(8)
O9G O 0.1107(2) -0.70106(18) -0.95124(8)
O10F O -0.1248(2) -0.21657(16) -0.92199(7)
O10K O -0.1248(2) -0.28343(16) -0.82801(7)
C43? C -0.2819(5) -0.6994(6) -1.0578(3)
H38? H -0.2914 -0.6996 -1.0789
H39? H -0.3150 -0.6806 -1.0469
H40? H -0.2764 -0.7409 -1.0509
C44? C 0.1306(13) -0.5179(8) -0.8352(5)
H41? H 0.1059 -0.5475 -0.8247
H42? H 0.1703 -0.5352 -0.8393
H43? H 0.1110 -0.5070 -0.8538
C45? C 0.2948(8) -0.3974(10) -0.8097(4)
H44? H 0.3039 -0.4035 -0.8306
H45? H 0.3069 -0.4330 -0.7985
H46? H 0.3168 -0.3621 -0.8025
O16? O 0.2203(5) -0.3860(7) -0.8056(2)
N2? N 0.0080(8) -0.5553(7) -1.1185(5)
C46? C 0.0000 -0.5000 -1.1378(5)
H47? H -0.0013 -0.5456 -1.0993
H48? H -0.0182 -0.5848 -1.1246
C47? C 0.0724(7) -0.5794(14) -1.1199(10)
H49? H 0.0999 -0.5501 -1.1110
H50? H 0.0748 -0.6174 -1.1090
H51? H 0.0837 -0.5861 -1.1405
loop_
_geom_bond_atom_site_label_1
_geom_bond_atom_site_label_2
_geom_bond_site_symmetry_1
_geom_bond_site_symmetry_2
Cd1 O1 1_555 1_555
Cd2 O8 1_555 1_555
Na1 O1 1_555 1_555
O1 C1 1_555 1_555
O2 Cd1 1_555 1_555
O3 C14 1_555 1_555
O4 C14 1_555 1_555
O5 C6 1_555 1_555
O6 C13 1_555 1_555
O7 Cd1 1_555 1_555
O8 Cd1 1_555 1_555
O9 C30 1_555 1_555
O10 C30 1_555 1_555
O11 C20 1_555 1_555
O12 C25 1_555 1_555
C1 O2 1_555 1_555
C2 C1 1_555 1_555
C3 C2 1_555 1_555
H1 C3 1_555 1_555
C4 C3 1_555 1_555
H2 C4 1_555 1_555
C5 C4 1_555 1_555
C6 C5 1_555 1_555
C7 C2 1_555 1_555
H3 C7 1_555 1_555
C8 C5 1_555 1_555
C9 C8 1_555 1_555
H4 C9 1_555 1_555
C10 C9 1_555 1_555
H5 C10 1_555 1_555
C11 C10 1_555 1_555
C12 C11 1_555 1_555
H6 C12 1_555 1_555
C13 C8 1_555 1_555
C14 C11 1_555 1_555
C15 O5 1_555 1_555
H7 C15 1_555 1_555
H8 C15 1_555 1_555
H9 C15 1_555 1_555
C16 O6 1_555 1_555
H10 C16 1_555 1_555
H11 C16 1_555 1_555
H12 C16 1_555 1_555
C17 O7 1_555 1_555
C18 C17 1_555 1_555
C19 C18 1_555 1_555
H13 C19 1_555 1_555
C20 C19 1_555 1_555
C21 C20 1_555 1_555
C22 C21 1_555 1_555
H14 C22 1_555 1_555
C23 C18 1_555 1_555
H15 C23 1_555 1_555
C24 C21 1_555 1_555
C25 C24 1_555 1_555
C26 C25 1_555 1_555
H16 C26 1_555 1_555
C27 C26 1_555 1_555
C28 C27 1_555 1_555
H17 C28 1_555 1_555
C29 C24 1_555 1_555
C30 C27 1_555 1_555
C31 O11 1_555 1_555
H18 C31 1_555 1_555
H19 C31 1_555 1_555
H20 C31 1_555 1_555
C32 O12 1_555 1_555
H21 C32 1_555 1_555
H22 C32 1_555 1_555
H23 C32 1_555 1_555
Cd3 O13 1_555 1_555
O13 C33 1_555 1_555
O14 Cd3 1_555 1_555
O15 C36 1_555 1_555
C33 O14 1_555 1_555
C34 C33 1_555 1_555
C35 C34 1_555 1_555
H24 C35 1_555 1_555
C36 C35 1_555 1_555
C37 C36 1_555 1_555
C38 C37 1_555 1_555
H25 C38 1_555 1_555
C39 C34 1_555 1_555
H26 C39 1_555 1_555
C40 O15 1_555 1_555
H27 C40 1_555 1_555
H28 C40 1_555 1_555
H29 C40 1_555 1_555
C41 H30 1_555 1_555
H31 C41 1_555 1_555
H32 C41 1_555 1_555
C42 H33 1_555 1_555
H34 C42 1_555 1_555
H35 C42 1_555 1_555
N1 C41 1_555 1_555
H36 N1 1_555 1_555
H37 N1 1_555 1_555
Cd1A O1A 1_555 1_555
O1A Na1 1_555 1_555
O2A Cd1A 1_555 1_555
O3A C14A 1_555 1_555
O4A C14A 1_555 1_555
O5A C6A 1_555 1_555
O6A C13A 1_555 1_555
O7A Na1 1_555 1_555
O8A Cd1A 1_555 1_555
O9A C30A 1_555 1_555
O10A C30A 1_555 1_555
O11A C20A 1_555 1_555
O12A C25A 1_555 1_555
C1A O1A 1_555 1_555
C2A C1A 1_555 1_555
C3A C2A 1_555 1_555
H1A C3A 1_555 1_555
C4A C3A 1_555 1_555
H2A C4A 1_555 1_555
C5A C4A 1_555 1_555
C6A C5A 1_555 1_555
C7A C2A 1_555 1_555
H3A C7A 1_555 1_555
C8A C5A 1_555 1_555
C9A C8A 1_555 1_555
H4A C9A 1_555 1_555
C10A C9A 1_555 1_555
H5A C10A 1_555 1_555
C11A C10A 1_555 1_555
C12A C11A 1_555 1_555
H6A C12A 1_555 1_555
C13A C8A 1_555 1_555
C14A C11A 1_555 1_555
C15A O5A 1_555 1_555
H7A C15A 1_555 1_555
H8A C15A 1_555 1_555
H9A C15A 1_555 1_555
C16A O6A 1_555 1_555
H10A C16A 1_555 1_555
H11A C16A 1_555 1_555
H12A C16A 1_555 1_555
C17A O7A 1_555 1_555
C18A C17A 1_555 1_555
C19A C18A 1_555 1_555
H13A C19A 1_555 1_555
C20A C19A 1_555 1_555
C21A C20A 1_555 1_555
C22A C21A 1_555 1_555
H14A C22A 1_555 1_555
C23A C18A 1_555 1_555
H15A C23A 1_555 1_555
C24A C21A 1_555 1_555
C25A C24A 1_555 1_555
C26A C25A 1_555 1_555
H16A C26A 1_555 1_555
C27A C26A 1_555 1_555
C28A C27A 1_555 1_555
H17A C28A 1_555 1_555
C29A C24A 1_555 1_555
C30A C27A 1_555 1_555
C31A O11A 1_555 1_555
H18A C31A 1_555 1_555
H19A C31A 1_555 1_555
H20A C31A 1_555 1_555
C32A O12A 1_555 1_555
H21A C32A 1_555 1_555
H22A C32A 1_555 1_555
H23A C32A 1_555 1_555
Cd1F O3 1_555 1_555
Cd1G O3A 1_555 1_555
Cd1N O9 1_555 1_555
Cd1O O9A 1_555 1_555
Cd2A O8A 1_555 1_555
Cd2B O4 1_555 1_555
Cd2C O4A 1_555 1_555
Cd2J O10 1_555 1_555
Cd2K O10A 1_555 1_555
O3N Cd1 1_555 1_555
O3O Cd1A 1_555 1_555
O4C Cd2 1_555 1_555
O4N Cd1 1_555 1_555
O4O Cd1A 1_555 1_555
O8M Cd2 1_555 1_555
O9F Cd1 1_555 1_555
O9G Cd1A 1_555 1_555
O10F Cd2 1_555 1_555
O10K Cd2 1_555 1_555
O13M C33M 1_555 1_555
O14M C33M 1_555 1_555
O15M C36M 1_555 1_555
C33M C34M 1_555 1_555
C34M C35M 1_555 1_555
C35M H24M 1_555 1_555
C36M C35M 1_555 1_555
C37M C37 1_555 1_555
C38M C37M 1_555 1_555
H25M C38M 1_555 1_555
C39M C34M 1_555 1_555
H26M C39M 1_555 1_555
C40M O15M 1_555 1_555
H27M C40M 1_555 1_555
H28M C40M 1_555 1_555
H29M C40M 1_555 1_555
O13A Cd3 1_555 1_555
O14A Cd3 1_555 1_555
O15A C36A 1_555 1_555
C33A O13A 1_555 1_555
C34A C33A 1_555 1_555
C35A C34A 1_555 1_555
H24A C35A 1_555 1_555
C36A C35A 1_555 1_555
C37A C36A 1_555 1_555
C38A C37A 1_555 1_555
H25A C38A 1_555 1_555
C39A C34A 1_555 1_555
H26A C39A 1_555 1_555
C40A O15A 1_555 1_555
H27A C40A 1_555 1_555
H28A C40A 1_555 1_555
H29A C40A 1_555 1_555
O13L C33L 1_555 1_555
O14L C33L 1_555 1_555
O15L C36L 1_555 1_555
C33L C34L 1_555 1_555
C34L C35L 1_555 1_555
C35L H24L 1_555 1_555
C36L C35L 1_555 1_555
C37L C37A 1_555 1_555
C38L C37L 1_555 1_555
H25L C38L 1_555 1_555
C39L C34L 1_555 1_555
H26L C39L 1_555 1_555
C40L O15L 1_555 1_555
H27L C40L 1_555 1_555
H28L C40L 1_555 1_555
H29L C40L 1_555 1_555
Cd3L O13M 1_555 1_555
Cd3L_2 O13L 1_555 1_555
O13B Cd3 1_555 1_555
O13C Cd3 1_555 1_555
O14B Cd3 1_555 1_555
O14C Cd3 1_555 1_555
Cd2 O4N 1_555 1_555
Na1 O7 1_555 1_555
O4 Cd1F 1_555 1_555
O8 C17 1_555 1_555
C6 C7 1_555 1_555
C12 C13 1_555 1_555
C22 C23 1_555 1_555
C28 C29 1_555 1_555
C38 C39 1_555 1_555
C42 N1 1_555 1_555
Cd1A O7A 1_555 1_555
O2A C1A 1_555 1_555
O4A Cd1G 1_555 1_555
O8A C17A 1_555 1_555
C6A C7A 1_555 1_555
C12A C13A 1_555 1_555
C22A C23A 1_555 1_555
C28A C29A 1_555 1_555
Cd2A O4O 1_555 1_555
O14M Cd3L 1_555 1_555
C36M C37M 1_555 1_555
C38M C39M 1_555 1_555
O14A C33A 1_555 1_555
C38A C39A 1_555 1_555
O14L Cd3L_2 1_555 1_555
C36L C37L 1_555 1_555
C38L C39L 1_555 1_555

#END
