
#######################################################################
#
#                 Cambridge Crystallographic Data Centre
#                                CCDC 
#
#######################################################################
#
# If this CIF has been generated from an entry in the Cambridge 
# Structural Database, then it will include bibliographic, chemical, 
# crystal, experimental, refinement or atomic coordinate data resulting 
# from the CCDC's data processing and validation procedures.
#
#######################################################################

data_QOCBEQ
_chemical_formula_moiety         
'(C49 H64 N8 Ni2 O8)n,4n(C3 H7 N1 O1),8n(H2 O1)'
_chemical_name_systematic        
'catena-[(\m~4~-Methane-tetrakis(p-benzoato))-bis(1,4,8,11-tetraazacyclotetradecane)-di-nickel tetrakis(dimethylformamide) octahydrate clathrate]'
_symmetry_cell_setting           tetragonal
_symmetry_space_group_name_H-M   'P 4/n'
_symmetry_Int_Tables_number      85
_space_group_name_Hall           '-P 4a'
loop_
_symmetry_equiv_pos_site_id
_symmetry_equiv_pos_as_xyz
1 x,y,z
2 1/2-y,x,z
3 y,1/2-x,z
4 1/2-x,1/2-y,z
5 -x,-y,-z
6 1/2+y,-x,-z
7 -y,1/2+x,-z
8 1/2+x,1/2+y,-z
_cell_length_a                   16.7640(10)
_cell_length_b                   16.7640(10)
_cell_length_c                   12.2840(10)
_cell_angle_alpha                90
_cell_angle_beta                 90
_cell_angle_gamma                90
_cell_volume                     3452.19
_cell_formula_units_Z            2
loop_
_atom_site_label
_atom_site_type_symbol
_atom_site_fract_x
_atom_site_fract_y
_atom_site_fract_z
_atom_site_U_iso_or_equiv
_atom_site_thermal_displace_type
Ni1 Ni 0.5000 0.0000 0.0000 0.0779 Uani
O1 O 0.45204(13) -0.07258(13) 0.12254(16) 0.0912 Uani
N1 N 0.38380(15) 0.03002(16) -0.0423(2) 0.0901 Uani
H1 H 0.3874 0.0592 -0.1046 0.1080 Uiso
C1 C 0.42226(18) -0.14521(19) 0.2792(2) 0.0830 Uani
C2 C 0.31419(19) -0.21293(18) 0.42420(19) 0.0798 Uani
C3 C 0.2500 -0.2500 0.5000 0.0750 Uani
O2 O 0.55225(16) -0.1158(2) 0.2205(2) 0.1302 Uani
C4 C 0.28821(19) -0.1627(2) 0.3406(2) 0.0878 Uani
H2 H 0.2341 -0.1518 0.3327 0.1050 Uiso
C5 C 0.4476(2) -0.1960(2) 0.3598(3) 0.0973 Uani
H3 H 0.5017 -0.2076 0.3662 0.1170 Uiso
C6 C 0.34176(19) -0.12967(19) 0.2708(2) 0.0863 Uani
H4 H 0.3237 -0.0958 0.2161 0.1030 Uiso
N2 N 0.50589(18) -0.09421(16) -0.1067(2) 0.0983 Uani
H5 H 0.5170 -0.0736 -0.1735 0.1180 Uiso
C7 C 0.4809(2) -0.1078(2) 0.1998(3) 0.0933 Uani
C8 C 0.3293(2) -0.0351(2) -0.0659(3) 0.0980 Uani
H6 H 0.2791 -0.0133 -0.0913 0.1170 Uiso
H7 H 0.3189 -0.0645 0.0006 0.1170 Uiso
C9 C 0.3941(2) -0.2299(2) 0.4317(2) 0.0882 Uani
H8 H 0.4123 -0.2645 0.4854 0.1060 Uiso
C10 C 0.3620(2) -0.0918(2) -0.1511(3) 0.1033 Uani
H9 H 0.3194 -0.1277 -0.1729 0.1240 Uiso
H10 H 0.3769 -0.0609 -0.2147 0.1240 Uiso
C11 C 0.4324(2) -0.1411(2) -0.1174(3) 0.1067 Uani
H11 H 0.4409 -0.1829 -0.1709 0.1280 Uiso
H12 H 0.4208 -0.1666 -0.0483 0.1280 Uiso
C12 C 0.3564(2) 0.0853(2) 0.0422(3) 0.0977 Uani
H13 H 0.3392 0.0556 0.1058 0.1170 Uiso
H14 H 0.3114 0.1160 0.0155 0.1170 Uiso
C13 C 0.5762(2) -0.1408(2) -0.0727(3) 0.1037 Uani
H15 H 0.5625 -0.1740 -0.0108 0.1250 Uiso
H16 H 0.5930 -0.1754 -0.1318 0.1250 Uiso
Ni1B Ni 0.0000 0.0000 1.0000 0.0779 Uani
Ni1A Ni 0.5000 -0.5000 1.0000 0.0779 Uani
Ni1G Ni 0.0000 -0.5000 0.0000 0.0779 Uani
O1F O 0.07258(13) -0.04796(13) 0.87746(16) 0.0912 Uani
O1E O 0.42742(13) -0.45204(13) 0.87746(16) 0.0912 Uani
O1C O 0.04796(13) -0.42742(13) 0.12254(16) 0.0912 Uani
O1D O 0.54796(13) 0.07258(13) -0.12254(16) 0.0912 Uani
O1B O -0.07258(13) 0.04796(13) 1.12254(16) 0.0912 Uani
N1D N 0.61620(15) -0.03002(16) 0.0423(2) 0.0901 Uani
N1F N -0.03002(16) -0.11620(15) 1.0423(2) 0.0901 Uani
N1B N 0.03002(16) 0.11620(15) 0.9577(2) 0.0901 Uani
H1D H 0.6126 -0.0592 0.1046 0.1080 Uiso
H1F H -0.0592 -0.1126 1.1046 0.1080 Uiso
H1B H 0.0592 0.1126 0.8954 0.1080 Uiso
C1F C 0.14521(19) -0.07774(18) 0.7208(2) 0.0830 Uani
C1E C 0.35479(19) -0.42226(18) 0.7208(2) 0.0830 Uani
C1C C 0.07774(18) -0.35479(19) 0.2792(2) 0.0830 Uani
C2F C 0.21293(18) -0.18581(19) 0.57580(19) 0.0798 Uani
C2E C 0.28707(18) -0.31419(19) 0.57580(19) 0.0798 Uani
C2C C 0.18581(19) -0.28707(18) 0.42420(19) 0.0798 Uani
O2F O 0.1158(2) 0.05225(16) 0.7795(2) 0.1302 Uani
O2E O 0.3842(2) -0.55225(16) 0.7795(2) 0.1302 Uani
O2C O -0.05225(16) -0.3842(2) 0.2205(2) 0.1302 Uani
C4F C 0.1627(2) -0.21179(19) 0.6594(2) 0.0878 Uani
C4E C 0.3373(2) -0.28821(19) 0.6594(2) 0.0878 Uani
C4C C 0.21179(19) -0.3373(2) 0.3406(2) 0.0878 Uani
H2F H 0.1518 -0.2659 0.6673 0.1050 Uiso
H2E H 0.3482 -0.2341 0.6673 0.1050 Uiso
H2C H 0.2659 -0.3482 0.3327 0.1050 Uiso
C5F C 0.1960(2) -0.0524(2) 0.6402(3) 0.0973 Uani
C5E C 0.3040(2) -0.4476(2) 0.6402(3) 0.0973 Uani
C5C C 0.0524(2) -0.3040(2) 0.3598(3) 0.0973 Uani
H3F H 0.2076 0.0017 0.6338 0.1170 Uiso
H3E H 0.2924 -0.5017 0.6338 0.1170 Uiso
H3C H -0.0017 -0.2924 0.3662 0.1170 Uiso
C6F C 0.12967(19) -0.15824(19) 0.7292(2) 0.0863 Uani
C6E C 0.37033(19) -0.34176(19) 0.7292(2) 0.0863 Uani
C6C C 0.15824(19) -0.37033(19) 0.2708(2) 0.0863 Uani
H4F H 0.0958 -0.1763 0.7839 0.1030 Uiso
H4E H 0.4042 -0.3237 0.7839 0.1030 Uiso
H4C H 0.1763 -0.4042 0.2161 0.1030 Uiso
N2D N 0.49411(18) 0.09421(16) 0.1067(2) 0.0983 Uani
N2F N 0.09421(16) 0.00589(18) 1.1067(2) 0.0983 Uani
N2B N -0.09421(16) -0.00589(18) 0.8933(2) 0.0983 Uani
H5D H 0.4830 0.0736 0.1735 0.1180 Uiso
H5F H 0.0736 0.0170 1.1735 0.1180 Uiso
H5B H -0.0736 -0.0170 0.8265 0.1180 Uiso
C7F C 0.1078(2) -0.0191(2) 0.8002(3) 0.0933 Uani
C7E C 0.3922(2) -0.4809(2) 0.8002(3) 0.0933 Uani
C7C C 0.0191(2) -0.3922(2) 0.1998(3) 0.0933 Uani
C8D C 0.6707(2) 0.0351(2) 0.0659(3) 0.0980 Uani
C8F C 0.0351(2) -0.1707(2) 1.0659(3) 0.0980 Uani
C8B C -0.0351(2) 0.1707(2) 0.9341(3) 0.0980 Uani
H6D H 0.7209 0.0133 0.0913 0.1170 Uiso
H6F H 0.0133 -0.2209 1.0913 0.1170 Uiso
H6B H -0.0133 0.2209 0.9087 0.1170 Uiso
H7D H 0.6811 0.0645 -0.0006 0.1170 Uiso
H7F H 0.0645 -0.1811 0.9994 0.1170 Uiso
H7B H -0.0645 0.1811 1.0006 0.1170 Uiso
C9F C 0.2299(2) -0.1059(2) 0.5683(2) 0.0882 Uani
C9E C 0.2701(2) -0.3941(2) 0.5683(2) 0.0882 Uani
C9C C 0.1059(2) -0.2701(2) 0.4317(2) 0.0882 Uani
H8F H 0.2645 -0.0877 0.5146 0.1060 Uiso
H8E H 0.2355 -0.4123 0.5146 0.1060 Uiso
H8C H 0.0877 -0.2355 0.4854 0.1060 Uiso
C10D C 0.6380(2) 0.0918(2) 0.1511(3) 0.1033 Uani
C10F C 0.0918(2) -0.1380(2) 1.1511(3) 0.1033 Uani
C10B C -0.0918(2) 0.1380(2) 0.8489(3) 0.1033 Uani
H9D H 0.6806 0.1277 0.1729 0.1240 Uiso
H9F H 0.1277 -0.1806 1.1729 0.1240 Uiso
H9B H -0.1277 0.1806 0.8271 0.1240 Uiso
H10D H 0.6231 0.0609 0.2147 0.1240 Uiso
H10F H 0.0609 -0.1231 1.2147 0.1240 Uiso
H10B H -0.0609 0.1231 0.7853 0.1240 Uiso
C11D C 0.5676(2) 0.1411(2) 0.1174(3) 0.1067 Uani
C11F C 0.1411(2) -0.0676(2) 1.1174(3) 0.1067 Uani
C11B C -0.1411(2) 0.0676(2) 0.8826(3) 0.1067 Uani
H11D H 0.5591 0.1829 0.1709 0.1280 Uiso
H11F H 0.1829 -0.0591 1.1709 0.1280 Uiso
H11B H -0.1829 0.0591 0.8291 0.1280 Uiso
H12D H 0.5792 0.1666 0.0483 0.1280 Uiso
H12F H 0.1666 -0.0792 1.0483 0.1280 Uiso
H12B H -0.1666 0.0792 0.9517 0.1280 Uiso
C12D C 0.6436(2) -0.0853(2) -0.0422(3) 0.0977 Uani
C12F C -0.0853(2) -0.1436(2) 0.9578(3) 0.0977 Uani
C12B C 0.0853(2) 0.1436(2) 1.0422(3) 0.0977 Uani
H13D H 0.6608 -0.0556 -0.1058 0.1170 Uiso
H13F H -0.0556 -0.1608 0.8942 0.1170 Uiso
H13B H 0.0556 0.1608 1.1058 0.1170 Uiso
H14D H 0.6886 -0.1160 -0.0155 0.1170 Uiso
H14F H -0.1160 -0.1886 0.9845 0.1170 Uiso
H14B H 0.1160 0.1886 1.0155 0.1170 Uiso
C13D C 0.4238(2) 0.1408(2) 0.0727(3) 0.1037 Uani
C13F C 0.1408(2) 0.0762(2) 1.0727(3) 0.1037 Uani
C13B C -0.1408(2) -0.0762(2) 0.9273(3) 0.1037 Uani
H15D H 0.4375 0.1740 0.0108 0.1250 Uiso
H15F H 0.1740 0.0625 1.0108 0.1250 Uiso
H15B H -0.1740 -0.0625 0.9892 0.1250 Uiso
H16D H 0.4070 0.1754 0.1318 0.1250 Uiso
H16F H 0.1754 0.0930 1.1318 0.1250 Uiso
H16B H -0.1754 -0.0930 0.8682 0.1250 Uiso
loop_
_atom_site_aniso_label
_atom_site_aniso_U_11
_atom_site_aniso_U_22
_atom_site_aniso_U_33
_atom_site_aniso_U_23
_atom_site_aniso_U_13
_atom_site_aniso_U_12
Ni1 0.0886(5) 0.0900(5) 0.0551(6) 0.00501(19) -0.00250(19) -0.0114(2)
O1 0.1066(15) 0.1025(15) 0.0645(12) 0.0174(10) 0.0029(10) -0.0130(11)
N1 0.0931(17) 0.1032(18) 0.0741(15) 0.0087(13) -0.0006(13) -0.0129(14)
C1 0.098(2) 0.096(2) 0.0550(15) 0.0093(13) 0.0042(13) -0.0072(16)
C2 0.093(2) 0.0969(19) 0.0496(13) 0.0018(12) -0.0019(12) -0.0012(15)
C3 0.091(2) 0.091(2) 0.043(3) 0.000 0.000 0.000
O2 0.1010(18) 0.189(3) 0.1007(18) 0.0643(17) 0.0040(13) -0.0076(17)
C4 0.0912(19) 0.118(2) 0.0543(15) 0.0122(14) 0.0042(13) 0.0123(17)
C5 0.091(2) 0.120(3) 0.081(2) 0.0190(17) -0.0081(16) 0.0025(18)
C6 0.098(2) 0.105(2) 0.0559(15) 0.0093(14) -0.0025(14) 0.0066(16)
N2 0.108 0.109 0.078 -0.0037 -0.0017 -0.0088
C7 0.095(2) 0.109(2) 0.076(2) 0.0005(17) -0.0174(16) 0.0028(18)
C8 0.092(2) 0.121(3) 0.081(2) 0.0109(18) -0.0082(16) -0.0154(19)
C9 0.102(2) 0.103(2) 0.0595(15) 0.0139(14) -0.0005(14) 0.0016(17)
C10 0.099(2) 0.112(2) 0.099(2) -0.0100(18) -0.0115(18) -0.0224(19)
C11 0.104 0.108 0.108 -0.022 -0.009 -0.012
C12 0.098(2) 0.100(2) 0.095(2) -0.0015(18) 0.0043(18) -0.0015(18)
C13 0.104 0.106 0.101 -0.0083 0.0001 -0.002
Ni1B 0.09 0.0886 0.0551 0.0025 0.00501 0.0114
Ni1A 0.09 0.0886 0.0551 -0.0025 -0.00501 0.0114
Ni1G 0.0886 0.09 0.0551 -0.00501 0.0025 -0.0114
O1F 0.1025 0.1066 0.0645 -0.0029 0.0174 0.013
O1E 0.1025 0.1066 0.0645 0.0029 -0.0174 0.013
O1C 0.1066 0.1025 0.0645 -0.0174 -0.0029 -0.013
O1D 0.1066 0.1025 0.0645 0.0174 0.0029 -0.013
O1B 0.1025 0.1066 0.0645 -0.0029 0.0174 0.013
N1D 0.0931 0.1032 0.0741 0.0087 -0.0006 -0.0129
N1F 0.1032 0.0931 0.0741 0.0006 0.0087 0.0129
N1B 0.1032 0.0931 0.0741 0.0006 0.0087 0.0129
C1F 0.096 0.098 0.055 -0.0042 0.0093 0.0072
C1E 0.096 0.098 0.055 0.0042 -0.0093 0.0072
C1C 0.098 0.096 0.055 -0.0093 -0.0042 -0.0072
C2F 0.0969 0.093 0.0496 0.0019 0.0018 0.0012
C2E 0.0969 0.093 0.0496 -0.0019 -0.0018 0.0012
C2C 0.093 0.0969 0.0496 -0.0018 0.0019 -0.0012
O2F 0.189 0.101 0.1007 -0.004 0.0643 0.0076
O2E 0.189 0.101 0.1007 0.004 -0.0643 0.0076
O2C 0.101 0.189 0.1007 -0.0643 -0.004 -0.0076
C4F 0.118 0.0912 0.0543 -0.0042 0.0122 -0.0123
C4E 0.118 0.0912 0.0543 0.0042 -0.0122 -0.0123
C4C 0.0912 0.118 0.0543 -0.0122 -0.0042 0.0123
C5F 0.12 0.091 0.081 0.0081 0.019 -0.0025
C5E 0.12 0.091 0.081 -0.0081 -0.019 -0.0025
C5C 0.091 0.12 0.081 -0.019 0.0081 0.0025
C6F 0.105 0.098 0.0559 0.0025 0.0093 -0.0066
C6E 0.105 0.098 0.0559 -0.0025 -0.0093 -0.0066
C6C 0.098 0.105 0.0559 -0.0093 0.0025 0.0066
N2D 0.108(2) 0.109(2) 0.0780(16) -0.0037(14) -0.0017(14) -0.0088(17)
N2F 0.109 0.108 0.078 0.0017 -0.0037 0.0088
N2B 0.109 0.108 0.078 0.0017 -0.0037 0.0088
C7F 0.109 0.095 0.076 0.0174 0.0005 -0.0028
C7E 0.109 0.095 0.076 -0.0174 -0.0005 -0.0028
C7C 0.095 0.109 0.076 -0.0005 0.0174 0.0028
C8D 0.092 0.121 0.081 0.0109 -0.0082 -0.0154
C8F 0.121 0.092 0.081 0.0082 0.0109 0.0154
C8B 0.121 0.092 0.081 0.0082 0.0109 0.0154
C9F 0.103 0.102 0.0595 0.0005 0.0139 -0.0016
C9E 0.103 0.102 0.0595 -0.0005 -0.0139 -0.0016
C9C 0.102 0.103 0.0595 -0.0139 0.0005 0.0016
C10D 0.099 0.112 0.099 -0.01 -0.0115 -0.0224
C10F 0.112 0.099 0.099 0.0115 -0.01 0.0224
C10B 0.112 0.099 0.099 0.0115 -0.01 0.0224
C11D 0.104(2) 0.108(2) 0.108(3) -0.022(2) -0.009(2) -0.012(2)
C11F 0.108 0.104 0.108 0.009 -0.022 0.012
C11B 0.108 0.104 0.108 0.009 -0.022 0.012
C12D 0.098 0.1 0.095 -0.0015 0.0043 -0.0015
C12F 0.1 0.098 0.095 -0.0043 -0.0015 0.0015
C12B 0.1 0.098 0.095 -0.0043 -0.0015 0.0015
C13D 0.104(2) 0.106(2) 0.101(2) -0.0083(18) 0.0001(19) -0.002(2)
C13F 0.106 0.104 0.101 -0.0001 -0.0083 0.002
C13B 0.106 0.104 0.101 -0.0001 -0.0083 0.002
loop_
_geom_bond_atom_site_label_1
_geom_bond_atom_site_label_2
_geom_bond_site_symmetry_1
_geom_bond_site_symmetry_2
Ni1 O1 1_555 1_555
O1 C7 1_555 1_555
N1 Ni1 1_555 1_555
H1 N1 1_555 1_555
C1 C5 1_555 1_555
C2 C3 1_555 1_555
C3 C2F 1_555 1_555
O2 C7 1_555 1_555
C4 C2 1_555 1_555
H2 C4 1_555 1_555
C5 H3 1_555 1_555
C6 C1 1_555 1_555
H4 C6 1_555 1_555
N2 Ni1 1_555 1_555
H5 N2 1_555 1_555
C7 C1 1_555 1_555
C8 N1 1_555 1_555
H6 C8 1_555 1_555
H7 C8 1_555 1_555
C9 C2 1_555 1_555
H8 C9 1_555 1_555
C10 C8 1_555 1_555
H9 C10 1_555 1_555
H10 C10 1_555 1_555
C11 N2 1_555 1_555
H11 C11 1_555 1_555
H12 C11 1_555 1_555
C12 N1 1_555 1_555
H13 C12 1_555 1_555
H14 C12 1_555 1_555
C13 N2 1_555 1_555
H15 C13 1_555 1_555
H16 C13 1_555 1_555
Ni1B O1F 1_555 1_555
Ni1A O1E 1_555 1_555
Ni1G O1C 1_555 1_555
O1F C7F 1_555 1_555
O1E C7E 1_555 1_555
O1C C7C 1_555 1_555
O1D Ni1 1_555 1_555
O1B Ni1B 1_555 1_555
N1D Ni1 1_555 1_555
N1F Ni1B 1_555 1_555
N1B Ni1B 1_555 1_555
H1D N1D 1_555 1_555
H1F N1F 1_555 1_555
H1B N1B 1_555 1_555
C1F C5F 1_555 1_555
C1E C5E 1_555 1_555
C1C C5C 1_555 1_555
C2F C4F 1_555 1_555
C2E C3 1_555 1_555
C2C C3 1_555 1_555
O2F C7F 1_555 1_555
O2E C7E 1_555 1_555
O2C C7C 1_555 1_555
C4F H2F 1_555 1_555
C4E C2E 1_555 1_555
C4C C2C 1_555 1_555
H2E C4E 1_555 1_555
H2C C4C 1_555 1_555
C5F H3F 1_555 1_555
C5E H3E 1_555 1_555
C5C H3C 1_555 1_555
C6F C1F 1_555 1_555
C6E C1E 1_555 1_555
C6C C1C 1_555 1_555
H4F C6F 1_555 1_555
H4E C6E 1_555 1_555
H4C C6C 1_555 1_555
N2D Ni1 1_555 1_555
N2F Ni1B 1_555 1_555
N2B Ni1B 1_555 1_555
H5D N2D 1_555 1_555
H5F N2F 1_555 1_555
H5B N2B 1_555 1_555
C7F C1F 1_555 1_555
C7E C1E 1_555 1_555
C7C C1C 1_555 1_555
C8D N1D 1_555 1_555
C8F N1F 1_555 1_555
C8B N1B 1_555 1_555
H6D C8D 1_555 1_555
H6F C8F 1_555 1_555
H6B C8B 1_555 1_555
H7D C8D 1_555 1_555
H7F C8F 1_555 1_555
H7B C8B 1_555 1_555
C9F C2F 1_555 1_555
C9E C2E 1_555 1_555
C9C C2C 1_555 1_555
H8F C9F 1_555 1_555
H8E C9E 1_555 1_555
H8C C9C 1_555 1_555
C10D C8D 1_555 1_555
C10F C8F 1_555 1_555
C10B C8B 1_555 1_555
H9D C10D 1_555 1_555
H9F C10F 1_555 1_555
H9B C10B 1_555 1_555
H10D C10D 1_555 1_555
H10F C10F 1_555 1_555
H10B C10B 1_555 1_555
C11D N2D 1_555 1_555
C11F N2F 1_555 1_555
C11B N2B 1_555 1_555
H11D C11D 1_555 1_555
H11F C11F 1_555 1_555
H11B C11B 1_555 1_555
H12D C11D 1_555 1_555
H12F C11F 1_555 1_555
H12B C11B 1_555 1_555
C12D C13 1_555 1_555
C12F N1F 1_555 1_555
C12B N1B 1_555 1_555
H13D C12D 1_555 1_555
H13F C12F 1_555 1_555
H13B C12B 1_555 1_555
H14D C12D 1_555 1_555
H14F C12F 1_555 1_555
H14B C12B 1_555 1_555
C13D C12 1_555 1_555
C13F N2F 1_555 1_555
C13B N2B 1_555 1_555
H15D C13D 1_555 1_555
H15F C13F 1_555 1_555
H15B C13B 1_555 1_555
H16D C13D 1_555 1_555
H16F C13F 1_555 1_555
H16B C13B 1_555 1_555
C4 C6 1_555 1_555
C5 C9 1_555 1_555
C10 C11 1_555 1_555
N1D C12D 1_555 1_555
C4F C6F 1_555 1_555
C4E C6E 1_555 1_555
C4C C6C 1_555 1_555
C5F C9F 1_555 1_555
C5E C9E 1_555 1_555
C5C C9C 1_555 1_555
N2D C13D 1_555 1_555
C10D C11D 1_555 1_555
C10F C11F 1_555 1_555
C10B C11B 1_555 1_555
C12F C13B 1_555 1_555
C12B C13F 1_555 1_555

#END
