
#######################################################################
#
#                 Cambridge Crystallographic Data Centre
#                                CCDC 
#
#######################################################################
#
# If this CIF has been generated from an entry in the Cambridge 
# Structural Database, then it will include bibliographic, chemical, 
# crystal, experimental, refinement or atomic coordinate data resulting 
# from the CCDC's data processing and validation procedures.
#
#######################################################################

data_DONNAW01
_chemical_formula_moiety         '(C8 H5 Ga1 O5)n,0.75n(C8 H6 O4)'
_chemical_name_systematic        
'catena-[(\m~4~-terephthalato)-(\m~2~-hydroxo)-gallium terephthalic acid clathrate]'
_symmetry_cell_setting           orthorhombic
_symmetry_space_group_name_H-M   'P n m a'
_symmetry_Int_Tables_number      62
_space_group_name_Hall           '-P 2ac 2n'
loop_
_symmetry_equiv_pos_site_id
_symmetry_equiv_pos_as_xyz
1 x,y,z
2 1/2-x,-y,1/2+z
3 1/2+x,1/2-y,1/2-z
4 -x,1/2+y,-z
5 -x,-y,-z
6 1/2+x,y,1/2-z
7 1/2-x,1/2+y,1/2+z
8 x,1/2-y,z
_cell_length_a                   17.4370(2)
_cell_length_b                   6.7475(4)
_cell_length_c                   12.1541(4)
_cell_angle_alpha                90
_cell_angle_beta                 90
_cell_angle_gamma                90
_cell_volume                     1430
_exptl_crystal_colour            white
_exptl_crystal_description       parallelepiped
_cell_formula_units_Z            4
loop_
_atom_site_label
_atom_site_type_symbol
_atom_site_fract_x
_atom_site_fract_y
_atom_site_fract_z
_atom_site_U_iso_or_equiv
_atom_site_thermal_displace_type
Ga1 Ga 1.00000 0.0000 1.00000 0.0122 Uani
O1 O 0.9936 0.2500 1.0734 0.0149 Uani
O2 O 0.92632(11) 0.0830(3) 0.88584(19) 0.0268 Uani
O3 O 0.58949(10) 0.0826(3) 0.5886(2) 0.0262 Uani
C1 C 0.82814(19) 0.2500 0.7914(3) 0.0251 Uani
C2 C 0.89907(17) 0.2500 0.8600(3) 0.0183 Uani
C3 C 0.69218(17) 0.2500 0.6712(3) 0.0236 Uani
C4 C 0.61762(18) 0.2500 0.6108(3) 0.0174 Uani
C5 C 0.79127(17) 0.4288(3) 0.7651(3) 0.0462 Uani
H1 H 0.8119(4) 0.5661(5) 0.7989(9) 0.0330 Uiso
C6 C 0.72605(16) 0.4274(3) 0.6995(3) 0.0335 Uani
H2 H 0.7021(9) 0.5647(5) 0.6704(18) 0.0280 Uiso
Ga1C Ga 1.00000 0.5000 1.00000 0.0122 Uani
Ga1A Ga 0.50000 0.0000 0.50000 0.0122 Uani
Ga1B Ga 0.50000 0.5000 0.50000 0.0122 Uani
O1C O 1.0064 -0.2500 0.9266 0.0149 Uani
O2G O 0.92632(11) 0.4170(3) 0.88584(19) 0.0268 Uani
O2D O 1.07368(11) -0.0830(3) 1.11416(19) 0.0268 Uani
O3G O 0.58949(10) 0.4174(3) 0.5886(2) 0.0262 Uani
O3A O 0.91051(10) -0.0826(3) 1.0886(2) 0.0262 Uani
O3E O 1.08949(10) 0.0826(3) 0.9114(2) 0.0262 Uani
C5G C 0.79127(17) 0.0712(3) 0.7651(3) 0.0462 Uani
H1G H 0.8119(4) -0.0661(5) 0.7989(9) 0.0330 Uiso
C6G C 0.72605(16) 0.0726(3) 0.6995(3) 0.0335 Uani
H2G H 0.7021(9) -0.0647(5) 0.6704(18) 0.0280 Uiso
loop_
_atom_site_aniso_label
_atom_site_aniso_U_11
_atom_site_aniso_U_22
_atom_site_aniso_U_33
_atom_site_aniso_U_23
_atom_site_aniso_U_13
_atom_site_aniso_U_12
Ga1 0.00526(12) 0.00678(15) 0.0247(3) 0.00079(14) 0.00039(13) -0.00013(11)
O1 0.0127 0.0061(8) 0.0260(14) 0 0.0012(8) 0
O2 0.0230(9) 0.0149(9) 0.0425(14) -0.0027(9) -0.0173(9) 0.0045(7)
O3 0.0148(7) 0.0146(8) 0.0492(14) 0.0046(10) -0.0194(8) -0.0046(7)
C1 0.0148(13) 0.0116(14) 0.049(3) 0 -0.0190(16) 0
C2 0.0078(10) 0.0142(14) 0.033(2) 0 -0.0096(13) 0
C3 0.0109(12) 0.0109(13) 0.049(3) 0 -0.0117(15) 0
C4 0.0102(11) 0.0151(14) 0.027(2) 0 -0.0062(13) 0
C5 0.0279(14) 0.0117(11) 0.099(3) 0.0002(16) -0.0407(18) -0.0015(11)
C6 0.0235(12) 0.0101(10) 0.067(2) 0.0013(14) -0.0241(15) -0.0003(10)
Ga1C 0.00526 0.00678 0.0247 -0.00079 0.00039 0.00013
Ga1A 0.00526 0.00678 0.0247 -0.00079 -0.00039 -0.00013
Ga1B 0.00526 0.00678 0.0247 0.00079 -0.00039 0.00013
O1C 0.0127 0.0061 0.026 0 0.0012 0
O2G 0.023 0.0149 0.0425 0.0027 -0.0173 -0.0045
O2D 0.023 0.0149 0.0425 -0.0027 -0.0173 0.0045
O3G 0.0148 0.0146 0.0492 -0.0046 -0.0194 0.0046
O3A 0.0148 0.0146 0.0492 -0.0046 0.0194 -0.0046
O3E 0.0148 0.0146 0.0492 -0.0046 0.0194 -0.0046
C5G 0.0279 0.0117 0.099 -0.0002 -0.0407 0.0015
C6G 0.0235 0.0101 0.067 -0.0013 -0.0241 0.0003
loop_
_geom_bond_atom_site_label_1
_geom_bond_atom_site_label_2
_geom_bond_site_symmetry_1
_geom_bond_site_symmetry_2
Ga1 O1 1_555 1_555
O1 Ga1C 1_555 1_555
O2 Ga1 1_555 1_555
O3 C4 1_555 1_555
C1 C2 1_555 1_555
C2 O2 1_555 1_555
C3 C4 1_555 1_555
C4 O3G 1_555 1_555
C5 C1 1_555 1_555
H1 C5 1_555 1_555
C6 C3 1_555 1_555
H2 C6 1_555 1_555
Ga1C O2G 1_555 1_555
Ga1A O3 1_555 1_555
Ga1B O3G 1_555 1_555
O1C Ga1 1_555 1_555
O2G C2 1_555 1_555
O2D Ga1 1_555 1_555
O3A Ga1 1_555 1_555
O3E Ga1 1_555 1_555
C5G C1 1_555 1_555
H1G C5G 1_555 1_555
C6G C3 1_555 1_555
H2G C6G 1_555 1_555
C5 C6 1_555 1_555
C5G C6G 1_555 1_555

#END
