
#######################################################################
#
#                 Cambridge Crystallographic Data Centre
#                                CCDC 
#
#######################################################################
#
# If this CIF has been generated from an entry in the Cambridge 
# Structural Database, then it will include bibliographic, chemical, 
# crystal, experimental, refinement or atomic coordinate data resulting 
# from the CCDC's data processing and validation procedures.
#
#######################################################################

data_AMAFOK
_chemical_formula_moiety         '(C10 H6 Cu1 N4 O4)n,0.67n(C3 H7 N1 O1)'
_chemical_name_systematic        
'catena-(bis(\m~2~-pyrimidine-5-carboxylato)-copper N,N-dimethylformamide solvate)'
_symmetry_cell_setting           rhombohedral
_symmetry_space_group_name_H-M   'R -3'
_symmetry_Int_Tables_number      148
_space_group_name_Hall           '-R 3'
loop_
_symmetry_equiv_pos_site_id
_symmetry_equiv_pos_as_xyz
1 x,y,z
2 -y,x-y,z
3 -x+y,-x,z
4 2/3+x,1/3+y,1/3+z
5 2/3-y,1/3+x-y,1/3+z
6 2/3-x+y,1/3-x,1/3+z
7 1/3+x,2/3+y,2/3+z
8 1/3-y,2/3+x-y,2/3+z
9 1/3-x+y,2/3-x,2/3+z
10 -x,-y,-z
11 y,-x+y,-z
12 x-y,x,-z
13 1/3-x,2/3-y,2/3-z
14 1/3+y,2/3-x+y,2/3-z
15 1/3+x-y,2/3+x,2/3-z
16 2/3-x,1/3-y,1/3-z
17 2/3+y,1/3-x+y,1/3-z
18 2/3+x-y,1/3+x,1/3-z
_cell_length_a                   21.466(2)
_cell_length_b                   21.466(2)
_cell_length_c                   7.7719(11)
_cell_angle_alpha                90
_cell_angle_beta                 90
_cell_angle_gamma                120
_cell_volume                     3101.42
_exptl_crystal_colour            purple
_exptl_crystal_description       'hexagonal column'
_cell_formula_units_Z            9
loop_
_atom_site_label
_atom_site_type_symbol
_atom_site_fract_x
_atom_site_fract_y
_atom_site_fract_z
_atom_site_U_iso_or_equiv
_atom_site_thermal_displace_type
N3 N 0.3333 -0.3333 -0.5734(15) 0.0854 Uani
C6 C 0.3167(7) -0.2753(6) -0.5716(16) 0.1313 Uani
O3 O 0.2625(10) -0.2936(10) -0.459(2) 0.0997 Uani
C6A C 0.2753(6) -0.4080(9) -0.5716(16) 0.1313 Uani
C6B C 0.4080(9) -0.3167(7) -0.5716(16) 0.1313 Uani
O3A O 0.2936(10) -0.4439(14) -0.459(2) 0.0997 Uani
O3B O 0.4439(14) -0.2625(10) -0.459(2) 0.0997 Uani
Cu1 Cu 0.5000 0.0000 0.0000 0.0151 Uani
O1 O 0.51664(12) -0.02218(13) -0.2300(3) 0.0187 Uani
O2 O 0.5698(2) -0.08181(19) -0.1312(3) 0.0433 Uani
N1 N 0.59742(14) -0.13112(15) -0.6281(3) 0.0177 Uani
N2 N 0.50499(17) -0.10884(18) -0.7207(4) 0.0261 Uani
C1 C 0.54476(18) -0.06234(18) -0.2466(4) 0.0199 Uani
C2 C 0.54572(18) -0.08602(17) -0.4286(4) 0.0171 Uani
C3 C 0.50102(19) -0.08762(19) -0.5599(4) 0.0213 Uani
C4 C 0.55347(18) -0.1288(2) -0.7479(4) 0.0217 Uani
C5 C 0.59294(17) -0.10940(18) -0.4691(4) 0.0183 Uani
H1 H 0.467(2) -0.074(2) -0.542(5) 0.0250 Uiso
H2 H 0.559(2) -0.142(2) -0.860(5) 0.0230 Uiso
H3 H 0.626(2) -0.108(2) -0.386(5) 0.0170 Uiso
Cu1D Cu 0.6667 -0.1667 -0.6667 0.0151 Uani
Cu1G Cu 0.3333 0.1667 0.6667 0.0151 Uani
O1I O 0.48336(12) 0.02218(13) 0.2300(3) 0.0187 Uani
O2I O 0.4302(2) 0.08181(19) 0.1312(3) 0.0433 Uani
N1I N 0.40258(14) 0.13112(15) 0.6281(3) 0.0177 Uani
N1H N 0.60479(21) 0.06925(14) 0.0386(3) 0.0177 Uani
N1Q N 0.39521(21) -0.06925(14) -0.0386(3) 0.0177 Uani
N2I N 0.49501(17) 0.10884(18) 0.7207(4) 0.0261 Uani
C1I C 0.45524(18) 0.06234(18) 0.2466(4) 0.0199 Uani
C2I C 0.45428(18) 0.08602(17) 0.4286(4) 0.0171 Uani
C3I C 0.49898(19) 0.08762(19) 0.5599(4) 0.0213 Uani
C4I C 0.44653(18) 0.1288(2) 0.7479(4) 0.0217 Uani
C5I C 0.40706(17) 0.10940(18) 0.4691(4) 0.0183 Uani
H1I H 0.533(2) 0.074(2) 0.542(5) 0.0250 Uiso
H2I H 0.441(2) 0.142(2) 0.860(5) 0.0230 Uiso
H3I H 0.374(2) 0.108(2) 0.386(5) 0.0170 Uiso
loop_
_atom_site_aniso_label
_atom_site_aniso_U_11
_atom_site_aniso_U_22
_atom_site_aniso_U_33
_atom_site_aniso_U_23
_atom_site_aniso_U_13
_atom_site_aniso_U_12
N3 0.081(4) 0.081(4) 0.095(8) 0.000 0.000 0.041(2)
C6 0.126(6) 0.126(6) 0.162(6) -0.005(5) 0.002(5) 0.078(5)
O3 0.091(8) 0.104(9) 0.119(9) 0.003(7) -0.005(7) 0.060(7)
C6A 0.126 0.096 0.162 0.007 0.005 0.048
C6B 0.096 0.126 0.162 -0.002 -0.007 0.048
O3A 0.104 0.075 0.119 -0.008 -0.003 0.044
O3B 0.075 0.091 0.119 0.005 0.008 0.031
Cu1 0.0116(3) 0.0235(3) 0.0119(3) -0.00674(19) -0.00202(18) 0.0101(2)
O1 0.0185(11) 0.0283(12) 0.0133(10) -0.0073(9) -0.0022(8) 0.0146(10)
O2 0.081(2) 0.068(2) 0.0140(12) -0.0020(12) -0.0026(13) 0.062(2)
N1 0.0239 0.0175 0.0149 0.0014 0.0039 0.0128
N2 0.0343(16) 0.0388(17) 0.0154(13) -0.0075(12) -0.0049(11) 0.0260(15)
C1 0.0251(16) 0.0246(16) 0.0129(13) -0.0022(11) 0.0017(12) 0.0146(14)
C2 0.0227(15) 0.0186(14) 0.0122(13) -0.0003(11) 0.0030(11) 0.0120(12)
C3 0.0261(17) 0.0292(17) 0.0154(14) -0.0046(12) -0.0012(12) 0.0189(15)
C4 0.0317 0.0286 0.0125 -0.0029 0.0002 0.0209
C5 0.0243 0.0207 0.0143 0.0008 0.0021 0.0145
Cu1D 0.0235 0.0149 0.0119 0.00472 0.00674 0.0134
Cu1G 0.0235 0.0149 0.0119 0.00472 0.00674 0.0134
O1I 0.0185 0.0283 0.0133 -0.0073 -0.0022 0.0146
O2I 0.081 0.068 0.014 -0.002 -0.0026 0.062
N1I 0.0239 0.0175 0.0149 0.0014 0.0039 0.0128
N1H 0.0158 0.0239 0.0149 -0.0039 -0.0025 0.0111
N1Q 0.0158 0.0239 0.0149 -0.0039 -0.0025 0.0111
N2I 0.0343 0.0388 0.0154 -0.0075 -0.0049 0.026
C1I 0.0251 0.0246 0.0129 -0.0022 0.0017 0.0146
C2I 0.0227 0.0186 0.0122 -0.0003 0.003 0.012
C3I 0.0261 0.0292 0.0154 -0.0046 -0.0012 0.0189
C4I 0.0317 0.0286 0.0125 -0.0029 0.0002 0.0209
C5I 0.0243 0.0207 0.0143 0.0008 0.0021 0.0145
loop_
_geom_bond_atom_site_label_1
_geom_bond_atom_site_label_2
_geom_bond_site_symmetry_1
_geom_bond_site_symmetry_2
Cu1 O1 1_555 1_555
O1 C1 1_555 1_555
O2 C1 1_555 1_555
N1 C4 1_555 1_555
N2 C3 1_555 1_555
C1 C2 1_555 1_555
C2 C3 1_555 1_555
C3 H1 1_555 1_555
C4 N2 1_555 1_555
C5 N1 1_555 1_555
H2 C4 1_555 1_555
H3 C5 1_555 1_555
N3 C6 1_555 1_555
C6 O3 1_555 1_555
Cu1D N1 1_555 1_555
Cu1G N1I 1_555 1_555
O1I Cu1 1_555 1_555
O2I C1I 1_555 1_555
N1I C4I 1_555 1_555
N1H Cu1 1_555 1_555
N1Q Cu1 1_555 1_555
N2I C3I 1_555 1_555
C1I O1I 1_555 1_555
C2I C1I 1_555 1_555
C3I C2I 1_555 1_555
C4I N2I 1_555 1_555
C5I N1I 1_555 1_555
H1I C3I 1_555 1_555
H2I C4I 1_555 1_555
H3I C5I 1_555 1_555
C6A N3 1_555 1_555
C6B N3 1_555 1_555
O3A C6A 1_555 1_555
O3B C6B 1_555 1_555
C2 C5 1_555 1_555
C2I C5I 1_555 1_555

#END
