
#######################################################################
#
#                 Cambridge Crystallographic Data Centre
#                                CCDC 
#
#######################################################################
#
# If this CIF has been generated from an entry in the Cambridge 
# Structural Database, then it will include bibliographic, chemical, 
# crystal, experimental, refinement or atomic coordinate data resulting 
# from the CCDC's data processing and validation procedures.
#
#######################################################################

data_RIXPIZ
_chemical_formula_moiety         '(C56 H32 Al4 O20)n,0.5n(C3 H6 O1)'
_chemical_name_systematic        
"catena-(bis(\m~6~-1,3,5-tris(4-Carboxylatophenyl)benzene)-bis(\m~2~-formato-O,O')-tetrakis(\m~2~-oxo)-tetra-aluminium acetone solvate)"
_symmetry_cell_setting           tetragonal
_symmetry_space_group_name_H-M   'P 42 21 2'
_symmetry_Int_Tables_number      94
_space_group_name_Hall           'P 4n 2n'
loop_
_symmetry_equiv_pos_site_id
_symmetry_equiv_pos_as_xyz
1 x,y,z
2 -x,-y,z
3 1/2-y,1/2+x,1/2+z
4 1/2+y,1/2-x,1/2+z
5 1/2-x,1/2+y,1/2-z
6 1/2+x,1/2-y,1/2-z
7 y,x,-z
8 -y,-x,-z
_cell_length_a                   18.878(4)
_cell_length_b                   18.878(4)
_cell_length_c                   37.043(8)
_cell_angle_alpha                90
_cell_angle_beta                 90
_cell_angle_gamma                90
_cell_volume                     13201.3
_cell_formula_units_Z            4
loop_
_atom_site_label
_atom_site_type_symbol
_atom_site_fract_x
_atom_site_fract_y
_atom_site_fract_z
Al1 Al 0.83462(10) 0.16538(10) 0.0000
Al2 Al 1.0000 0.0000 0.11447(6)
Al3 Al 0.86862(10) 0.09558(10) 0.08073(5)
O1 O 0.8024(2) 0.1697(2) 0.08450(11)
O2 O 1.0635(2) 0.8405(2) 0.10250(11)
O3 O 0.7964(3) 0.0346(2) 0.06117(11)
O4 O 0.9325(2) 0.0217(2) 0.07946(10)
O5 O 0.8947(2) 0.1277(2) 0.03497(10)
O6 O 0.6626(3) 0.5696(3) 0.37273(11)
O7 O 0.5657(3) 0.5204(3) 0.34775(11)
O8 O 0.7987(2) 0.2328(2) 0.03321(11)
O9 O 0.9670(2) 0.9057(2) 0.11604(12)
C1 C 0.9617(4) 0.7836(4) 0.12597(17)
O10 O 0.7623(2) 0.0967(3) 0.01165(11)
C2 C 1.0004(4) 0.8468(4) 0.11393(15)
C3 C 0.7923(4) 0.2936(4) 0.08877(17)
C4 C 0.6271(4) 0.5447(4) 0.34611(17)
C5 C 0.7907(5) 0.3594(4) 0.07198(18)
H1 H 0.7880 0.3625 0.0464
C6 C 0.6640(4) 0.5455(4) 0.31033(18)
C7 C 0.7973(3) 0.2275(4) 0.06715(16)
C8 C 0.6319(5) 0.5137(4) 0.28067(17)
H2 H 0.5875 0.4906 0.2834
C9 C 0.7956(4) 0.2894(4) 0.12630(18)
H3 H 0.7968 0.2445 0.1379
C10 C 0.7972(5) 0.3512(4) 0.14675(18)
H4 H 0.7986 0.3481 0.1723
C11 C 0.7302(5) 0.5770(4) 0.30652(19)
H5 H 0.7526 0.5975 0.3270
C12 C 0.8403(5) 0.5413(4) 0.1417(2)
H6 H 0.8645 0.5395 0.1192
C13 C 0.7930(5) 0.4208(4) 0.0927(2)
H7 H 0.7920 0.4657 0.0812
C14 C 0.8945(5) 0.7920(4) 0.1418(2)
H8 H 0.8747 0.8380 0.1445
C15 C 0.6645(5) 0.5156(5) 0.2470(2)
H9 H 0.6412 0.4960 0.2266
C16 C 0.8567(5) 0.7320(5) 0.1536(2)
H10 H 0.8110 0.7376 0.1639
C17 C 0.7326(5) 0.5467(4) 0.2431(2)
C18 C 0.8455(5) 0.6015(4) 0.1627(2)
C19 C 0.7968(5) 0.4169(4) 0.13048(19)
C20 C 0.8000(5) 0.4828(4) 0.1528(2)
C21 C 0.9907(5) 0.7155(4) 0.12222(19)
H11 H 1.0364 0.7093 0.1120
C22 C 0.7640(5) 0.5790(4) 0.2733(2)
H12 H 0.8085 0.6021 0.2710
C23 C 0.8075(6) 0.6039(4) 0.1958(2)
H13 H 0.8086 0.6457 0.2100
C24 C 0.7654(5) 0.4862(5) 0.1859(2)
H14 H 0.7388 0.4464 0.1938
C25 C 0.7554(4) 0.0474(4) 0.03426(17)
H15 H 0.7161 0.0166 0.0311
C26 C 0.7682(5) 0.5452(4) 0.2077(2)
C27 C 0.8861(5) 0.6637(4) 0.1503(2)
C28 C 0.9513(5) 0.6574(4) 0.1337(2)
H16 H 0.9701 0.6113 0.1299
Al3A Al 1.13138(10) -0.09558(10) 0.08073(5)
O1A O 1.1976(2) -0.1697(2) 0.08450(11)
O2A O 0.9365(2) -0.8405(2) 0.10250(11)
O3A O 1.2036(3) -0.0346(2) 0.06117(11)
O4A O 1.0675(2) -0.0217(2) 0.07946(10)
O5A O 1.1053(2) -0.1277(2) 0.03497(10)
O6A O 1.3374(3) -0.5696(3) 0.37273(11)
O7A O 1.4343(3) -0.5204(3) 0.34775(11)
O8A O 1.2013(2) -0.2328(2) 0.03321(11)
O9A O 1.0330(2) -0.9057(2) 0.11604(12)
C1A C 1.0383(4) -0.7836(4) 0.12597(17)
O10A O 1.2377(2) -0.0967(3) 0.01165(11)
C2A C 0.9996(4) -0.8468(4) 0.11393(15)
C3A C 1.2077(4) -0.2936(4) 0.08877(17)
C4A C 1.3729(4) -0.5447(4) 0.34611(17)
C5A C 1.2093(5) -0.3594(4) 0.07198(18)
H1A H 1.2120 -0.3625 0.0464
C6A C 1.3360(4) -0.5455(4) 0.31033(18)
C7A C 1.2027(3) -0.2275(4) 0.06715(16)
C8A C 1.3681(5) -0.5137(4) 0.28067(17)
H2A H 1.4125 -0.4906 0.2834
C9A C 1.2044(4) -0.2894(4) 0.12630(18)
H3A H 1.2032 -0.2445 0.1379
C10A C 1.2028(5) -0.3512(4) 0.14675(18)
H4A H 1.2014 -0.3481 0.1723
C11A C 1.2698(5) -0.5770(4) 0.30652(19)
H5A H 1.2474 -0.5975 0.3270
C12A C 1.1597(5) -0.5413(4) 0.1417(2)
H6A H 1.1355 -0.5395 0.1192
C13A C 1.2070(5) -0.4208(4) 0.0927(2)
H7A H 1.2080 -0.4657 0.0812
C14A C 1.1055(5) -0.7920(4) 0.1418(2)
H8A H 1.1253 -0.8380 0.1445
C15A C 1.3355(5) -0.5156(5) 0.2470(2)
H9A H 1.3588 -0.4960 0.2266
C16A C 1.1433(5) -0.7320(5) 0.1536(2)
H10A H 1.1890 -0.7376 0.1639
C17A C 1.2674(5) -0.5467(4) 0.2431(2)
C18A C 1.1545(5) -0.6015(4) 0.1627(2)
C19A C 1.2032(5) -0.4169(4) 0.13048(19)
C20A C 1.2000(5) -0.4828(4) 0.1528(2)
C21A C 1.0093(5) -0.7155(4) 0.12222(19)
H11A H 0.9636 -0.7093 0.1120
C22A C 1.2360(5) -0.5790(4) 0.2733(2)
H12A H 1.1915 -0.6021 0.2710
C23A C 1.1925(6) -0.6039(4) 0.1958(2)
H13A H 1.1914 -0.6457 0.2100
C24A C 1.2346(5) -0.4862(5) 0.1859(2)
H14A H 1.2612 -0.4464 0.1938
C25A C 1.2446(4) -0.0474(4) 0.03426(17)
H15A H 1.2839 -0.0166 0.0311
C26A C 1.2318(5) -0.5452(4) 0.2077(2)
C27A C 1.1139(5) -0.6637(4) 0.1503(2)
C28A C 1.0487(5) -0.6574(4) 0.1337(2)
H16A H 1.0299 -0.6113 0.1299
Al1A Al 1.16538(10) -0.16538(10) 0.0000
Al2_2 Al 1.0000 -1.0000 0.11447(6)
Al2_3 Al 1.0000 1.0000 0.11447(6)
Al2D Al 0.5000 0.5000 0.38553(6)
Al2D_2 Al 1.5000 -0.5000 0.38553(6)
Al3_2 Al 0.86862(10) -0.90442(10) 0.08073(5)
Al3A_2 Al 1.13138(10) 0.90442(10) 0.08073(5)
Al3D Al 0.63138(10) 0.59558(10) 0.41927(5)
Al3E Al 1.36862(10) -0.59558(10) 0.41927(5)
O2_2 O 1.0635(2) -0.1595(2) 0.10250(11)
O2A_2 O 0.9365(2) 0.1595(2) 0.10250(11)
O5G O 0.8723(2) 0.1053(2) -0.03497(10)
O6D O 0.8374(3) 0.0696(3) 0.12727(11)
O6E O 1.1626(3) -0.0696(3) 0.12727(11)
O7D O 0.9343(3) 0.0204(3) 0.15225(11)
O7E O 1.0657(3) -0.0204(3) 0.15225(11)
O8G O 0.7672(2) 0.2013(2) -0.03321(11)
O9_2 O 0.9670(2) -0.0943(2) 0.11604(12)
O9A_2 O 1.0330(2) 0.0943(2) 0.11604(12)
O10G O 0.9033(3) 0.2377(2) -0.01165(11)
C29 C 0.8978(16) 0.8978(16) 0.0000
O11 O 0.9513(18) 0.9513(18) 0.0000
C30 C 0.915(2) 0.8501(17) 0.0316(9)
H17 H 0.8753 0.8510 0.0488
H18 H 0.9579 0.8669 0.0436
H19 H 0.9220 0.8016 0.0230
C30F C 0.8501(17) 0.915(2) -0.0316(9)
H17F H 0.8510 0.8753 -0.0488
H18F H 0.8669 0.9579 -0.0436
H19F H 0.8016 0.9220 -0.0230
loop_
_geom_bond_atom_site_label_1
_geom_bond_atom_site_label_2
_geom_bond_site_symmetry_1
_geom_bond_site_symmetry_2
Al1 O5 1_555 1_555
Al2 O4 1_555 1_555
Al3 O1 1_555 1_555
O1 C7 1_555 1_555
O2 C2 1_555 1_555
O3 Al3 1_555 1_555
O4 Al3 1_555 1_555
O5 Al3 1_555 1_555
O6 C4 1_555 1_555
O7 C4 1_555 1_555
O8 Al1 1_555 1_555
O9 C2 1_555 1_555
C1 C2 1_555 1_555
O10 Al1 1_555 1_555
C3 C5 1_555 1_555
C4 C6 1_555 1_555
C5 H1 1_555 1_555
C6 C8 1_555 1_555
C7 O8 1_555 1_555
C8 H2 1_555 1_555
C9 C3 1_555 1_555
H3 C9 1_555 1_555
C10 C9 1_555 1_555
H4 C10 1_555 1_555
C11 C6 1_555 1_555
H5 C11 1_555 1_555
C12 H6 1_555 1_555
C13 C5 1_555 1_555
H7 C13 1_555 1_555
C14 C1 1_555 1_555
H8 C14 1_555 1_555
C15 C8 1_555 1_555
H9 C15 1_555 1_555
C16 C14 1_555 1_555
H10 C16 1_555 1_555
C17 C15 1_555 1_555
C18 C12 1_555 1_555
C19 C10 1_555 1_555
C20 C12 1_555 1_555
C21 C1 1_555 1_555
H11 C21 1_555 1_555
C22 C11 1_555 1_555
H12 C22 1_555 1_555
C23 C18 1_555 1_555
H13 C23 1_555 1_555
C24 C20 1_555 1_555
H14 C24 1_555 1_555
C25 O3 1_555 1_555
H15 C25 1_555 1_555
C26 C17 1_555 1_555
C27 C16 1_555 1_555
C28 C21 1_555 1_555
H16 C28 1_555 1_555
C29 O11 1_555 1_555
C30 C29 1_555 1_555
H17 C30 1_555 1_555
H18 C30 1_555 1_555
H19 C30 1_555 1_555
Al3A O1A 1_555 1_555
O1A C7A 1_555 1_555
O2A C2A 1_555 1_555
O3A Al3A 1_555 1_555
O4A Al2 1_555 1_555
O5A Al3A 1_555 1_555
O6A C4A 1_555 1_555
O7A C4A 1_555 1_555
O8A C7A 1_555 1_555
O9A C2A 1_555 1_555
C1A C2A 1_555 1_555
O10A C25A 1_555 1_555
C3A C5A 1_555 1_555
C4A C6A 1_555 1_555
C5A H1A 1_555 1_555
C6A C8A 1_555 1_555
C7A C3A 1_555 1_555
C8A H2A 1_555 1_555
C9A C3A 1_555 1_555
H3A C9A 1_555 1_555
C10A C9A 1_555 1_555
H4A C10A 1_555 1_555
C11A C6A 1_555 1_555
H5A C11A 1_555 1_555
C12A H6A 1_555 1_555
C13A C5A 1_555 1_555
H7A C13A 1_555 1_555
C14A C1A 1_555 1_555
H8A C14A 1_555 1_555
C15A C8A 1_555 1_555
H9A C15A 1_555 1_555
C16A C14A 1_555 1_555
H10A C16A 1_555 1_555
C17A C15A 1_555 1_555
C18A C12A 1_555 1_555
C19A C10A 1_555 1_555
C20A C12A 1_555 1_555
C21A C1A 1_555 1_555
H11A C21A 1_555 1_555
C22A C11A 1_555 1_555
H12A C22A 1_555 1_555
C23A C18A 1_555 1_555
H13A C23A 1_555 1_555
C24A C20A 1_555 1_555
H14A C24A 1_555 1_555
C25A O3A 1_555 1_555
H15A C25A 1_555 1_555
C26A C17A 1_555 1_555
C27A C16A 1_555 1_555
C28A C21A 1_555 1_555
H16A C28A 1_555 1_555
Al1A O5A 1_555 1_555
Al2_2 O9A 1_555 1_555
Al2_3 O9 1_555 1_555
Al2D O7 1_555 1_555
Al2D_2 O7A 1_555 1_555
Al3_2 O2A 1_555 1_555
Al3A_2 O2 1_555 1_555
Al3D O6 1_555 1_555
Al3E O6A 1_555 1_555
O2_2 Al3A 1_555 1_555
O2A_2 Al3 1_555 1_555
O5G Al1 1_555 1_555
O6D Al3 1_555 1_555
O6E Al3A 1_555 1_555
O7D Al2 1_555 1_555
O7E Al2 1_555 1_555
O8G Al1 1_555 1_555
O9_2 Al2 1_555 1_555
O9A_2 Al2 1_555 1_555
O10G Al1 1_555 1_555
C30F C29 1_555 1_555
H17F C30F 1_555 1_555
H18F C30F 1_555 1_555
H19F C30F 1_555 1_555
O10 C25 1_555 1_555
C3 C7 1_555 1_555
C13 C19 1_555 1_555
C17 C22 1_555 1_555
C18 C27 1_555 1_555
C19 C20 1_555 1_555
C23 C26 1_555 1_555
C24 C26 1_555 1_555
C27 C28 1_555 1_555
Al3A O4A 1_555 1_555
O8A Al1A 1_555 1_555
O10A Al1A 1_555 1_555
C13A C19A 1_555 1_555
C17A C22A 1_555 1_555
C18A C27A 1_555 1_555
C19A C20A 1_555 1_555
C23A C26A 1_555 1_555
C24A C26A 1_555 1_555
C27A C28A 1_555 1_555

#END
