
#######################################################################
#
#                 Cambridge Crystallographic Data Centre
#                                CCDC 
#
#######################################################################
#
# If this CIF has been generated from an entry in the Cambridge 
# Structural Database, then it will include bibliographic, chemical, 
# crystal, experimental, refinement or atomic coordinate data resulting 
# from the CCDC's data processing and validation procedures.
#
#######################################################################

data_IJASIW
_chemical_formula_moiety         '(C48 H28 Er2 N4 O12)n,2n(C1 H4 O1)'
_chemical_name_systematic        
'catena-((\m~4~-1,4-Benzenedicarboxylato)-bis(\m~2~-1,4-benzenedicarboxylato)-bis(1,10-phenanthroline)-di-erbium methanol solvate)'
_symmetry_cell_setting           triclinic
_symmetry_space_group_name_H-M   'P -1'
_symmetry_Int_Tables_number      2
_space_group_name_Hall           '-P 1'
loop_
_symmetry_equiv_pos_site_id
_symmetry_equiv_pos_as_xyz
1 x,y,z
2 -x,-y,-z
_cell_length_a                   10.0691(6)
_cell_length_b                   10.9491(7)
_cell_length_c                   13.2211(8)
_cell_angle_alpha                99.7550(10)
_cell_angle_beta                 110.2450(10)
_cell_angle_gamma                107.7930(10)
_cell_volume                     1238.82
_cell_formula_units_Z            1
loop_
_atom_site_label
_atom_site_type_symbol
_atom_site_fract_x
_atom_site_fract_y
_atom_site_fract_z
Er1 Er -1.15495(3) 0.29351(2) -0.195820(19)
O2 O -0.9088(4) 0.4404(4) -0.0959(3)
O3 O -0.7805(5) 0.5930(4) 0.0741(3)
O4 O -1.0117(5) 0.1663(4) -0.2382(3)
O5 O -1.1762(5) 0.1983(5) -0.3804(3)
O6 O -1.1808(5) 0.4624(4) -0.2824(3)
O7 O -1.3940(5) 0.2910(4) -0.3206(3)
N1 N -1.1085(6) 0.1960(5) -0.0371(4)
N2 N -1.3317(6) 0.0568(5) -0.2458(4)
C2 C -0.7866(6) 0.5143(5) -0.0099(5)
C3 C -0.6372(6) 0.5080(5) -0.0048(4)
C4 C -0.6336(6) 0.4286(6) -0.0968(5)
H2 H -0.7239 0.3805 -0.1626
C5 C -0.5031(6) 0.5797(6) 0.0917(5)
H3 H -0.5040 0.6338 0.1537
C6 C -1.0771(8) 0.1485(6) -0.3433(5)
C7 C -1.0383(7) 0.0706(6) -0.4243(4)
C8 C -0.9040(9) 0.0504(8) -0.3878(5)
H4 H -0.8375 0.0844 -0.3111
C9 C -1.1343(8) 0.0190(8) -0.5376(5)
H5 H -1.2263 0.0311 -0.5643
C10 C -1.3261(7) 0.3990(6) -0.3362(4)
C11 C -1.4159(7) 0.4525(6) -0.4209(4)
C12 C -1.3404(7) 0.5539(6) -0.4554(5)
H6 H -1.2334 0.5903 -0.4254
C13 C -1.5756(7) 0.3987(6) -0.4649(5)
H7 H -1.6262 0.3311 -0.4412
C14 C -1.0111(9) 0.2651(7) 0.0690(5)
H8 H -0.9639 0.3581 0.0864
C15 C -0.9736(11) 0.2105(8) 0.1563(6)
H9 H -0.9020 0.2651 0.2291
C16 C -1.0441(11) 0.0740(8) 0.1332(7)
H10 H -1.0217 0.0339 0.1902
C17 C -1.1507(10) -0.0040(7) 0.0222(6)
C18 C -1.2277(11) -0.1459(8) -0.0096(7)
H11 H -1.2042 -0.1903 0.0440
C19 C -1.3361(12) -0.2190(8) -0.1178(7)
H12 H -1.3855 -0.3119 -0.1365
C20 C -1.3738(10) -0.1542(7) -0.2017(6)
C21 C -1.4900(10) -0.2226(7) -0.3123(6)
H13 H -1.5429 -0.3156 -0.3353
C22 C -1.5241(9) -0.1512(7) -0.3852(6)
H14 H -1.6014 -0.1947 -0.4584
C23 C -1.4415(8) -0.0118(7) -0.3490(5)
H15 H -1.4652 0.0354 -0.4003
C24 C -1.2958(8) -0.0131(7) -0.1721(6)
C25 C -1.1788(8) 0.0619(7) -0.0580(5)
Er1A Er 0.15495(3) 0.70649(2) 0.195820(19)
Er1A_2 Er -0.84505(3) 0.70649(2) 0.195820(19)
Er1_2 Er -0.15495(3) 0.29351(2) -0.195820(19)
Er1A_3 Er -0.84505(3) -0.29351(2) -0.804180(19)
Er1A_4 Er -1.84505(3) 0.70649(2) -0.804180(19)
O2A O -0.0912(4) 0.5596(4) 0.0959(3)
O3A O -0.2195(5) 0.4070(4) -0.0741(3)
O3A_2 O -1.2195(5) 0.4070(4) -0.0741(3)
O3_2 O 0.2195(5) 0.5930(4) 0.0741(3)
O4A O -0.9883(5) -0.1663(4) -0.7618(3)
O4A_2 O 0.0117(5) 0.8337(4) 0.2382(3)
O5A O -0.8238(5) -0.1983(5) -0.6196(3)
O5A_2 O 0.1762(5) 0.8017(5) 0.3804(3)
O6A O -1.8192(5) 0.5376(4) -0.7176(3)
O6A_2 O 0.1808(5) 0.5376(4) 0.2824(3)
O7A O -1.6060(5) 0.7090(4) -0.6794(3)
O7A_2 O 0.3940(5) 0.7090(4) 0.3206(3)
N1A N 0.1085(6) 0.8040(5) 0.0371(4)
N2A N 0.3317(6) 0.9432(5) 0.2458(4)
C2A C -0.2134(6) 0.4857(5) 0.0099(5)
C3A C -0.3628(6) 0.4920(5) 0.0048(4)
C4A C -0.3664(6) 0.5714(6) 0.0968(5)
H2A H -0.2761 0.6195 0.1626
C5A C -0.4969(6) 0.4203(6) -0.0917(5)
H3A H -0.4960 0.3662 -0.1537
C6A C -0.9229(8) -0.1485(6) -0.6567(5)
C7A C -0.9617(7) -0.0706(6) -0.5757(4)
C8A C -1.0960(9) -0.0504(8) -0.6122(5)
H4A H -1.1625 -0.0844 -0.6889
C9A C -0.8657(8) -0.0190(8) -0.4624(5)
H5A H -0.7737 -0.0311 -0.4357
C10A C -1.6739(7) 0.6010(6) -0.6638(4)
C11A C -1.5841(7) 0.5475(6) -0.5791(4)
C12A C -1.6596(7) 0.4461(6) -0.5446(5)
H6A H -1.7666 0.4097 -0.5746
C13A C -1.4244(7) 0.6013(6) -0.5351(5)
H7A H -1.3738 0.6689 -0.5588
C14A C 0.0111(9) 0.7349(7) -0.0690(5)
H8A H -0.0361 0.6419 -0.0864
C15A C -0.0264(11) 0.7895(8) -0.1563(6)
H9A H -0.0980 0.7349 -0.2291
C16A C 0.0441(11) 0.9260(8) -0.1332(7)
H10A H 0.0217 0.9661 -0.1902
C17A C 0.1507(10) 1.0040(7) -0.0222(6)
C18A C 0.2277(11) 1.1459(8) 0.0096(7)
H11A H 0.2042 1.1903 -0.0440
C19A C 0.3361(12) 1.2190(8) 0.1178(7)
H12A H 0.3855 1.3119 0.1365
C20A C 0.3738(10) 1.1542(7) 0.2017(6)
C21A C 0.4900(10) 1.2226(7) 0.3123(6)
H13A H 0.5429 1.3156 0.3353
C22A C 0.5241(9) 1.1512(7) 0.3852(6)
H14A H 0.6014 1.1947 0.4584
C23A C 0.4415(8) 1.0118(7) 0.3490(5)
H15A H 0.4652 0.9646 0.4003
C24A C 0.2958(8) 1.0131(7) 0.1721(6)
C25A C 0.1788(8) 0.9381(7) 0.0580(5)
O1 O 0.608(5) 1.132(4) 0.052(4)
H1 H 0.6836 1.1345 0.1044
C1 C 0.5000 1.0000 0.0000
O1A O 0.392(5) 0.868(4) -0.052(4)
H1A H 0.3164 0.8655 -0.1044
O8? O 0.954(2) 1.4536(19) 0.4486(15)
H16? H 0.9659 1.3898 0.4128
C26? C 0.898(3) 1.520(2) 0.383(2)
H17? H 0.9278 1.6110 0.4276
H18? H 0.7875 1.4767 0.3464
H19? H 0.9372 1.5220 0.3262
loop_
_geom_bond_atom_site_label_1
_geom_bond_atom_site_label_2
_geom_bond_site_symmetry_1
_geom_bond_site_symmetry_2
O1 H1 1_555 1_555
C1 O1 1_555 1_555
Er1 O2 1_555 1_555
O2 C2 1_555 1_555
O3 C2 1_555 1_555
O4 Er1 1_555 1_555
O5 Er1 1_555 1_555
O6 Er1 1_555 1_555
O7 Er1 1_555 1_555
N1 Er1 1_555 1_555
N2 Er1 1_555 1_555
C2 C3 1_555 1_555
C3 C4 1_555 1_555
C4 H2 1_555 1_555
C5 C3 1_555 1_555
H3 C5 1_555 1_555
C6 O4 1_555 1_555
C7 C6 1_555 1_555
C8 C7 1_555 1_555
H4 C8 1_555 1_555
C9 C7 1_555 1_555
H5 C9 1_555 1_555
C10 O6 1_555 1_555
C11 C10 1_555 1_555
C12 C11 1_555 1_555
H6 C12 1_555 1_555
C13 C11 1_555 1_555
H7 C13 1_555 1_555
C14 N1 1_555 1_555
H8 C14 1_555 1_555
C15 C14 1_555 1_555
H9 C15 1_555 1_555
C16 C15 1_555 1_555
H10 C16 1_555 1_555
C17 C16 1_555 1_555
C18 C17 1_555 1_555
H11 C18 1_555 1_555
C19 C18 1_555 1_555
H12 C19 1_555 1_555
C20 C19 1_555 1_555
C21 C20 1_555 1_555
H13 C21 1_555 1_555
C22 C21 1_555 1_555
H14 C22 1_555 1_555
C23 N2 1_555 1_555
H15 C23 1_555 1_555
C24 N2 1_555 1_555
C25 N1 1_555 1_555
O1A C1 1_555 1_555
H1A O1A 1_555 1_555
Er1A O2A 1_555 1_555
Er1A_2 O3 1_555 1_555
Er1_2 O3A 1_555 1_555
Er1A_3 O4A 1_555 1_555
Er1A_4 O6A 1_555 1_555
O2A C2A 1_555 1_555
O3A C2A 1_555 1_555
O3A_2 Er1 1_555 1_555
O3_2 Er1A 1_555 1_555
O4A C6A 1_555 1_555
O4A_2 Er1A 1_555 1_555
O5A Er1A_3 1_555 1_555
O5A_2 Er1A 1_555 1_555
O6A C10A 1_555 1_555
O6A_2 Er1A 1_555 1_555
O7A Er1A_4 1_555 1_555
O7A_2 Er1A 1_555 1_555
N1A Er1A 1_555 1_555
N2A Er1A 1_555 1_555
C2A C3A 1_555 1_555
C3A C4A 1_555 1_555
C4A C5 1_555 1_555
H2A C4A 1_555 1_555
C5A C4 1_555 1_555
H3A C5A 1_555 1_555
C6A O5A 1_555 1_555
C7A C6A 1_555 1_555
C8A C9 1_555 1_555
H4A C8A 1_555 1_555
C9A C8 1_555 1_555
H5A C9A 1_555 1_555
C10A O7A 1_555 1_555
C11A C10A 1_555 1_555
C12A C13 1_555 1_555
H6A C12A 1_555 1_555
C13A C12 1_555 1_555
H7A C13A 1_555 1_555
C14A N1A 1_555 1_555
H8A C14A 1_555 1_555
C15A C14A 1_555 1_555
H9A C15A 1_555 1_555
C16A C15A 1_555 1_555
H10A C16A 1_555 1_555
C17A C16A 1_555 1_555
C18A C17A 1_555 1_555
H11A C18A 1_555 1_555
C19A C18A 1_555 1_555
H12A C19A 1_555 1_555
C20A C19A 1_555 1_555
C21A C20A 1_555 1_555
H13A C21A 1_555 1_555
C22A C21A 1_555 1_555
H14A C22A 1_555 1_555
C23A N2A 1_555 1_555
H15A C23A 1_555 1_555
C24A N2A 1_555 1_555
C25A N1A 1_555 1_555
O5 C6 1_555 1_555
O7 C10 1_555 1_555
C17 C25 1_555 1_555
C20 C24 1_555 1_555
C22 C23 1_555 1_555
C24 C25 1_555 1_555
C3A C5A 1_555 1_555
C7A C8A 1_555 1_555
C7A C9A 1_555 1_555
C11A C12A 1_555 1_555
C11A C13A 1_555 1_555
C17A C25A 1_555 1_555
C20A C24A 1_555 1_555
C22A C23A 1_555 1_555
C24A C25A 1_555 1_555

#END
