
#######################################################################
#
#                 Cambridge Crystallographic Data Centre
#                                CCDC 
#
#######################################################################
#
# If this CIF has been generated from an entry in the Cambridge 
# Structural Database, then it will include bibliographic, chemical, 
# crystal, experimental, refinement or atomic coordinate data resulting 
# from the CCDC's data processing and validation procedures.
#
#######################################################################

data_KUGZIW
_chemical_formula_moiety         '(C48 H30 Ni3 O16 2-)n,2n(C4 H10 N1 O1 1+)'
_chemical_name_systematic        
'catena-[bis(Dimethylacetamidium) tris(\m~4~-anthracene-9,10-dicarboxylato)-(\m~3~-oxo)-triaqua-tri-nickel(ii)]'
_symmetry_cell_setting           trigonal
_symmetry_space_group_name_H-M   'P -3 1 c'
_symmetry_Int_Tables_number      163
_space_group_name_Hall           '-P 3 2c'
loop_
_symmetry_equiv_pos_site_id
_symmetry_equiv_pos_as_xyz
1 x,y,z
2 -y,x-y,z
3 -x+y,-x,z
4 -y,-x,1/2-z
5 -x+y,y,1/2-z
6 x,x-y,1/2-z
7 -x,-y,-z
8 y,-x+y,-z
9 x-y,x,-z
10 y,x,1/2+z
11 x-y,-y,1/2+z
12 -x,-x+y,1/2+z
_cell_length_a                   15.5510(3)
_cell_length_b                   15.5510(3)
_cell_length_c                   16.3640(5)
_cell_angle_alpha                90
_cell_angle_beta                 90
_cell_angle_gamma                120
_cell_volume                     3427.18
_exptl_crystal_colour            yellow
_exptl_crystal_description       block
_cell_formula_units_Z            2
loop_
_atom_site_label
_atom_site_type_symbol
_atom_site_fract_x
_atom_site_fract_y
_atom_site_fract_z
Ni1 Ni 0.5200 0.2600 0.2500
O1 O 0.6667 0.3333 0.2500
O2 O 0.50899(17) 0.35858(16) 0.17434(13)
O3 O 0.66449(18) 0.48082(17) 0.14853(14)
O4 O 0.3660 0.1830 0.2500
C1 C 0.5347(2) 0.4663(2) 0.06512(19)
C2 C 0.5731(3) 0.4313(3) 0.13614(19)
C3 C 0.5198(3) 0.5466(3) 0.0765(2)
C4 C 0.5151(3) 0.4186(2) -0.01050(19)
C5 C 0.5275(3) 0.3340(3) -0.0241(2)
H1 H 0.5478 0.3082 0.0197
C6 C 0.5376(3) 0.5960(3) 0.1538(2)
H2 H 0.5602 0.5735 0.1985
C7 C 0.5106(4) 0.2907(3) -0.0984(3)
H3 H 0.5212 0.2363 -0.1069
C8 C 0.5231(4) 0.6734(4) 0.1643(3)
H4 H 0.5352 0.7046 0.2163
Ni1F Ni 0.4800 0.7400 -0.2500
Ni1F_2 Ni 0.4800 -0.2600 0.7500
Ni1B Ni 0.7400 0.4800 0.2500
Ni1A Ni 0.7400 0.2600 0.2500
Ni1H Ni 0.2600 0.5200 -0.2500
Ni1G Ni 0.2600 -0.2600 0.7500
Ni1G_2 Ni 0.2600 -0.2600 -0.2500
Ni1F_3 Ni 0.4800 -0.2600 -0.2500
O1F O 0.3333 0.6667 -0.2500
O1G O 0.3333 -0.3334 0.7500
O2F O 0.49101(17) 0.64142(16) -0.17434(13)
O2E O 0.50899(17) 0.15041(23) 0.32566(13)
O2K O 0.49101(17) -0.15041(23) 0.67434(13)
O2A O 0.64142(16) 0.15041(23) 0.17434(13)
O2G O 0.35858(16) -0.15041(23) -0.17434(13)
O2K_2 O 0.49101(17) 0.84959(23) -0.32566(13)
O2F_2 O 0.49101(17) -0.35858(16) 0.82566(13)
O3F O 0.33551(18) 0.51918(17) -0.14853(14)
O3E O 0.66449(18) 0.18367(25) 0.35147(14)
O3K O 0.33551(18) -0.18367(25) 0.64853(14)
O3A O 0.51918(17) 0.18367(25) 0.14853(14)
O3G O 0.48082(17) -0.18367(25) -0.14853(14)
O3C O 0.51918(17) 0.33551(18) 0.35147(14)
O3G_2 O 0.48082(17) 0.81633(25) -0.14853(14)
O3I O 0.48082(17) 0.66449(18) -0.35147(14)
O3I_2 O 0.48082(17) -0.33551(18) 0.64853(14)
O3G_3 O 0.48082(17) -0.18367(25) 0.85147(14)
O4F O 0.6340 0.8170 -0.2500
O4F_2 O 0.6340 -0.1830 0.7500
C1F C 0.4653(2) 0.5337(2) -0.06512(19)
C1E C 0.5347(2) 0.0684(3) 0.43488(19)
C1K C 0.4653(2) -0.0684(3) 0.56512(19)
C1A C 0.5337(2) 0.0684(3) 0.06512(19)
C1G C 0.4663(2) -0.0684(3) -0.06512(19)
C2F C 0.4269(3) 0.5687(3) -0.13614(19)
C2E C 0.5731(3) 0.1418(4) 0.36386(19)
C2K C 0.4269(3) -0.1418(4) 0.63614(19)
C2A C 0.5687(3) 0.1418(4) 0.13614(19)
C2G C 0.4313(3) -0.1418(4) -0.13614(19)
C3F C 0.4802(3) 0.4534(3) -0.0765(2)
C3E C 0.5198(3) -0.0268(4) 0.4235(2)
C3K C 0.4802(3) 0.0268(4) 0.5765(2)
C3A C 0.4534(3) -0.0268(4) 0.0765(2)
C3G C 0.5466(3) 0.0268(4) -0.0765(2)
C4F C 0.4849(3) 0.5814(2) 0.01050(19)
C4E C 0.5151(3) 0.0965(4) 0.51050(19)
C4K C 0.4849(3) -0.0965(4) 0.48950(19)
C4A C 0.5814(2) 0.0965(4) -0.01050(19)
C4G C 0.4186(2) -0.0965(4) 0.01050(19)
C5F C 0.4725(3) 0.6660(3) 0.0241(2)
C5E C 0.5275(3) 0.1935(4) 0.5241(2)
C5K C 0.4725(3) -0.1935(4) 0.4759(2)
C5A C 0.6660(3) 0.1935(4) -0.0241(2)
C5G C 0.3340(3) -0.1935(4) 0.0241(2)
H1F H 0.4522 0.6918 -0.0197
H1E H 0.5478 0.2396 0.4803
H1K H 0.4522 -0.2396 0.5197
H1A H 0.6918 0.2396 0.0197
H1G H 0.3082 -0.2396 -0.0197
C6F C 0.4624(3) 0.4040(3) -0.1538(2)
C6E C 0.5376(3) -0.0584(4) 0.3462(2)
C6K C 0.4624(3) 0.0584(4) 0.6538(2)
C6A C 0.4040(3) -0.0584(4) 0.1538(2)
C6G C 0.5960(3) 0.0584(4) -0.1538(2)
H2F H 0.4398 0.4265 -0.1985
H2E H 0.5602 -0.0133 0.3015
H2K H 0.4398 0.0133 0.6985
H2A H 0.4265 -0.0133 0.1985
H2G H 0.5735 0.0133 -0.1985
C7F C 0.4894(4) 0.7093(3) 0.0984(3)
C7E C 0.5106(4) 0.2199(5) 0.5984(3)
C7K C 0.4894(4) -0.2199(5) 0.4016(3)
C7A C 0.7093(3) 0.2199(5) -0.0984(3)
C7G C 0.2907(3) -0.2199(5) 0.0984(3)
H3F H 0.4788 0.7637 0.1069
H3E H 0.5212 0.2849 0.6069
H3K H 0.4788 -0.2849 0.3931
H3A H 0.7637 0.2849 -0.1069
H3G H 0.2363 -0.2849 0.1069
C8F C 0.4769(4) 0.3266(4) -0.1643(3)
C8E C 0.5231(4) -0.1503(6) 0.3357(3)
C8K C 0.4769(4) 0.1503(6) 0.6643(3)
C8A C 0.3266(4) -0.1503(6) 0.1643(3)
C8G C 0.6734(4) 0.1503(6) -0.1643(3)
H4F H 0.4648 0.2954 -0.2163
H4E H 0.5352 -0.1694 0.2837
H4K H 0.4648 0.1694 0.7163
H4A H 0.2954 -0.1694 0.2163
H4G H 0.7046 0.1694 -0.2163
loop_
_geom_bond_atom_site_label_1
_geom_bond_atom_site_label_2
_geom_bond_site_symmetry_1
_geom_bond_site_symmetry_2
Ni1 O1 1_555 1_555
O1 Ni1B 1_555 1_555
O2 Ni1 1_555 1_555
O3 C2 1_555 1_555
O4 Ni1 1_555 1_555
C1 C2 1_555 1_555
C2 O2 1_555 1_555
C3 C1 1_555 1_555
C4 C1 1_555 1_555
C5 C4 1_555 1_555
H1 C5 1_555 1_555
C6 C3 1_555 1_555
H2 C6 1_555 1_555
C7 C5 1_555 1_555
H3 C7 1_555 1_555
C8 C6 1_555 1_555
H4 C8 1_555 1_555
Ni1F O1F 1_555 1_555
Ni1F_2 O1G 1_555 1_555
Ni1B O3 1_555 1_555
Ni1A O1 1_555 1_555
Ni1H O1F 1_555 1_555
Ni1G O1G 1_555 1_555
Ni1G_2 O2G 1_555 1_555
Ni1F_3 O3G 1_555 1_555
O2F Ni1F 1_555 1_555
O2E Ni1 1_555 1_555
O2K Ni1F_2 1_555 1_555
O2A Ni1A 1_555 1_555
O2G C2G 1_555 1_555
O2K_2 Ni1F 1_555 1_555
O2F_2 Ni1F_2 1_555 1_555
O3F Ni1H 1_555 1_555
O3E Ni1A 1_555 1_555
O3K Ni1G 1_555 1_555
O3A Ni1 1_555 1_555
O3G C2G 1_555 1_555
O3C Ni1 1_555 1_555
O3G_2 Ni1F 1_555 1_555
O3I Ni1F 1_555 1_555
O3I_2 Ni1F_2 1_555 1_555
O3G_3 Ni1F_2 1_555 1_555
O4F Ni1F 1_555 1_555
O4F_2 Ni1F_2 1_555 1_555
C1F C2F 1_555 1_555
C1E C2E 1_555 1_555
C1K C2K 1_555 1_555
C1A C2A 1_555 1_555
C1G C2G 1_555 1_555
C2F O2F 1_555 1_555
C2E O2E 1_555 1_555
C2K O2K 1_555 1_555
C2A O2A 1_555 1_555
C3F C4 1_555 1_555
C3E C1E 1_555 1_555
C3K C1K 1_555 1_555
C3A C1A 1_555 1_555
C3G C1G 1_555 1_555
C4F C3 1_555 1_555
C4E C1E 1_555 1_555
C4K C1K 1_555 1_555
C4A C1A 1_555 1_555
C4G C1G 1_555 1_555
C5F C4F 1_555 1_555
C5E C4E 1_555 1_555
C5K C4K 1_555 1_555
C5A C4A 1_555 1_555
C5G C4G 1_555 1_555
H1F C5F 1_555 1_555
H1E C5E 1_555 1_555
H1K C5K 1_555 1_555
H1A C5A 1_555 1_555
H1G C5G 1_555 1_555
C6F C3F 1_555 1_555
C6E C3E 1_555 1_555
C6K C3K 1_555 1_555
C6A C3A 1_555 1_555
C6G C3G 1_555 1_555
H2F C6F 1_555 1_555
H2E C6E 1_555 1_555
H2K C6K 1_555 1_555
H2A C6A 1_555 1_555
H2G C6G 1_555 1_555
C7F C8 1_555 1_555
C7E C5E 1_555 1_555
C7K C5K 1_555 1_555
C7A C5A 1_555 1_555
C7G C5G 1_555 1_555
H3F C7F 1_555 1_555
H3E C7E 1_555 1_555
H3K C7K 1_555 1_555
H3A C7A 1_555 1_555
H3G C7G 1_555 1_555
C8F C7 1_555 1_555
C8E C6E 1_555 1_555
C8K C6K 1_555 1_555
C8A C6A 1_555 1_555
C8G C6G 1_555 1_555
H4F C8F 1_555 1_555
H4E C8E 1_555 1_555
H4K C8K 1_555 1_555
H4A C8A 1_555 1_555
H4G C8G 1_555 1_555
O3F C2F 1_555 1_555
O3E C2E 1_555 1_555
O3K C2K 1_555 1_555
O3A C2A 1_555 1_555
C1F C3F 1_555 1_555
C1F C4F 1_555 1_555
C3E C4K 1_555 1_555
C3K C4E 1_555 1_555
C3A C4G 1_555 1_555
C3G C4A 1_555 1_555
C5F C7F 1_555 1_555
C6F C8F 1_555 1_555
C7E C8K 1_555 1_555
C7K C8E 1_555 1_555
C7A C8G 1_555 1_555
C7G C8A 1_555 1_555

#END
