
#######################################################################
#
#                 Cambridge Crystallographic Data Centre
#                                CCDC 
#
#######################################################################
#
# If this CIF has been generated from an entry in the Cambridge 
# Structural Database, then it will include bibliographic, chemical, 
# crystal, experimental, refinement or atomic coordinate data resulting 
# from the CCDC's data processing and validation procedures.
#
#######################################################################

data_UWAGAB02
_chemical_formula_moiety         '(C78 H48 N2 O13 Zn4)n'
_chemical_name_systematic        
catena-(bis(\m~6~-4',4'',4'''-Nitrilotribiphenyl-4-carboxylato)-(\m~4~-oxo)-tetra-zinc)
_symmetry_cell_setting           cubic
_symmetry_space_group_name_H-M   'P a -3'
_symmetry_Int_Tables_number      205
_space_group_name_Hall           '-P 2ac 2ab 3'
loop_
_symmetry_equiv_pos_site_id
_symmetry_equiv_pos_as_xyz
1 x,y,z
2 1/2-x,-y,1/2+z
3 1/2+x,1/2-y,-z
4 -x,1/2+y,1/2-z
5 y,z,x
6 1/2-y,-z,1/2+x
7 1/2+y,1/2-z,-x
8 -y,1/2+z,1/2-x
9 z,x,y
10 -z,1/2+x,1/2-y
11 1/2-z,-x,1/2+y
12 1/2+z,1/2-x,-y
13 -x,-y,-z
14 1/2+x,y,1/2-z
15 1/2-x,1/2+y,z
16 x,1/2-y,1/2+z
17 -y,-z,-x
18 1/2+y,z,1/2-x
19 1/2-y,1/2+z,x
20 y,1/2-z,1/2+x
21 -z,-x,-y
22 z,1/2-x,1/2+y
23 1/2+z,x,1/2-y
24 1/2-z,1/2+x,y
_cell_length_a                   32.4053(7)
_cell_length_b                   32.4053(7)
_cell_length_c                   32.4053(7)
_cell_angle_alpha                90
_cell_angle_beta                 90
_cell_angle_gamma                90
_cell_volume                     34028.9
_exptl_crystal_colour            brown
_exptl_crystal_description       prism
_cell_formula_units_Z            8
loop_
_atom_site_label
_atom_site_type_symbol
_atom_site_fract_x
_atom_site_fract_y
_atom_site_fract_z
Zn1 Zn 0.78318(3) 0.71682(3) 0.28318(3)
O1 O 0.75000(19) 0.66561(17) 0.20378(18)
O2 O 0.79696(16) 0.66571(16) 0.25413(17)
O3 O 0.74862(15) 0.75138(15) 0.24862(15)
C1 C 0.6424(3) 0.7297(3) 0.2214(3)
C2 C 0.7788(3) 0.6491(3) 0.2249(3)
O4 O 0.67061(18) 0.71986(19) 0.19675(19)
O5 O 0.64827(17) 0.7494(2) 0.25424(19)
C3 C 0.8292(3) 0.4842(4) 0.1748(3)
C4 C 0.8529(4) 0.4050(4) 0.1488(4)
C5 C 0.8018(6) 0.4552(6) 0.1621(8)
H1 H 0.7741 0.4625 0.1603
C6 C 0.8128(6) 0.4148(6) 0.1516(8)
H2 H 0.7926 0.3951 0.1466
C7 C 0.8660(5) 0.4683(4) 0.1810(4)
H3 H 0.8863 0.4844 0.1934
C8 C 0.8747(5) 0.4312(4) 0.1706(4)
H4 H 0.9 0.4214 0.1798
Zn2 Zn 0.73059(3) 0.72158(3) 0.19970(3)
N1 N 0.3579(2) 0.6421(2) 0.1421(2)
C9 C 0.5997(3) 0.7175(3) 0.2109(3)
C10 C 0.4083(3) 0.6613(3) 0.1947(3)
H5 H 0.3883 0.6563 0.2147
C11 C 0.3983(3) 0.6563(2) 0.1532(3)
N2 N 0.8683(5) 0.3683(5) 0.1317(5)
C12 C 0.8378(3) 0.5500(3) 0.2156(3)
H6 H 0.8618 0.5388 0.2268
C13 C 0.5269(3) 0.7158(3) 0.2247(3)
H7 H 0.5047 0.7228 0.2415
C14 C 0.4779(3) 0.6810(3) 0.1782(3)
C15 C 0.4673(3) 0.6760(3) 0.1365(3)
H8 H 0.4873 0.6808 0.1166
C16 C 0.4467(3) 0.6732(3) 0.2065(3)
H9 H 0.4523 0.6764 0.2344
C17 C 0.5540(4) 0.6839(3) 0.1656(4)
H10 H 0.5499 0.6689 0.1415
C18 C 0.5205(3) 0.6935(3) 0.1894(3)
C19 C 0.5667(3) 0.7279(3) 0.2354(3)
H11 H 0.571 0.7432 0.2593
C20 C 0.7923(3) 0.6073(3) 0.2123(3)
C21 C 0.8163(3) 0.5277(3) 0.1869(3)
C22 C 0.4282(3) 0.6642(3) 0.1238(3)
H12 H 0.4222 0.6617 0.0959
C23 C 0.5923(3) 0.6952(4) 0.1755(3)
H13 H 0.6142 0.6879 0.1585
C24 C 0.7703(3) 0.5861(4) 0.1820(4)
H14 H 0.7476 0.5984 0.1694
C25 C 0.8254(3) 0.5886(3) 0.2284(3)
H15 H 0.8404 0.602 0.2489
C26 C 0.7823(4) 0.5466(4) 0.1705(4)
H16 H 0.7667 0.5325 0.1509
O1F O 1.16561(17) 0.29622(18) 0.25000(19)
O2F O 1.16571(16) 0.24587(17) 0.20304(16)
C2F C 1.1491(3) 0.2751(3) 0.2212(3)
C3F C 0.9842(4) 0.3252(3) 0.1708(3)
C4F C 0.9050(4) 0.3512(4) 0.1471(4)
C5F C 0.9552(6) 0.3379(8) 0.1982(6)
H1F H 0.9625 0.3397 0.2259
C6F C 0.9148(6) 0.3484(8) 0.1872(6)
H2F H 0.8951 0.3534 0.2074
C7F C 0.9683(4) 0.3190(4) 0.1340(5)
H3F H 0.9844 0.3066 0.1137
C8F C 0.9312(4) 0.3294(4) 0.1253(5)
H4F H 0.9214 0.3202 0.1
C12F C 1.0500(3) 0.2844(3) 0.1622(3)
H6F H 1.0388 0.2732 0.1382
C20F C 1.1073(3) 0.2877(3) 0.2077(3)
C21F C 1.0277(3) 0.3131(3) 0.1837(3)
C24F C 1.0861(4) 0.3180(4) 0.2297(3)
H14F H 1.0984 0.3306 0.2524
C25F C 1.0886(3) 0.2716(3) 0.1746(3)
H15F H 1.102 0.2511 0.1596
C26F C 1.0466(4) 0.3295(4) 0.2177(4)
H16F H 1.0325 0.3491 0.2333
O1I O 0.79622(18) 0.25000(19) -0.16561(17)
O2I O 0.74587(17) 0.29696(16) -0.16571(16)
C2I C 0.7751(3) 0.2788(3) -0.1491(3)
C3I C 0.8252(3) 0.3292(3) 0.0158(4)
C4I C 0.8512(4) 0.3529(4) 0.0950(4)
C5I C 0.8379(8) 0.3018(6) 0.0448(6)
H1I H 0.8397 0.2741 0.0375
C6I C 0.8484(8) 0.3128(6) 0.0852(6)
H2I H 0.8534 0.2926 0.1049
C7I C 0.8190(4) 0.3660(5) 0.0317(4)
H3I H 0.8066 0.3863 0.0156
C8I C 0.8294(4) 0.3747(5) 0.0688(4)
H4I H 0.8202 0.4 0.0786
C12I C 0.7844(3) 0.3378(3) -0.0500(3)
H6I H 0.7732 0.3618 -0.0388
C20I C 0.7877(3) 0.2923(3) -0.1073(3)
C21I C 0.8131(3) 0.3163(3) -0.0277(3)
C24I C 0.8180(4) 0.2703(3) -0.0861(4)
H14I H 0.8306 0.2476 -0.0984
C25I C 0.7716(3) 0.3254(3) -0.0886(3)
H15I H 0.7511 0.3404 -0.102
C26I C 0.8295(4) 0.2823(4) -0.0466(4)
H16I H 0.8491 0.2667 -0.0325
C1G C 0.2703(3) 0.7214(3) -0.1424(3)
O4G O 0.28014(19) 0.69675(19) -0.17061(18)
O5G O 0.2506(2) 0.75424(19) -0.14827(17)
C9G C 0.2825(3) 0.7109(3) -0.0997(3)
C10G C 0.3387(3) 0.6947(3) 0.0917(3)
H5G H 0.3437 0.7147 0.1117
C11G C 0.3437(2) 0.6532(3) 0.1017(3)
C13G C 0.2842(3) 0.7247(3) -0.0269(3)
H7G H 0.2772 0.7415 -0.0047
C14G C 0.3190(3) 0.6782(3) 0.0221(3)
C15G C 0.3240(3) 0.6365(3) 0.0327(3)
H8G H 0.3192 0.6166 0.0127
C16G C 0.3268(3) 0.7065(3) 0.0533(3)
H9G H 0.3236 0.7344 0.0477
C17G C 0.3161(3) 0.6656(4) -0.0540(4)
H10G H 0.3311 0.6415 -0.0499
C18G C 0.3065(3) 0.6894(3) -0.0205(3)
C19G C 0.2721(3) 0.7354(3) -0.0667(3)
H11G H 0.2568 0.7593 -0.071
C22G C 0.3358(3) 0.6238(3) 0.0718(3)
H12G H 0.3383 0.5959 0.0778
C23G C 0.3048(4) 0.6755(3) -0.0923(3)
H13G H 0.3121 0.6585 -0.1142
C1J C 0.2786(3) 0.3576(3) 0.2297(3)
O4J O 0.30325(19) 0.32939(18) 0.21986(19)
O5J O 0.24576(19) 0.35173(17) 0.2494(2)
C9J C 0.2891(3) 0.4003(3) 0.2175(3)
C10J C 0.3053(3) 0.5917(3) 0.1613(3)
H5J H 0.2853 0.6117 0.1563
C11J C 0.3468(3) 0.6017(3) 0.1563(2)
C13J C 0.2753(3) 0.4731(3) 0.2158(3)
H7J H 0.2585 0.4953 0.2228
C14J C 0.3218(3) 0.5221(3) 0.1810(3)
C15J C 0.3635(3) 0.5327(3) 0.1760(3)
H8J H 0.3834 0.5127 0.1808
C16J C 0.2935(3) 0.5533(3) 0.1732(3)
H9J H 0.2656 0.5477 0.1764
C17J C 0.3344(4) 0.4460(4) 0.1839(3)
H10J H 0.3585 0.4501 0.1689
C18J C 0.3106(3) 0.4795(3) 0.1935(3)
C19J C 0.2646(3) 0.4333(3) 0.2279(3)
H11J H 0.2407 0.429 0.2432
C22J C 0.3762(3) 0.5718(3) 0.1642(3)
H12J H 0.4041 0.5778 0.1617
C23J C 0.3245(3) 0.4077(3) 0.1952(4)
H13J H 0.3415 0.3858 0.1879
Zn2E Zn 0.77842(3) 0.80030(3) 0.23059(3)
Zn2K Zn 0.69970(3) 0.76941(3) 0.27842(3)
Zn1A Zn 0.71682(3) 0.28318(3) -0.21682(3)
Zn1C Zn 1.21682(3) 0.21682(3) 0.21682(3)
O1E O 0.83439(17) 0.79622(18) 0.25000(19)
O1K O 0.70378(18) 0.75000(19) 0.33439(17)
O2E O 0.83429(16) 0.74587(17) 0.29696(16)
O2K O 0.75413(17) 0.70304(16) 0.33429(16)
O4E O 0.78014(19) 0.80325(19) 0.17061(18)
O4K O 0.69675(19) 0.82939(18) 0.28014(19)
O5E O 0.7506(2) 0.74576(19) 0.14827(17)
O5K O 0.75424(19) 0.85173(17) 0.2506(2)
Zn2B Zn 0.23059(3) 0.77842(3) -0.19970(3)
Zn2F Zn 0.22158(3) 0.30030(3) 0.26941(3)
Zn2F_2 Zn 1.22158(3) 0.30030(3) 0.26941(3)
Zn2G Zn 0.27842(3) 0.69970(3) -0.23059(3)
Zn2I Zn 0.80030(3) 0.23059(3) -0.22158(3)
Zn2J Zn 0.30030(3) 0.26941(3) 0.22158(3)
loop_
_geom_bond_atom_site_label_1
_geom_bond_atom_site_label_2
_geom_bond_site_symmetry_1
_geom_bond_site_symmetry_2
Zn1 O2 1_555 1_555
O1 C2 1_555 1_555
O2 C2 1_555 1_555
O3 Zn1 1_555 1_555
C1 O4 1_555 1_555
C2 C20 1_555 1_555
O4 Zn2 1_555 1_555
O5 C1 1_555 1_555
C3 C5 1_555 1_555
C4 C6 1_555 1_555
C5 H1 1_555 1_555
C6 C5 1_555 1_555
H2 C6 1_555 1_555
C7 C3 1_555 1_555
H3 C7 1_555 1_555
C8 C4 1_555 1_555
H4 C8 1_555 1_555
Zn2 O1 1_555 1_555
N1 C11 1_555 1_555
C9 C1 1_555 1_555
C10 H5 1_555 1_555
C11 C10 1_555 1_555
N2 C4 1_555 1_555
C12 H6 1_555 1_555
C13 H7 1_555 1_555
C14 C15 1_555 1_555
C15 H8 1_555 1_555
C16 C10 1_555 1_555
H9 C16 1_555 1_555
C17 H10 1_555 1_555
C18 C13 1_555 1_555
C19 C9 1_555 1_555
H11 C19 1_555 1_555
C20 C24 1_555 1_555
C21 C3 1_555 1_555
C22 C11 1_555 1_555
H12 C22 1_555 1_555
C23 C9 1_555 1_555
H13 C23 1_555 1_555
C24 H14 1_555 1_555
C25 C12 1_555 1_555
H15 C25 1_555 1_555
C26 C21 1_555 1_555
H16 C26 1_555 1_555
O1F C2F 1_555 1_555
O2F C2F 1_555 1_555
C2F C20F 1_555 1_555
C3F C5F 1_555 1_555
C4F N2 1_555 1_555
C5F H1F 1_555 1_555
C6F C4F 1_555 1_555
H2F C6F 1_555 1_555
C7F C3F 1_555 1_555
H3F C7F 1_555 1_555
C8F C4F 1_555 1_555
H4F C8F 1_555 1_555
C12F H6F 1_555 1_555
C20F C24F 1_555 1_555
C21F C3F 1_555 1_555
C24F H14F 1_555 1_555
C25F C12F 1_555 1_555
H15F C25F 1_555 1_555
C26F C21F 1_555 1_555
H16F C26F 1_555 1_555
O1I C2I 1_555 1_555
O2I C2I 1_555 1_555
C2I C20I 1_555 1_555
C3I C5I 1_555 1_555
C4I N2 1_555 1_555
C5I H1I 1_555 1_555
C6I C4I 1_555 1_555
H2I C6I 1_555 1_555
C7I C3I 1_555 1_555
H3I C7I 1_555 1_555
C8I C4I 1_555 1_555
H4I C8I 1_555 1_555
C12I H6I 1_555 1_555
C20I C24I 1_555 1_555
C21I C3I 1_555 1_555
C24I H14I 1_555 1_555
C25I C12I 1_555 1_555
H15I C25I 1_555 1_555
C26I C21I 1_555 1_555
H16I C26I 1_555 1_555
C1G O4G 1_555 1_555
O4G Zn2G 1_555 1_555
O5G C1G 1_555 1_555
C9G C1G 1_555 1_555
C10G H5G 1_555 1_555
C11G N1 1_555 1_555
C13G H7G 1_555 1_555
C14G C15G 1_555 1_555
C15G H8G 1_555 1_555
C16G C10G 1_555 1_555
H9G C16G 1_555 1_555
C17G H10G 1_555 1_555
C18G C13G 1_555 1_555
C19G C9G 1_555 1_555
H11G C19G 1_555 1_555
C22G C11G 1_555 1_555
H12G C22G 1_555 1_555
C23G C9G 1_555 1_555
H13G C23G 1_555 1_555
C1J O4J 1_555 1_555
O4J Zn2J 1_555 1_555
O5J C1J 1_555 1_555
C9J C1J 1_555 1_555
C10J H5J 1_555 1_555
C11J N1 1_555 1_555
C13J H7J 1_555 1_555
C14J C15J 1_555 1_555
C15J H8J 1_555 1_555
C16J C10J 1_555 1_555
H9J C16J 1_555 1_555
C17J H10J 1_555 1_555
C18J C13J 1_555 1_555
C19J C9J 1_555 1_555
H11J C19J 1_555 1_555
C22J C11J 1_555 1_555
H12J C22J 1_555 1_555
C23J C9J 1_555 1_555
H13J C23J 1_555 1_555
Zn2E O3 1_555 1_555
Zn2K O3 1_555 1_555
Zn1A O2I 1_555 1_555
Zn1C O2F 1_555 1_555
O1E Zn2E 1_555 1_555
O1K Zn2K 1_555 1_555
O2E Zn1 1_555 1_555
O2K Zn1 1_555 1_555
O4E Zn2E 1_555 1_555
O4K Zn2K 1_555 1_555
O5E Zn2 1_555 1_555
O5K Zn2E 1_555 1_555
Zn2B O5G 1_555 1_555
Zn2F O5J 1_555 1_555
Zn2F_2 O1F 1_555 1_555
Zn2I O1I 1_555 1_555
O3 Zn2 1_555 1_555
O5 Zn2K 1_555 1_555
C7 C8 1_555 1_555
C12 C21 1_555 1_555
C13 C19 1_555 1_555
C14 C16 1_555 1_555
C14 C18 1_555 1_555
C15 C22 1_555 1_555
C17 C18 1_555 1_555
C17 C23 1_555 1_555
C20 C25 1_555 1_555
C24 C26 1_555 1_555
C5F C6F 1_555 1_555
C7F C8F 1_555 1_555
C12F C21F 1_555 1_555
C20F C25F 1_555 1_555
C24F C26F 1_555 1_555
C5I C6I 1_555 1_555
C7I C8I 1_555 1_555
C12I C21I 1_555 1_555
C20I C25I 1_555 1_555
C24I C26I 1_555 1_555
C10G C11G 1_555 1_555
C13G C19G 1_555 1_555
C14G C16G 1_555 1_555
C14G C18G 1_555 1_555
C15G C22G 1_555 1_555
C17G C18G 1_555 1_555
C17G C23G 1_555 1_555
C10J C11J 1_555 1_555
C13J C19J 1_555 1_555
C14J C16J 1_555 1_555
C14J C18J 1_555 1_555
C15J C22J 1_555 1_555
C17J C18J 1_555 1_555
C17J C23J 1_555 1_555

#END
