
#######################################################################
#
#                 Cambridge Crystallographic Data Centre
#                                CCDC 
#
#######################################################################
#
# If this CIF has been generated from an entry in the Cambridge 
# Structural Database, then it will include bibliographic, chemical, 
# crystal, experimental, refinement or atomic coordinate data resulting 
# from the CCDC's data processing and validation procedures.
#
#######################################################################

data_UWAGAB03
_chemical_formula_moiety         '(C78 H48 N2 O13 Zn4)n'
_chemical_name_systematic        
catena-(bis(\m~6~-4',4'',4'''-Nitrilotribiphenyl-4-carboxylato)-(\m~4~-oxo)-tetra-zinc)
_symmetry_cell_setting           cubic
_symmetry_space_group_name_H-M   'P a -3'
_symmetry_Int_Tables_number      205
_space_group_name_Hall           '-P 2ac 2ab 3'
loop_
_symmetry_equiv_pos_site_id
_symmetry_equiv_pos_as_xyz
1 x,y,z
2 1/2-x,-y,1/2+z
3 1/2+x,1/2-y,-z
4 -x,1/2+y,1/2-z
5 y,z,x
6 1/2-y,-z,1/2+x
7 1/2+y,1/2-z,-x
8 -y,1/2+z,1/2-x
9 z,x,y
10 -z,1/2+x,1/2-y
11 1/2-z,-x,1/2+y
12 1/2+z,1/2-x,-y
13 -x,-y,-z
14 1/2+x,y,1/2-z
15 1/2-x,1/2+y,z
16 x,1/2-y,1/2+z
17 -y,-z,-x
18 1/2+y,z,1/2-x
19 1/2-y,1/2+z,x
20 y,1/2-z,1/2+x
21 -z,-x,-y
22 z,1/2-x,1/2+y
23 1/2+z,x,1/2-y
24 1/2-z,1/2+x,y
_cell_length_a                   32.443(4)
_cell_length_b                   32.443(4)
_cell_length_c                   32.443(4)
_cell_angle_alpha                90
_cell_angle_beta                 90
_cell_angle_gamma                90
_cell_volume                     34147.8
_exptl_crystal_colour            brown
_exptl_crystal_description       prism
_cell_formula_units_Z            8
loop_
_atom_site_label
_atom_site_type_symbol
_atom_site_fract_x
_atom_site_fract_y
_atom_site_fract_z
O1 O 0.82961(5) 0.24951(5) 0.20626(5)
O2 O 0.77840(5) 0.19636(5) 0.33512(5)
O3 O 0.74434(4) 0.24434(4) 0.25566(4)
O4 O 0.74292(5) 0.25182(5) 0.35546(5)
C1 C 0.84628(7) 0.21924(7) 0.22383(7)
O5 O 0.83097(5) 0.19967(5) 0.25391(5)
Zn1 Zn 0.778993(8) 0.278993(8) 0.221007(8)
Zn2 Zn 0.775034(8) 0.196726(8) 0.275248(8)
N1 N 0.84902(6) 0.15098(6) 0.65098(6)
C2 C 0.76535(8) 0.22048(7) 0.36179(7)
C3 C 0.80981(7) 0.18207(7) 0.53028(7)
C4 C 0.77610(7) 0.21125(8) 0.40563(7)
C5 C 0.83451(7) 0.16070(7) 0.61033(7)
C6 C 0.81207(9) 0.16848(9) 0.45447(8)
H1 H 0.8289 0.1459 0.4598
C7 C 0.82858(7) 0.20194(7) 0.59960(7)
H2 H 0.8325 0.2225 0.6192
C8 C 0.94319(8) 0.20862(8) 0.16061(8)
H3 H 0.955 0.2209 0.1376
C9 C 0.82699(7) 0.13020(7) 0.58092(7)
H4 H 0.8302 0.1026 0.5879
C10 C 0.81692(8) 0.21219(7) 0.55997(7)
H5 H 0.8138 0.2398 0.553
C11 C 0.81503(8) 0.14067(8) 0.54199(8)
H6 H 0.8102 0.12 0.5228
C12 C 0.77289(8) 0.22614(8) 0.47855(8)
H7 H 0.7631 0.2425 0.500
C13 C 0.80137(8) 0.17734(8) 0.41446(8)
H8 H 0.8109 0.1608 0.3931
N2 N 1.11546(8) 0.11546(8) 0.11546(8)
C14 C 0.79818(7) 0.19265(7) 0.48720(7)
C15 C 0.88730(7) 0.20519(7) 0.20886(7)
C16 C 0.76206(8) 0.23532(8) 0.43802(8)
H9 H 0.7452 0.2579 0.4326
C17 C 0.96365(8) 0.17667(8) 0.18019(8)
C18 C 0.90577(8) 0.22241(7) 0.17465(8)
H10 H 0.8926 0.2438 0.1608
C19 C 1.00369(8) 0.16117(8) 0.16451(8)
C20 C 1.03316(9) 0.18698(8) 0.14986(9)
H11 H 1.0284 0.2153 0.1502
C21 C 1.07809(8) 0.13074(8) 0.13268(8)
C22 C 0.90744(9) 0.17316(9) 0.22906(9)
H12 H 0.8956 0.1612 0.2523
C23 C 1.01127(9) 0.11834(9) 0.16231(9)
H13 H 0.9913 0.1 0.1717
C24 C 1.07046(9) 0.17205(9) 0.13426(9)
H14 H 1.0903 0.1905 0.1249
C25 C 1.04771(9) 0.10312(9) 0.14650(9)
H15 H 1.0521 0.0748 0.145
C26 C 0.94481(9) 0.15907(10) 0.21487(10)
H16 H 0.9578 0.1375 0.2285
O1D O 1.24951(5) 0.20626(5) -0.17039(5)
C1D C 1.21924(7) 0.22383(7) -0.15372(7)
O5D O 1.19967(5) 0.25391(5) -0.16903(5)
C8D C 1.20862(8) 0.16061(8) -0.05681(8)
H3D H 1.2209 0.1376 -0.045
C15D C 1.20519(7) 0.20886(7) -0.11270(7)
C17D C 1.17667(8) 0.18019(8) -0.03635(8)
C18D C 1.22241(7) 0.17465(8) -0.09423(8)
H10D H 1.2438 0.1608 -0.1074
C19D C 1.16117(8) 0.16451(8) 0.00369(8)
C20D C 1.18698(8) 0.14986(9) 0.03316(9)
H11D H 1.2153 0.1502 0.0284
C21D C 1.13074(8) 0.13268(8) 0.07809(8)
C22D C 1.17316(9) 0.22906(9) -0.09256(9)
H12D H 1.1612 0.2523 -0.1044
C23D C 1.11834(9) 0.16231(9) 0.01127(9)
H13D H 1.1 0.1717 -0.0087
C24D C 1.17205(9) 0.13426(9) 0.07046(9)
H14D H 1.1905 0.1249 0.0903
C25D C 1.10312(9) 0.14650(9) 0.04771(9)
H15D H 1.0748 0.145 0.0521
C26D C 1.15907(10) 0.21487(10) -0.05519(9)
H16D H 1.1375 0.2285 -0.0422
O1H O 1.20626(5) -0.17039(5) 0.24951(5)
C1H C 1.22383(7) -0.15372(7) 0.21924(7)
O5H O 1.25391(5) -0.16903(5) 0.19967(5)
C8H C 1.16061(8) -0.05681(8) 0.20862(8)
H3H H 1.1376 -0.045 0.2209
C15H C 1.20886(7) -0.11270(7) 0.20519(7)
C17H C 1.18019(8) -0.03635(8) 0.17667(8)
C18H C 1.17465(8) -0.09423(8) 0.22241(7)
H10H H 1.1608 -0.1074 0.2438
C19H C 1.16451(8) 0.00369(8) 0.16117(8)
C20H C 1.14986(9) 0.03316(9) 0.18698(8)
H11H H 1.1502 0.0284 0.2153
C21H C 1.13268(8) 0.07809(8) 0.13074(8)
C22H C 1.22906(9) -0.09256(9) 0.17316(9)
H12H H 1.2523 -0.1044 0.1612
C23H C 1.16231(9) 0.01127(9) 0.11834(9)
H13H H 1.1717 -0.0087 0.1
C24H C 1.13426(9) 0.07046(9) 0.17205(9)
H14H H 1.1249 0.0903 0.1905
C25H C 1.14650(9) 0.04771(9) 0.10312(9)
H15H H 1.145 0.0521 0.0748
C26H C 1.21487(10) -0.05519(9) 0.15907(10)
H16H H 1.2285 -0.0422 0.1375
O2G O 0.80364(5) -0.16488(5) 0.72160(5)
O4G O 0.74818(5) -0.14454(5) 0.75708(5)
C2G C 0.77952(7) -0.13821(7) 0.73465(8)
C3G C 0.81793(7) 0.03028(7) 0.69019(7)
C4G C 0.78875(8) -0.09437(7) 0.72390(7)
C5G C 0.83930(7) 0.11033(7) 0.66549(7)
C6G C 0.83152(9) -0.04553(8) 0.68793(9)
H1G H 0.8541 -0.0402 0.6711
C7G C 0.79806(7) 0.09960(7) 0.67142(7)
H2G H 0.7775 0.1192 0.6675
C9G C 0.86980(7) 0.08092(7) 0.67301(7)
H4G H 0.8974 0.0879 0.6698
C10G C 0.78781(7) 0.05997(7) 0.68308(8)
H5G H 0.7602 0.053 0.6862
C11G C 0.85933(8) 0.04199(8) 0.68497(8)
H6G H 0.88 0.0228 0.6898
C12G C 0.77386(8) -0.02145(8) 0.72711(8)
H7G H 0.7575 0.000 0.7369
C13G C 0.82266(8) -0.08554(8) 0.69863(8)
H8G H 0.8392 -0.1069 0.6891
C14G C 0.80735(7) -0.01280(7) 0.70182(7)
C16G C 0.76468(8) -0.06198(8) 0.73794(8)
H9G H 0.7421 -0.0674 0.7548
O2J O 1.16488(5) 0.22160(5) 0.69636(5)
O4J O 1.14454(5) 0.25708(5) 0.75182(5)
C2J C 1.13821(7) 0.23465(8) 0.72048(7)
C3J C 0.96972(7) 0.19019(7) 0.68207(7)
C4J C 1.09437(7) 0.22390(7) 0.71125(8)
C5J C 0.88967(7) 0.16549(7) 0.66070(7)
C6J C 1.04553(8) 0.18793(9) 0.66848(9)
H1J H 1.0402 0.1711 0.6459
C7J C 0.90040(7) 0.17142(7) 0.70194(7)
H2J H 0.8808 0.1675 0.7225
C9J C 0.91908(7) 0.17301(7) 0.63020(7)
H4J H 0.9121 0.1698 0.6026
C10J C 0.94003(7) 0.18308(8) 0.71219(7)
H5J H 0.947 0.1862 0.7398
C11J C 0.95801(8) 0.18497(8) 0.64067(8)
H6J H 0.9772 0.1898 0.62
C12J C 1.02145(8) 0.22711(8) 0.72614(8)
H7J H 1.000 0.2369 0.7425
C13J C 1.08554(8) 0.19863(8) 0.67734(8)
H8J H 1.1069 0.1891 0.6608
C14J C 1.01280(7) 0.20182(7) 0.69265(7)
C16J C 1.06198(8) 0.23794(8) 0.73532(8)
H9J H 1.0674 0.2548 0.7579
Zn2D Zn 1.196726(8) 0.275248(8) -0.224966(8)
Zn2H Zn 1.275248(8) -0.224966(8) 0.196726(8)
O1F O 0.74951(5) 0.29374(5) 0.17039(5)
O1I O 0.79374(5) 0.32961(5) 0.25049(5)
O2D O 1.19636(5) 0.33512(5) -0.22160(5)
O2H O 1.33512(5) -0.22160(5) 0.19636(5)
O3B O 1.24434(4) 0.25566(4) -0.25566(4)
O3C O 1.25566(4) -0.25566(4) 0.24434(4)
O4C O 1.25708(5) -0.24818(5) 0.14454(5)
O4F O 0.75182(5) 0.14454(5) 0.25708(5)
O4J_2 O 1.14454(5) 0.25708(5) -0.24818(5)
Zn1B Zn 1.278993(8) 0.221007(8) -0.221007(8)
Zn1C Zn 1.221007(8) -0.221007(8) 0.278993(8)
Zn2A Zn 0.724966(8) -0.196726(8) 0.775248(8)
Zn2D_2 Zn 1.196726(8) 0.275248(8) 0.775034(8)
Zn2F Zn 0.696726(8) 0.224752(8) 0.224966(8)
Zn2G Zn 0.803274(8) -0.224752(8) 0.724966(8)
Zn2I Zn 0.724752(8) 0.275034(8) 0.303274(8)
Zn2J Zn 1.224752(8) 0.224966(8) 0.696726(8)
loop_
_geom_bond_atom_site_label_1
_geom_bond_atom_site_label_2
_geom_bond_site_symmetry_1
_geom_bond_site_symmetry_2
O1 C1 1_555 1_555
O2 Zn2 1_555 1_555
O3 Zn1 1_555 1_555
O4 C2 1_555 1_555
C1 O5 1_555 1_555
O5 Zn2 1_555 1_555
Zn1 O1 1_555 1_555
Zn2 O3 1_555 1_555
N1 C5 1_555 1_555
C2 O2 1_555 1_555
C3 C10 1_555 1_555
C4 C2 1_555 1_555
C5 C7 1_555 1_555
C6 H1 1_555 1_555
C7 H2 1_555 1_555
C8 H3 1_555 1_555
C9 C5 1_555 1_555
H4 C9 1_555 1_555
C10 C7 1_555 1_555
H5 C10 1_555 1_555
C11 C3 1_555 1_555
H6 C11 1_555 1_555
C12 H7 1_555 1_555
C13 C4 1_555 1_555
H8 C13 1_555 1_555
N2 C21 1_555 1_555
C14 C3 1_555 1_555
C15 C1 1_555 1_555
C16 C4 1_555 1_555
H9 C16 1_555 1_555
C17 C8 1_555 1_555
C18 C8 1_555 1_555
H10 C18 1_555 1_555
C19 C17 1_555 1_555
C20 C19 1_555 1_555
H11 C20 1_555 1_555
C21 C24 1_555 1_555
C22 C15 1_555 1_555
H12 C22 1_555 1_555
C23 C19 1_555 1_555
H13 C23 1_555 1_555
C24 C20 1_555 1_555
H14 C24 1_555 1_555
C25 C21 1_555 1_555
H15 C25 1_555 1_555
C26 C17 1_555 1_555
H16 C26 1_555 1_555
O1D C1D 1_555 1_555
C1D O5D 1_555 1_555
O5D Zn2D 1_555 1_555
C8D H3D 1_555 1_555
C15D C1D 1_555 1_555
C17D C8D 1_555 1_555
C18D C8D 1_555 1_555
H10D C18D 1_555 1_555
C19D C17D 1_555 1_555
C20D C19D 1_555 1_555
H11D C20D 1_555 1_555
C21D N2 1_555 1_555
C22D C15D 1_555 1_555
H12D C22D 1_555 1_555
C23D C19D 1_555 1_555
H13D C23D 1_555 1_555
C24D C20D 1_555 1_555
H14D C24D 1_555 1_555
C25D C21D 1_555 1_555
H15D C25D 1_555 1_555
C26D C17D 1_555 1_555
H16D C26D 1_555 1_555
O1H C1H 1_555 1_555
C1H O5H 1_555 1_555
O5H Zn2H 1_555 1_555
C8H H3H 1_555 1_555
C15H C1H 1_555 1_555
C17H C8H 1_555 1_555
C18H C8H 1_555 1_555
H10H C18H 1_555 1_555
C19H C17H 1_555 1_555
C20H C19H 1_555 1_555
H11H C20H 1_555 1_555
C21H N2 1_555 1_555
C22H C15H 1_555 1_555
H12H C22H 1_555 1_555
C23H C19H 1_555 1_555
H13H C23H 1_555 1_555
C24H C20H 1_555 1_555
H14H C24H 1_555 1_555
C25H C21H 1_555 1_555
H15H C25H 1_555 1_555
C26H C17H 1_555 1_555
H16H C26H 1_555 1_555
O2G C2G 1_555 1_555
O4G C2G 1_555 1_555
C2G C4G 1_555 1_555
C3G C10G 1_555 1_555
C4G C13G 1_555 1_555
C5G N1 1_555 1_555
C6G H1G 1_555 1_555
C7G C5G 1_555 1_555
H2G C7G 1_555 1_555
C9G C5G 1_555 1_555
H4G C9G 1_555 1_555
C10G C7G 1_555 1_555
H5G C10G 1_555 1_555
C11G C3G 1_555 1_555
H6G C11G 1_555 1_555
C12G H7G 1_555 1_555
C13G C6G 1_555 1_555
H8G C13G 1_555 1_555
C14G C3G 1_555 1_555
C16G C4G 1_555 1_555
H9G C16G 1_555 1_555
O2J C2J 1_555 1_555
O4J C2J 1_555 1_555
C2J C4J 1_555 1_555
C3J C10J 1_555 1_555
C4J C13J 1_555 1_555
C5J N1 1_555 1_555
C6J H1J 1_555 1_555
C7J C5J 1_555 1_555
H2J C7J 1_555 1_555
C9J C5J 1_555 1_555
H4J C9J 1_555 1_555
C10J C7J 1_555 1_555
H5J C10J 1_555 1_555
C11J C3J 1_555 1_555
H6J C11J 1_555 1_555
C12J H7J 1_555 1_555
C13J C6J 1_555 1_555
H8J C13J 1_555 1_555
C14J C3J 1_555 1_555
C16J C4J 1_555 1_555
H9J C16J 1_555 1_555
Zn2D O2D 1_555 1_555
Zn2H O2H 1_555 1_555
O1F Zn1 1_555 1_555
O1I Zn1 1_555 1_555
O3B Zn2D 1_555 1_555
O3C Zn2H 1_555 1_555
O4C Zn2H 1_555 1_555
O4F Zn2 1_555 1_555
O4J_2 Zn2D 1_555 1_555
Zn1B O1D 1_555 1_555
Zn1C O1H 1_555 1_555
Zn2A O4G 1_555 1_555
Zn2D_2 O4J 1_555 1_555
Zn2F O3 1_555 1_555
Zn2G O2G 1_555 1_555
Zn2I O3 1_555 1_555
Zn2J O2J 1_555 1_555
O4 Zn2I 1_555 1_555
C6 C13 1_555 1_555
C6 C14 1_555 1_555
C9 C11 1_555 1_555
C12 C14 1_555 1_555
C12 C16 1_555 1_555
C15 C18 1_555 1_555
C22 C26 1_555 1_555
C23 C25 1_555 1_555
C15D C18D 1_555 1_555
C21D C24D 1_555 1_555
C22D C26D 1_555 1_555
C23D C25D 1_555 1_555
C15H C18H 1_555 1_555
C21H C24H 1_555 1_555
C22H C26H 1_555 1_555
C23H C25H 1_555 1_555
C6G C14G 1_555 1_555
C9G C11G 1_555 1_555
C12G C14G 1_555 1_555
C12G C16G 1_555 1_555
C6J C14J 1_555 1_555
C9J C11J 1_555 1_555
C12J C14J 1_555 1_555
C12J C16J 1_555 1_555
O3B Zn1B 1_555 1_555
O3C Zn1C 1_555 1_555

#END
