
#######################################################################
#
#                 Cambridge Crystallographic Data Centre
#                                CCDC 
#
#######################################################################
#
# If this CIF has been generated from an entry in the Cambridge 
# Structural Database, then it will include bibliographic, chemical, 
# crystal, experimental, refinement or atomic coordinate data resulting 
# from the CCDC's data processing and validation procedures.
#
#######################################################################

data_MIXZOK
_chemical_name_common            JUC-105
_chemical_formula_moiety         
'(C66 H43 Ni3 O16 1-)n,C2 H8 N1 1+,10(C4 H9 N1 O1),7(H2 O1)'
_chemical_name_systematic        
'catena-(dimethylammonium (\m-1,3,5-tris(3,5-bis(4-carboxyphenyl)phenyl)benzene)-(\m-hydroxo)-triaqua-tri-nickel N,N-dimethylacetamide solvate heptahydrate)'
_symmetry_cell_setting           hexagonal
_symmetry_space_group_name_H-M   'P -6 2 c'
_symmetry_Int_Tables_number      190
_space_group_name_Hall           'P -6c -2c'
loop_
_symmetry_equiv_pos_site_id
_symmetry_equiv_pos_as_xyz
1 x,y,z
2 -y,x-y,z
3 -x+y,-x,z
4 x,y,1/2-z
5 -y,x-y,1/2-z
6 -x+y,-x,1/2-z
7 y,x,-z
8 x-y,-y,-z
9 -x,-x+y,-z
10 y,x,1/2+z
11 x-y,-y,1/2+z
12 -x,-x+y,1/2+z
_cell_length_a                   19.1786(7)
_cell_length_b                   19.1786(7)
_cell_length_c                   27.926(2)
_cell_angle_alpha                90
_cell_angle_beta                 90
_cell_angle_gamma                120
_cell_volume                     8895.56
_exptl_crystal_colour            'pale green'
_exptl_crystal_description       polyhedra
_cell_formula_units_Z            2
loop_
_atom_site_label
_atom_site_type_symbol
_atom_site_fract_x
_atom_site_fract_y
_atom_site_fract_z
O1 O 0.5125(4) 0.9046(4) 0.7500
Ni1 Ni 0.41929(5) 0.78102(5) 0.7500
C1 C 0.2951(4) 0.7818(3) 0.68390(18)
C2 C 0.2802(4) 0.8265(4) 0.6442(2)
C3 C 0.2518(4) 0.9090(4) 0.5713(2)
C4 C 0.3280(4) 0.9374(5) 0.5895(3)
H1 H 0.3707 0.9846 0.5773
C5 C 0.2063(4) 0.7979(5) 0.6253(2)
H2 H 0.1644 0.7492 0.6364
C6 C 0.1907(4) 0.8380(5) 0.5902(3)
H3 H 0.1384 0.8173 0.5789
C7 C 0.3421(5) 0.8966(5) 0.6260(3)
H4 H 0.3939 0.9171 0.6381
O2 O 0.3333 0.6667 0.7500
O3 O 0.3659(3) 0.8126(3) 0.69829(17)
O4 O 0.2356(3) 0.7196(3) 0.69866(15)
C8 C 0.0708(4) 1.0000 0.5000
C9 C 0.2366(4) 0.9550(4) 0.5342(2)
C10 C 0.1506(4) 1.0000 0.5000
C11 C 0.1643(4) 0.9541(4) 0.5331(2)
H5 H 0.1242 0.9224 0.5549
C12 C 0.2932(5) 1.0000 0.5000
H6 H 0.3417 1.0000 0.5000
C13 C 0.0000 0.9276(4) 0.5000
H7 H 0.0000 0.8791 0.5000
C1A C 0.2182(3) 1.5133(5) 0.68390(18)
C2A C 0.1735(4) 1.4537(6) 0.6442(2)
C3A C 0.0910(4) 1.3428(6) 0.5713(2)
C4A C 0.0626(5) 1.3906(6) 0.5895(3)
H1A H 0.0154 1.3861 0.5773
C5A C 0.2021(5) 1.4084(6) 0.6253(2)
H2A H 0.2508 1.4152 0.6364
C6A C 0.1620(5) 1.3527(6) 0.5902(3)
H3A H 0.1827 1.3211 0.5789
C7A C 0.1034(5) 1.4455(7) 0.6260(3)
H4A H 0.0829 1.4768 0.6381
O3A O 0.1874(3) 1.5533(4) 0.69829(17)
O4A O 0.2804(3) 1.5160(4) 0.69866(15)
C8A C 0.0000 1.0708(4) 0.5000
C9A C 0.0450(4) 1.2816(6) 0.5342(2)
C10A C 0.0000 1.1506(4) 0.5000
C11A C 0.0459(4) 1.2102(6) 0.5331(2)
H5A H 0.0776 1.2018 0.5549
C12A C 0.0000 1.2932(5) 0.5000
H6A H 0.0000 1.3417 0.5000
C13A C 0.0724(4) 1.0724(4) 0.5000
H7A H 0.1209 1.1209 0.5000
C1B C -0.5133(5) 0.7049(4) 0.68390(18)
C2B C -0.4537(6) 0.7198(4) 0.6442(2)
C3B C -0.3428(6) 0.7482(4) 0.5713(2)
C4B C -0.3906(6) 0.6720(4) 0.5895(3)
H1B H -0.3861 0.6293 0.5773
C5B C -0.4084(6) 0.7937(4) 0.6253(2)
H2B H -0.4152 0.8356 0.6364
C6B C -0.3527(6) 0.8093(4) 0.5902(3)
H3B H -0.3211 0.8616 0.5789
C7B C -0.4455(7) 0.6579(5) 0.6260(3)
H4B H -0.4768 0.6061 0.6381
O3B O -0.5533(4) 0.6341(3) 0.69829(17)
O4B O -0.5160(4) 0.7644(3) 0.69866(15)
C8B C -0.0708(4) 0.9292(4) 0.5000
C9B C -0.2816(6) 0.7634(4) 0.5342(2)
C10B C -0.1506(4) 0.8494(4) 0.5000
C11B C -0.2102(6) 0.8357(4) 0.5331(2)
H5B H -0.2018 0.8758 0.5549
C12B C -0.2932(5) 0.7068(5) 0.5000
H6B H -0.3417 0.6583 0.5000
C13B C -0.0724(4) 1.0000 0.5000
H7B H -0.1209 1.0000 0.5000
C1F C -0.2182(3) 1.2951(4) 0.31610(18)
C2F C -0.1735(4) 1.2802(4) 0.3558(2)
C3F C -0.0910(4) 1.2518(4) 0.4287(2)
C4F C -0.0626(5) 1.3280(4) 0.4105(3)
H1F H -0.0154 1.3707 0.4227
C5F C -0.2021(5) 1.2063(4) 0.3747(2)
H2F H -0.2508 1.1644 0.3636
C6F C -0.1620(5) 1.1907(4) 0.4098(3)
H3F H -0.1827 1.1384 0.4211
C7F C -0.1034(5) 1.3421(5) 0.3740(3)
H4F H -0.0829 1.3939 0.3619
O3F O -0.1874(3) 1.3659(3) 0.30171(17)
O4F O -0.2804(3) 1.2356(3) 0.30134(15)
C9F C -0.0450(4) 1.2366(4) 0.4658(2)
C11F C -0.0459(4) 1.1643(4) 0.4669(2)
H5F H -0.0776 1.1242 0.4451
C1G C 0.5133(5) 1.2182(3) 0.31610(18)
C2G C 0.4537(6) 1.1735(4) 0.3558(2)
C3G C 0.3428(6) 1.0910(4) 0.4287(2)
C4G C 0.3906(6) 1.0626(5) 0.4105(3)
H1G H 0.3861 1.0154 0.4227
C5G C 0.4084(6) 1.2021(5) 0.3747(2)
H2G H 0.4152 1.2508 0.3636
C6G C 0.3527(6) 1.1620(5) 0.4098(3)
H3G H 0.3211 1.1827 0.4211
C7G C 0.4455(7) 1.1034(5) 0.3740(3)
H4G H 0.4768 1.0829 0.3619
O3G O 0.5533(4) 1.1874(3) 0.30171(17)
O4G O 0.5160(4) 1.2804(3) 0.30134(15)
C9G C 0.2816(6) 1.0450(4) 0.4658(2)
C11G C 0.2102(6) 1.0459(4) 0.4669(2)
H5G H 0.2018 1.0776 0.4451
C1H C -0.2951(4) 0.4867(5) 0.31610(18)
C2H C -0.2802(4) 0.5463(6) 0.3558(2)
C3H C -0.2518(4) 0.6572(6) 0.4287(2)
C4H C -0.3280(4) 0.6094(6) 0.4105(3)
H1H H -0.3707 0.6139 0.4227
C5H C -0.2063(4) 0.5916(6) 0.3747(2)
H2H H -0.1644 0.5848 0.3636
C6H C -0.1907(4) 0.6473(6) 0.4098(3)
H3H H -0.1384 0.6789 0.4211
C7H C -0.3421(5) 0.5545(7) 0.3740(3)
H4H H -0.3939 0.5232 0.3619
O3H O -0.3659(3) 0.4467(4) 0.30171(17)
O4H O -0.2356(3) 0.4840(4) 0.30134(15)
C9H C -0.2366(4) 0.7184(6) 0.4658(2)
C11H C -0.1643(4) 0.7898(6) 0.4669(2)
H5H H -0.1242 0.7982 0.4451
O1A O 0.0954(4) 0.6079(6) 0.7500
Ni1A Ni 0.21898(5) 0.63827(7) 0.7500
O1B O 0.3921(6) 0.4875(4) 0.7500
Ni1B Ni 0.36173(7) 0.58071(5) 0.7500
Ni1_2 Ni -0.58071(5) 0.78102(5) 0.7500
Ni1A_2 Ni 0.21898(5) 1.63827(7) 0.7500
Ni1B_2 Ni -0.63827(7) 0.58071(5) 0.7500
Ni1B_3 Ni 0.36173(7) 1.58071(5) 0.7500
Ni1F Ni -0.21898(5) 0.41929(5) 0.2500
Ni1F_2 Ni -0.21898(5) 1.41929(5) 0.2500
Ni1G Ni -0.36173(7) 1.21898(5) 0.2500
Ni1G_2 Ni 0.63827(7) 1.21898(5) 0.2500
Ni1H Ni -0.41929(5) 0.36173(7) 0.2500
Ni1H_2 Ni 0.58071(5) 1.36173(7) 0.2500
O3A_2 O 0.1874(3) 0.5533(4) 0.69829(17)
O3B_2 O 0.4467(4) 0.6341(3) 0.69829(17)
O3C O 0.3659(3) 0.8126(3) 0.80171(17)
O3D O 0.1874(3) 0.5533(4) 0.80171(17)
O3E O 0.4467(4) 0.6341(3) 0.80171(17)
O4A_2 O 0.2804(3) 0.5160(4) 0.69866(15)
O4B_2 O 0.4840(4) 0.7644(3) 0.69866(15)
O4C O 0.2356(3) 0.7196(3) 0.80134(15)
O4D O 0.2804(3) 0.5160(4) 0.80134(15)
O4E O 0.4840(4) 0.7644(3) 0.80134(15)
loop_
_geom_bond_atom_site_label_1
_geom_bond_atom_site_label_2
_geom_bond_site_symmetry_1
_geom_bond_site_symmetry_2
O1 Ni1 1_555 1_555
Ni1 O2 1_555 1_555
C1 C2 1_555 1_555
C2 C5 1_555 1_555
C3 C4 1_555 1_555
C4 H1 1_555 1_555
C5 H2 1_555 1_555
C6 C3 1_555 1_555
H3 C6 1_555 1_555
C7 C2 1_555 1_555
H4 C7 1_555 1_555
O2 Ni1A 1_555 1_555
O3 Ni1 1_555 1_555
O4 C1 1_555 1_555
C8 C10 1_555 1_555
C9 C3 1_555 1_555
C10 C11 1_555 1_555
C11 C9 1_555 1_555
H5 C11 1_555 1_555
C12 C9 1_555 1_555
H6 C12 1_555 1_555
C13 C8 1_555 1_555
H7 C13 1_555 1_555
C1A C2A 1_555 1_555
C2A C5A 1_555 1_555
C3A C4A 1_555 1_555
C4A H1A 1_555 1_555
C5A H2A 1_555 1_555
C6A C3A 1_555 1_555
H3A C6A 1_555 1_555
C7A C2A 1_555 1_555
H4A C7A 1_555 1_555
O3A C1A 1_555 1_555
O4A C1A 1_555 1_555
C8A C10A 1_555 1_555
C9A C3A 1_555 1_555
C10A C11A 1_555 1_555
C11A C9A 1_555 1_555
H5A C11A 1_555 1_555
C12A C9A 1_555 1_555
H6A C12A 1_555 1_555
C13A C8 1_555 1_555
H7A C13A 1_555 1_555
C1B C2B 1_555 1_555
C2B C5B 1_555 1_555
C3B C4B 1_555 1_555
C4B H1B 1_555 1_555
C5B H2B 1_555 1_555
C6B C3B 1_555 1_555
H3B C6B 1_555 1_555
C7B C2B 1_555 1_555
H4B C7B 1_555 1_555
O3B C1B 1_555 1_555
O4B C1B 1_555 1_555
C8B C13 1_555 1_555
C9B C3B 1_555 1_555
C10B C8B 1_555 1_555
C11B C9B 1_555 1_555
H5B C11B 1_555 1_555
C12B C9B 1_555 1_555
H6B C12B 1_555 1_555
C13B C8A 1_555 1_555
H7B C13B 1_555 1_555
C1F C2F 1_555 1_555
C2F C5F 1_555 1_555
C3F C4F 1_555 1_555
C4F H1F 1_555 1_555
C5F H2F 1_555 1_555
C6F C3F 1_555 1_555
H3F C6F 1_555 1_555
C7F C2F 1_555 1_555
H4F C7F 1_555 1_555
O3F C1F 1_555 1_555
O4F C1F 1_555 1_555
C9F C12A 1_555 1_555
C11F C10A 1_555 1_555
H5F C11F 1_555 1_555
C1G C2G 1_555 1_555
C2G C5G 1_555 1_555
C3G C4G 1_555 1_555
C4G H1G 1_555 1_555
C5G H2G 1_555 1_555
C6G C3G 1_555 1_555
H3G C6G 1_555 1_555
C7G C2G 1_555 1_555
H4G C7G 1_555 1_555
O3G C1G 1_555 1_555
O4G C1G 1_555 1_555
C9G C12 1_555 1_555
C11G C10 1_555 1_555
H5G C11G 1_555 1_555
C1H C2H 1_555 1_555
C2H C5H 1_555 1_555
C3H C4H 1_555 1_555
C4H H1H 1_555 1_555
C5H H2H 1_555 1_555
C6H C3H 1_555 1_555
H3H C6H 1_555 1_555
C7H C2H 1_555 1_555
H4H C7H 1_555 1_555
O3H C1H 1_555 1_555
O4H C1H 1_555 1_555
C9H C12B 1_555 1_555
C11H C10B 1_555 1_555
H5H C11H 1_555 1_555
O1A Ni1A 1_555 1_555
Ni1A O4 1_555 1_555
O1B Ni1B 1_555 1_555
Ni1B O2 1_555 1_555
Ni1_2 O4B 1_555 1_555
Ni1A_2 O3A 1_555 1_555
Ni1B_2 O3B 1_555 1_555
Ni1B_3 O4A 1_555 1_555
Ni1F O4H 1_555 1_555
Ni1F_2 O3F 1_555 1_555
Ni1G O4F 1_555 1_555
Ni1G_2 O3G 1_555 1_555
Ni1H O3H 1_555 1_555
Ni1H_2 O4G 1_555 1_555
O3A_2 Ni1A 1_555 1_555
O3B_2 Ni1B 1_555 1_555
O3C Ni1 1_555 1_555
O3D Ni1A 1_555 1_555
O3E Ni1B 1_555 1_555
O4A_2 Ni1B 1_555 1_555
O4B_2 Ni1 1_555 1_555
O4C Ni1A 1_555 1_555
O4D Ni1B 1_555 1_555
O4E Ni1 1_555 1_555
C1 O3 1_555 1_555
C4 C7 1_555 1_555
C5 C6 1_555 1_555
C4A C7A 1_555 1_555
C5A C6A 1_555 1_555
C8A C13A 1_555 1_555
C4B C7B 1_555 1_555
C5B C6B 1_555 1_555
C8B C13B 1_555 1_555
C10B C11B 1_555 1_555
C3F C9F 1_555 1_555
C4F C7F 1_555 1_555
C5F C6F 1_555 1_555
C9F C11F 1_555 1_555
C3G C9G 1_555 1_555
C4G C7G 1_555 1_555
C5G C6G 1_555 1_555
C9G C11G 1_555 1_555
C3H C9H 1_555 1_555
C4H C7H 1_555 1_555
C5H C6H 1_555 1_555
C9H C11H 1_555 1_555

#END
