
#######################################################################
#
#                 Cambridge Crystallographic Data Centre
#                                CCDC 
#
#######################################################################
#
# If this CIF has been generated from an entry in the Cambridge 
# Structural Database, then it will include bibliographic, chemical, 
# crystal, experimental, refinement or atomic coordinate data resulting 
# from the CCDC's data processing and validation procedures.
#
#######################################################################

data_HANKAK
_chemical_name_common            CPM-15-Mg
_chemical_formula_moiety         '(C2 H8 N1 1+)n,n(C63 H45 In6 Mg3 O56 1-)'
_chemical_name_systematic        
'catena-[Dimethylammonium (\m~6~-benzene-1,3,5-tricarboxylato)-hexakis(\m~4~-benzene-1,3,5-tricarboxylato)-bis(\m~3~-oxo)-dodeca-aqua-penta-indium-tetra-magnesium unknown solvate]'
_symmetry_cell_setting           cubic
_symmetry_space_group_name_H-M   'F d -3 m'
_symmetry_Int_Tables_number      227
_space_group_name_Hall           '-F 4vw 2vw 3'
loop_
_symmetry_equiv_pos_site_id
_symmetry_equiv_pos_as_xyz
1 x,y,z
2 3/4-x,1/4-y,1/2+z
3 1/4-x,1/2+y,3/4-z
4 1/2+x,3/4-y,1/4-z
5 z,x,y
6 1/2+z,3/4-x,1/4-y
7 3/4-z,1/4-x,1/2+y
8 1/4-z,1/2+x,3/4-y
9 y,z,x
10 1/4-y,1/2+z,3/4-x
11 1/2+y,3/4-z,1/4-x
12 3/4-y,1/4-z,1/2+x
13 3/4+y,1/4+x,1/2-z
14 -y,-x,-z
15 1/4+y,1/2-x,3/4+z
16 1/2-y,3/4+x,1/4+z
17 3/4+x,1/4+z,1/2-y
18 1/2-x,3/4+z,1/4+y
19 -x,-z,-y
20 1/4+x,1/2-z,3/4+y
21 3/4+z,1/4+y,1/2-x
22 1/4+z,1/2-y,3/4+x
23 1/2-z,3/4+y,1/4+x
24 -z,-y,-x
25 x,1/2+y,1/2+z
26 3/4-x,3/4-y,z
27 1/4-x,y,1/4-z
28 1/2+x,1/4-y,3/4-z
29 z,1/2+x,1/2+y
30 1/2+z,1/4-x,3/4-y
31 3/4-z,3/4-x,y
32 1/4-z,x,1/4-y
33 y,1/2+z,1/2+x
34 1/4-y,z,1/4-x
35 1/2+y,1/4-z,3/4-x
36 3/4-y,3/4-z,x
37 3/4+y,3/4+x,-z
38 -y,1/2-x,1/2-z
39 1/4+y,-x,1/4+z
40 1/2-y,1/4+x,3/4+z
41 3/4+x,3/4+z,-y
42 1/2-x,1/4+z,3/4+y
43 -x,1/2-z,1/2-y
44 1/4+x,-z,1/4+y
45 3/4+z,3/4+y,-x
46 1/4+z,-y,1/4+x
47 1/2-z,1/4+y,3/4+x
48 -z,1/2-y,1/2-x
49 1/2+x,y,1/2+z
50 1/4-x,1/4-y,z
51 3/4-x,1/2+y,1/4-z
52 x,3/4-y,3/4-z
53 1/2+z,x,1/2+y
54 z,3/4-x,3/4-y
55 1/4-z,1/4-x,y
56 3/4-z,1/2+x,1/4-y
57 1/2+y,z,1/2+x
58 3/4-y,1/2+z,1/4-x
59 y,3/4-z,3/4-x
60 1/4-y,1/4-z,x
61 1/4+y,1/4+x,-z
62 1/2-y,-x,1/2-z
63 3/4+y,1/2-x,1/4+z
64 -y,3/4+x,3/4+z
65 1/4+x,1/4+z,-y
66 -x,3/4+z,3/4+y
67 1/2-x,-z,1/2-y
68 3/4+x,1/2-z,1/4+y
69 1/4+z,1/4+y,-x
70 3/4+z,1/2-y,1/4+x
71 -z,3/4+y,3/4+x
72 1/2-z,-y,1/2-x
73 1/2+x,1/2+y,z
74 1/4-x,3/4-y,1/2+z
75 3/4-x,y,3/4-z
76 x,1/4-y,1/4-z
77 1/2+z,1/2+x,y
78 z,1/4-x,1/4-y
79 1/4-z,3/4-x,1/2+y
80 3/4-z,x,3/4-y
81 1/2+y,1/2+z,x
82 3/4-y,z,3/4-x
83 y,1/4-z,1/4-x
84 1/4-y,3/4-z,1/2+x
85 1/4+y,3/4+x,1/2-z
86 1/2-y,1/2-x,-z
87 3/4+y,-x,3/4+z
88 -y,1/4+x,1/4+z
89 1/4+x,3/4+z,1/2-y
90 -x,1/4+z,1/4+y
91 1/2-x,1/2-z,-y
92 3/4+x,-z,3/4+y
93 1/4+z,3/4+y,1/2-x
94 3/4+z,-y,3/4+x
95 -z,1/4+y,1/4+x
96 1/2-z,1/2-y,-x
97 -x,-y,-z
98 1/4+x,3/4+y,1/2-z
99 3/4+x,1/2-y,1/4+z
100 1/2-x,1/4+y,3/4+z
101 -z,-x,-y
102 1/2-z,1/4+x,3/4+y
103 1/4+z,3/4+x,1/2-y
104 3/4+z,1/2-x,1/4+y
105 -y,-z,-x
106 3/4+y,1/2-z,1/4+x
107 1/2-y,1/4+z,3/4+x
108 1/4+y,3/4+z,1/2-x
109 1/4-y,3/4-x,1/2+z
110 y,x,z
111 3/4-y,1/2+x,1/4-z
112 1/2+y,1/4-x,3/4-z
113 1/4-x,3/4-z,1/2+y
114 1/2+x,1/4-z,3/4-y
115 x,z,y
116 3/4-x,1/2+z,1/4-y
117 1/4-z,3/4-y,1/2+x
118 3/4-z,1/2+y,1/4-x
119 1/2+z,1/4-y,3/4-x
120 z,y,x
121 -x,1/2-y,1/2-z
122 1/4+x,1/4+y,-z
123 3/4+x,-y,3/4+z
124 1/2-x,3/4+y,1/4+z
125 -z,1/2-x,1/2-y
126 1/2-z,3/4+x,1/4+y
127 1/4+z,1/4+x,-y
128 3/4+z,-x,3/4+y
129 -y,1/2-z,1/2-x
130 3/4+y,-z,3/4+x
131 1/2-y,3/4+z,1/4+x
132 1/4+y,1/4+z,-x
133 1/4-y,1/4-x,z
134 y,1/2+x,1/2+z
135 3/4-y,x,3/4-z
136 1/2+y,3/4-x,1/4-z
137 1/4-x,1/4-z,y
138 1/2+x,3/4-z,1/4-y
139 x,1/2+z,1/2+y
140 3/4-x,z,3/4-y
141 1/4-z,1/4-y,x
142 3/4-z,y,3/4-x
143 1/2+z,3/4-y,1/4-x
144 z,1/2+y,1/2+x
145 1/2-x,-y,1/2-z
146 3/4+x,3/4+y,-z
147 1/4+x,1/2-y,3/4+z
148 -x,1/4+y,1/4+z
149 1/2-z,-x,1/2-y
150 -z,1/4+x,1/4+y
151 3/4+z,3/4+x,-y
152 1/4+z,1/2-x,3/4+y
153 1/2-y,-z,1/2-x
154 1/4+y,1/2-z,3/4+x
155 -y,1/4+z,1/4+x
156 3/4+y,3/4+z,-x
157 3/4-y,3/4-x,z
158 1/2+y,x,1/2+z
159 1/4-y,1/2+x,3/4-z
160 y,1/4-x,1/4-z
161 3/4-x,3/4-z,y
162 x,1/4-z,1/4-y
163 1/2+x,z,1/2+y
164 1/4-x,1/2+z,3/4-y
165 3/4-z,3/4-y,x
166 1/4-z,1/2+y,3/4-x
167 z,1/4-y,1/4-x
168 1/2+z,y,1/2+x
169 1/2-x,1/2-y,-z
170 3/4+x,1/4+y,1/2-z
171 1/4+x,-y,1/4+z
172 -x,3/4+y,3/4+z
173 1/2-z,1/2-x,-y
174 -z,3/4+x,3/4+y
175 3/4+z,1/4+x,1/2-y
176 1/4+z,-x,1/4+y
177 1/2-y,1/2-z,-x
178 1/4+y,-z,1/4+x
179 -y,3/4+z,3/4+x
180 3/4+y,1/4+z,1/2-x
181 3/4-y,1/4-x,1/2+z
182 1/2+y,1/2+x,z
183 1/4-y,x,1/4-z
184 y,3/4-x,3/4-z
185 3/4-x,1/4-z,1/2+y
186 x,3/4-z,3/4-y
187 1/2+x,1/2+z,y
188 1/4-x,z,1/4-y
189 3/4-z,1/4-y,1/2+x
190 1/4-z,y,1/4-x
191 z,3/4-y,3/4-x
192 1/2+z,1/2+y,x
_cell_length_a                   50.6795(7)
_cell_length_b                   50.6795(7)
_cell_length_c                   50.6795(7)
_cell_angle_alpha                90
_cell_angle_beta                 90
_cell_angle_gamma                90
_cell_volume                     130166
_cell_formula_units_Z            32
loop_
_atom_site_label
_atom_site_type_symbol
_atom_site_fract_x
_atom_site_fract_y
_atom_site_fract_z
_atom_site_U_iso_or_equiv
_atom_site_thermal_displace_type
In1 In -0.12220(2) 1.12220(2) 0.0000 0.0482 Uani
In2 In -0.32352(3) 1.07352(3) 0.02303(5) 0.0692 Uani
O1 O -0.1105(3) 1.0998(2) 0.0337(2) 0.0797 Uani
O2 O -0.0754(3) 1.1209(3) 0.0221(3) 0.1113 Uani
O3 O 0.0113(4) 1.0618(5) 0.0930(4) 0.2280 Uani
O4 O -0.16332(19) 1.10758(19) 0.0131(2) 0.0527 Uani
O5 O -0.1580(2) 1.1287(2) -0.0245(2) 0.0660 Uani
O6 O -0.28670(18) 1.07854(18) 0.00490(17) 0.0440 Uani
O7 O -0.3043(3) 1.0543(3) 0.0543(3) 0.0500 Uani
O8 O -0.36162(17) 1.07083(17) 0.03910(18) 0.0390 Uani
O9 O 0.0502(4) 1.0502(4) 0.0502(4) 0.0850 Uani
C1 C -0.0869(5) 1.1046(4) 0.0368(4) 0.0730 Uiso
C2 C -0.0856(4) 1.0719(3) 0.0719(3) 0.0543 Uani
C3 C -0.0720(4) 1.0911(4) 0.0571(4) 0.0730 Uiso
C4 C -0.0437(4) 1.0938(4) 0.0584(4) 0.0980 Uiso
C5 C -0.0299(7) 1.0762(5) 0.0762(5) 0.1310 Uiso
C6 C 0.0009(10) 1.0774(6) 0.0774(6) 0.1390 Uiso
C7 C -0.1722(4) 1.1153(3) -0.0076(4) 0.0460 Uiso
C8 C -0.2078(3) 1.1169(4) -0.0422(3) 0.0410 Uiso
C9 C -0.2001(3) 1.1108(3) -0.0160(3) 0.0497 Uani
C10 C -0.2179(3) 1.0990(3) 0.0020(3) 0.0330 Uiso
C11 C -0.2436(3) 1.0950(4) -0.0064(3) 0.0400 Uiso
C12 C -0.2635(3) 1.0830(4) 0.0135(3) 0.0330 Uiso
C13 C -0.3717(4) 1.0588(3) 0.0588(3) 0.0180 Uiso
C14 C -0.3967(4) 1.0690(3) 0.0690(3) 0.0260 Uiso
C15 C -0.4083(3) 1.0917(3) 0.0574(4) 0.0370 Uiso
O10 O -0.34098(19) 1.09098(19) -0.0105(2) 0.0530 Uani
O11 O 0.0316(5) 1.0316(5) 0.1317(6) 0.2320 Uiso
O12 O 0.0673(5) 1.0673(5) 0.1069(7) 0.2190 Uiso
O13 O 0.0136(4) 1.0136(4) 0.0718(5) 0.2070 Uiso
Mg3 Mg 0.0402(4) 1.0402(4) 0.0935(5) 0.0750 Uani
In1ZC In -0.12220(2) 1.0000 0.12220(2) 0.0482 Uani
In1VC In 0.0000 1.12220(2) -0.12220(2) 0.0482 Uani
In1WD In -0.2500 1.12220(2) -0.12780(2) 0.0482 Uani
In1XE In -0.12220(2) 1.2500 0.12780(2) 0.0482 Uani
In1OE In -0.37220(2) 0.87220(2) 0.0000 0.0482 Uani
In1CC In -0.37220(2) 1.0000 -0.12780(2) 0.0482 Uani
In1RC In 0.12220(2) 0.87780(2) 0.0000 0.0482 Uani
In1D In 0.0000 0.87780(2) 0.12220(2) 0.0482 Uani
In2DA In -0.27303(5) 1.07352(3) 0.07352(3) 0.0692 Uani
In2M In -0.07352(3) 1.32352(3) -0.02303(5) 0.0692 Uani
In2CC In -0.32352(3) 1.02303(5) 0.07352(3) 0.0692 Uani
In2XB In -0.47697(5) 1.17648(3) 0.07352(3) 0.0692 Uani
In2WA In -0.42648(3) 1.17648(3) 0.02303(5) 0.0692 Uani
In2DB In -0.42648(3) 1.02303(5) 0.17648(3) 0.0692 Uani
In2E In -0.47697(5) 1.07352(3) 0.17648(3) 0.0692 Uani
In2LB In -0.07352(3) 1.27303(5) -0.07352(3) 0.0692 Uani
O1JD O -0.1105(3) 1.0337(2) 0.0998(2) 0.0797 Uani
O1M O -0.0998(2) 1.1105(3) -0.0337(2) 0.0797 Uani
O1VC O -0.0337(2) 1.1105(3) -0.0998(2) 0.0797 Uani
O1ED O 0.0998(2) 0.8895(3) 0.0337(2) 0.0797 Uani
O1D O 0.0337(2) 0.8895(3) 0.0998(2) 0.0797 Uani
O1ZC O -0.0998(2) 0.9663(2) 0.1105(3) 0.0797 Uani
O1OD O 0.0337(2) 1.0998(2) -0.1105(3) 0.0797 Uani
O2JD O -0.0754(3) 1.0221(3) 0.1209(3) 0.1113 Uani
O2M O -0.1209(3) 1.0754(3) -0.0221(3) 0.1113 Uani
O2VC O -0.0221(3) 1.0754(3) -0.1209(3) 0.1113 Uani
O2ED O 0.1209(3) 0.9246(3) 0.0221(3) 0.1113 Uani
O2D O 0.0221(3) 0.9246(3) 0.1209(3) 0.1113 Uani
O2ZC O -0.1209(3) 0.9779(3) 0.0754(3) 0.1113 Uani
O2OD O 0.0221(3) 1.1209(3) -0.0754(3) 0.1113 Uani
O3JD O 0.0113(4) 1.0930(4) 0.0618(5) 0.2280 Uani
O3M O -0.0618(5) 0.9887(4) -0.0930(4) 0.2280 Uani
O3VC O -0.0930(4) 0.9887(4) -0.0618(5) 0.2280 Uani
O3ED O 0.0618(5) 1.0113(4) 0.0930(4) 0.2280 Uani
O3D O 0.0930(4) 1.0113(4) 0.0618(5) 0.2280 Uani
O3H O 0.0618(5) 1.0930(4) 0.0113(4) 0.2280 Uani
O3RC O -0.0113(4) 0.9382(5) -0.0930(4) 0.2280 Uani
O4KE O -0.2631(2) 1.10758(19) -0.08668(19) 0.0527 Uani
O4M O -0.10758(19) 1.16332(19) -0.0131(2) 0.0527 Uani
O4XE O -0.10758(19) 1.2631(2) 0.08668(19) 0.0527 Uani
O4ZE O -0.35758(19) 0.91332(19) 0.0131(2) 0.0527 Uani
O4CC O -0.35758(19) 1.0131(2) -0.08668(19) 0.0527 Uani
O4JD O -0.16332(19) 1.0131(2) 0.10758(19) 0.0527 Uani
O4ZC O -0.10758(19) 0.9869(2) 0.16332(19) 0.0527 Uani
O4VC O -0.0131(2) 1.16332(19) -0.10758(19) 0.0527 Uani
O4OD O 0.0131(2) 1.10758(19) -0.16332(19) 0.0527 Uani
O5KE O -0.2255(2) 1.1287(2) -0.0920(2) 0.0660 Uani
O5M O -0.1287(2) 1.1580(2) 0.0245(2) 0.0660 Uani
O5XE O -0.1287(2) 1.2255(2) 0.0920(2) 0.0660 Uani
O5ZE O -0.3787(2) 0.9080(2) -0.0245(2) 0.0660 Uani
O5CC O -0.3787(2) 0.9755(2) -0.0920(2) 0.0660 Uani
O5JD O -0.1580(2) 0.9755(2) 0.1287(2) 0.0660 Uani
O5ZC O -0.1287(2) 1.0245(2) 0.1580(2) 0.0660 Uani
O5VC O 0.0245(2) 1.1580(2) -0.1287(2) 0.0660 Uani
O5OD O -0.0245(2) 1.1287(2) -0.1580(2) 0.0660 Uani
O6KE O -0.25490(17) 1.07854(18) 0.03670(18) 0.0440 Uani
O6M O -0.07854(18) 1.28670(18) -0.00490(17) 0.0440 Uani
O6XE O -0.07854(18) 1.25490(17) -0.03670(18) 0.0440 Uani
O6ZE O -0.32854(18) 1.03670(18) 0.00490(17) 0.0440 Uani
O6CC O -0.32854(18) 1.00490(17) 0.03670(18) 0.0440 Uani
O6DA O -0.25490(17) 1.03670(18) 0.07854(18) 0.0440 Uani
O6QD O -0.03670(18) 1.32854(18) -0.00490(17) 0.0440 Uani
O7M O -0.0543(3) 1.3043(3) -0.0543(3) 0.0500 Uani
O8JD O -0.36162(17) 1.03910(18) 0.07083(17) 0.0390 Uani
O8XB O -0.46090(18) 1.13838(17) 0.07083(17) 0.0390 Uani
O8YF O -0.42917(17) 1.13838(17) 0.03910(18) 0.0390 Uani
O8DB O -0.42917(17) 1.03910(18) 0.13838(17) 0.0390 Uani
O8KF O -0.46090(18) 1.07083(17) 0.13838(17) 0.0390 Uani
O8ZE O -0.32083(17) 1.11162(17) 0.03910(18) 0.0390 Uani
O8KE O -0.28910(18) 1.07083(17) 0.11162(17) 0.0390 Uani
O8DA O -0.28910(18) 1.11162(17) 0.07083(17) 0.0390 Uani
O8M O -0.07083(17) 1.36162(17) -0.03910(18) 0.0390 Uani
O8QD O -0.11162(17) 1.32083(17) -0.03910(18) 0.0390 Uani
O9M O -0.0502(4) 0.9498(4) -0.0502(4) 0.0850 Uani
C1JD C -0.0869(5) 1.0368(4) 0.1046(4) 0.0730 Uiso
C1M C -0.1046(4) 1.0869(5) -0.0368(4) 0.0730 Uiso
C1VC C -0.0368(4) 1.0869(5) -0.1046(4) 0.0730 Uiso
C1ED C 0.1046(4) 0.9131(5) 0.0368(4) 0.0730 Uiso
C1D C 0.0368(4) 0.9131(5) 0.1046(4) 0.0730 Uiso
C2M C -0.0719(3) 1.0856(4) -0.0719(3) 0.0543 Uani
C2D C 0.0719(3) 0.9144(4) 0.0719(3) 0.0543 Uani
C3JD C -0.0720(4) 1.0571(4) 0.0911(4) 0.0730 Uiso
C3M C -0.0911(4) 1.0720(4) -0.0571(4) 0.0730 Uiso
C3VC C -0.0571(4) 1.0720(4) -0.0911(4) 0.0730 Uiso
C3ED C 0.0911(4) 0.9280(4) 0.0571(4) 0.0730 Uiso
C3D C 0.0571(4) 0.9280(4) 0.0911(4) 0.0730 Uiso
C4JD C -0.0437(4) 1.0584(4) 0.0938(4) 0.0980 Uiso
C4M C -0.0938(4) 1.0437(4) -0.0584(4) 0.0980 Uiso
C4VC C -0.0584(4) 1.0437(4) -0.0938(4) 0.0980 Uiso
C4ED C 0.0938(4) 0.9563(4) 0.0584(4) 0.0980 Uiso
C4D C 0.0584(4) 0.9563(4) 0.0938(4) 0.0980 Uiso
C5M C -0.0762(5) 1.0299(7) -0.0762(5) 0.1310 Uiso
C5D C 0.0762(5) 0.9701(7) 0.0762(5) 0.1310 Uiso
C6M C -0.0774(6) 0.9991(10) -0.0774(6) 0.1390 Uiso
C6D C 0.0774(6) 1.0009(10) 0.0774(6) 0.1390 Uiso
C7KE C -0.2424(4) 1.1153(3) -0.0778(4) 0.0460 Uiso
C7M C -0.1153(3) 1.1722(4) 0.0076(4) 0.0460 Uiso
C7XE C -0.1153(3) 1.2424(4) 0.0778(4) 0.0460 Uiso
C7ZE C -0.3653(3) 0.9222(4) -0.0076(4) 0.0460 Uiso
C7CC C -0.3653(3) 0.9924(4) -0.0778(4) 0.0460 Uiso
C8M C -0.1169(4) 1.2078(3) 0.0422(3) 0.0410 Uiso
C8CC C -0.3669(4) 0.9578(3) -0.0422(3) 0.0410 Uiso
C9KE C -0.2340(3) 1.1108(3) -0.0499(3) 0.0497 Uani
C9M C -0.1108(3) 1.2001(3) 0.0160(3) 0.0497 Uani
C9XE C -0.1108(3) 1.2340(3) 0.0499(3) 0.0497 Uani
C9ZE C -0.3608(3) 0.9501(3) -0.0160(3) 0.0497 Uani
C9CC C -0.3608(3) 0.9840(3) -0.0499(3) 0.0497 Uani
C10KE C -0.2520(3) 1.0990(3) -0.0321(3) 0.0330 Uiso
C10M C -0.0990(3) 1.2179(3) -0.0020(3) 0.0330 Uiso
C10XE C -0.0990(3) 1.2520(3) 0.0321(3) 0.0330 Uiso
C10ZE C -0.3490(3) 0.9679(3) 0.0020(3) 0.0330 Uiso
C10CC C -0.3490(3) 1.0020(3) -0.0321(3) 0.0330 Uiso
C11M C -0.0950(4) 1.2436(3) 0.0064(3) 0.0400 Uiso
C11CC C -0.3450(4) 0.9936(3) -0.0064(3) 0.0400 Uiso
C12M C -0.0830(4) 1.2635(3) -0.0135(3) 0.0330 Uiso
C12CC C -0.3330(4) 1.0135(3) 0.0135(3) 0.0330 Uiso
C13XB C -0.4412(3) 1.1283(4) 0.0588(3) 0.0180 Uiso
C13DB C -0.4412(3) 1.0588(3) 0.1283(4) 0.0180 Uiso
C14XB C -0.4310(3) 1.1033(4) 0.0690(3) 0.0260 Uiso
C14DB C -0.4310(3) 1.0690(3) 0.1033(4) 0.0260 Uiso
C15XB C -0.4426(4) 1.0917(3) 0.0917(3) 0.0370 Uiso
C15DB C -0.4083(3) 1.0574(4) 0.0917(3) 0.0370 Uiso
O10DA O -0.2395(2) 1.09098(19) 0.09098(19) 0.0530 Uani
O10M O -0.09098(19) 1.34098(19) 0.0105(2) 0.0530 Uani
O11H O 0.0316(5) 1.1317(6) 0.0316(5) 0.2320 Uiso
O11M O -0.0316(5) 0.9684(5) -0.1317(6) 0.2320 Uiso
O12H O 0.0673(5) 1.1069(7) 0.0673(5) 0.2190 Uiso
O12M O -0.0673(5) 0.9327(5) -0.1069(7) 0.2190 Uiso
O13H O 0.0136(4) 1.0718(5) 0.0136(4) 0.2070 Uiso
O13M O -0.0136(4) 0.9864(4) -0.0718(5) 0.2070 Uiso
Mg3H Mg 0.0402(4) 1.0935(5) 0.0402(4) 0.0750 Uani
Mg3M Mg -0.0402(4) 0.9598(4) -0.0935(5) 0.0750 Uani
Mg3D Mg 0.0935(5) 1.0402(4) 0.0402(4) 0.0750 Uani
Mg3W Mg -0.0935(5) 0.9598(4) -0.0402(4) 0.0750 Uani
Mg1? Mg -0.32352(3) 1.07352(3) 0.02303(5) 0.0692 Uani
Mg2? Mg 0.0533(4) 1.0533(4) 0.0939(4) 0.0507 Uani
loop_
_atom_site_aniso_label
_atom_site_aniso_U_11
_atom_site_aniso_U_22
_atom_site_aniso_U_33
_atom_site_aniso_U_23
_atom_site_aniso_U_13
_atom_site_aniso_U_12
In1 0.0453(11) 0.0453(11) 0.0540(15) 0.0043(6) 0.0043(6) -0.0163(9)
In2 0.0723(15) 0.0723(15) 0.063(2) -0.0052(11) 0.0052(11) 0.0030(16)
O1 0.057(9) 0.077(9) 0.105(10) 0.033(7) -0.006(8) -0.010(7)
O2 0.120(12) 0.116(12) 0.098(11) 0.042(10) -0.007(10) -0.010(9)
O3 0.124(17) 0.35(3) 0.21(2) 0.09(2) -0.071(14) 0.018(18)
O4 0.056(8) 0.058(8) 0.044(8) 0.017(6) -0.003(7) -0.014(6)
O5 0.060(8) 0.077(9) 0.061(8) -0.003(7) 0.007(7) -0.032(7)
O6 0.045(8) 0.055(7) 0.032(7) -0.013(6) 0.007(6) 0.008(6)
O7 0.050(7) 0.050(7) 0.050(7) 0.019(9) -0.019(9) -0.019(9)
O8 0.031(7) 0.037(7) 0.049(7) 0.008(6) 0.017(5) 0.011(5)
O9 0.085(10) 0.085(10) 0.085(10) 0.028(12) 0.028(12) 0.028(12)
C2 0.069(18) 0.047(10) 0.047(10) 0.008(14) 0.015(10) 0.015(10)
C9 0.033(12) 0.064(12) 0.052(13) -0.006(10) 0.002(11) 0.012(10)
O10 0.057(7) 0.057(7) 0.045(10) 0.004(6) -0.004(6) -0.003(8)
Mg3 0.069(12) 0.069(12) 0.087(18) -0.027(12) -0.027(12) -0.041(16)
In1ZC 0.0453 0.054 0.0453 0.0043 -0.0163 0.0043
In1VC 0.054 0.0453 0.0453 -0.0163 0.0043 0.0043
In1WD 0.054 0.0453 0.0453 0.0163 0.0043 -0.0043
In1XE 0.0453 0.054 0.0453 0.0043 0.0163 -0.0043
In1OE 0.0453 0.0453 0.054 -0.0043 -0.0043 -0.0163
In1CC 0.0453 0.054 0.0453 -0.0043 -0.0163 -0.0043
In1RC 0.0453 0.0453 0.054 0.0043 0.0043 -0.0163
In1D 0.054 0.0453 0.0453 -0.0163 0.0043 0.0043
In2DA 0.063 0.0723 0.0723 -0.003 0.0052 0.0052
In2M 0.0723 0.0723 0.063 0.0052 -0.0052 0.003
In2CC 0.0723 0.063 0.0723 -0.0052 0.003 0.0052
In2XB 0.063 0.0723 0.0723 0.003 -0.0052 0.0052
In2WA 0.0723 0.0723 0.063 0.0052 -0.0052 0.003
In2DB 0.0723 0.063 0.0723 0.0052 0.003 -0.0052
In2E 0.063 0.0723 0.0723 0.003 0.0052 -0.0052
In2LB 0.0723 0.063 0.0723 0.0052 -0.003 0.0052
O1JD 0.057 0.105 0.077 0.033 -0.01 -0.006
O1M 0.077 0.057 0.105 -0.006 0.033 -0.01
O1VC 0.105 0.057 0.077 -0.01 0.033 -0.006
O1ED 0.077 0.057 0.105 -0.006 0.033 -0.01
O1D 0.105 0.057 0.077 -0.01 0.033 -0.006
O1ZC 0.077 0.105 0.057 -0.006 -0.01 0.033
O1OD 0.105 0.077 0.057 -0.01 -0.006 0.033
O2JD 0.12 0.098 0.116 0.042 -0.01 -0.007
O2M 0.116 0.12 0.098 -0.007 0.042 -0.01
O2VC 0.098 0.12 0.116 -0.01 0.042 -0.007
O2ED 0.116 0.12 0.098 -0.007 0.042 -0.01
O2D 0.098 0.12 0.116 -0.01 0.042 -0.007
O2ZC 0.116 0.098 0.12 -0.007 -0.01 0.042
O2OD 0.098 0.116 0.12 -0.01 -0.007 0.042
O3JD 0.124 0.21 0.35 0.09 0.018 -0.071
O3M 0.35 0.124 0.21 -0.071 0.09 0.018
O3VC 0.21 0.124 0.35 0.018 0.09 -0.071
O3ED 0.35 0.124 0.21 -0.071 0.09 0.018
O3D 0.21 0.124 0.35 0.018 0.09 -0.071
O3H 0.35 0.21 0.124 -0.071 0.018 0.09
O3RC 0.124 0.35 0.21 0.09 -0.071 0.018
O4KE 0.044 0.058 0.056 0.014 -0.003 -0.017
O4M 0.058 0.056 0.044 -0.003 0.017 -0.014
O4XE 0.058 0.044 0.056 -0.003 0.014 -0.017
O4ZE 0.058 0.056 0.044 0.003 -0.017 -0.014
O4CC 0.058 0.044 0.056 0.003 -0.014 -0.017
O4JD 0.056 0.044 0.058 0.017 -0.014 -0.003
O4ZC 0.058 0.044 0.056 -0.003 -0.014 0.017
O4VC 0.044 0.056 0.058 -0.014 0.017 -0.003
O4OD 0.044 0.058 0.056 -0.014 -0.003 0.017
O5KE 0.061 0.077 0.06 0.032 0.007 0.003
O5M 0.077 0.06 0.061 0.007 -0.003 -0.032
O5XE 0.077 0.061 0.06 0.007 0.032 0.003
O5ZE 0.077 0.06 0.061 -0.007 0.003 -0.032
O5CC 0.077 0.061 0.06 -0.007 -0.032 0.003
O5JD 0.06 0.061 0.077 -0.003 -0.032 0.007
O5ZC 0.077 0.061 0.06 0.007 -0.032 -0.003
O5VC 0.061 0.06 0.077 -0.032 -0.003 0.007
O5OD 0.061 0.077 0.06 -0.032 0.007 -0.003
O6KE 0.032 0.055 0.045 -0.008 0.007 0.013
O6M 0.055 0.045 0.032 0.007 -0.013 0.008
O6XE 0.055 0.032 0.045 0.007 -0.008 0.013
O6ZE 0.055 0.045 0.032 -0.007 0.013 0.008
O6CC 0.055 0.032 0.045 -0.007 0.008 0.013
O6DA 0.032 0.045 0.055 -0.008 0.013 0.007
O6QD 0.045 0.055 0.032 0.013 -0.007 0.008
O7M 0.05 0.05 0.05 -0.019 0.019 -0.019
O8JD 0.031 0.049 0.037 0.008 0.011 0.017
O8XB 0.049 0.031 0.037 0.011 0.008 0.017
O8YF 0.037 0.031 0.049 0.017 0.008 0.011
O8DB 0.037 0.049 0.031 0.017 0.011 0.008
O8KF 0.049 0.037 0.031 0.011 0.017 0.008
O8ZE 0.037 0.031 0.049 -0.017 -0.008 0.011
O8KE 0.049 0.037 0.031 -0.011 0.017 -0.008
O8DA 0.049 0.031 0.037 -0.011 -0.008 0.017
O8M 0.037 0.031 0.049 0.017 0.008 0.011
O8QD 0.031 0.037 0.049 -0.008 -0.017 0.011
O9M 0.085 0.085 0.085 0.028 0.028 0.028
C2M 0.047 0.069 0.047 0.015 0.008 0.015
C2D 0.047 0.069 0.047 0.015 0.008 0.015
C9KE 0.052 0.064 0.033 -0.012 0.002 0.006
C9M 0.064 0.033 0.052 0.002 -0.006 0.012
C9XE 0.064 0.052 0.033 0.002 -0.012 0.006
C9ZE 0.064 0.033 0.052 -0.002 0.006 0.012
C9CC 0.064 0.052 0.033 -0.002 0.012 0.006
O10DA 0.045 0.057 0.057 0.003 -0.004 -0.004
O10M 0.057 0.057 0.045 -0.004 0.004 -0.003
Mg3H 0.069 0.087 0.069 -0.027 -0.041 -0.027
Mg3M 0.069 0.069 0.087 -0.027 -0.027 -0.041
Mg3D 0.087 0.069 0.069 -0.041 -0.027 -0.027
Mg3W 0.087 0.069 0.069 -0.041 -0.027 -0.027
Mg1? 0.0723(15) 0.0723(15) 0.063(2) -0.0052(11) 0.0052(11) 0.0030(16)
Mg2? 0.048(8) 0.048(8) 0.056(13) -0.011(11) -0.011(11) -0.004(12)
loop_
_geom_bond_atom_site_label_1
_geom_bond_atom_site_label_2
_geom_bond_site_symmetry_1
_geom_bond_site_symmetry_2
In1 O1 1_555 1_555
In2 O6 1_555 1_555
O1 C1 1_555 1_555
O2 In1 1_555 1_555
O3 C6 1_555 1_555
O4 In1 1_555 1_555
O5 In1 1_555 1_555
O6 C12 1_555 1_555
O7 In2 1_555 1_555
O8 In2 1_555 1_555
O9 Mg3 1_555 1_555
C1 O2 1_555 1_555
C2 C3 1_555 1_555
C3 C1 1_555 1_555
C4 C3 1_555 1_555
C5 C4 1_555 1_555
C6 C5 1_555 1_555
C7 O4 1_555 1_555
C8 C9 1_555 1_555
C9 C7 1_555 1_555
C10 C9 1_555 1_555
C11 C10 1_555 1_555
C12 C11 1_555 1_555
C13 O8 1_555 1_555
C14 C13 1_555 1_555
C15 C14 1_555 1_555
O10 In2 1_555 1_555
O11 Mg3 1_555 1_555
O12 Mg3 1_555 1_555
O13 Mg3 1_555 1_555
Mg3 O3 1_555 1_555
In1ZC O1JD 1_555 1_555
In1VC O1VC 1_555 1_555
In1WD O4KE 1_555 1_555
In1XE O4XE 1_555 1_555
In1OE O4ZE 1_555 1_555
In1CC O4CC 1_555 1_555
In1RC O1ED 1_555 1_555
In1D O1D 1_555 1_555
In2DA O7 1_555 1_555
In2M O6M 1_555 1_555
In2CC O7 1_555 1_555
In2XB O8XB 1_555 1_555
In2WA O8YF 1_555 1_555
In2DB O8DB 1_555 1_555
In2E O8KF 1_555 1_555
In2LB O6XE 1_555 1_555
O1JD C1JD 1_555 1_555
O1M In1 1_555 1_555
O1VC C1VC 1_555 1_555
O1ED C1ED 1_555 1_555
O1D C1D 1_555 1_555
O1ZC In1ZC 1_555 1_555
O1OD In1VC 1_555 1_555
O2JD In1ZC 1_555 1_555
O2M In1 1_555 1_555
O2VC In1VC 1_555 1_555
O2ED In1RC 1_555 1_555
O2D In1D 1_555 1_555
O2ZC In1ZC 1_555 1_555
O2OD In1VC 1_555 1_555
O3JD C6 1_555 1_555
O3M C6M 1_555 1_555
O3VC C6M 1_555 1_555
O3ED Mg3 1_555 1_555
O3D C6D 1_555 1_555
O3H Mg3H 1_555 1_555
O3RC Mg3M 1_555 1_555
O4KE C7KE 1_555 1_555
O4M In1 1_555 1_555
O4XE C7XE 1_555 1_555
O4ZE C7ZE 1_555 1_555
O4CC C7CC 1_555 1_555
O4JD In1ZC 1_555 1_555
O4ZC In1ZC 1_555 1_555
O4VC In1VC 1_555 1_555
O4OD In1VC 1_555 1_555
O5KE In1WD 1_555 1_555
O5M In1 1_555 1_555
O5XE In1XE 1_555 1_555
O5ZE In1OE 1_555 1_555
O5CC In1CC 1_555 1_555
O5JD In1ZC 1_555 1_555
O5ZC In1ZC 1_555 1_555
O5VC In1VC 1_555 1_555
O5OD In1VC 1_555 1_555
O6KE C12 1_555 1_555
O6M C12M 1_555 1_555
O6XE C12M 1_555 1_555
O6ZE In2 1_555 1_555
O6CC In2CC 1_555 1_555
O6DA In2DA 1_555 1_555
O6QD In2M 1_555 1_555
O7M In2M 1_555 1_555
O8JD C13 1_555 1_555
O8XB C13XB 1_555 1_555
O8YF C13XB 1_555 1_555
O8DB C13DB 1_555 1_555
O8KF C13DB 1_555 1_555
O8ZE In2 1_555 1_555
O8KE In2DA 1_555 1_555
O8DA In2DA 1_555 1_555
O8M In2M 1_555 1_555
O8QD In2M 1_555 1_555
O9M Mg3M 1_555 1_555
C1JD O2JD 1_555 1_555
C1M O1M 1_555 1_555
C1VC O2VC 1_555 1_555
C1ED O2ED 1_555 1_555
C1D O2D 1_555 1_555
C2M C3M 1_555 1_555
C2D C3ED 1_555 1_555
C3JD C2 1_555 1_555
C3M C1M 1_555 1_555
C3VC C1VC 1_555 1_555
C3ED C1ED 1_555 1_555
C3D C1D 1_555 1_555
C4JD C5 1_555 1_555
C4M C3M 1_555 1_555
C4VC C3VC 1_555 1_555
C4ED C3ED 1_555 1_555
C4D C3D 1_555 1_555
C5M C4M 1_555 1_555
C5D C4ED 1_555 1_555
C6M C5M 1_555 1_555
C6D O3ED 1_555 1_555
C7KE O5KE 1_555 1_555
C7M O4M 1_555 1_555
C7XE O5XE 1_555 1_555
C7ZE O5ZE 1_555 1_555
C7CC O5CC 1_555 1_555
C8M C9M 1_555 1_555
C8CC C9ZE 1_555 1_555
C9KE C8 1_555 1_555
C9M C7M 1_555 1_555
C9XE C7XE 1_555 1_555
C9ZE C7ZE 1_555 1_555
C9CC C7CC 1_555 1_555
C10KE C11 1_555 1_555
C10M C9M 1_555 1_555
C10XE C9XE 1_555 1_555
C10ZE C9ZE 1_555 1_555
C10CC C9CC 1_555 1_555
C11M C10M 1_555 1_555
C11CC C10ZE 1_555 1_555
C12M C11M 1_555 1_555
C12CC O6ZE 1_555 1_555
C13XB C14XB 1_555 1_555
C13DB C14DB 1_555 1_555
C14XB C15 1_555 1_555
C14DB C15XB 1_555 1_555
C15XB C14XB 1_555 1_555
C15DB C14 1_555 1_555
O10DA In2DA 1_555 1_555
O10M In2M 1_555 1_555
O11H Mg3H 1_555 1_555
O11M Mg3M 1_555 1_555
O12H Mg3H 1_555 1_555
O12M Mg3M 1_555 1_555
O13H Mg3H 1_555 1_555
O13M Mg3M 1_555 1_555
Mg3H O9 1_555 1_555
Mg3M O3M 1_555 1_555
Mg3D O9 1_555 1_555
Mg3W O3VC 1_555 1_555
O5 C7 1_555 1_555
In2DA O6KE 1_555 1_555
In2CC O8JD 1_555 1_555
In2LB O7M 1_555 1_555
O2M C1M 1_555 1_555
O3JD Mg3H 1_555 1_555
O3D Mg3D 1_555 1_555
O5M C7M 1_555 1_555
O6CC C12CC 1_555 1_555
O9M Mg3W 1_555 1_555
C1JD C3JD 1_555 1_555
C2M C3VC 1_555 1_555
C2D C3D 1_555 1_555
C3JD C4JD 1_555 1_555
C4VC C5M 1_555 1_555
C4D C5D 1_555 1_555
C5D C6D 1_555 1_555
C7KE C9KE 1_555 1_555
C8M C9XE 1_555 1_555
C8CC C9CC 1_555 1_555
C9KE C10KE 1_555 1_555
C10XE C11M 1_555 1_555
C10CC C11CC 1_555 1_555
C11CC C12CC 1_555 1_555
C14DB C15DB 1_555 1_555

#END
