
#######################################################################
#
#                 Cambridge Crystallographic Data Centre
#                                CCDC 
#
#######################################################################
#
# If this CIF has been generated from an entry in the Cambridge 
# Structural Database, then it will include bibliographic, chemical, 
# crystal, experimental, refinement or atomic coordinate data resulting 
# from the CCDC's data processing and validation procedures.
#
#######################################################################

data_WOQTUT
_chemical_name_common            'CPO-27-Fe methanol solvate'
_chemical_formula_moiety         '(C10 H10 Fe2 O8)n,2n(C1 H4 O1)'
_chemical_name_systematic        
'catena-((\m~8~-2,5-Dioxyterephthalato)-bis(methanol)-di-iron methanol solvate)'
_symmetry_cell_setting           rhombohedral
_symmetry_space_group_name_H-M   'R -3'
_symmetry_Int_Tables_number      148
_space_group_name_Hall           '-R 3'
loop_
_symmetry_equiv_pos_site_id
_symmetry_equiv_pos_as_xyz
1 x,y,z
2 1/3+x,2/3+y,2/3+z
3 2/3+x,1/3+y,1/3+z
4 -y,x-y,z
5 -x+y,-x,z
6 1/3-y,2/3+x-y,2/3+z
7 1/3-x+y,2/3-x,2/3+z
8 2/3-y,1/3+x-y,1/3+z
9 2/3-x+y,1/3-x,1/3+z
10 -x,-y,-z
11 2/3-x,1/3-y,1/3-z
12 1/3-x,2/3-y,2/3-z
13 y,-x+y,-z
14 x-y,x,-z
15 2/3+y,1/3-x+y,1/3-z
16 2/3+x-y,1/3+x,1/3-z
17 1/3+y,2/3-x+y,2/3-z
18 1/3+x-y,2/3+x,2/3-z
_cell_length_a                   26.2736(8)
_cell_length_b                   26.2736(8)
_cell_length_c                   6.7213(2)
_cell_angle_alpha                90
_cell_angle_beta                 90
_cell_angle_gamma                120
_cell_volume                     4018.12
_cell_formula_units_Z            9
_chemical_properties_physical    Oxygen-sensitive
loop_
_atom_site_label
_atom_site_type_symbol
_atom_site_fract_x
_atom_site_fract_y
_atom_site_fract_z
C1 C 0.4218(2) 0.4083(2) 0.2533(7)
C2 C 0.46110(18) 0.45280(19) 0.1233(5)
C3 C 0.5573(2) 0.5422(3) 0.0698(6)
C4 C 0.5183(2) 0.4968(3) 0.1958(6)
H1 H 0.5291(7) 0.4955(9) 0.3329(16)
Fe1 Fe 0.61356(12) 0.64838(11) 0.3442(4)
O1 O 0.4391(3) 0.4046(3) 0.4259(7)
O2 O 0.37463(19) 0.3660(2) 0.1858(10)
O3 O 0.61027(16) 0.5867(3) 0.1447(9)
O4 O 0.5429(9) 0.6578(5) 0.197(2)
H2 H 0.5633(20) 0.6360(12) 0.192(19)
C5 C 0.4851(9) 0.6149(6) 0.222(2)
H3 H 0.460(4) 0.625(3) 0.129(9)
H4 H 0.4811(14) 0.5745(4) 0.181(14)
H5 H 0.474(5) 0.614(3) 0.372(6)
C1I C 0.5782(2) 0.5917(2) -0.2533(7)
C2I C 0.53890(18) 0.54720(19) -0.1233(5)
C3I C 0.4427(2) 0.4578(3) -0.0698(6)
C4I C 0.4817(2) 0.5032(3) -0.1958(6)
H1I H 0.4709(7) 0.5045(9) -0.3329(16)
O1I O 0.5609(3) 0.5954(3) -0.4259(7)
O2I O 0.62537(19) 0.6340(2) -0.1858(10)
O3I O 0.38973(16) 0.4133(3) -0.1447(9)
Fe1I Fe 0.38644(12) 0.35162(11) -0.3442(4)
O4I O 0.4571(9) 0.3422(5) -0.197(2)
H2I H 0.4367(20) 0.3640(12) -0.192(19)
C5I C 0.5149(9) 0.3851(6) -0.222(2)
H3I H 0.540(4) 0.375(3) -0.129(9)
H4I H 0.5189(14) 0.4255(4) -0.181(14)
H5I H 0.526(5) 0.386(3) -0.372(6)
Fe1_2 Fe 0.61356(12) 0.64838(11) -0.6558(4)
Fe1E Fe 0.68495(11) 0.63185(16) 0.0109(4)
Fe1H Fe 0.70149(16) 0.71977(12) -0.3225(4)
Fe1I_2 Fe 0.38644(12) 0.35162(11) 0.6558(4)
Fe1N Fe 0.31505(11) 0.36815(16) -0.0109(4)
Fe1Q Fe 0.29851(16) 0.28023(12) 0.3225(4)
O1_2 O 0.4391(3) 0.4046(3) -0.5741(7)
O1I_2 O 0.5609(3) 0.5954(3) 0.5741(7)
O2F O 0.32470(28) 0.29204(19) -0.1475(10)
O2G O 0.3007(2) 0.34196(28) -0.4809(10)
O2O O 0.67530(28) 0.70796(19) 0.1475(10)
O2P O 0.6993(2) 0.65804(28) 0.4809(10)
O3H O 0.64310(34) 0.72306(16) 0.4780(9)
O3Q O 0.35690(34) 0.27694(16) -0.4780(9)
O5 O 0.8896(5) 0.3677(7) 0.5035(18)
H6 H 0.9236(10) 0.388(6) 0.419(5)
C6 C 0.8439(5) 0.3592(8) 0.3816(18)
H7 H 0.854(2) 0.401(2) 0.323(12)
H8 H 0.841(3) 0.330(3) 0.266(11)
H9 H 0.8052(17) 0.341(5) 0.470(3)
loop_
_geom_bond_atom_site_label_1
_geom_bond_atom_site_label_2
_geom_bond_site_symmetry_1
_geom_bond_site_symmetry_2
C1 C2 1_555 1_555
C2 C4 1_555 1_555
C3 C4 1_555 1_555
C4 H1 1_555 1_555
Fe1 O3 1_555 1_555
O1 C1 1_555 1_555
O2 C1 1_555 1_555
O3 C3 1_555 1_555
O4 Fe1 1_555 1_555
H2 O4 1_555 1_555
C5 O4 1_555 1_555
H3 C5 1_555 1_555
H4 C5 1_555 1_555
H5 C5 1_555 1_555
O5 H6 1_555 1_555
C6 O5 1_555 1_555
H7 C6 1_555 1_555
H8 C6 1_555 1_555
H9 C6 1_555 1_555
C1I C2I 1_555 1_555
C2I C3 1_555 1_555
C3I C2 1_555 1_555
C4I C2I 1_555 1_555
H1I C4I 1_555 1_555
O1I C1I 1_555 1_555
O2I C1I 1_555 1_555
O3I C3I 1_555 1_555
Fe1I O3I 1_555 1_555
O4I Fe1I 1_555 1_555
H2I O4I 1_555 1_555
C5I O4I 1_555 1_555
H3I C5I 1_555 1_555
H4I C5I 1_555 1_555
H5I C5I 1_555 1_555
Fe1_2 O1I 1_555 1_555
Fe1E O3 1_555 1_555
Fe1H O2I 1_555 1_555
Fe1I_2 O1 1_555 1_555
Fe1N O2 1_555 1_555
Fe1Q O2 1_555 1_555
O1_2 Fe1I 1_555 1_555
O1I_2 Fe1 1_555 1_555
O2F Fe1I 1_555 1_555
O2G Fe1I 1_555 1_555
O2O Fe1 1_555 1_555
O2P Fe1 1_555 1_555
O3H Fe1 1_555 1_555
O3Q Fe1I 1_555 1_555
C3I C4I 1_555 1_555
O2I Fe1E 1_555 1_555
O3I Fe1N 1_555 1_555
Fe1E O2O 1_555 1_555
Fe1N O2F 1_555 1_555

#END
