
#######################################################################
#
#                 Cambridge Crystallographic Data Centre
#                                CCDC 
#
#######################################################################
#
# If this CIF has been generated from an entry in the Cambridge 
# Structural Database, then it will include bibliographic, chemical, 
# crystal, experimental, refinement or atomic coordinate data resulting 
# from the CCDC's data processing and validation procedures.
#
#######################################################################

data_WOQVAB
_chemical_name_common            CPO-27-Fe
_chemical_formula_moiety         '(C8 H2 Fe2 O6)n'
_chemical_name_systematic        
catena-((\m~8~-2,5-Dioxyterephthalato)-bis(methanol)-di-iron)
_symmetry_cell_setting           rhombohedral
_symmetry_space_group_name_H-M   'R -3'
_symmetry_Int_Tables_number      148
_space_group_name_Hall           '-R 3'
loop_
_symmetry_equiv_pos_site_id
_symmetry_equiv_pos_as_xyz
1 x,y,z
2 1/3+x,2/3+y,2/3+z
3 2/3+x,1/3+y,1/3+z
4 -y,x-y,z
5 -x+y,-x,z
6 1/3-y,2/3+x-y,2/3+z
7 1/3-x+y,2/3-x,2/3+z
8 2/3-y,1/3+x-y,1/3+z
9 2/3-x+y,1/3-x,1/3+z
10 -x,-y,-z
11 2/3-x,1/3-y,1/3-z
12 1/3-x,2/3-y,2/3-z
13 y,-x+y,-z
14 x-y,x,-z
15 2/3+y,1/3-x+y,1/3-z
16 2/3+x-y,1/3+x,1/3-z
17 1/3+y,2/3-x+y,2/3-z
18 1/3+x-y,2/3+x,2/3-z
_cell_length_a                   26.067(2)
_cell_length_b                   26.067(2)
_cell_length_c                   6.8721(7)
_cell_angle_alpha                90
_cell_angle_beta                 90
_cell_angle_gamma                120
_cell_volume                     4043.92
_cell_formula_units_Z            9
_chemical_properties_physical    Oxygen-sensitive
loop_
_atom_site_label
_atom_site_type_symbol
_atom_site_fract_x
_atom_site_fract_y
_atom_site_fract_z
_atom_site_U_iso_or_equiv
_atom_site_thermal_displace_type
C1 C 0.4238(4) 0.4098(3) 0.2586(9) 0.0840 Uiso
C2 C 0.4601(2) 0.4567(3) 0.1318(5) 0.0840 Uiso
C3 C 0.55708(17) 0.5450(2) 0.0647(6) 0.0840 Uiso
C4 C 0.5186(4) 0.5013(4) 0.1949(6) 0.0840 Uiso
Fe1 Fe 0.6156(2) 0.6441(2) 0.3606(7) 0.0557 Uiso
O1 O 0.4445(5) 0.4050(5) 0.4199(14) 0.0750 Uiso
O2 O 0.3754(4) 0.3674(4) 0.1970(16) 0.0750 Uiso
O3 O 0.6133(2) 0.5877(5) 0.1246(13) 0.0750 Uiso
C1I C 0.5762(4) 0.5902(3) -0.2586(9) 0.0840 Uiso
C2I C 0.5399(2) 0.5433(3) -0.1318(5) 0.0840 Uiso
C3I C 0.44292(17) 0.4550(2) -0.0647(6) 0.0840 Uiso
C4I C 0.4814(4) 0.4987(4) -0.1949(6) 0.0840 Uiso
O1I O 0.5555(5) 0.5950(5) -0.4199(14) 0.0750 Uiso
O2I O 0.6246(4) 0.6326(4) -0.1970(16) 0.0750 Uiso
O3I O 0.3867(2) 0.4123(5) -0.1246(13) 0.0750 Uiso
Fe1I Fe 0.3844(2) 0.3559(2) -0.3606(7) 0.0557 Uiso
Fe1_2 Fe 0.6156(2) 0.6441(2) -0.6394(7) 0.0557 Uiso
Fe1E Fe 0.6892(2) 0.6382(3) 0.0273(7) 0.0557 Uiso
Fe1H Fe 0.6952(3) 0.7177(2) -0.3061(7) 0.0557 Uiso
Fe1I_2 Fe 0.3844(2) 0.3559(2) 0.6394(7) 0.0557 Uiso
Fe1N Fe 0.3108(2) 0.3618(3) -0.0273(7) 0.0557 Uiso
Fe1Q Fe 0.3048(3) 0.2823(2) 0.3061(7) 0.0557 Uiso
O1_2 O 0.4445(5) 0.4050(5) -0.5801(14) 0.0750 Uiso
O1I_2 O 0.5555(5) 0.5950(5) 0.5801(14) 0.0750 Uiso
O2F O 0.3253(6) 0.2913(4) -0.1363(16) 0.0750 Uiso
O2G O 0.2993(4) 0.3413(6) -0.4697(16) 0.0750 Uiso
O2O O 0.6747(6) 0.7087(4) 0.1363(16) 0.0750 Uiso
O2P O 0.7007(4) 0.6587(6) 0.4697(16) 0.0750 Uiso
O3H O 0.6411(5) 0.7200(2) 0.4579(13) 0.0750 Uiso
O3Q O 0.3589(5) 0.2800(2) -0.4579(13) 0.0750 Uiso
loop_
_geom_bond_atom_site_label_1
_geom_bond_atom_site_label_2
_geom_bond_site_symmetry_1
_geom_bond_site_symmetry_2
C1 C2 1_555 1_555
C2 C4 1_555 1_555
C3 C4 1_555 1_555
Fe1 O3 1_555 1_555
O1 C1 1_555 1_555
O2 C1 1_555 1_555
O3 C3 1_555 1_555
C1I C2I 1_555 1_555
C2I C3 1_555 1_555
C3I C2 1_555 1_555
C4I C2I 1_555 1_555
O1I C1I 1_555 1_555
O2I C1I 1_555 1_555
O3I C3I 1_555 1_555
Fe1I O3I 1_555 1_555
Fe1_2 O1I 1_555 1_555
Fe1E O3 1_555 1_555
Fe1H O2I 1_555 1_555
Fe1I_2 O1 1_555 1_555
Fe1N O2 1_555 1_555
Fe1Q O2 1_555 1_555
O1_2 Fe1I 1_555 1_555
O1I_2 Fe1 1_555 1_555
O2F Fe1I 1_555 1_555
O2G Fe1I 1_555 1_555
O2O Fe1 1_555 1_555
O2P Fe1 1_555 1_555
O3H Fe1 1_555 1_555
O3Q Fe1I 1_555 1_555
C3I C4I 1_555 1_555
O2I Fe1E 1_555 1_555
O3I Fe1N 1_555 1_555
Fe1E O2O 1_555 1_555
Fe1N O2F 1_555 1_555

#END
