
#######################################################################
#
#                 Cambridge Crystallographic Data Centre
#                                CCDC 
#
#######################################################################
#
# If this CIF has been generated from an entry in the Cambridge 
# Structural Database, then it will include bibliographic, chemical, 
# crystal, experimental, refinement or atomic coordinate data resulting 
# from the CCDC's data processing and validation procedures.
#
#######################################################################

data_RAKJIY
_chemical_name_common            SNU-80a
_chemical_formula_moiety         '(C94 H128 Cu4 N8 O16)n,7.5n(C3 H8 O1)'
_chemical_name_systematic        
"catena-((\m~4~-1,3,5,7-tetrakis(4-(2-Ethylimidazolyl)phenyl)adamantane)-octakis(\m~2~-pivalato-O,O')-tetra-copper n-propanol solvate)"
_symmetry_cell_setting           tetragonal
_symmetry_space_group_name_H-M   'P 42/n n m'
_symmetry_Int_Tables_number      134
_space_group_name_Hall           '-P 4ac 2bc'
loop_
_symmetry_equiv_pos_site_id
_symmetry_equiv_pos_as_xyz
1 x,y,z
2 1/2-x,1/2-y,z
3 1/2-y,x,1/2+z
4 y,1/2-x,1/2+z
5 1/2-x,y,1/2-z
6 x,1/2-y,1/2-z
7 y,x,-z
8 1/2-y,1/2-x,-z
9 -x,-y,-z
10 1/2+x,1/2+y,-z
11 1/2+y,-x,1/2-z
12 -y,1/2+x,1/2-z
13 1/2+x,-y,1/2+z
14 -x,1/2+y,1/2+z
15 -y,-x,z
16 1/2+y,1/2+x,z
_cell_length_a                   24.8076(3)
_cell_length_b                   24.8076(3)
_cell_length_c                   12.2233(2)
_cell_angle_alpha                90
_cell_angle_beta                 90
_cell_angle_gamma                90
_cell_volume                     7522.43
_exptl_crystal_colour            green
_exptl_crystal_description       block
_cell_formula_units_Z            2
loop_
_atom_site_label
_atom_site_type_symbol
_atom_site_fract_x
_atom_site_fract_y
_atom_site_fract_z
_atom_site_U_iso_or_equiv
_atom_site_thermal_displace_type
Cu1 Cu 0.52020(2) 0.47980(2) 0.90826(5) 0.0958 Uani
O1 O 0.44290(19) 0.4785(2) 0.8675(3) 0.1333 Uani
O2 O 0.40997(19) 0.51259(16) 1.0185(3) 0.1233 Uani
N1 N 0.54531(16) 0.45469(16) 0.7496(4) 0.1297 Uani
N2 N 0.58179(16) 0.41821(16) 0.6043(4) 0.1467 Uani
C1 C 0.5229(2) 0.4771(2) 0.6583(7) 0.1687 Uani
H1 H 0.4964 0.5036 0.6577 0.2020 Uiso
C2 C 0.5453(2) 0.4547(2) 0.5700(6) 0.1863 Uani
H2 H 0.5372 0.4628 0.4976 0.2240 Uiso
C3 C 0.58120(18) 0.41880(18) 0.7164(4) 0.1083 Uani
C4 C 0.6149(2) 0.3851(2) 0.7843(6) 0.1260 Uani
C5 C 0.6713(8) 0.4071(10) 0.8051(19) 0.2310 Uani
H5 H 0.6905 0.3831 0.8527 0.3470 Uiso
H6 H 0.6902 0.4102 0.7369 0.3470 Uiso
H7 H 0.6687 0.4420 0.8387 0.3470 Uiso
C6 C 0.6160(2) 0.3840(2) 0.5358(5) 0.1127 Uani
C7 C 0.6723(4) 0.3913(4) 0.5341(7) 0.0970 Uani
H8 H 0.6887 0.4169 0.5788 0.1160 Uiso
C8 C 0.7028(4) 0.3596(4) 0.4646(7) 0.0807 Uani
H9 H 0.7400 0.3642 0.4624 0.0970 Uiso
C9 C 0.67878(15) 0.32122(15) 0.3980(4) 0.0627 Uani
C10 C 0.6825(3) 0.3770(5) 0.3994(8) 0.0970 Uani
H10 H 0.7061 0.3942 0.3516 0.1170 Uiso
C11 C 0.5930(4) 0.3480(5) 0.4699(9) 0.1250 Uani
H11 H 0.5558 0.3435 0.4719 0.1500 Uiso
C12 C 0.71357(13) 0.28643(13) 0.3237(3) 0.0464 Uani
C13 C 0.7500 0.2500 0.3941(4) 0.0460 Uani
H12 H 0.7724 0.2724 0.4408 0.0550 Uiso
C14 C 0.7500 0.3202(2) 0.2500 0.0567 Uani
H13 H 0.7723 0.3432 0.2954 0.0680 Uiso
C15 C 0.4056(3) 0.4957(3) 0.9239(6) 0.1167 Uani
C16 C 0.3476(6) 0.4907(5) 0.8754(11) 0.1760 Uani
C17 C 0.3134(6) 0.5367(8) 0.9127(14) 0.2410 Uani
H14 H 0.3300 0.5701 0.8914 0.3610 Uiso
H15 H 0.2784 0.5340 0.8799 0.3610 Uiso
H16 H 0.3100 0.5356 0.9909 0.3610 Uiso
C18 C 0.3517(6) 0.4935(11) 0.7508(10) 0.2540 Uani
H17 H 0.3667 0.5277 0.7297 0.3790 Uiso
H18 H 0.3746 0.4650 0.7250 0.3790 Uiso
H19 H 0.3165 0.4896 0.7193 0.3790 Uiso
C19 C 0.3238(7) 0.4374(7) 0.907(2) 0.2957 Uani
H20 H 0.3472 0.4089 0.8830 0.4420 Uiso
H21 H 0.3198 0.4357 0.9850 0.4420 Uiso
H22 H 0.2891 0.4333 0.8730 0.4420 Uiso
Cu1F Cu 0.47980(2) 0.52020(2) 1.09174(5) 0.0958 Uani
Cu1A Cu 0.97980(2) 0.02020(2) 0.90826(5) 0.0958 Uani
Cu1E Cu 0.52020(2) 0.02020(2) -0.40826(5) 0.0958 Uani
Cu1D Cu 0.97980(2) 0.47980(2) -0.40826(5) 0.0958 Uani
Cu1G Cu 1.02020(2) -0.02020(2) 1.09174(5) 0.0958 Uani
Cu1C Cu 0.47980(2) -0.02020(2) -0.59174(5) 0.0958 Uani
O1F O 0.4785(2) 0.44290(19) 1.1325(3) 0.1333 Uani
O1N O 0.5215(2) 0.55710(19) 0.8675(3) 0.1333 Uani
O1H O 0.55710(19) 0.5215(2) 1.1325(3) 0.1333 Uani
O1A O 1.05710(19) 0.0215(2) 0.8675(3) 0.1333 Uani
O1G O 1.0215(2) 0.05710(19) 1.1325(3) 0.1333 Uani
O1O O 0.9785(2) -0.05710(19) 0.8675(3) 0.1333 Uani
O1I O 0.94290(19) -0.0215(2) 1.1325(3) 0.1333 Uani
O1K O 0.5215(2) -0.05710(19) -0.3675(3) 0.1333 Uani
O1E O 0.44290(19) 0.0215(2) -0.3675(3) 0.1333 Uani
O2F O 0.51259(16) 0.40997(19) 0.9815(3) 0.1233 Uani
O2N O 0.48741(16) 0.59003(19) 1.0185(3) 0.1233 Uani
O2H O 0.59003(19) 0.48741(16) 0.9815(3) 0.1233 Uani
O2A O 1.09003(19) -0.01259(16) 1.0185(3) 0.1233 Uani
O2G O 0.98741(16) 0.09003(19) 0.9815(3) 0.1233 Uani
O2O O 1.01259(16) -0.09003(19) 1.0185(3) 0.1233 Uani
O2I O 0.90997(19) 0.01259(16) 0.9815(3) 0.1233 Uani
O2M O 0.59003(19) 0.01259(16) -0.4815(3) 0.1233 Uani
O2C O 0.51259(16) 0.09003(19) -0.4815(3) 0.1233 Uani
N1A N 0.95469(16) 0.04531(16) 0.7496(4) 0.1297 Uani
N1E N 0.54531(16) 0.04531(16) -0.2496(4) 0.1297 Uani
N1D N 0.95469(16) 0.45469(16) -0.2496(4) 0.1297 Uani
N1F N 0.45469(16) 0.54531(16) 1.2504(4) 0.1297 Uani
N2A N 0.91821(16) 0.08179(16) 0.6043(4) 0.1467 Uani
N2E N 0.58179(16) 0.08179(16) -0.1043(4) 0.1467 Uani
N2D N 0.91821(16) 0.41821(16) -0.1043(4) 0.1467 Uani
C1A C 0.9771(2) 0.0229(2) 0.6583(7) 0.1687 Uani
C1E C 0.5229(2) 0.0229(2) -0.1583(7) 0.1687 Uani
C1D C 0.9771(2) 0.4771(2) -0.1583(7) 0.1687 Uani
H1A H 1.0036 -0.0036 0.6577 0.2020 Uiso
H1E H 0.4964 -0.0036 -0.1577 0.2020 Uiso
H1D H 1.0036 0.5036 -0.1577 0.2020 Uiso
C2A C 0.9547(2) 0.0453(2) 0.5700(6) 0.1863 Uani
C2E C 0.5453(2) 0.0453(2) -0.0700(6) 0.1863 Uani
C2D C 0.9547(2) 0.4547(2) -0.0700(6) 0.1863 Uani
H2A H 0.9628 0.0372 0.4976 0.2240 Uiso
H2E H 0.5372 0.0372 0.0024 0.2240 Uiso
H2D H 0.9628 0.4628 0.0024 0.2240 Uiso
C3A C 0.91880(18) 0.08120(18) 0.7164(4) 0.1083 Uani
C3E C 0.58120(18) 0.08120(18) -0.2164(4) 0.1083 Uani
C3D C 0.91880(18) 0.41880(18) -0.2164(4) 0.1083 Uani
C4A C 0.8851(2) 0.1149(2) 0.7843(6) 0.1260 Uani
C4E C 0.6149(2) 0.1149(2) -0.2843(6) 0.1260 Uani
C4D C 0.8851(2) 0.3851(2) -0.2843(6) 0.1260 Uani
C5A C 0.8287(8) 0.0929(10) 0.8051(19) 0.2310 Uani
C5O C 0.9071(10) 0.1713(8) 0.8051(19) 0.2310 Uani
C5K C 0.5929(10) 0.1713(8) -0.3051(19) 0.2310 Uani
C5E C 0.6713(8) 0.0929(10) -0.3051(19) 0.2310 Uani
C5J C 0.9071(10) 0.3287(8) -0.3051(19) 0.2310 Uani
C5D C 0.8287(8) 0.4071(10) -0.3051(19) 0.2310 Uani
C5N C 0.5929(10) 0.3287(8) 0.8051(19) 0.2310 Uani
H5A H 0.8095 0.1169 0.8527 0.3470 Uiso
H5O H 0.8831 0.1905 0.8527 0.3470 Uiso
H5K H 0.6169 0.1905 -0.3527 0.3470 Uiso
H5E H 0.6905 0.1169 -0.3527 0.3470 Uiso
H5J H 0.8831 0.3095 -0.3527 0.3470 Uiso
H5D H 0.8095 0.3831 -0.3527 0.3470 Uiso
H5N H 0.6169 0.3095 0.8527 0.3470 Uiso
H6A H 0.8098 0.0898 0.7369 0.3470 Uiso
H6O H 0.9102 0.1902 0.7369 0.3470 Uiso
H6K H 0.5898 0.1902 -0.2369 0.3470 Uiso
H6E H 0.6902 0.0898 -0.2369 0.3470 Uiso
H6J H 0.9102 0.3098 -0.2369 0.3470 Uiso
H6D H 0.8098 0.4102 -0.2369 0.3470 Uiso
H6N H 0.5898 0.3098 0.7369 0.3470 Uiso
H7A H 0.8313 0.0580 0.8387 0.3470 Uiso
H7O H 0.9420 0.1687 0.8387 0.3470 Uiso
H7K H 0.5580 0.1687 -0.3387 0.3470 Uiso
H7E H 0.6687 0.0580 -0.3387 0.3470 Uiso
H7J H 0.9420 0.3313 -0.3387 0.3470 Uiso
H7D H 0.8313 0.4420 -0.3387 0.3470 Uiso
H7N H 0.5580 0.3313 0.8387 0.3470 Uiso
C6A C 0.8840(2) 0.1160(2) 0.5358(5) 0.1127 Uani
C6E C 0.6160(2) 0.1160(2) -0.0358(5) 0.1127 Uani
C6D C 0.8840(2) 0.3840(2) -0.0358(5) 0.1127 Uani
C7N C 0.6087(4) 0.3277(4) 0.5341(7) 0.0970 Uani
C7A C 0.8277(4) 0.1087(4) 0.5341(7) 0.0970 Uani
C7O C 0.8913(4) 0.1723(4) 0.5341(7) 0.0970 Uani
C7K C 0.6087(4) 0.1723(4) -0.0341(7) 0.0970 Uani
C7E C 0.6723(4) 0.1087(4) -0.0341(7) 0.0970 Uani
C7J C 0.8913(4) 0.3277(4) -0.0341(7) 0.0970 Uani
C7D C 0.8277(4) 0.3913(4) -0.0341(7) 0.0970 Uani
H8N H 0.5831 0.3113 0.5788 0.1160 Uiso
H8O H 0.9169 0.1887 0.5788 0.1160 Uiso
H8A H 0.8113 0.0831 0.5788 0.1160 Uiso
H8E H 0.6887 0.0831 -0.0788 0.1160 Uiso
H8K H 0.5831 0.1887 -0.0788 0.1160 Uiso
H8D H 0.8113 0.4169 -0.0788 0.1160 Uiso
H8J H 0.9169 0.3113 -0.0788 0.1160 Uiso
C8N C 0.6404(4) 0.2972(4) 0.4646(7) 0.0807 Uani
C8A C 0.7972(4) 0.1404(4) 0.4646(7) 0.0807 Uani
C8O C 0.8596(4) 0.2028(4) 0.4646(7) 0.0807 Uani
C8K C 0.6404(4) 0.2028(4) 0.0354(7) 0.0807 Uani
C8E C 0.7028(4) 0.1404(4) 0.0354(7) 0.0807 Uani
C8J C 0.8596(4) 0.2972(4) 0.0354(7) 0.0807 Uani
C8D C 0.7972(4) 0.3596(4) 0.0354(7) 0.0807 Uani
H9N H 0.6358 0.2600 0.4624 0.0970 Uiso
H9O H 0.8642 0.2400 0.4624 0.0970 Uiso
H9A H 0.7600 0.1358 0.4624 0.0970 Uiso
H9E H 0.7400 0.1358 0.0376 0.0970 Uiso
H9K H 0.6358 0.2400 0.0376 0.0970 Uiso
H9D H 0.7600 0.3642 0.0376 0.0970 Uiso
H9J H 0.8642 0.2600 0.0376 0.0970 Uiso
C9A C 0.82122(15) 0.17878(15) 0.3980(4) 0.0627 Uani
C9E C 0.67878(15) 0.17878(15) 0.1020(4) 0.0627 Uani
C9D C 0.82122(15) 0.32122(15) 0.1020(4) 0.0627 Uani
C10N C 0.6230(5) 0.3175(3) 0.3994(8) 0.0970 Uani
C10O C 0.8770(5) 0.1825(3) 0.3994(8) 0.0970 Uani
C10A C 0.8175(3) 0.1230(5) 0.3994(8) 0.0970 Uani
C10E C 0.6825(3) 0.1230(5) 0.1006(8) 0.0970 Uani
C10K C 0.6230(5) 0.1825(3) 0.1006(8) 0.0970 Uani
C10D C 0.8175(3) 0.3770(5) 0.1006(8) 0.0970 Uani
C10J C 0.8770(5) 0.3175(3) 0.1006(8) 0.0970 Uani
H10A H 0.7939 0.1058 0.3516 0.1170 Uiso
H10O H 0.8942 0.2061 0.3516 0.1170 Uiso
H10K H 0.6058 0.2061 0.1484 0.1170 Uiso
H10E H 0.7061 0.1058 0.1484 0.1170 Uiso
H10J H 0.8942 0.2939 0.1484 0.1170 Uiso
H10D H 0.7939 0.3942 0.1484 0.1170 Uiso
H10N H 0.6058 0.2939 0.3516 0.1170 Uiso
C11A C 0.9070(4) 0.1520(5) 0.4699(9) 0.1250 Uani
C11O C 0.8480(5) 0.0930(4) 0.4699(9) 0.1250 Uani
C11K C 0.6520(5) 0.0930(4) 0.0301(9) 0.1250 Uani
C11E C 0.5930(4) 0.1520(5) 0.0301(9) 0.1250 Uani
C11J C 0.8480(5) 0.4070(4) 0.0301(9) 0.1250 Uani
C11D C 0.9070(4) 0.3480(5) 0.0301(9) 0.1250 Uani
C11N C 0.6520(5) 0.4070(4) 0.4699(9) 0.1250 Uani
H11O H 0.8435 0.0558 0.4719 0.1500 Uiso
H11A H 0.9442 0.1565 0.4719 0.1500 Uiso
H11E H 0.5558 0.1565 0.0281 0.1500 Uiso
H11K H 0.6565 0.0558 0.0281 0.1500 Uiso
H11D H 0.9442 0.3435 0.0281 0.1500 Uiso
H11J H 0.8435 0.4442 0.0281 0.1500 Uiso
H11N H 0.6565 0.4442 0.4719 0.1500 Uiso
C12A C 0.78643(13) 0.21357(13) 0.3237(3) 0.0464 Uani
C12E C 0.71357(13) 0.21357(13) 0.1763(3) 0.0464 Uani
C12D C 0.78643(13) 0.28643(13) 0.1763(3) 0.0464 Uani
C13D C 0.7500 0.2500 0.1059(4) 0.0460 Uani
H12D H 0.7276 0.2724 0.0592 0.0550 Uiso
H12E H 0.7724 0.2276 0.0592 0.0550 Uiso
H12A H 0.7276 0.2276 0.4408 0.0550 Uiso
C14A C 0.7500 0.1798(2) 0.2500 0.0567 Uani
C14J C 0.8202(2) 0.2500 0.2500 0.0567 Uani
C14K C 0.6798(2) 0.2500 0.2500 0.0567 Uani
H13J H 0.8432 0.2277 0.2046 0.0680 Uiso
H13O H 0.8432 0.2723 0.2954 0.0680 Uiso
H13K H 0.6568 0.2723 0.2046 0.0680 Uiso
H13N H 0.6568 0.2277 0.2954 0.0680 Uiso
H13D H 0.7277 0.3432 0.2046 0.0680 Uiso
H13A H 0.7277 0.1568 0.2954 0.0680 Uiso
H13E H 0.7723 0.1568 0.2046 0.0680 Uiso
C15F C 0.4957(3) 0.4056(3) 1.0761(6) 0.1167 Uani
C15N C 0.5043(3) 0.5944(3) 0.9239(6) 0.1167 Uani
C15H C 0.5944(3) 0.5043(3) 1.0761(6) 0.1167 Uani
C15A C 1.0944(3) 0.0043(3) 0.9239(6) 0.1167 Uani
C15G C 1.0043(3) 0.0944(3) 1.0761(6) 0.1167 Uani
C15O C 0.9957(3) -0.0944(3) 0.9239(6) 0.1167 Uani
C15I C 0.9056(3) -0.0043(3) 1.0761(6) 0.1167 Uani
C16F C 0.4907(5) 0.3476(6) 1.1246(11) 0.1760 Uani
C16N C 0.5093(5) 0.6524(6) 0.8754(11) 0.1760 Uani
C16H C 0.6524(6) 0.5093(5) 1.1246(11) 0.1760 Uani
C16A C 1.1524(6) 0.0093(5) 0.8754(11) 0.1760 Uani
C16G C 1.0093(5) 0.1524(6) 1.1246(11) 0.1760 Uani
C16O C 0.9907(5) -0.1524(6) 0.8754(11) 0.1760 Uani
C16I C 0.8476(6) -0.0093(5) 1.1246(11) 0.1760 Uani
C17F C 0.5367(8) 0.3134(6) 1.0873(14) 0.2410 Uani
C17N C 0.4633(8) 0.6866(6) 0.9127(14) 0.2410 Uani
C17H C 0.6866(6) 0.4633(8) 1.0873(14) 0.2410 Uani
C17A C 1.1866(6) -0.0367(8) 0.9127(14) 0.2410 Uani
C17G C 0.9633(8) 0.1866(6) 1.0873(14) 0.2410 Uani
C17O C 1.0367(8) -0.1866(6) 0.9127(14) 0.2410 Uani
C17I C 0.8134(6) 0.0367(8) 1.0873(14) 0.2410 Uani
H14F H 0.5701 0.3300 1.1086 0.3610 Uiso
H14N H 0.4299 0.6700 0.8914 0.3610 Uiso
H14H H 0.6700 0.4299 1.1086 0.3610 Uiso
H14A H 1.1700 -0.0701 0.8914 0.3610 Uiso
H14G H 0.9299 0.1700 1.1086 0.3610 Uiso
H14O H 1.0701 -0.1700 0.8914 0.3610 Uiso
H14I H 0.8300 0.0701 1.1086 0.3610 Uiso
H15F H 0.5340 0.2784 1.1201 0.3610 Uiso
H15N H 0.4660 0.7216 0.8799 0.3610 Uiso
H15H H 0.7216 0.4660 1.1201 0.3610 Uiso
H15A H 1.2216 -0.0340 0.8799 0.3610 Uiso
H15G H 0.9660 0.2216 1.1201 0.3610 Uiso
H15O H 1.0340 -0.2216 0.8799 0.3610 Uiso
H15I H 0.7784 0.0340 1.1201 0.3610 Uiso
H16F H 0.5356 0.3100 1.0091 0.3610 Uiso
H16N H 0.4644 0.6900 0.9909 0.3610 Uiso
H16H H 0.6900 0.4644 1.0091 0.3610 Uiso
H16A H 1.1900 -0.0356 0.9909 0.3610 Uiso
H16G H 0.9644 0.1900 1.0091 0.3610 Uiso
H16O H 1.0356 -0.1900 0.9909 0.3610 Uiso
H16I H 0.8100 0.0356 1.0091 0.3610 Uiso
C18F C 0.4935(11) 0.3517(6) 1.2492(10) 0.2540 Uani
C18N C 0.5065(11) 0.6483(6) 0.7508(10) 0.2540 Uani
C18H C 0.6483(6) 0.5065(11) 1.2492(10) 0.2540 Uani
C18A C 1.1483(6) 0.0065(11) 0.7508(10) 0.2540 Uani
C18G C 1.0065(11) 0.1483(6) 1.2492(10) 0.2540 Uani
C18O C 0.9935(11) -0.1483(6) 0.7508(10) 0.2540 Uani
C18I C 0.8517(6) -0.0065(11) 1.2492(10) 0.2540 Uani
H17F H 0.5277 0.3667 1.2703 0.3790 Uiso
H17N H 0.4723 0.6333 0.7297 0.3790 Uiso
H17H H 0.6333 0.4723 1.2703 0.3790 Uiso
H17A H 1.1333 -0.0277 0.7297 0.3790 Uiso
H17G H 0.9723 0.1333 1.2703 0.3790 Uiso
H17O H 1.0277 -0.1333 0.7297 0.3790 Uiso
H17I H 0.8667 0.0277 1.2703 0.3790 Uiso
H18F H 0.4650 0.3746 1.2750 0.3790 Uiso
H18N H 0.5350 0.6254 0.7250 0.3790 Uiso
H18H H 0.6254 0.5350 1.2750 0.3790 Uiso
H18A H 1.1254 0.0350 0.7250 0.3790 Uiso
H18G H 1.0350 0.1254 1.2750 0.3790 Uiso
H18O H 0.9650 -0.1254 0.7250 0.3790 Uiso
H18I H 0.8746 -0.0350 1.2750 0.3790 Uiso
H19F H 0.4896 0.3165 1.2807 0.3790 Uiso
H19N H 0.5104 0.6835 0.7193 0.3790 Uiso
H19H H 0.6835 0.5104 1.2807 0.3790 Uiso
H19A H 1.1835 0.0104 0.7193 0.3790 Uiso
H19G H 1.0104 0.1835 1.2807 0.3790 Uiso
H19O H 0.9896 -0.1835 0.7193 0.3790 Uiso
H19I H 0.8165 -0.0104 1.2807 0.3790 Uiso
C19F C 0.4374(7) 0.3238(7) 1.093(2) 0.2957 Uani
C19N C 0.5626(7) 0.6762(7) 0.907(2) 0.2957 Uani
C19H C 0.6762(7) 0.5626(7) 1.093(2) 0.2957 Uani
C19A C 1.1762(7) 0.0626(7) 0.907(2) 0.2957 Uani
C19G C 1.0626(7) 0.1762(7) 1.093(2) 0.2957 Uani
C19O C 0.9374(7) -0.1762(7) 0.907(2) 0.2957 Uani
C19I C 0.8238(7) -0.0626(7) 1.093(2) 0.2957 Uani
H20F H 0.4089 0.3472 1.1170 0.4420 Uiso
H20N H 0.5911 0.6528 0.8830 0.4420 Uiso
H20H H 0.6528 0.5911 1.1170 0.4420 Uiso
H20A H 1.1528 0.0911 0.8830 0.4420 Uiso
H20G H 1.0911 0.1528 1.1170 0.4420 Uiso
H20O H 0.9089 -0.1528 0.8830 0.4420 Uiso
H20I H 0.8472 -0.0911 1.1170 0.4420 Uiso
H21F H 0.4357 0.3198 1.0150 0.4420 Uiso
H21N H 0.5643 0.6802 0.9850 0.4420 Uiso
H21H H 0.6802 0.5643 1.0150 0.4420 Uiso
H21A H 1.1802 0.0643 0.9850 0.4420 Uiso
H21G H 1.0643 0.1802 1.0150 0.4420 Uiso
H21O H 0.9357 -0.1802 0.9850 0.4420 Uiso
H21I H 0.8198 -0.0643 1.0150 0.4420 Uiso
H22F H 0.4333 0.2891 1.1270 0.4420 Uiso
H22N H 0.5667 0.7109 0.8730 0.4420 Uiso
H22H H 0.7109 0.5667 1.1270 0.4420 Uiso
H22A H 1.2109 0.0667 0.8730 0.4420 Uiso
H22G H 1.0667 0.2109 1.1270 0.4420 Uiso
H22O H 0.9333 -0.2109 0.8730 0.4420 Uiso
H22I H 0.7891 -0.0667 1.1270 0.4420 Uiso
H3? H 0.6200 0.4029 0.8542 0.1520 Uiso
H4? H 0.6500 0.3819 0.7500 0.1520 Uiso
C20? C 0.5002(14) -0.149(2) 0.634(3) 0.1710 Uani
C21? C 0.491(3) -0.1926(15) 0.542(5) 0.1827 Uani
C22? C 0.556(3) -0.156(2) 0.697(6) 0.2333 Uani
C23? C 0.450(3) -0.1438(19) 0.716(4) 0.2167 Uani
H23? H 0.5087 -0.1817 0.4764 0.2770 Uiso
H24? H 0.4529 -0.1963 0.5287 0.2770 Uiso
H25? H 0.5051 -0.2265 0.5665 0.2770 Uiso
H26? H 0.5817 -0.1721 0.6483 0.3500 Uiso
H27? H 0.5503 -0.1800 0.7584 0.3500 Uiso
H28? H 0.5685 -0.1222 0.7221 0.3500 Uiso
H29? H 0.4626 -0.1298 0.7847 0.3270 Uiso
H30? H 0.4347 -0.1787 0.7265 0.3270 Uiso
H31? H 0.4240 -0.1199 0.6853 0.3270 Uiso
loop_
_atom_site_aniso_label
_atom_site_aniso_U_11
_atom_site_aniso_U_22
_atom_site_aniso_U_33
_atom_site_aniso_U_23
_atom_site_aniso_U_13
_atom_site_aniso_U_12
Cu1 0.1222 0.1222 0.0429 -0.0074 0.0074 0.071
O1 0.126 0.194 0.08 -0.028 -0.018 0.078
O2 0.103 0.177 0.09 -0.016 0.007 0.067
N1 0.168 0.168 0.053 -0.012 0.012 0.1
N2 0.194 0.194 0.052 -0.0142 0.0142 0.132
C1 0.208 0.208 0.09 -0.009 0.009 0.145
C2 0.249 0.249 0.061 -0.01 0.01 0.175
C3 0.137 0.137 0.051 -0.0146 0.0146 0.077
C4 0.155 0.155 0.068 -0.011 0.011 0.086
C5 0.186 0.265 0.242 -0.058 -0.067 0.061
C6 0.141 0.141 0.056 -0.014 0.014 0.081
C7 0.144 0.092 0.055 -0.02 0.006 0.043
C8 0.108 0.077 0.057 -0.031 0.01 0.001
C9 0.075 0.075 0.038 -0.0051 0.0051 0.02
C10 0.156 0.075 0.06 -0.011 0.031 0.024
C11 0.089 0.2 0.086 -0.042 0.004 0.064
C12 0.0526 0.0526 0.034 -0.0032 0.0032 0.006
C13 0.053 0.053 0.032 0 0 -0.01
C14 0.081 0.052 0.037 0 0.002 0
C15 0.108 0.141 0.101 -0.008 -0.011 0.056
C16 0.125 0.237 0.166 -0.022 -0.046 0.071
C17 0.158 0.345 0.22 -0.037 -0.051 0.143
C18 0.196 0.4 0.166 -0.065 -0.1 0.113
C19 0.183 0.314 0.39 -0.027 -0.062 -0.045
Cu1F 0.1222 0.1222 0.0429 -0.0074 0.0074 0.071
Cu1A 0.1222 0.1222 0.0429 0.0074 -0.0074 0.071
Cu1E 0.1222 0.1222 0.0429 -0.0074 -0.0074 -0.071
Cu1D 0.1222 0.1222 0.0429 0.0074 0.0074 -0.071
Cu1G 0.1222 0.1222 0.0429 0.0074 -0.0074 0.071
Cu1C 0.1222 0.1222 0.0429 -0.0074 -0.0074 -0.071
O1F 0.194 0.126 0.08 0.018 0.028 0.078
O1N 0.194 0.126 0.08 0.018 0.028 0.078
O1H 0.126 0.194 0.08 -0.028 -0.018 0.078
O1A 0.126 0.194 0.08 0.028 0.018 0.078
O1G 0.194 0.126 0.08 -0.018 -0.028 0.078
O1O 0.194 0.126 0.08 -0.018 -0.028 0.078
O1I 0.126 0.194 0.08 0.028 0.018 0.078
O1K 0.194 0.126 0.08 0.018 -0.028 -0.078
O1E 0.126 0.194 0.08 -0.028 0.018 -0.078
O2F 0.177 0.103 0.09 -0.007 0.016 0.067
O2N 0.177 0.103 0.09 -0.007 0.016 0.067
O2H 0.103 0.177 0.09 -0.016 0.007 0.067
O2A 0.103 0.177 0.09 0.016 -0.007 0.067
O2G 0.177 0.103 0.09 0.007 -0.016 0.067
O2O 0.177 0.103 0.09 0.007 -0.016 0.067
O2I 0.103 0.177 0.09 0.016 -0.007 0.067
O2M 0.103 0.177 0.09 -0.016 -0.007 -0.067
O2C 0.177 0.103 0.09 -0.007 -0.016 -0.067
N1A 0.168 0.168 0.053 0.012 -0.012 0.1
N1E 0.168 0.168 0.053 -0.012 -0.012 -0.1
N1D 0.168 0.168 0.053 0.012 0.012 -0.1
N1F 0.168 0.168 0.053 -0.012 0.012 0.1
N2A 0.194 0.194 0.052 0.0142 -0.0142 0.132
N2E 0.194 0.194 0.052 -0.0142 -0.0142 -0.132
N2D 0.194 0.194 0.052 0.0142 0.0142 -0.132
C1A 0.208 0.208 0.09 0.009 -0.009 0.145
C1E 0.208 0.208 0.09 -0.009 -0.009 -0.145
C1D 0.208 0.208 0.09 0.009 0.009 -0.145
C2A 0.249 0.249 0.061 0.01 -0.01 0.175
C2E 0.249 0.249 0.061 -0.01 -0.01 -0.175
C2D 0.249 0.249 0.061 0.01 0.01 -0.175
C3A 0.137 0.137 0.051 0.0146 -0.0146 0.077
C3E 0.137 0.137 0.051 -0.0146 -0.0146 -0.077
C3D 0.137 0.137 0.051 0.0146 0.0146 -0.077
C4A 0.155 0.155 0.068 0.011 -0.011 0.086
C4E 0.155 0.155 0.068 -0.011 -0.011 -0.086
C4D 0.155 0.155 0.068 0.011 0.011 -0.086
C5A 0.186 0.265 0.242 0.058 0.067 0.061
C5O 0.265 0.186 0.242 -0.067 -0.058 0.061
C5K 0.265 0.186 0.242 0.067 -0.058 -0.061
C5E 0.186 0.265 0.242 -0.058 0.067 -0.061
C5J 0.265 0.186 0.242 -0.067 0.058 -0.061
C5D 0.186 0.265 0.242 0.058 -0.067 -0.061
C5N 0.265 0.186 0.242 0.067 0.058 0.061
C6A 0.141 0.141 0.056 0.014 -0.014 0.081
C6E 0.141 0.141 0.056 -0.014 -0.014 -0.081
C6D 0.141 0.141 0.056 0.014 0.014 -0.081
C7N 0.092 0.144 0.055 -0.006 0.02 0.043
C7A 0.144 0.092 0.055 0.02 -0.006 0.043
C7O 0.092 0.144 0.055 0.006 -0.02 0.043
C7K 0.092 0.144 0.055 -0.006 -0.02 -0.043
C7E 0.144 0.092 0.055 -0.02 -0.006 -0.043
C7J 0.092 0.144 0.055 0.006 0.02 -0.043
C7D 0.144 0.092 0.055 0.02 0.006 -0.043
C8N 0.077 0.108 0.057 -0.01 0.031 0.001
C8A 0.108 0.077 0.057 0.031 -0.01 0.001
C8O 0.077 0.108 0.057 0.01 -0.031 0.001
C8K 0.077 0.108 0.057 -0.01 -0.031 -0.001
C8E 0.108 0.077 0.057 -0.031 -0.01 -0.001
C8J 0.077 0.108 0.057 0.01 0.031 -0.001
C8D 0.108 0.077 0.057 0.031 0.01 -0.001
C9A 0.075 0.075 0.038 0.0051 -0.0051 0.02
C9E 0.075 0.075 0.038 -0.0051 -0.0051 -0.02
C9D 0.075 0.075 0.038 0.0051 0.0051 -0.02
C10N 0.075 0.156 0.06 -0.031 0.011 0.024
C10O 0.075 0.156 0.06 0.031 -0.011 0.024
C10A 0.156 0.075 0.06 0.011 -0.031 0.024
C10E 0.156 0.075 0.06 -0.011 -0.031 -0.024
C10K 0.075 0.156 0.06 -0.031 -0.011 -0.024
C10D 0.156 0.075 0.06 0.011 0.031 -0.024
C10J 0.075 0.156 0.06 0.031 0.011 -0.024
C11A 0.089 0.2 0.086 0.042 -0.004 0.064
C11O 0.2 0.089 0.086 0.004 -0.042 0.064
C11K 0.2 0.089 0.086 -0.004 -0.042 -0.064
C11E 0.089 0.2 0.086 -0.042 -0.004 -0.064
C11J 0.2 0.089 0.086 0.004 0.042 -0.064
C11D 0.089 0.2 0.086 0.042 0.004 -0.064
C11N 0.2 0.089 0.086 -0.004 0.042 0.064
C12A 0.0526 0.0526 0.034 0.0032 -0.0032 0.006
C12E 0.0526 0.0526 0.034 -0.0032 -0.0032 -0.006
C12D 0.0526 0.0526 0.034 0.0032 0.0032 -0.006
C13D 0.053 0.053 0.032 0 0 0.01
C14A 0.081 0.052 0.037 0 -0.002 0
C14J 0.052 0.081 0.037 0.002 0 0
C14K 0.052 0.081 0.037 -0.002 0 0
C15F 0.141 0.108 0.101 0.011 0.008 0.056
C15N 0.141 0.108 0.101 0.011 0.008 0.056
C15H 0.108 0.141 0.101 -0.008 -0.011 0.056
C15A 0.108 0.141 0.101 0.008 0.011 0.056
C15G 0.141 0.108 0.101 -0.011 -0.008 0.056
C15O 0.141 0.108 0.101 -0.011 -0.008 0.056
C15I 0.108 0.141 0.101 0.008 0.011 0.056
C16F 0.237 0.125 0.166 0.046 0.022 0.071
C16N 0.237 0.125 0.166 0.046 0.022 0.071
C16H 0.125 0.237 0.166 -0.022 -0.046 0.071
C16A 0.125 0.237 0.166 0.022 0.046 0.071
C16G 0.237 0.125 0.166 -0.046 -0.022 0.071
C16O 0.237 0.125 0.166 -0.046 -0.022 0.071
C16I 0.125 0.237 0.166 0.022 0.046 0.071
C17F 0.345 0.158 0.22 0.051 0.037 0.143
C17N 0.345 0.158 0.22 0.051 0.037 0.143
C17H 0.158 0.345 0.22 -0.037 -0.051 0.143
C17A 0.158 0.345 0.22 0.037 0.051 0.143
C17G 0.345 0.158 0.22 -0.051 -0.037 0.143
C17O 0.345 0.158 0.22 -0.051 -0.037 0.143
C17I 0.158 0.345 0.22 0.037 0.051 0.143
C18F 0.4 0.196 0.166 0.1 0.065 0.113
C18N 0.4 0.196 0.166 0.1 0.065 0.113
C18H 0.196 0.4 0.166 -0.065 -0.1 0.113
C18A 0.196 0.4 0.166 0.065 0.1 0.113
C18G 0.4 0.196 0.166 -0.1 -0.065 0.113
C18O 0.4 0.196 0.166 -0.1 -0.065 0.113
C18I 0.196 0.4 0.166 0.065 0.1 0.113
C19F 0.314 0.183 0.39 0.062 0.027 -0.045
C19N 0.314 0.183 0.39 0.062 0.027 -0.045
C19H 0.183 0.314 0.39 -0.027 -0.062 -0.045
C19A 0.183 0.314 0.39 0.027 0.062 -0.045
C19G 0.314 0.183 0.39 -0.062 -0.027 -0.045
C19O 0.314 0.183 0.39 -0.062 -0.027 -0.045
C19I 0.183 0.314 0.39 0.027 0.062 -0.045
C20? 0.23(2) 0.132(12) 0.151(16) 0.047(10) -0.005(14) -0.08(2)
C21? 0.23(3) 0.108(13) 0.21(3) 0.020(18) 0.01(2) -0.05(2)
C22? 0.31(3) 0.17(3) 0.22(4) 0.08(3) -0.07(3) -0.02(3)
C23? 0.32(3) 0.15(3) 0.18(3) 0.06(2) 0.07(3) -0.08(3)
loop_
_geom_bond_atom_site_label_1
_geom_bond_atom_site_label_2
_geom_bond_site_symmetry_1
_geom_bond_site_symmetry_2
Cu1 O1 1_555 1_555
O1 C15 1_555 1_555
O2 C15 1_555 1_555
N1 Cu1 1_555 1_555
N2 C2 1_555 1_555
C1 N1 1_555 1_555
H1 C1 1_555 1_555
C2 C1 1_555 1_555
H2 C2 1_555 1_555
C3 N1 1_555 1_555
C4 C3 1_555 1_555
C5 C4 1_555 1_555
H5 C5 1_555 1_555
H6 C5 1_555 1_555
H7 C5 1_555 1_555
C6 N2 1_555 1_555
C7 C6 1_555 1_555
H8 C7 1_555 1_555
C8 C7 1_555 1_555
H9 C8 1_555 1_555
C9 C8 1_555 1_555
C10 C7 1_555 1_555
H10 C10 1_555 1_555
C11 C6 1_555 1_555
H11 C11 1_555 1_555
C12 C9 1_555 1_555
C13 C12 1_555 1_555
H12 C13 1_555 1_555
C14 C12 1_555 1_555
H13 C14 1_555 1_555
C15 C16 1_555 1_555
C16 C17 1_555 1_555
C17 H14 1_555 1_555
H15 C17 1_555 1_555
H16 C17 1_555 1_555
C18 C16 1_555 1_555
H17 C18 1_555 1_555
H18 C18 1_555 1_555
H19 C18 1_555 1_555
C19 C16 1_555 1_555
H20 C19 1_555 1_555
H21 C19 1_555 1_555
H22 C19 1_555 1_555
Cu1F Cu1 1_555 1_555
Cu1A Cu1G 1_555 1_555
Cu1E Cu1C 1_555 1_555
Cu1D N1D 1_555 1_555
Cu1G O1G 1_555 1_555
O1F Cu1F 1_555 1_555
O1N Cu1 1_555 1_555
O1H Cu1F 1_555 1_555
O1A Cu1A 1_555 1_555
O1G C15G 1_555 1_555
O1O Cu1A 1_555 1_555
O1I Cu1G 1_555 1_555
O1K Cu1E 1_555 1_555
O1E Cu1E 1_555 1_555
O2F Cu1 1_555 1_555
O2N Cu1F 1_555 1_555
O2H Cu1 1_555 1_555
O2A Cu1G 1_555 1_555
O2G Cu1A 1_555 1_555
O2O Cu1G 1_555 1_555
O2I Cu1A 1_555 1_555
O2M Cu1E 1_555 1_555
O2C Cu1E 1_555 1_555
N1A Cu1A 1_555 1_555
N1E Cu1E 1_555 1_555
N1D C1D 1_555 1_555
N1F Cu1F 1_555 1_555
N2A C2A 1_555 1_555
N2E C2E 1_555 1_555
N2D C2D 1_555 1_555
C1A N1A 1_555 1_555
C1E N1E 1_555 1_555
C1D H1D 1_555 1_555
H1A C1A 1_555 1_555
H1E C1E 1_555 1_555
C2A C1A 1_555 1_555
C2E C1E 1_555 1_555
C2D C1D 1_555 1_555
H2A C2A 1_555 1_555
H2E C2E 1_555 1_555
H2D C2D 1_555 1_555
C3A N1A 1_555 1_555
C3E N1E 1_555 1_555
C3D N1D 1_555 1_555
C4A C3A 1_555 1_555
C4E C3E 1_555 1_555
C4D C3D 1_555 1_555
C5A C4A 1_555 1_555
C5O C4A 1_555 1_555
C5K C4E 1_555 1_555
C5E C4E 1_555 1_555
C5J C4D 1_555 1_555
C5D C4D 1_555 1_555
C5N C4 1_555 1_555
H5A C5A 1_555 1_555
H5O C5O 1_555 1_555
H5K C5K 1_555 1_555
H5E C5E 1_555 1_555
H5J C5J 1_555 1_555
H5D C5D 1_555 1_555
H5N C5N 1_555 1_555
H6A C5A 1_555 1_555
H6O C5O 1_555 1_555
H6K C5K 1_555 1_555
H6E C5E 1_555 1_555
H6J C5J 1_555 1_555
H6D C5D 1_555 1_555
H6N C5N 1_555 1_555
H7A C5A 1_555 1_555
H7O C5O 1_555 1_555
H7K C5K 1_555 1_555
H7E C5E 1_555 1_555
H7J C5J 1_555 1_555
H7D C5D 1_555 1_555
H7N C5N 1_555 1_555
C6A N2A 1_555 1_555
C6E N2E 1_555 1_555
C6D N2D 1_555 1_555
C7N C6 1_555 1_555
C7A C6A 1_555 1_555
C7O C6A 1_555 1_555
C7K C6E 1_555 1_555
C7E C6E 1_555 1_555
C7J C6D 1_555 1_555
C7D C6D 1_555 1_555
H8N C7N 1_555 1_555
H8O C7O 1_555 1_555
H8A C7A 1_555 1_555
H8E C7E 1_555 1_555
H8K C7K 1_555 1_555
H8D C7D 1_555 1_555
H8J C7J 1_555 1_555
C8N C9 1_555 1_555
C8A C7A 1_555 1_555
C8O C7O 1_555 1_555
C8K C7K 1_555 1_555
C8E C7E 1_555 1_555
C8J C7J 1_555 1_555
C8D C7D 1_555 1_555
H9N C8N 1_555 1_555
H9O C8O 1_555 1_555
H9A C8A 1_555 1_555
H9E C8E 1_555 1_555
H9K C8K 1_555 1_555
H9D C8D 1_555 1_555
H9J C8J 1_555 1_555
C9A C8A 1_555 1_555
C9E C8K 1_555 1_555
C9D C8J 1_555 1_555
C10N C9 1_555 1_555
C10O C7O 1_555 1_555
C10A C7A 1_555 1_555
C10E C7E 1_555 1_555
C10K C7K 1_555 1_555
C10D C7D 1_555 1_555
C10J C7J 1_555 1_555
H10A C10A 1_555 1_555
H10O C10O 1_555 1_555
H10K C10K 1_555 1_555
H10E C10E 1_555 1_555
H10J C10J 1_555 1_555
H10D C10D 1_555 1_555
H10N C10N 1_555 1_555
C11A C6A 1_555 1_555
C11O C6A 1_555 1_555
C11K C6E 1_555 1_555
C11E C6E 1_555 1_555
C11J C6D 1_555 1_555
C11D C6D 1_555 1_555
C11N C6 1_555 1_555
H11O C11O 1_555 1_555
H11A C11A 1_555 1_555
H11E C11E 1_555 1_555
H11K C11K 1_555 1_555
H11D C11D 1_555 1_555
H11J C11J 1_555 1_555
H11N C11N 1_555 1_555
C12A C13 1_555 1_555
C12E C9E 1_555 1_555
C12D C14 1_555 1_555
C13D C12E 1_555 1_555
H12D C13D 1_555 1_555
H12E C13D 1_555 1_555
H12A C13 1_555 1_555
C14A C12A 1_555 1_555
C14J C12A 1_555 1_555
C14K C12 1_555 1_555
H13J C14J 1_555 1_555
H13O C14J 1_555 1_555
H13K C14K 1_555 1_555
H13N C14K 1_555 1_555
H13D C14 1_555 1_555
H13A C14A 1_555 1_555
H13E C14A 1_555 1_555
C15F O1F 1_555 1_555
C15N O1N 1_555 1_555
C15H O1H 1_555 1_555
C15A O1A 1_555 1_555
C15G O2G 1_555 1_555
C15O O1O 1_555 1_555
C15I O1I 1_555 1_555
C16F C15F 1_555 1_555
C16N C15N 1_555 1_555
C16H C15H 1_555 1_555
C16A C15A 1_555 1_555
C16G C15G 1_555 1_555
C16O C15O 1_555 1_555
C16I C15I 1_555 1_555
C17F C16F 1_555 1_555
C17N C16N 1_555 1_555
C17H C16H 1_555 1_555
C17A C16A 1_555 1_555
C17G C16G 1_555 1_555
C17O C16O 1_555 1_555
C17I C16I 1_555 1_555
H14F C17F 1_555 1_555
H14N C17N 1_555 1_555
H14H C17H 1_555 1_555
H14A C17A 1_555 1_555
H14G C17G 1_555 1_555
H14O C17O 1_555 1_555
H14I C17I 1_555 1_555
H15F C17F 1_555 1_555
H15N C17N 1_555 1_555
H15H C17H 1_555 1_555
H15A C17A 1_555 1_555
H15G C17G 1_555 1_555
H15O C17O 1_555 1_555
H15I C17I 1_555 1_555
H16F C17F 1_555 1_555
H16N C17N 1_555 1_555
H16H C17H 1_555 1_555
H16A C17A 1_555 1_555
H16G C17G 1_555 1_555
H16O C17O 1_555 1_555
H16I C17I 1_555 1_555
C18F C16F 1_555 1_555
C18N C16N 1_555 1_555
C18H C16H 1_555 1_555
C18A C16A 1_555 1_555
C18G C16G 1_555 1_555
C18O C16O 1_555 1_555
C18I C16I 1_555 1_555
H17F C18F 1_555 1_555
H17N C18N 1_555 1_555
H17H C18H 1_555 1_555
H17A C18A 1_555 1_555
H17G C18G 1_555 1_555
H17O C18O 1_555 1_555
H17I C18I 1_555 1_555
H18F C18F 1_555 1_555
H18N C18N 1_555 1_555
H18H C18H 1_555 1_555
H18A C18A 1_555 1_555
H18G C18G 1_555 1_555
H18O C18O 1_555 1_555
H18I C18I 1_555 1_555
H19F C18F 1_555 1_555
H19N C18N 1_555 1_555
H19H C18H 1_555 1_555
H19A C18A 1_555 1_555
H19G C18G 1_555 1_555
H19O C18O 1_555 1_555
H19I C18I 1_555 1_555
C19F C16F 1_555 1_555
C19N C16N 1_555 1_555
C19H C16H 1_555 1_555
C19A C16A 1_555 1_555
C19G C16G 1_555 1_555
C19O C16O 1_555 1_555
C19I C16I 1_555 1_555
H20F C19F 1_555 1_555
H20N C19N 1_555 1_555
H20H C19H 1_555 1_555
H20A C19A 1_555 1_555
H20G C19G 1_555 1_555
H20O C19O 1_555 1_555
H20I C19I 1_555 1_555
H21F C19F 1_555 1_555
H21N C19N 1_555 1_555
H21H C19H 1_555 1_555
H21A C19A 1_555 1_555
H21G C19G 1_555 1_555
H21O C19O 1_555 1_555
H21I C19I 1_555 1_555
H22F C19F 1_555 1_555
H22N C19N 1_555 1_555
H22H C19H 1_555 1_555
H22A C19A 1_555 1_555
H22G C19G 1_555 1_555
H22O C19O 1_555 1_555
H22I C19I 1_555 1_555
O2 Cu1F 1_555 1_555
N2 C3 1_555 1_555
C7 C11N 1_555 1_555
C8 C10 1_555 1_555
C8 C11N 1_555 1_555
C9 C10 1_555 1_555
C10 C11N 1_555 1_555
C11 C7N 1_555 1_555
C11 C8N 1_555 1_555
C11 C10N 1_555 1_555
O2F C15F 1_555 1_555
O2N C15N 1_555 1_555
O2H C15H 1_555 1_555
O2A C15A 1_555 1_555
O2O C15O 1_555 1_555
O2I C15I 1_555 1_555
N2A C3A 1_555 1_555
N2E C3E 1_555 1_555
N2D C3D 1_555 1_555
C7N C8N 1_555 1_555
C7N C10N 1_555 1_555
C7A C11O 1_555 1_555
C7O C11A 1_555 1_555
C7K C11E 1_555 1_555
C7E C11K 1_555 1_555
C7J C11D 1_555 1_555
C7D C11J 1_555 1_555
C8N C10N 1_555 1_555
C8A C10A 1_555 1_555
C8A C11O 1_555 1_555
C8O C9A 1_555 1_555
C8O C10O 1_555 1_555
C8O C11A 1_555 1_555
C8K C10K 1_555 1_555
C8K C11E 1_555 1_555
C8E C9E 1_555 1_555
C8E C10E 1_555 1_555
C8E C11K 1_555 1_555
C8J C10J 1_555 1_555
C8J C11D 1_555 1_555
C8D C9D 1_555 1_555
C8D C10D 1_555 1_555
C8D C11J 1_555 1_555
C9A C10O 1_555 1_555
C9A C10A 1_555 1_555
C9A C12A 1_555 1_555
C9E C10E 1_555 1_555
C9E C10K 1_555 1_555
C9D C10D 1_555 1_555
C9D C10J 1_555 1_555
C9D C12D 1_555 1_555
C10O C11A 1_555 1_555
C10A C11O 1_555 1_555
C10E C11K 1_555 1_555
C10K C11E 1_555 1_555
C10D C11J 1_555 1_555
C10J C11D 1_555 1_555
C12E C14A 1_555 1_555
C12E C14K 1_555 1_555
C12D C13D 1_555 1_555
C12D C14J 1_555 1_555

#END
