
#######################################################################
#
#                 Cambridge Crystallographic Data Centre
#                                CCDC 
#
#######################################################################
#
# If this CIF has been generated from an entry in the Cambridge 
# Structural Database, then it will include bibliographic, chemical, 
# crystal, experimental, refinement or atomic coordinate data resulting 
# from the CCDC's data processing and validation procedures.
#
#######################################################################

data_FIDRIV
_chemical_formula_moiety         '(C38 H42 Dy1 Na1 O14)n,6n(H2 O1)'
_chemical_name_systematic        
"catena-[(\m~8~-5',5''-Di-t-butyl-4',6''-dihydroxy-2',2''-dimethyl-1,1':3',1'':3'',1'''-quaterphenyl-3,3''',5,5'''-tetracarboxylato)-tetra-aqua-dysprosium(iii)-sodium(i) unknown solvate hexahydrate]"
_symmetry_cell_setting           tetragonal
_symmetry_space_group_name_H-M   'P 41 2 2'
_symmetry_Int_Tables_number      91
_space_group_name_Hall           'P 4w 2c'
loop_
_symmetry_equiv_pos_site_id
_symmetry_equiv_pos_as_xyz
1 x,y,z
2 -y,x,1/4+z
3 -x,-y,1/2+z
4 y,-x,3/4+z
5 x,-y,1/2-z
6 -x,y,-z
7 y,x,3/4-z
8 -y,-x,1/4-z
_cell_length_a                   23.6972(10)
_cell_length_b                   23.6972(10)
_cell_length_c                   14.1273(6)
_cell_angle_alpha                90
_cell_angle_beta                 90
_cell_angle_gamma                90
_cell_volume                     7933.29
_exptl_crystal_colour            'pale yellow'
_exptl_crystal_description       block
_cell_formula_units_Z            4
loop_
_atom_site_label
_atom_site_type_symbol
_atom_site_fract_x
_atom_site_fract_y
_atom_site_fract_z
_atom_site_U_iso_or_equiv
_atom_site_thermal_displace_type
Dy1 Dy 0.0000 0.40988(3) 0.0000 0.0636 Uani
Na1 Na 0.08101(10) 0.5000 -0.2500 0.0220 Uani
O1 O 0.0633(3) 0.4804(2) 0.0040(3) 0.0627 Uani
O2 O 0.0881(3) 0.5438(3) -0.1083(3) 0.0727 Uani
O3 O -0.0076(2) 0.55765(17) 0.3192(3) 0.0513 Uani
O4 O 0.0455(3) 0.6268(2) 0.3673(3) 0.0710 Uani
O5 O 0.1303(3) 0.9004(2) -0.0137(4) 0.0703 Uani
O6 O 0.0763(4) 0.3586(3) -0.0637(4) 0.0930 Uani
C1 C 0.0715(4) 0.5290(4) -0.0245(5) 0.0587 Uani
C2 C 0.0692(2) 0.57718(15) 0.0462(2) 0.0503 Uani
C3 C 0.0502(2) 0.56544(13) 0.1372(3) 0.0483 Uani
H1 H 0.0408 0.5287 0.1539 0.0580 Uiso
C4 C 0.0453(2) 0.60867(16) 0.2032(2) 0.0513 Uani
C5 C 0.0593(2) 0.66363(14) 0.1782(2) 0.0443 Uani
H2 H 0.0560 0.6926 0.2223 0.0530 Uiso
C6 C 0.0783(2) 0.67537(14) 0.0872(2) 0.0487 Uani
C7 C 0.0832(2) 0.63214(17) 0.02118(19) 0.0500 Uani
H3 H 0.0959 0.6400 -0.0397 0.0600 Uiso
C8 C 0.0267(4) 0.5961(3) 0.3007(5) 0.0560 Uani
C9 C 0.0946(2) 0.73495(15) 0.0619(3) 0.0523 Uani
C10 C 0.1282(2) 0.76841(19) 0.1197(2) 0.0543 Uani
C11 C 0.1403(2) 0.82367(19) 0.0937(3) 0.0600 Uani
C12 C 0.1188(2) 0.84548(15) 0.0098(3) 0.0577 Uani
C13 C 0.0851(2) 0.81202(19) -0.0481(3) 0.0600 Uani
C14 C 0.0730(2) 0.75676(19) -0.0220(3) 0.0590 Uani
H4 H 0.0505 0.7344 -0.0608 0.0710 Uiso
C15 C 0.1576(4) 0.7438(4) 0.2073(5) 0.0660 Uani
H5 H 0.1457 0.7055 0.2164 0.1000 Uiso
H6 H 0.1479 0.7658 0.2620 0.1000 Uiso
H7 H 0.1978 0.7449 0.1982 0.1000 Uiso
C16 C 0.0638(4) 0.8353(5) -0.1481(5) 0.0713 Uani
C17 C 0.0274(5) 0.8851(5) -0.1320(7) 0.0897 Uani
H8 H 0.0483 0.9134 -0.0984 0.1340 Uiso
H9 H -0.0050 0.8742 -0.0954 0.1340 Uiso
H10 H 0.0152 0.9000 -0.1918 0.1340 Uiso
C18 C 0.1148(5) 0.8525(5) -0.2095(6) 0.0927 Uani
H11 H 0.1391 0.8205 -0.2183 0.1390 Uiso
H12 H 0.1353 0.8821 -0.1786 0.1390 Uiso
H13 H 0.1018 0.8655 -0.2700 0.1390 Uiso
C19 C 0.0279(5) 0.7933(4) -0.2011(5) 0.0750 Uani
H14 H 0.0494 0.7597 -0.2130 0.1120 Uiso
H15 H 0.0161 0.8095 -0.2602 0.1120 Uiso
H16 H -0.0047 0.7840 -0.1639 0.1120 Uiso
O7 O 0.1427(6) 0.4298(7) -0.1966(7) 0.1883 Uani
O1G O 0.5196(2) 0.9367(3) 0.2460(3) 0.0627 Uani
O2G O 0.4562(3) 0.9119(3) 0.3583(3) 0.0727 Uani
O3G O 0.44235(17) 1.0076(2) -0.0692(3) 0.0513 Uani
O4G O 0.3732(2) 0.9545(3) -0.1173(3) 0.0710 Uani
O5G O 0.0996(2) 0.8697(3) 0.2637(4) 0.0703 Uani
C1G C 0.4710(4) 0.9285(4) 0.2745(5) 0.0587 Uani
C2G C 0.42282(15) 0.9308(2) 0.2038(2) 0.0503 Uani
C3G C 0.43456(13) 0.9498(2) 0.1128(3) 0.0483 Uani
H1G H 0.4713 0.9592 0.0961 0.0580 Uiso
C4G C 0.39133(16) 0.9547(2) 0.0468(2) 0.0513 Uani
C5G C 0.33637(14) 0.9407(2) 0.0718(2) 0.0443 Uani
H2G H 0.3074 0.9440 0.0277 0.0530 Uiso
C6G C 0.32463(14) 0.9217(2) 0.1628(2) 0.0487 Uani
C7G C 0.36786(17) 0.9168(2) 0.22882(19) 0.0500 Uani
H3G H 0.3600 0.9041 0.2897 0.0600 Uiso
C8G C 0.4039(3) 0.9733(4) -0.0507(5) 0.0560 Uani
C9G C 0.26505(15) 0.9054(2) 0.1881(3) 0.0523 Uani
C10G C 0.23159(19) 0.8718(2) 0.1303(2) 0.0543 Uani
C11G C 0.17633(19) 0.8597(2) 0.1563(3) 0.0600 Uani
C12G C 0.15452(15) 0.8812(2) 0.2402(3) 0.0577 Uani
C13G C 0.18798(19) 0.9149(2) 0.2981(3) 0.0600 Uani
C14G C 0.24324(19) 0.9270(2) 0.2720(3) 0.0590 Uani
H4G H 0.2656 0.9495 0.3108 0.0710 Uiso
C15G C 0.2562(4) 0.8424(4) 0.0427(5) 0.0660 Uani
H5G H 0.2945 0.8543 0.0336 0.1000 Uiso
H6G H 0.2342 0.8521 -0.0120 0.1000 Uiso
H7G H 0.2551 0.8022 0.0518 0.1000 Uiso
C16G C 0.1647(5) 0.9362(4) 0.3981(5) 0.0713 Uani
C17G C 0.1149(5) 0.9726(5) 0.3820(7) 0.0897 Uani
H8G H 0.0866 0.9517 0.3484 0.1340 Uiso
H9G H 0.1258 1.0050 0.3454 0.1340 Uiso
H10G H 0.1000 0.9848 0.4418 0.1340 Uiso
C18G C 0.1475(5) 0.8852(5) 0.4595(6) 0.0927 Uani
H11G H 0.1795 0.8609 0.4683 0.1390 Uiso
H12G H 0.1179 0.8647 0.4286 0.1390 Uiso
H13G H 0.1345 0.8982 0.5200 0.1390 Uiso
C19G C 0.2067(4) 0.9721(5) 0.4511(5) 0.0750 Uani
H14G H 0.2403 0.9506 0.4630 0.1120 Uiso
H15G H 0.1905 0.9839 0.5102 0.1120 Uiso
H16G H 0.2160 1.0047 0.4139 0.1120 Uiso
O7D O 0.1427(6) 0.5702(7) -0.3034(7) 0.1883 Uani
O6E O -0.0763(4) 0.3586(3) 0.0637(4) 0.0930 Uani
Dy1A Dy 0.59012(3) 1.0000 0.2500 0.0636 Uani
Dy1B Dy 0.0000 0.59012(3) 0.5000 0.0636 Uani
Dy1C Dy 0.40988(3) 1.0000 -0.2500 0.0636 Uani
Na1A Na 0.5000 1.08101(10) 0.0000 0.0220 Uani
Na1B Na -0.08101(10) 0.5000 0.2500 0.0220 Uani
Na1C Na 0.5000 0.91899(10) 0.5000 0.0220 Uani
O1E O -0.0633(3) 0.4804(2) -0.0040(3) 0.0627 Uani
O2D O 0.0881(3) 0.4562(3) -0.3917(3) 0.0727 Uani
O3B O 0.0076(2) 0.44235(17) -0.1808(3) 0.0513 Uani
O3D O -0.0076(2) 0.44235(17) 0.1808(3) 0.0513 Uani
O3E O 0.0076(2) 0.55765(17) -0.3192(3) 0.0513 Uani
O4B O -0.0455(3) 0.3732(2) -0.1327(3) 0.0710 Uani
O4D O 0.0455(3) 0.3732(2) 0.1327(3) 0.0710 Uani
loop_
_atom_site_aniso_label
_atom_site_aniso_U_11
_atom_site_aniso_U_22
_atom_site_aniso_U_33
_atom_site_aniso_U_23
_atom_site_aniso_U_13
_atom_site_aniso_U_12
Dy1 0.1216(7) 0.0494(4) 0.0199(3) 0.000 -0.0083(3) 0.000
Na1 0.022 0.022 0.022 0.000 0.000 0.000
O1 0.097 0.070 0.021 -0.021 0.002 -0.005
O2 0.099 0.097 0.022 -0.019 0.008 -0.016
O3 0.103 0.030 0.021 -0.004 0.011 -0.006
O4 0.152 0.048 0.013 -0.008 0.019 -0.046
O5 0.098 0.066 0.047 0.013 -0.005 -0.032
O6 0.160 0.076 0.043 -0.013 0.010 0.062
C1 0.079 0.071 0.026 -0.017 -0.002 0.011
C2 0.082(5) 0.060(5) 0.009(3) -0.005(3) 0.009(3) -0.006(4)
C3 0.085(5) 0.032(3) 0.028(3) -0.004(3) -0.005(3) -0.001(3)
C4 0.086(5) 0.047(4) 0.021(3) -0.004(3) 0.016(3) -0.007(4)
C5 0.072(5) 0.042(4) 0.019(3) -0.003(3) 0.002(3) -0.007(3)
C6 0.059(5) 0.061(4) 0.026(3) 0.004(3) -0.002(3) -0.012(3)
C7 0.066(5) 0.067(4) 0.017(3) -0.016(3) 0.009(3) -0.020(4)
C8 0.105(6) 0.039(4) 0.024(3) -0.014(3) 0.014(4) 0.001(4)
C9 0.063(5) 0.065(5) 0.029(4) -0.003(3) 0.009(3) -0.024(4)
C10 0.089(6) 0.061(5) 0.013(3) 0.002(3) 0.003(3) -0.026(4)
C11 0.080(6) 0.073(5) 0.027(4) -0.007(3) 0.012(4) -0.045(4)
C12 0.069(5) 0.076(5) 0.028(4) -0.010(4) 0.000(4) -0.025(4)
C13 0.060(5) 0.078(6) 0.042(4) 0.002(4) -0.005(4) -0.030(4)
C14 0.077(5) 0.077(5) 0.023(4) 0.007(3) -0.008(3) -0.034(4)
C15 0.090(6) 0.086(6) 0.022(3) 0.000(4) -0.009(4) -0.027(5)
C16 0.093(7) 0.095(7) 0.026(4) 0.013(4) -0.010(4) -0.042(6)
C17 0.108(8) 0.118(9) 0.043(5) 0.019(5) -0.012(5) -0.020(7)
C18 0.118(9) 0.130(9) 0.030(4) 0.015(5) -0.010(5) -0.046(7)
C19 0.111(7) 0.089(6) 0.025(4) 0.014(4) -0.013(4) -0.027(5)
O7 0.201(12) 0.269(16) 0.095(7) -0.049(8) -0.030(7) 0.154(12)
O1G 0.07 0.097 0.021 0.002 -0.021 -0.005
O2G 0.097 0.099 0.022 0.008 -0.019 -0.016
O3G 0.03 0.103 0.021 0.011 -0.004 -0.006
O4G 0.048 0.152 0.013 0.019 -0.008 -0.046
O5G 0.066 0.098 0.047 -0.005 0.013 -0.032
C1G 0.071 0.079 0.026 -0.002 -0.017 0.011
C2G 0.06 0.082 0.009 0.009 -0.005 -0.006
C3G 0.032 0.085 0.028 -0.005 -0.004 -0.001
C4G 0.047 0.086 0.021 0.016 -0.004 -0.007
C5G 0.042 0.072 0.019 0.002 -0.003 -0.007
C6G 0.061 0.059 0.026 -0.002 0.004 -0.012
C7G 0.067 0.066 0.017 0.009 -0.016 -0.02
C8G 0.039 0.105 0.024 0.014 -0.014 0.001
C9G 0.065 0.063 0.029 0.009 -0.003 -0.024
C10G 0.061 0.089 0.013 0.003 0.002 -0.026
C11G 0.073 0.08 0.027 0.012 -0.007 -0.045
C12G 0.076 0.069 0.028 0 -0.01 -0.025
C13G 0.078 0.06 0.042 -0.005 0.002 -0.03
C14G 0.077 0.077 0.023 -0.008 0.007 -0.034
C15G 0.086 0.09 0.022 -0.009 0 -0.027
C16G 0.095 0.093 0.026 -0.01 0.013 -0.042
C17G 0.118 0.108 0.043 -0.012 0.019 -0.02
C18G 0.13 0.118 0.03 -0.01 0.015 -0.046
C19G 0.089 0.111 0.025 -0.013 0.014 -0.027
O7D 0.201 0.269 0.095 -0.049 0.03 -0.154
O6E 0.16 0.076 0.043 0.013 0.01 -0.062
Dy1A 0.0494 0.1216 0.0199 -0.0083 0 0
Dy1B 0.1216 0.0494 0.0199 0 0.0083 0
Dy1C 0.0494 0.1216 0.0199 0.0083 0 0
Na1A 0.022 0.022 0.022 0 0 0
Na1B 0.022 0.022 0.022 0 0 0
Na1C 0.022 0.022 0.022 0 0 0
O1E 0.097 0.07 0.021 0.021 0.002 0.005
O2D 0.099 0.097 0.022 -0.019 -0.008 0.016
O3B 0.103 0.03 0.021 0.004 -0.011 -0.006
O3D 0.103 0.03 0.021 -0.004 -0.011 0.006
O3E 0.103 0.03 0.021 0.004 0.011 0.006
O4B 0.152 0.048 0.013 0.008 -0.019 -0.046
O4D 0.152 0.048 0.013 -0.008 -0.019 0.046
loop_
_geom_bond_atom_site_label_1
_geom_bond_atom_site_label_2
_geom_bond_site_symmetry_1
_geom_bond_site_symmetry_2
Dy1 O1 1_555 1_555
Na1 O2 1_555 1_555
O1 C1 1_555 1_555
O2 C1 1_555 1_555
O3 C8 1_555 1_555
O4 C8 1_555 1_555
O5 C12 1_555 1_555
O6 Dy1 1_555 1_555
C1 C2 1_555 1_555
C2 C3 1_555 1_555
C3 H1 1_555 1_555
C4 C3 1_555 1_555
C5 C4 1_555 1_555
H2 C5 1_555 1_555
C6 C5 1_555 1_555
C7 C2 1_555 1_555
H3 C7 1_555 1_555
C8 C4 1_555 1_555
C9 C6 1_555 1_555
C10 C9 1_555 1_555
C11 C10 1_555 1_555
C12 C11 1_555 1_555
C13 C12 1_555 1_555
C14 C9 1_555 1_555
H4 C14 1_555 1_555
C15 C10 1_555 1_555
H5 C15 1_555 1_555
H6 C15 1_555 1_555
H7 C15 1_555 1_555
C16 C13 1_555 1_555
C17 C16 1_555 1_555
H8 C17 1_555 1_555
H9 C17 1_555 1_555
H10 C17 1_555 1_555
C18 C16 1_555 1_555
H11 C18 1_555 1_555
H12 C18 1_555 1_555
H13 C18 1_555 1_555
C19 C16 1_555 1_555
H14 C19 1_555 1_555
H15 C19 1_555 1_555
H16 C19 1_555 1_555
O7 Na1 1_555 1_555
O1G C1G 1_555 1_555
O2G C1G 1_555 1_555
O3G C8G 1_555 1_555
O4G C8G 1_555 1_555
O5G C12G 1_555 1_555
C1G C2G 1_555 1_555
C2G C3G 1_555 1_555
C3G H1G 1_555 1_555
C4G C3G 1_555 1_555
C5G C4G 1_555 1_555
H2G C5G 1_555 1_555
C6G C5G 1_555 1_555
C7G C2G 1_555 1_555
H3G C7G 1_555 1_555
C8G C4G 1_555 1_555
C9G C6G 1_555 1_555
C10G C9G 1_555 1_555
C11G C11 1_555 1_555
C12G C11G 1_555 1_555
C13G C12G 1_555 1_555
C14G C9G 1_555 1_555
H4G C14G 1_555 1_555
C15G C10G 1_555 1_555
H5G C15G 1_555 1_555
H6G C15G 1_555 1_555
H7G C15G 1_555 1_555
C16G C13G 1_555 1_555
C17G C16G 1_555 1_555
H8G C17G 1_555 1_555
H9G C17G 1_555 1_555
H10G C17G 1_555 1_555
C18G C16G 1_555 1_555
H11G C18G 1_555 1_555
H12G C18G 1_555 1_555
H13G C18G 1_555 1_555
C19G C16G 1_555 1_555
H14G C19G 1_555 1_555
H15G C19G 1_555 1_555
H16G C19G 1_555 1_555
O7D Na1 1_555 1_555
O6E Dy1 1_555 1_555
Dy1A O1G 1_555 1_555
Dy1B O3 1_555 1_555
Dy1C O3G 1_555 1_555
Na1A O3G 1_555 1_555
Na1B O3 1_555 1_555
Na1C O2G 1_555 1_555
O1E Dy1 1_555 1_555
O2D Na1 1_555 1_555
O3B Dy1 1_555 1_555
O3D Dy1 1_555 1_555
O3E Na1 1_555 1_555
O4B Dy1 1_555 1_555
O4D Dy1 1_555 1_555
Na1 O3B 1_555 1_555
O4 Dy1B 1_555 1_555
C6 C7 1_555 1_555
C13 C14 1_555 1_555
O4G Dy1C 1_555 1_555
C6G C7G 1_555 1_555
C10G C11G 1_555 1_555
C13G C14G 1_555 1_555
Na1B O3D 1_555 1_555

#END
