
#######################################################################
#
#                 Cambridge Crystallographic Data Centre
#                                CCDC 
#
#######################################################################
#
# If this CIF has been generated from an entry in the Cambridge 
# Structural Database, then it will include bibliographic, chemical, 
# crystal, experimental, refinement or atomic coordinate data resulting 
# from the CCDC's data processing and validation procedures.
#
#######################################################################

data_RULMUI
_chemical_formula_moiety         '(C178 H140 N16 O46 Zn11)n,7(C3 H7 N1 O1)'
_chemical_name_systematic        
"catena-[undecakis(\m-biphenyl-4,4'-dicarboxylato)-tetrakis(\m-1,3,5,7-tetraazatricyclo[3.3.1.1^3,7^]decane)-diaqua-undeca-zinc N,N-dimethylformamide solvate]"
_symmetry_cell_setting           monoclinic
_symmetry_space_group_name_H-M   'P 2/c'
_symmetry_Int_Tables_number      13
_space_group_name_Hall           '-P 2yc'
loop_
_symmetry_equiv_pos_site_id
_symmetry_equiv_pos_as_xyz
1 x,y,z
2 -x,y,1/2-z
3 -x,-y,-z
4 x,-y,1/2+z
_cell_length_a                   22.018(1)
_cell_length_b                   20.783(1)
_cell_length_c                   37.062(1)
_cell_angle_alpha                90
_cell_angle_beta                 94.845(1)
_cell_angle_gamma                90
_cell_volume                     16899
_exptl_crystal_colour            colorless
_exptl_crystal_description       block
_cell_formula_units_Z            2
_exptl_crystal_preparation       'gas sorption'
loop_
_atom_site_label
_atom_site_type_symbol
_atom_site_fract_x
_atom_site_fract_y
_atom_site_fract_z
O24 O 0.7459(2) 0.1383(3) 0.78780(13)
C90 C 0.7188(4) 0.1716(6) 0.8036(3)
H69 H 0.6920 0.1546 0.8199
N9 N 0.7241(2) 0.2440(4) 0.79926(17)
C91 C 0.7593(4) 0.2548(6) 0.7759(2)
H70 H 0.7632 0.3013 0.7727
H71 H 0.7433 0.2352 0.7530
H72 H 0.7993 0.2364 0.7834
C92 C 0.6854(5) 0.2741(7) 0.8206(3)
H73 H 0.6889 0.3208 0.8177
H74 H 0.6961 0.2625 0.8460
H75 H 0.6435 0.2606 0.8134
O25 O 1.1925(6) -0.1028(5) 0.6065(3)
C93 C 1.1395(9) -0.0714(7) 0.6017(4)
H76 H 1.1105 -0.0830 0.5824
N10 N 1.1268(6) -0.0233(5) 0.6242(2)
C94 C 1.1686(7) -0.0041(6) 0.6546(3)
H77 H 1.1507 0.0313 0.6676
H78 H 1.2071 0.0101 0.6458
H79 H 1.1762 -0.0407 0.6711
C95 C 1.0693(7) 0.0108(5) 0.6180(3)
H80 H 1.0466 -0.0061 0.5961
H81 H 1.0772 0.0568 0.6149
H82 H 1.0452 0.0047 0.6388
Zn1 Zn 0.771655(18) 0.17991(2) 0.648898(10)
N1 N 0.77933(13) 0.09145(14) 0.67472(7)
O1 O 0.82903(12) 0.23243(14) 0.68440(7)
O2 O 0.83772(13) 0.17308(14) 0.61534(7)
O3 O 0.70313(14) 0.21707(16) 0.67372(8)
O4 O 0.71007(15) 0.15567(16) 0.60647(9)
C1 C 0.84119(15) 0.08606(18) 0.69233(8)
C2 C 0.76811(15) 0.03724(17) 0.64832(8)
C3 C 0.73494(17) 0.08422(19) 0.70324(9)
C4 C 0.83571(16) 0.2916(2) 0.68513(9)
C5 C 0.84594(17) 0.2156(2) 0.59171(9)
C6 C 0.67692(18) 0.2707(2) 0.67378(10)
C7 C 0.68495(18) 0.1970(3) 0.58683(10)
N2 N 0.85074(14) 0.02425(14) 0.71127(7)
H1 H 0.8485 0.1217 0.7099
H2 H 0.8709 0.0902 0.6739
N3 N 0.77732(13) -0.02573(14) 0.66705(7)
H3 H 0.7259 0.0399 0.6369
H4 H 0.7964 0.0409 0.6290
N4 N 0.74332(14) 0.02231(15) 0.72182(7)
H5 H 0.7411 0.1196 0.7211
H6 H 0.6928 0.0872 0.6918
O5 O 0.81786(14) 0.32997(13) 0.66041(6)
C8 C 0.86675(17) 0.32052(19) 0.71893(9)
O6 O 0.82151(12) 0.26925(14) 0.58949(7)
C9 C 0.88978(17) 0.19789(18) 0.56452(9)
O7 O 0.69055(16) 0.31808(16) 0.65588(10)
C10 C 0.62577(19) 0.2772(2) 0.69733(11)
O8 O 0.69482(14) 0.25610(18) 0.58880(8)
C11 C 0.6366(2) 0.1749(3) 0.55801(12)
Zn2 Zn 0.93903(2) 0.01971(2) 0.734607(10)
C12 C 0.83990(16) -0.02900(18) 0.68482(9)
C13 C 0.80546(18) 0.01793(19) 0.73924(9)
Zn3 Zn 0.76524(2) -0.10236(2) 0.630570(11)
C14 C 0.73320(17) -0.02958(19) 0.69608(9)
Zn4 Zn 0.755265(18) 0.30814(2) 0.619382(10)
C15 C 0.90459(17) 0.2836(2) 0.74291(9)
C16 C 0.8567(2) 0.3850(2) 0.72788(10)
C17 C 0.9221(2) 0.1407(2) 0.56781(11)
C18 C 0.89875(18) 0.2371(2) 0.53541(9)
C19 C 0.6110(2) 0.2262(3) 0.71862(15)
C20 C 0.5923(3) 0.3315(3) 0.69856(17)
C21 C 0.6228(3) 0.1143(3) 0.55196(17)
C22 C 0.6051(3) 0.2199(4) 0.53701(19)
O9 O 0.98114(14) -0.03843(15) 0.70101(7)
O10 O 0.92894(13) -0.05702(15) 0.76716(7)
O11 O 0.92629(12) 0.07798(14) 0.77664(7)
O12 O 0.97399(12) 0.09534(13) 0.70871(7)
H7 H 0.8696 -0.0261 0.6663
H8 H 0.8460 -0.0708 0.6974
H9 H 0.8111 -0.0240 0.7518
H10 H 0.8122 0.0525 0.7575
O13 O 0.7991(5) -0.1627(4) 0.66976(19)
O14 O 0.8250(2) -0.1388(2) 0.60137(14)
O15 O 0.7011(5) -0.0935(5) 0.5928(3)
H11 H 0.6909 -0.0273 0.6847
H12 H 0.7383 -0.0713 0.7089
N5 N 0.74146(14) 0.39703(17) 0.59549(9)
H13 H 0.9123 0.2400 0.7372
C23 C 0.93100(18) 0.3095(2) 0.77480(9)
C24 C 0.8809(2) 0.4101(2) 0.76027(10)
H14 H 0.8329 0.4117 0.7114
H15 H 0.9171 0.1129 0.5877
C25 C 0.9622(2) 0.1235(2) 0.54207(11)
C26 C 0.93817(19) 0.2205(2) 0.51014(10)
H16 H 0.8771 0.2766 0.5328
H17 H 0.6346 0.1879 0.7187
C27 C 0.5632(2) 0.2298(3) 0.73945(14)
C28 C 0.5430(3) 0.3346(3) 0.71903(16)
H18 H 0.6028 0.3681 0.6851
H19 H 0.6446 0.0820 0.5658
C29 C 0.5774(3) 0.0962(3) 0.52608(19)
C30 C 0.5581(3) 0.2008(4) 0.51128(19)
H20 H 0.6150 0.2642 0.5398
C31 C 1.0315(2) -0.0669(2) 0.70635(11)
C32 C 0.79181(16) 0.41076(18) 0.57374(9)
C33 C 0.6837(2) 0.4025(3) 0.57184(15)
C34 C 0.7405(3) 0.4503(2) 0.62371(13)
H21 H 0.9576 0.2840 0.7904
C35 C 0.91870(17) 0.3735(2) 0.78422(9)
H22 H 0.8716 0.4531 0.7664
H23 H 0.9836 0.0839 0.5444
C36 C 0.97090(18) 0.1638(2) 0.51326(9)
H24 H 0.9430 0.2484 0.4903
H25 H 0.5544 0.1942 0.7542
C37 C 0.5275(2) 0.2837(2) 0.73957(12)
H26 H 0.5194 0.3728 0.7189
H27 H 0.5689 0.0516 0.5233
C38 C 0.5457(2) 0.1358(3) 0.50542(14)
H28 H 0.5347 0.2323 0.4978
C39 C 1.0454(2) -0.1191(3) 0.68040(14)
N6 N 0.78693(15) 0.47422(15) 0.55648(8)
H29 H 0.7931 0.3774 0.5548
H30 H 0.8305 0.4085 0.5893
N7 N 0.6766(2) 0.4666(2) 0.55503(14)
H31 H 0.6832 0.3694 0.5526
H32 H 0.6489 0.3941 0.5864
N8 N 0.7360(3) 0.5121(2) 0.60771(13)
H33 H 0.7054 0.4436 0.6383
H34 H 0.7782 0.4480 0.6402
C40 C 0.94579(18) 0.40025(19) 0.81942(9)
C41 C 1.0148(2) 0.1465(2) 0.48673(10)
C42 C 0.4949(4) 0.1148(5) 0.4801(2)
C43 C 1.0020(3) -0.1322(3) 0.65122(16)
C44 C 1.1010(2) -0.1502(3) 0.68302(13)
Zn5 Zn 0.86371(2) 0.48381(2) 0.528243(11)
C45 C 0.7286(2) 0.4774(3) 0.53388(14)
C46 C 0.7859(3) 0.5233(2) 0.58599(12)
C47 C 0.6795(3) 0.5136(3) 0.5837(2)
C48 C 0.9121(2) 0.4377(2) 0.84116(10)
C49 C 1.00557(18) 0.3865(2) 0.83137(9)
C50 C 1.0193(2) 0.0839(2) 0.47377(12)
C51 C 1.0534(2) 0.1924(2) 0.47429(14)
C52 C 0.5047(5) 0.0765(4) 0.4512(2)
C53 C 0.4360(5) 0.1412(6) 0.4836(3)
H35 H 0.9653 -0.1082 0.6477
C54 C 1.0151(3) -0.1823(3) 0.62756(17)
C55 C 1.1134(3) -0.1967(3) 0.65784(14)
H36 H 1.1308 -0.1398 0.7021
O16 O 0.81815(15) 0.55529(17) 0.48767(8)
O17 O 0.91514(14) 0.55306(14) 0.50529(7)
O18 O 0.91832(12) 0.46462(13) 0.57191(6)
O19 O 0.84663(14) 0.41110(15) 0.49255(7)
H37 H 0.7246 0.5203 0.5222
H38 H 0.7285 0.4446 0.5145
H39 H 0.8247 0.5215 0.6015
H40 H 0.7821 0.5668 0.5752
H41 H 0.6447 0.5066 0.5985
H42 H 0.6749 0.5570 0.5728
H43 H 0.8711 0.4484 0.8332
C56 C 0.93698(18) 0.4600(2) 0.87441(10)
C57 C 1.03112(18) 0.4096(2) 0.86435(9)
H44 H 1.0295 0.3609 0.8168
H45 H 0.9933 0.0515 0.4819
C58 C 1.0608(2) 0.0683(2) 0.44945(12)
C59 C 1.0959(3) 0.1774(3) 0.44972(15)
H46 H 1.0509 0.2355 0.4827
H47 H 0.5445 0.0601 0.4491
C60 C 0.4598(5) 0.0613(5) 0.4256(2)
C61 C 0.3886(6) 0.1253(7) 0.4575(3)
H48 H 0.4290 0.1690 0.5032
H49 H 0.9851 -0.1944 0.6089
C62 C 1.0696(3) -0.2142(3) 0.63060(15)
H50 H 1.1523 -0.2167 0.6593
C63 C 0.8705(2) 0.5749(2) 0.48419(11)
Zn6 Zn 1.0000 0.5000 0.5000
H51 H 0.9127 0.4852 0.8890
C64 C 0.99689(17) 0.44607(19) 0.88673(9)
H52 H 1.0726 0.4004 0.8718
H53 H 1.0631 0.0251 0.4412
C65 C 1.0986(2) 0.1132(2) 0.43690(11)
H54 H 1.1224 0.2095 0.4417
H55 H 0.4697 0.0362 0.4054
C66 C 0.4037(8) 0.0794(7) 0.4273(5)
H56 H 0.3488 0.1424 0.4585
C67 C 1.0813(3) -0.2640(2) 0.60293(13)
C68 C 0.8834(2) 0.6235(2) 0.45618(11)
O20 O 1.01108(11) 0.48997(13) 0.55527(6)
O21 O 1.05256(14) 0.57997(14) 0.50293(7)
C69 C 1.02398(18) 0.46863(18) 0.92267(8)
C70 C 1.1428(2) 0.0950(3) 0.40958(13)
C71 C 0.3525(6) 0.0664(7) 0.3989(4)
C72 C 1.1374(2) -0.2710(2) 0.58894(13)
C73 C 1.0334(3) -0.3027(2) 0.58972(13)
C74 C 0.8411(2) 0.6347(2) 0.42737(13)
C75 C 0.9386(2) 0.6566(2) 0.45837(10)
O22 O 1.14595(16) 0.0402(2) 0.39922(8)
O23 O 0.3601(3) 0.0404(4) 0.37302(19)
H57 H 1.1707 -0.2451 0.5981
C76 C 1.1453(2) -0.3147(2) 0.56219(12)
C77 C 1.0411(2) -0.3479(2) 0.56328(11)
H58 H 0.9947 -0.2981 0.5990
H59 H 0.8030 0.6130 0.4257
C78 C 0.8546(2) 0.6780(2) 0.40083(13)
C79 C 0.9510(2) 0.6993(2) 0.43178(10)
H60 H 0.9678 0.6494 0.4783
H61 H 1.1838 -0.3185 0.5526
C80 C 1.0971(2) -0.3536(2) 0.54898(10)
H62 H 1.0082 -0.3751 0.5549
H63 H 0.8251 0.6859 0.3811
C81 C 0.9086(2) 0.7095(2) 0.40210(11)
H64 H 0.9886 0.7220 0.4335
C82 C 1.1018(2) -0.3991(2) 0.51831(10)
C83 C 0.92418(19) 0.7558(2) 0.37328(10)
C84 C 0.8784(2) 0.7897(2) 0.35276(11)
C85 C 0.98459(18) 0.7667(2) 0.36660(10)
H65 H 0.8368 0.7826 0.3566
C86 C 0.89374(18) 0.8337(2) 0.32691(10)
C87 C 0.99922(19) 0.8102(2) 0.34104(10)
H66 H 1.0161 0.7436 0.3800
H67 H 0.8625 0.8566 0.3132
C88 C 0.95404(17) 0.8446(2) 0.32090(9)
H68 H 1.0408 0.8171 0.3370
C89 C 0.96994(19) 0.89393(18) 0.29449(9)
O10A O 1.07106(13) -0.05702(15) 0.73284(7)
C37A C 0.4725(2) 0.2837(2) 0.76043(12)
Zn2A Zn 1.06097(2) 0.01971(2) 0.765393(10)
C27A C 0.4368(2) 0.2298(3) 0.76055(14)
C28A C 0.4570(3) 0.3346(3) 0.78097(16)
C19A C 0.3890(2) 0.2262(3) 0.78138(15)
H25A H 0.4456 0.1942 0.7458
H26A H 0.4806 0.3728 0.7811
C20A C 0.4077(3) 0.3315(3) 0.80144(17)
C10A C 0.37423(19) 0.2772(2) 0.80267(11)
H17A H 0.3654 0.1879 0.7813
H18A H 0.3972 0.3681 0.8149
O20B O 0.98892(11) 0.51003(13) 0.44473(6)
O21B O 0.94744(14) 0.42003(14) 0.49707(7)
O17B O 1.08486(14) 0.44694(14) 0.49471(7)
C6A C 0.32308(18) 0.2707(2) 0.82622(10)
O20A O 0.98892(11) 0.48997(13) 0.94473(6)
O18A O 1.08168(12) 0.46462(13) 0.92809(6)
O14B O 1.1750(2) 0.1388(2) 0.39863(14)
O3A O 0.29687(14) 0.21707(16) 0.82628(8)
O7A O 0.30945(16) 0.31808(16) 0.84412(10)
O15B O 0.2989(5) 0.0935(5) 0.4072(3)
Zn6A Zn 1.0000 0.5000 1.0000
Zn5A Zn 1.13629(2) 0.48381(2) 0.971757(11)
Zn3B Zn 1.23476(2) 0.10236(2) 0.369430(11)
Zn1A Zn 0.228345(18) 0.17991(2) 0.851102(10)
Zn4A Zn 0.244735(18) 0.30814(2) 0.880618(10)
Zn3B_2 Zn 0.23476(2) 0.10236(2) 0.369430(11)
N1A N 0.22067(13) 0.09145(14) 0.82528(7)
O1A O 0.17097(12) 0.23243(14) 0.81560(7)
O2A O 0.16228(13) 0.17308(14) 0.88466(7)
O4A O 0.28993(15) 0.15567(16) 0.89353(9)
N5A N 0.25854(14) 0.39703(17) 0.90451(9)
O5A O 0.18214(14) 0.32997(13) 0.83959(6)
O6A O 0.17849(12) 0.26925(14) 0.91051(7)
O8A O 0.30518(14) 0.25610(18) 0.91120(8)
C1A C 0.15881(15) 0.08606(18) 0.80767(8)
C2A C 0.23189(15) 0.03724(17) 0.85168(8)
C3A C 0.26506(17) 0.08422(19) 0.79676(9)
C4A C 0.16429(16) 0.2916(2) 0.81487(9)
C5A C 0.15406(17) 0.2156(2) 0.90829(9)
C7A C 0.31505(18) 0.1970(3) 0.91317(10)
C32A C 0.20819(16) 0.41076(18) 0.92626(9)
C33A C 0.3163(2) 0.4025(3) 0.92816(15)
C34A C 0.2595(3) 0.4503(2) 0.87629(13)
O19B O 1.15337(14) -0.41110(15) 0.50745(7)
O21_2 O 1.05256(14) -0.42003(14) 0.50293(7)
N2A N 0.14926(14) 0.02425(14) 0.78873(7)
H1A H 0.1515 0.1217 0.7901
H2A H 0.1291 0.0902 0.8261
N3A N 0.22268(13) -0.02573(14) 0.83295(7)
H3A H 0.2741 0.0399 0.8631
H4A H 0.2036 0.0409 0.8710
N4A N 0.25668(14) 0.02231(15) 0.77818(7)
H5A H 0.2589 0.1196 0.7789
H6A H 0.3072 0.0872 0.8082
C8A C 0.13325(17) 0.32052(19) 0.78107(9)
C9A C 0.11022(17) 0.19789(18) 0.93548(9)
C11A C 0.3634(2) 0.1749(3) 0.94199(12)
N6A N 0.21307(15) 0.47422(15) 0.94352(8)
H29A H 0.2069 0.3774 0.9452
H30A H 0.1695 0.4085 0.9107
N7A N 0.3234(2) 0.4666(2) 0.94497(14)
H31A H 0.3168 0.3694 0.9474
H32A H 0.3511 0.3941 0.9136
N8A N 0.2640(3) 0.5121(2) 0.89229(13)
H33A H 0.2946 0.4436 0.8617
H34A H 0.2218 0.4480 0.8598
Zn5B Zn 1.13629(2) -0.48381(2) 0.471757(11)
Zn6_2 Zn 1.0000 -0.5000 0.5000
Zn2A_2 Zn 0.06097(2) 0.01971(2) 0.765393(10)
C12A C 0.16010(16) -0.02900(18) 0.81518(9)
C13A C 0.19454(18) 0.01793(19) 0.76076(9)
Zn3A Zn 0.23476(2) -0.10236(2) 0.869430(11)
C14A C 0.26680(17) -0.02958(19) 0.80392(9)
C15A C 0.09541(17) 0.2836(2) 0.75709(9)
C16A C 0.1433(2) 0.3850(2) 0.77212(10)
C17A C 0.0779(2) 0.1407(2) 0.93219(11)
C18A C 0.10125(18) 0.2371(2) 0.96459(9)
C21A C 0.3772(3) 0.1143(3) 0.94804(17)
C22A C 0.3949(3) 0.2199(4) 0.96299(19)
Zn5A_2 Zn 0.13629(2) 0.48381(2) 0.971757(11)
C45A C 0.2714(2) 0.4774(3) 0.96612(14)
C46A C 0.2141(3) 0.5233(2) 0.91401(12)
C47A C 0.3205(3) 0.5136(3) 0.9163(2)
O9A O 0.01886(14) -0.03843(15) 0.79899(7)
O10A_2 O 0.07106(13) -0.05702(15) 0.73284(7)
O11A O 0.07371(12) 0.07798(14) 0.72336(7)
O12A O 0.02601(12) 0.09534(13) 0.79129(7)
H7A H 0.1304 -0.0261 0.8337
H8A H 0.1540 -0.0708 0.8026
H9A H 0.1889 -0.0240 0.7482
H10A H 0.1878 0.0525 0.7425
O13A O 0.2009(5) -0.1627(4) 0.83024(19)
O14A O 0.1750(2) -0.1388(2) 0.89863(14)
O15A O 0.2989(5) -0.0935(5) 0.9072(3)
H11A H 0.3091 -0.0273 0.8153
H12A H 0.2617 -0.0713 0.7911
H13A H 0.0877 0.2400 0.7628
C23A C 0.06900(18) 0.3095(2) 0.72520(9)
C24A C 0.1191(2) 0.4101(2) 0.73973(10)
H14A H 0.1671 0.4117 0.7886
H15A H 0.0829 0.1129 0.9123
C25A C 0.0378(2) 0.1235(2) 0.95793(11)
C26A C 0.06183(19) 0.2205(2) 0.98986(10)
H16A H 0.1229 0.2766 0.9672
H19A H 0.3554 0.0820 0.9342
C29A C 0.4226(3) 0.0962(3) 0.97392(19)
C30A C 0.4419(3) 0.2008(4) 0.98872(19)
H20A H 0.3850 0.2642 0.9602
O16A O 0.18185(15) 0.55529(17) 1.01233(8)
O17A O 0.08486(14) 0.55306(14) 0.99471(7)
O18A_2 O 0.08168(12) 0.46462(13) 0.92809(6)
O19A O 0.15337(14) 0.41110(15) 1.00745(7)
H37A H 0.2754 0.5203 0.9778
H38A H 0.2715 0.4446 0.9855
H39A H 0.1753 0.5215 0.8985
H40A H 0.2179 0.5668 0.9248
H41A H 0.3553 0.5066 0.9015
H42A H 0.3251 0.5570 0.9272
C31A C -0.0315(2) -0.0669(2) 0.79365(11)
H21A H 0.0424 0.2840 0.7096
C35A C 0.08130(17) 0.3735(2) 0.71578(9)
H22A H 0.1284 0.4531 0.7336
H23A H 0.0164 0.0839 0.9556
C36A C 0.02910(18) 0.1638(2) 0.98674(9)
H24A H 0.0570 0.2484 1.0097
H27A H 0.4311 0.0516 0.9767
C38A C 0.4543(2) 0.1358(3) 0.99458(14)
H28A H 0.4653 0.2323 1.0022
C63A C 0.1295(2) 0.5749(2) 1.01581(11)
Zn6A_2 Zn 0.0000 0.5000 1.0000
O11C O 0.92629(12) 0.92202(14) 0.27664(7)
O12B O 1.02601(12) 0.90466(13) 0.29129(7)
O10_2 O -0.07106(13) -0.05702(15) 0.76716(7)
C39A C -0.0454(2) -0.1191(3) 0.81960(14)
C40A C 0.05421(18) 0.40025(19) 0.68058(9)
C41A C -0.0148(2) 0.1465(2) 1.01327(10)
C42A C 0.5051(4) 0.1148(5) 1.0199(2)
C68A C 0.1166(2) 0.6235(2) 1.04382(11)
Zn2C Zn 0.93903(2) 0.98029(2) 0.234607(10)
Zn2B Zn 1.06097(2) 0.98029(2) 0.265393(10)
Zn2_2 Zn -0.06097(2) 0.01971(2) 0.734607(10)
C43A C -0.0020(3) -0.1322(3) 0.84878(16)
C44A C -0.1010(2) -0.1502(3) 0.81698(13)
C48A C 0.0879(2) 0.4377(2) 0.65884(10)
C49A C -0.00557(18) 0.3865(2) 0.66863(9)
C50A C -0.0193(2) 0.0839(2) 1.02623(12)
C51A C -0.0534(2) 0.1924(2) 1.02571(14)
C52A C 0.4953(5) 0.0765(4) 1.0488(2)
C53A C 0.5640(5) 0.1412(6) 1.0164(3)
C74A C 0.1589(2) 0.6347(2) 1.07263(13)
C75A C 0.0614(2) 0.6566(2) 1.04163(10)
H35A H 0.0347 -0.1082 0.8523
C54A C -0.0151(3) -0.1823(3) 0.87244(17)
C55A C -0.1134(3) -0.1967(3) 0.84216(14)
H36A H -0.1308 -0.1398 0.7979
H43A H 0.1289 0.4484 0.6668
C56A C 0.06302(18) 0.4600(2) 0.62559(10)
C57A C -0.03112(18) 0.4096(2) 0.63565(9)
H44A H -0.0295 0.3609 0.6832
H45A H 0.0067 0.0515 1.0181
C58A C -0.0608(2) 0.0683(2) 1.05055(12)
C59A C -0.0959(3) 0.1774(3) 1.05028(15)
H46A H -0.0509 0.2355 1.0173
H47A H 0.4555 0.0601 1.0509
C60A C 0.5402(5) 0.0613(5) 1.0744(2)
C61A C 0.6114(6) 0.1253(7) 1.0425(3)
H48A H 0.5710 0.1690 0.9968
H59A H 0.1970 0.6130 1.0743
C78A C 0.1454(2) 0.6780(2) 1.09917(13)
C79A C 0.0490(2) 0.6993(2) 1.06822(10)
H60A H 0.0322 0.6494 1.0217
H49A H 0.0149 -0.1944 0.8911
C62A C -0.0696(3) -0.2142(3) 0.86940(15)
H50A H -0.1523 -0.2167 0.8407
H51A H 0.0873 0.4852 0.6110
C64A C 0.00311(17) 0.44607(19) 0.61327(9)
H52A H -0.0726 0.4004 0.6282
H53A H -0.0631 0.0251 1.0588
C65A C -0.0986(2) 0.1132(2) 1.06310(11)
H54A H -0.1224 0.2095 1.0583
H55A H 0.5303 0.0362 1.0946
C66A C 0.5963(8) 0.0794(7) 1.0727(5)
H56A H 0.6512 0.1424 1.0415
H63A H 0.1749 0.6859 1.1189
C81A C 0.0914(2) 0.7095(2) 1.09790(11)
H64A H 0.0114 0.7220 1.0665
C67A C -0.0813(3) -0.2640(2) 0.89707(13)
C69A C -0.02398(18) 0.46863(18) 0.57733(8)
C70A C -0.1428(2) 0.0950(3) 1.09042(13)
C71A C 0.6475(6) 0.0664(7) 1.1011(4)
C83A C 0.07582(19) 0.7558(2) 1.12672(10)
C72A C -0.1374(2) -0.2710(2) 0.91106(13)
C73A C -0.0334(3) -0.3027(2) 0.91028(13)
O20_2 O 0.01108(11) 0.48997(13) 0.55527(6)
O18_2 O -0.08168(12) 0.46462(13) 0.57191(6)
O22A O -0.14595(16) 0.0402(2) 1.10078(8)
O14C O -0.1750(2) 0.1388(2) 1.10137(14)
O15C O 0.7011(5) 0.0935(5) 1.0928(3)
O23A O 0.6399(3) 0.0404(4) 1.12698(19)
C84A C 0.1216(2) 0.7897(2) 1.14724(11)
C85A C 0.01541(18) 0.7667(2) 1.13340(10)
H57A H -0.1707 -0.2451 0.9019
C76A C -0.1453(2) -0.3147(2) 0.93781(12)
C77A C -0.0411(2) -0.3479(2) 0.93672(11)
H58A H 0.0053 -0.2981 0.9010
Zn6_3 Zn 0.0000 0.5000 0.5000
Zn5_2 Zn -0.13629(2) 0.48381(2) 0.528243(11)
Zn3C Zn -0.23476(2) 0.10236(2) 1.130570(11)
Zn3C_2 Zn 0.76524(2) 0.10236(2) 1.130570(11)
H65A H 0.1632 0.7826 1.1434
C86A C 0.10626(18) 0.8337(2) 1.17309(10)
C87A C 0.00078(19) 0.8102(2) 1.15896(10)
H66A H -0.0161 0.7436 1.1200
H61A H -0.1838 -0.3185 0.9474
C80A C -0.0971(2) -0.3536(2) 0.95102(10)
H62A H -0.0082 -0.3751 0.9451
H67A H 0.1375 0.8566 1.1868
C88A C 0.04596(17) 0.8446(2) 1.17910(9)
H68A H -0.0408 0.8171 1.1630
C82A C -0.1018(2) -0.3991(2) 0.98169(10)
C89A C 0.03006(19) 0.89393(18) 1.20551(9)
O19C O -0.15337(14) -0.41110(15) 0.99255(7)
O21A O -0.05256(14) -0.42003(14) 0.99707(7)
O11B O 0.07371(12) 0.92202(14) 1.22336(7)
O12C O -0.02601(12) 0.90466(13) 1.20871(7)
Zn5C Zn -0.13629(2) -0.48381(2) 1.028243(11)
Zn6A_3 Zn 0.0000 -0.5000 1.0000
Zn2B_2 Zn 0.06097(2) 0.98029(2) 1.265393(10)
Zn2C_2 Zn -0.06097(2) 0.98029(2) 1.234607(10)
C96? C 0.4948(4) 0.1248(5) 0.4779(2)
C97? C 0.4494(4) 0.0814(5) 0.4848(3)
H83? H 0.4535 0.0576 0.5068
C98? C 0.3978(4) 0.0715(5) 0.4608(3)
H84? H 0.3664 0.0438 0.4676
C99? C 0.3918(8) 0.0989(7) 0.4295(5)
C100? C 0.4343(5) 0.1487(7) 0.4187(3)
H85? H 0.4273 0.1726 0.3968
C101? C 0.4883(6) 0.1585(6) 0.4441(3)
H86? H 0.5192 0.1876 0.4381
C102? C 0.3371(7) 0.0908(7) 0.4041(4)
O26? O 0.2984(4) 0.0540(4) 0.4088(2)
O27? O 0.3226(3) 0.1306(4) 0.3765(2)
O28? O 0.7384(5) -0.1738(3) 0.6610(2)
loop_
_geom_bond_atom_site_label_1
_geom_bond_atom_site_label_2
_geom_bond_site_symmetry_1
_geom_bond_site_symmetry_2
Zn1 N1 1_555 1_555
N1 C1 1_555 1_555
O1 Zn1 1_555 1_555
O2 Zn1 1_555 1_555
O3 Zn1 1_555 1_555
O4 Zn1 1_555 1_555
C1 N2 1_555 1_555
C2 N1 1_555 1_555
C3 N1 1_555 1_555
C4 O1 1_555 1_555
C5 O2 1_555 1_555
C6 O3 1_555 1_555
C7 O4 1_555 1_555
N2 Zn2 1_555 1_555
H1 C1 1_555 1_555
H2 C1 1_555 1_555
N3 C2 1_555 1_555
H3 C2 1_555 1_555
H4 C2 1_555 1_555
N4 C3 1_555 1_555
H5 C3 1_555 1_555
H6 C3 1_555 1_555
O5 C4 1_555 1_555
C8 C4 1_555 1_555
O6 C5 1_555 1_555
C9 C5 1_555 1_555
O7 C6 1_555 1_555
C10 C6 1_555 1_555
O8 C7 1_555 1_555
C11 C7 1_555 1_555
Zn2 O9 1_555 1_555
C12 N2 1_555 1_555
C13 N2 1_555 1_555
Zn3 N3 1_555 1_555
C14 N3 1_555 1_555
Zn4 O5 1_555 1_555
C15 C8 1_555 1_555
C16 C8 1_555 1_555
C17 C9 1_555 1_555
C18 C9 1_555 1_555
C19 C10 1_555 1_555
C20 C10 1_555 1_555
C21 C11 1_555 1_555
C22 C11 1_555 1_555
O9 C31 1_555 1_555
O10 Zn2 1_555 1_555
O11 Zn2 1_555 1_555
O12 Zn2 1_555 1_555
H7 C12 1_555 1_555
H8 C12 1_555 1_555
H9 C13 1_555 1_555
H10 C13 1_555 1_555
O13 Zn3 1_555 1_555
O14 Zn3 1_555 1_555
O15 Zn3 1_555 1_555
H11 C14 1_555 1_555
H12 C14 1_555 1_555
N5 Zn4 1_555 1_555
H13 C15 1_555 1_555
C23 C15 1_555 1_555
C24 C16 1_555 1_555
H14 C16 1_555 1_555
H15 C17 1_555 1_555
C25 C17 1_555 1_555
C26 C18 1_555 1_555
H16 C18 1_555 1_555
H17 C19 1_555 1_555
C27 C19 1_555 1_555
C28 C20 1_555 1_555
H18 C20 1_555 1_555
H19 C21 1_555 1_555
C29 C21 1_555 1_555
C30 C22 1_555 1_555
H20 C22 1_555 1_555
C31 C39 1_555 1_555
C32 N5 1_555 1_555
C33 N5 1_555 1_555
C34 N5 1_555 1_555
H21 C23 1_555 1_555
C35 C23 1_555 1_555
H22 C24 1_555 1_555
H23 C25 1_555 1_555
C36 C25 1_555 1_555
H24 C26 1_555 1_555
H25 C27 1_555 1_555
C37 C27 1_555 1_555
H26 C28 1_555 1_555
H27 C29 1_555 1_555
C38 C29 1_555 1_555
H28 C30 1_555 1_555
C39 C43 1_555 1_555
N6 C32 1_555 1_555
H29 C32 1_555 1_555
H30 C32 1_555 1_555
N7 C33 1_555 1_555
H31 C33 1_555 1_555
H32 C33 1_555 1_555
N8 C34 1_555 1_555
H33 C34 1_555 1_555
H34 C34 1_555 1_555
C40 C35 1_555 1_555
C41 C36 1_555 1_555
C42 C38 1_555 1_555
C43 H35 1_555 1_555
C44 C39 1_555 1_555
Zn5 N6 1_555 1_555
C45 N6 1_555 1_555
C46 N6 1_555 1_555
C47 N7 1_555 1_555
C48 C40 1_555 1_555
C49 C40 1_555 1_555
C50 C41 1_555 1_555
C51 C41 1_555 1_555
C52 C42 1_555 1_555
C53 C42 1_555 1_555
C54 C43 1_555 1_555
C55 C44 1_555 1_555
H36 C44 1_555 1_555
O16 Zn5 1_555 1_555
O17 Zn5 1_555 1_555
O18 Zn5 1_555 1_555
O19 Zn5 1_555 1_555
H37 C45 1_555 1_555
H38 C45 1_555 1_555
H39 C46 1_555 1_555
H40 C46 1_555 1_555
H41 C47 1_555 1_555
H42 C47 1_555 1_555
H43 C48 1_555 1_555
C56 C48 1_555 1_555
C57 C49 1_555 1_555
H44 C49 1_555 1_555
H45 C50 1_555 1_555
C58 C50 1_555 1_555
C59 C51 1_555 1_555
H46 C51 1_555 1_555
H47 C52 1_555 1_555
C60 C52 1_555 1_555
C61 C53 1_555 1_555
H48 C53 1_555 1_555
H49 C54 1_555 1_555
C62 C54 1_555 1_555
H50 C55 1_555 1_555
C63 O16 1_555 1_555
Zn6 O17 1_555 1_555
H51 C56 1_555 1_555
C64 C56 1_555 1_555
H52 C57 1_555 1_555
H53 C58 1_555 1_555
C65 C58 1_555 1_555
H54 C59 1_555 1_555
H55 C60 1_555 1_555
C66 C60 1_555 1_555
H56 C61 1_555 1_555
C67 C62 1_555 1_555
C68 C63 1_555 1_555
O20 Zn6 1_555 1_555
O21 Zn6 1_555 1_555
C69 C64 1_555 1_555
C70 C65 1_555 1_555
C71 C66 1_555 1_555
C72 C67 1_555 1_555
C73 C67 1_555 1_555
C74 C68 1_555 1_555
C75 C68 1_555 1_555
O22 C70 1_555 1_555
O23 C71 1_555 1_555
H57 C72 1_555 1_555
C76 C72 1_555 1_555
C77 C73 1_555 1_555
H58 C73 1_555 1_555
H59 C74 1_555 1_555
C78 C74 1_555 1_555
C79 C75 1_555 1_555
H60 C75 1_555 1_555
H61 C76 1_555 1_555
C80 C76 1_555 1_555
H62 C77 1_555 1_555
H63 C78 1_555 1_555
C81 C78 1_555 1_555
H64 C79 1_555 1_555
C82 C80 1_555 1_555
C83 C81 1_555 1_555
C84 C83 1_555 1_555
C85 C83 1_555 1_555
H65 C84 1_555 1_555
C86 C84 1_555 1_555
C87 C85 1_555 1_555
H66 C85 1_555 1_555
H67 C86 1_555 1_555
C88 C86 1_555 1_555
H68 C87 1_555 1_555
C89 C88 1_555 1_555
O24 C90 1_555 1_555
C90 H69 1_555 1_555
N9 C90 1_555 1_555
C91 N9 1_555 1_555
H70 C91 1_555 1_555
H71 C91 1_555 1_555
H72 C91 1_555 1_555
C92 N9 1_555 1_555
H73 C92 1_555 1_555
H74 C92 1_555 1_555
H75 C92 1_555 1_555
O25 C93 1_555 1_555
C93 H76 1_555 1_555
N10 C93 1_555 1_555
C94 N10 1_555 1_555
H77 C94 1_555 1_555
H78 C94 1_555 1_555
H79 C94 1_555 1_555
C95 N10 1_555 1_555
H80 C95 1_555 1_555
H81 C95 1_555 1_555
H82 C95 1_555 1_555
O10A C31 1_555 1_555
C37A C37 1_555 1_555
Zn2A O10A 1_555 1_555
C27A C37A 1_555 1_555
C28A C37A 1_555 1_555
C19A C27A 1_555 1_555
H25A C27A 1_555 1_555
H26A C28A 1_555 1_555
C20A C28A 1_555 1_555
C10A C19A 1_555 1_555
H17A C19A 1_555 1_555
H18A C20A 1_555 1_555
O20B Zn6 1_555 1_555
O21B Zn6 1_555 1_555
O17B Zn6 1_555 1_555
C6A C10A 1_555 1_555
O20A C69 1_555 1_555
O18A C69 1_555 1_555
O14B C70 1_555 1_555
O3A C6A 1_555 1_555
O7A C6A 1_555 1_555
O15B C71 1_555 1_555
Zn6A O20A 1_555 1_555
Zn5A O18A 1_555 1_555
Zn3B O14B 1_555 1_555
Zn1A O3A 1_555 1_555
Zn4A O7A 1_555 1_555
Zn3B_2 O15B 1_555 1_555
N1A Zn1A 1_555 1_555
O1A Zn1A 1_555 1_555
O2A Zn1A 1_555 1_555
O4A Zn1A 1_555 1_555
N5A Zn4A 1_555 1_555
O5A Zn4A 1_555 1_555
O6A Zn4A 1_555 1_555
O8A Zn4A 1_555 1_555
C1A N1A 1_555 1_555
C2A N1A 1_555 1_555
C3A N1A 1_555 1_555
C4A O1A 1_555 1_555
C5A O2A 1_555 1_555
C7A O4A 1_555 1_555
C32A N5A 1_555 1_555
C33A N5A 1_555 1_555
C34A N5A 1_555 1_555
O19B C82 1_555 1_555
O21_2 C82 1_555 1_555
N2A C1A 1_555 1_555
H1A C1A 1_555 1_555
H2A C1A 1_555 1_555
N3A C2A 1_555 1_555
H3A C2A 1_555 1_555
H4A C2A 1_555 1_555
N4A C3A 1_555 1_555
H5A C3A 1_555 1_555
H6A C3A 1_555 1_555
C8A C4A 1_555 1_555
C9A C5A 1_555 1_555
C11A C7A 1_555 1_555
N6A C32A 1_555 1_555
H29A C32A 1_555 1_555
H30A C32A 1_555 1_555
N7A C33A 1_555 1_555
H31A C33A 1_555 1_555
H32A C33A 1_555 1_555
N8A C34A 1_555 1_555
H33A C34A 1_555 1_555
H34A C34A 1_555 1_555
Zn5B O19B 1_555 1_555
Zn6_2 O21_2 1_555 1_555
Zn2A_2 N2A 1_555 1_555
C12A N2A 1_555 1_555
C13A N2A 1_555 1_555
Zn3A N3A 1_555 1_555
C14A N3A 1_555 1_555
C15A C8A 1_555 1_555
C16A C8A 1_555 1_555
C17A C9A 1_555 1_555
C18A C9A 1_555 1_555
C21A C11A 1_555 1_555
C22A C11A 1_555 1_555
Zn5A_2 N6A 1_555 1_555
C45A N6A 1_555 1_555
C46A N6A 1_555 1_555
C47A N7A 1_555 1_555
O9A Zn2A_2 1_555 1_555
O10A_2 Zn2A_2 1_555 1_555
O11A Zn2A_2 1_555 1_555
O12A Zn2A_2 1_555 1_555
H7A C12A 1_555 1_555
H8A C12A 1_555 1_555
H9A C13A 1_555 1_555
H10A C13A 1_555 1_555
O13A Zn3A 1_555 1_555
O14A Zn3A 1_555 1_555
O15A Zn3A 1_555 1_555
H11A C14A 1_555 1_555
H12A C14A 1_555 1_555
H13A C15A 1_555 1_555
C23A C15A 1_555 1_555
C24A C16A 1_555 1_555
H14A C16A 1_555 1_555
H15A C17A 1_555 1_555
C25A C17A 1_555 1_555
C26A C18A 1_555 1_555
H16A C18A 1_555 1_555
H19A C21A 1_555 1_555
C29A C21A 1_555 1_555
C30A C22A 1_555 1_555
H20A C22A 1_555 1_555
O16A Zn5A_2 1_555 1_555
O17A Zn5A_2 1_555 1_555
O18A_2 Zn5A_2 1_555 1_555
O19A Zn5A_2 1_555 1_555
H37A C45A 1_555 1_555
H38A C45A 1_555 1_555
H39A C46A 1_555 1_555
H40A C46A 1_555 1_555
H41A C47A 1_555 1_555
H42A C47A 1_555 1_555
C31A O9A 1_555 1_555
H21A C23A 1_555 1_555
C35A C23A 1_555 1_555
H22A C24A 1_555 1_555
H23A C25A 1_555 1_555
C36A C25A 1_555 1_555
H24A C26A 1_555 1_555
H27A C29A 1_555 1_555
C38A C29A 1_555 1_555
H28A C30A 1_555 1_555
C63A O16A 1_555 1_555
Zn6A_2 O17A 1_555 1_555
O11C C89 1_555 1_555
O12B C89 1_555 1_555
O10_2 C31A 1_555 1_555
C39A C31A 1_555 1_555
C40A C35A 1_555 1_555
C41A C36A 1_555 1_555
C42A C38A 1_555 1_555
C68A C63A 1_555 1_555
Zn2C O11C 1_555 1_555
Zn2B O12B 1_555 1_555
Zn2_2 O10_2 1_555 1_555
C43A C39A 1_555 1_555
C44A C39A 1_555 1_555
C48A C40A 1_555 1_555
C49A C40A 1_555 1_555
C50A C41A 1_555 1_555
C51A C41A 1_555 1_555
C52A C42A 1_555 1_555
C53A C42A 1_555 1_555
C74A C68A 1_555 1_555
C75A C68A 1_555 1_555
H35A C43A 1_555 1_555
C54A C43A 1_555 1_555
C55A C44A 1_555 1_555
H36A C44A 1_555 1_555
H43A C48A 1_555 1_555
C56A C48A 1_555 1_555
C57A C49A 1_555 1_555
H44A C49A 1_555 1_555
H45A C50A 1_555 1_555
C58A C50A 1_555 1_555
C59A C51A 1_555 1_555
H46A C51A 1_555 1_555
H47A C52A 1_555 1_555
C60A C52A 1_555 1_555
C61A C53A 1_555 1_555
H48A C53A 1_555 1_555
H59A C74A 1_555 1_555
C78A C74A 1_555 1_555
C79A C75A 1_555 1_555
H60A C75A 1_555 1_555
H49A C54A 1_555 1_555
C62A C54A 1_555 1_555
H50A C55A 1_555 1_555
H51A C56A 1_555 1_555
C64A C56A 1_555 1_555
H52A C57A 1_555 1_555
H53A C58A 1_555 1_555
C65A C58A 1_555 1_555
H54A C59A 1_555 1_555
H55A C60A 1_555 1_555
C66A C60A 1_555 1_555
H56A C61A 1_555 1_555
H63A C78A 1_555 1_555
C81A C78A 1_555 1_555
H64A C79A 1_555 1_555
C67A C62A 1_555 1_555
C69A C64A 1_555 1_555
C70A C65A 1_555 1_555
C71A C66A 1_555 1_555
C83A C81A 1_555 1_555
C72A C67A 1_555 1_555
C73A C67A 1_555 1_555
O20_2 C69A 1_555 1_555
O18_2 C69A 1_555 1_555
O22A C70A 1_555 1_555
O14C C70A 1_555 1_555
O15C C71A 1_555 1_555
O23A C71A 1_555 1_555
C84A C83A 1_555 1_555
C85A C83A 1_555 1_555
H57A C72A 1_555 1_555
C76A C72A 1_555 1_555
C77A C73A 1_555 1_555
H58A C73A 1_555 1_555
Zn6_3 O20_2 1_555 1_555
Zn5_2 O18_2 1_555 1_555
Zn3C O14C 1_555 1_555
Zn3C_2 O15C 1_555 1_555
H65A C84A 1_555 1_555
C86A C84A 1_555 1_555
C87A C85A 1_555 1_555
H66A C85A 1_555 1_555
H61A C76A 1_555 1_555
C80A C76A 1_555 1_555
H62A C77A 1_555 1_555
H67A C86A 1_555 1_555
C88A C86A 1_555 1_555
H68A C87A 1_555 1_555
C82A C80A 1_555 1_555
C89A C88A 1_555 1_555
O19C C82A 1_555 1_555
O21A C82A 1_555 1_555
O11B C89A 1_555 1_555
O12C C89A 1_555 1_555
Zn5C O19C 1_555 1_555
Zn6A_3 O21A 1_555 1_555
Zn2B_2 O11B 1_555 1_555
Zn2C_2 O12C 1_555 1_555
N3 C12 1_555 1_555
N4 C13 1_555 1_555
N4 C14 1_555 1_555
O6 Zn4 1_555 1_555
O7 Zn4 1_555 1_555
O8 Zn4 1_555 1_555
C24 C35 1_555 1_555
C26 C36 1_555 1_555
C28 C37 1_555 1_555
C30 C38 1_555 1_555
N7 C45 1_555 1_555
N8 C46 1_555 1_555
N8 C47 1_555 1_555
C55 C62 1_555 1_555
O17 C63 1_555 1_555
C57 C64 1_555 1_555
C59 C65 1_555 1_555
C61 C66 1_555 1_555
C77 C80 1_555 1_555
C79 C81 1_555 1_555
C87 C88 1_555 1_555
C20A C10A 1_555 1_555
O5A C4A 1_555 1_555
O6A C5A 1_555 1_555
O8A C7A 1_555 1_555
N3A C12A 1_555 1_555
N4A C13A 1_555 1_555
N4A C14A 1_555 1_555
N7A C45A 1_555 1_555
N8A C46A 1_555 1_555
N8A C47A 1_555 1_555
C24A C35A 1_555 1_555
C26A C36A 1_555 1_555
C30A C38A 1_555 1_555
O17A C63A 1_555 1_555
C55A C62A 1_555 1_555
C57A C64A 1_555 1_555
C59A C65A 1_555 1_555
C61A C66A 1_555 1_555
C79A C81A 1_555 1_555
C77A C80A 1_555 1_555
C87A C88A 1_555 1_555

#END
