
#######################################################################
#
#                 Cambridge Crystallographic Data Centre
#                                CCDC 
#
#######################################################################
#
# If this CIF has been generated from an entry in the Cambridge 
# Structural Database, then it will include bibliographic, chemical, 
# crystal, experimental, refinement or atomic coordinate data resulting 
# from the CCDC's data processing and validation procedures.
#
#######################################################################

data_QARBUI
_chemical_formula_moiety         '(C17 H12 N12 O1 Zn1)n'
_chemical_name_systematic        
catena-((\m~2~-2,3-Di(pyridin-2-yl)-5,6-di(1H-tetrazol-5-yl)pyrazine)-(methanol)-zinc(ii))
_symmetry_cell_setting           monoclinic
_symmetry_space_group_name_H-M   'P 21'
_symmetry_Int_Tables_number      4
_space_group_name_Hall           'P 2yb'
loop_
_symmetry_equiv_pos_site_id
_symmetry_equiv_pos_as_xyz
1 x,y,z
2 -x,1/2+y,-z
_cell_length_a                   11.060(2)
_cell_length_b                   7.7694(16)
_cell_length_c                   12.055(2)
_cell_angle_alpha                90
_cell_angle_beta                 114.69(3)
_cell_angle_gamma                90
_cell_volume                     941.182
_exptl_crystal_colour            colorless
_exptl_crystal_description       block
_cell_formula_units_Z            2
loop_
_atom_site_label
_atom_site_type_symbol
_atom_site_fract_x
_atom_site_fract_y
_atom_site_fract_z
_atom_site_U_iso_or_equiv
_atom_site_thermal_displace_type
Zn1 Zn 1.14354(5) 0.34824(8) 0.91043(5) 0.0240 Uani
C1 C 0.9811(5) 0.5294(6) 1.0210(4) 0.0212 Uani
C2 C 0.6682(4) 0.5960(7) 0.8922(5) 0.0261 Uani
C3 C 0.8928(5) 0.5322(6) 0.8891(4) 0.0206 Uani
C4 C 0.7551(5) 0.5629(6) 0.8303(4) 0.0243 Uani
C5 C 0.7602(5) 0.5107(6) 0.6437(4) 0.0257 Uani
C6 C 0.9002(5) 0.4868(6) 0.7006(4) 0.0227 Uani
C7 C 0.9978(5) 0.4578(6) 0.6468(4) 0.0236 Uani
C8 C 0.9849(6) 0.5242(7) 0.5352(5) 0.0400 Uani
H1 H 0.9057 0.5758 0.4829 0.0480 Uiso
C9 C 1.0896(6) 0.5129(8) 0.5030(5) 0.0481 Uani
H2 H 1.0828 0.5593 0.4296 0.0580 Uiso
C10 C 1.2043(6) 0.4328(8) 0.5800(5) 0.0456 Uani
H3 H 1.2762 0.4234 0.5594 0.0540 Uiso
C11 C 1.2115(5) 0.3664(9) 0.6885(4) 0.0349 Uani
H4 H 1.2893 0.3110 0.7402 0.0420 Uiso
C12 C 0.6775(5) 0.4962(8) 0.5097(5) 0.0352 Uani
C13 C 0.5712(6) 0.6064(9) 0.4551(5) 0.0534 Uani
H5 H 0.5510 0.6889 0.5007 0.0640 Uiso
C14 C 0.4948(7) 0.5911(11) 0.3297(6) 0.0723 Uani
H6 H 0.4241 0.6652 0.2885 0.0870 Uiso
C15 C 0.5280(7) 0.4632(11) 0.2702(6) 0.0725 Uani
H7 H 0.4787 0.4478 0.1867 0.0870 Uiso
C16 C 0.6324(6) 0.3585(13) 0.3320(5) 0.0666 Uani
H8 H 0.6513 0.2710 0.2890 0.0800 Uiso
C17 C 1.2267(7) 0.7344(9) 0.9245(8) 0.1005 Uani
H9 H 1.3028 0.8089 0.9499 0.1500 Uiso
H10 H 1.1746 0.7629 0.9686 0.1500 Uiso
H11 H 1.1737 0.7488 0.8386 0.1500 Uiso
N1 N 1.0893(4) 0.4309(5) 1.0596(4) 0.0261 Uani
N2 N 1.1524(4) 0.4609(6) 1.1800(4) 0.0344 Uani
N3 N 1.0850(4) 0.5757(6) 1.2118(4) 0.0359 Uani
N4 N 0.9748(4) 0.6193(5) 1.1111(4) 0.0252 Uani
N5 N 0.6978(4) 0.6966(6) 0.9921(4) 0.0246 Uani
N6 N 0.5917(4) 0.6896(6) 1.0186(4) 0.0349 Uani
N7 N 0.5036(4) 0.5858(6) 0.9373(4) 0.0373 Uani
N8 N 0.5475(4) 0.5283(6) 0.8559(4) 0.0343 Uani
N9 N 0.9590(4) 0.4942(5) 0.8229(4) 0.0203 Uani
N10 N 0.6933(4) 0.5490(5) 0.7086(4) 0.0290 Uani
N11 N 1.1110(4) 0.3782(6) 0.7225(3) 0.0255 Uani
N12 N 0.7095(5) 0.3735(8) 0.4504(4) 0.0530 Uani
O1 O 1.2681(4) 0.5671(5) 0.9478(4) 0.0364 Uani
H12 H 1.358(7) 0.566(12) 0.966(8) 0.1400 Uiso
Zn1A Zn 0.85646(5) 0.84824(8) 1.08957(5) 0.0240 Uani
N4A N 1.0252(4) 0.1193(5) 0.8889(4) 0.0252 Uani
N5A N 1.3022(4) 0.1966(6) 1.0079(4) 0.0246 Uani
loop_
_atom_site_aniso_label
_atom_site_aniso_U_11
_atom_site_aniso_U_22
_atom_site_aniso_U_33
_atom_site_aniso_U_23
_atom_site_aniso_U_13
_atom_site_aniso_U_12
Zn1 0.0208(3) 0.0268(3) 0.0261(3) 0.0036(4) 0.0116(2) 0.0024(4)
C1 0.017(3) 0.024(3) 0.024(3) 0.003(2) 0.010(2) -0.001(2)
C2 0.013(3) 0.029(3) 0.036(3) -0.002(3) 0.010(2) 0.000(2)
C3 0.018(3) 0.024(3) 0.019(3) -0.006(2) 0.007(2) -0.002(2)
C4 0.023(3) 0.023(3) 0.025(3) -0.002(2) 0.008(2) -0.002(2)
C5 0.027(3) 0.023(3) 0.021(3) -0.005(2) 0.004(2) -0.006(2)
C6 0.026(3) 0.021(3) 0.023(3) -0.002(2) 0.012(2) -0.002(2)
C7 0.024(3) 0.027(3) 0.018(3) -0.002(2) 0.007(2) -0.003(2)
C8 0.052(4) 0.044(4) 0.024(3) 0.003(3) 0.016(3) 0.003(3)
C9 0.068(5) 0.053(4) 0.039(4) -0.003(3) 0.038(4) -0.015(4)
C10 0.047(4) 0.056(4) 0.048(4) -0.004(3) 0.034(3) -0.006(3)
C11 0.034(3) 0.036(3) 0.042(3) -0.009(4) 0.023(2) -0.002(4)
C12 0.026(3) 0.048(4) 0.025(3) 0.002(3) 0.004(3) -0.004(3)
C13 0.043(4) 0.069(5) 0.034(4) 0.000(3) 0.002(3) 0.011(4)
C14 0.055(5) 0.086(6) 0.048(5) 0.004(4) -0.006(4) 0.006(4)
C15 0.080(6) 0.092(6) 0.026(4) -0.001(4) 0.003(4) -0.012(5)
C16 0.088(5) 0.062(4) 0.029(3) -0.020(5) 0.004(3) -0.003(7)
C17 0.065(5) 0.041(5) 0.211(11) -0.031(6) 0.073(6) -0.012(4)
N1 0.023(2) 0.033(3) 0.022(2) -0.003(2) 0.009(2) 0.002(2)
N2 0.032(3) 0.037(3) 0.026(3) 0.001(2) 0.004(2) 0.010(2)
N3 0.036(3) 0.043(3) 0.025(3) 0.001(2) 0.009(2) 0.005(2)
N4 0.020(2) 0.029(3) 0.026(3) 0.002(2) 0.009(2) 0.005(2)
N5 0.016(2) 0.025(3) 0.036(3) -0.003(2) 0.014(2) -0.005(2)
N6 0.024(3) 0.035(3) 0.052(3) -0.010(3) 0.022(2) -0.005(2)
N7 0.022(3) 0.040(3) 0.054(3) -0.006(3) 0.020(2) -0.004(2)
N8 0.020(2) 0.042(3) 0.042(3) -0.009(2) 0.014(2) -0.003(2)
N9 0.022(2) 0.022(2) 0.021(2) 0.002(2) 0.013(2) 0.003(2)
N10 0.024(2) 0.033(3) 0.028(3) -0.003(2) 0.009(2) 0.002(2)
N11 0.028(2) 0.024(3) 0.030(2) 0.000(2) 0.0175(19) 0.001(2)
N12 0.060(3) 0.056(4) 0.030(2) -0.013(3) 0.006(2) 0.011(4)
O1 0.025(2) 0.031(3) 0.058(3) -0.007(2) 0.022(2) -0.004(2)
Zn1A 0.0208 0.0268 0.0261 -0.0036 0.0116 -0.0024
N4A 0.02 0.029 0.026 -0.002 0.009 -0.005
N5A 0.016 0.025 0.036 0.003 0.014 0.005
loop_
_geom_bond_atom_site_label_1
_geom_bond_atom_site_label_2
_geom_bond_site_symmetry_1
_geom_bond_site_symmetry_2
Zn1 N1 1_555 1_555
C1 C3 1_555 1_555
C2 C4 1_555 1_555
C3 C4 1_555 1_555
C4 N10 1_555 1_555
C5 C6 1_555 1_555
C6 C7 1_555 1_555
C7 C8 1_555 1_555
C8 H1 1_555 1_555
C9 C8 1_555 1_555
H2 C9 1_555 1_555
C10 C9 1_555 1_555
H3 C10 1_555 1_555
C11 C10 1_555 1_555
H4 C11 1_555 1_555
C12 C5 1_555 1_555
C13 C12 1_555 1_555
H5 C13 1_555 1_555
C14 C13 1_555 1_555
H6 C14 1_555 1_555
C15 C14 1_555 1_555
H7 C15 1_555 1_555
C16 C15 1_555 1_555
H8 C16 1_555 1_555
C17 H9 1_555 1_555
H10 C17 1_555 1_555
H11 C17 1_555 1_555
N1 C1 1_555 1_555
N2 N1 1_555 1_555
N3 N2 1_555 1_555
N4 C1 1_555 1_555
N5 C2 1_555 1_555
N6 N5 1_555 1_555
N7 N6 1_555 1_555
N8 C2 1_555 1_555
N9 Zn1 1_555 1_555
N10 C5 1_555 1_555
N11 Zn1 1_555 1_555
N12 C12 1_555 1_555
O1 Zn1 1_555 1_555
H12 O1 1_555 1_555
Zn1A N4 1_555 1_555
N4A Zn1 1_555 1_555
N5A Zn1 1_555 1_555
C3 N9 1_555 1_555
C6 N9 1_555 1_555
C7 N11 1_555 1_555
C11 N11 1_555 1_555
C16 N12 1_555 1_555
C17 O1 1_555 1_555
N3 N4 1_555 1_555
N5 Zn1A 1_555 1_555
N7 N8 1_555 1_555

#END
