
#######################################################################
#
#                 Cambridge Crystallographic Data Centre
#                                CCDC 
#
#######################################################################
#
# If this CIF has been generated from an entry in the Cambridge 
# Structural Database, then it will include bibliographic, chemical, 
# crystal, experimental, refinement or atomic coordinate data resulting 
# from the CCDC's data processing and validation procedures.
#
#######################################################################

data_QARCET
_chemical_formula_moiety         '(C48 H24 N36 Zn3)n,2n(C3 H7 N1 O1),n(H2 O1)'
_chemical_name_systematic        
'catena-(tris(\m~3~-2,3-Di(pyridin-2-yl)-5,6-di(1H-tetrazol-5-yl)pyrazine)-tri-zinc N,N-dimethylformamide solvate monohydrate)'
_symmetry_cell_setting           triclinic
_symmetry_space_group_name_H-M   'P -1'
_symmetry_Int_Tables_number      2
_space_group_name_Hall           '-P 1'
loop_
_symmetry_equiv_pos_site_id
_symmetry_equiv_pos_as_xyz
1 x,y,z
2 -x,-y,-z
_cell_length_a                   13.551(3)
_cell_length_b                   16.181(3)
_cell_length_c                   16.540(3)
_cell_angle_alpha                109.46(3)
_cell_angle_beta                 101.21(3)
_cell_angle_gamma                109.75(3)
_cell_volume                     3019.67
_exptl_crystal_colour            colorless
_exptl_crystal_description       prism
_cell_formula_units_Z            2
loop_
_atom_site_label
_atom_site_type_symbol
_atom_site_fract_x
_atom_site_fract_y
_atom_site_fract_z
Zn1 Zn 0.49543(6) 0.57685(5) 0.17524(4)
Zn2 Zn 0.17041(5) 0.45683(5) -0.42653(4)
Zn3 Zn 0.58919(5) 1.20353(5) 0.51088(5)
C1 C 0.4532(5) 0.5879(4) -0.0005(4)
C2 C 0.2774(5) 0.4381(4) -0.1891(4)
C3 C 0.3546(5) 0.5007(4) -0.0192(4)
C4 C 0.2705(5) 0.4324(4) -0.1029(4)
C5 C 0.1847(5) 0.3441(5) -0.0315(4)
C6 C 0.2690(5) 0.4115(4) 0.0531(4)
C7 C 0.2818(5) 0.4093(4) 0.1438(4)
C8 C 0.1955(6) 0.3577(5) 0.1650(5)
H1 H 0.1241 0.3204 0.1215
C9 C 0.2162(7) 0.3619(5) 0.2525(5)
H2 H 0.1588 0.3290 0.2690
C10 C 0.3241(7) 0.4160(5) 0.3138(5)
H3 H 0.3420 0.4161 0.3711
C11 C 0.4042(6) 0.4692(5) 0.2895(4)
H4 H 0.4761 0.5081 0.3321
C12 C 0.0945(6) 0.2494(6) -0.0486(5)
C13 C -0.0114(6) 0.2252(6) -0.0917(5)
H5 H -0.0295 0.2677 -0.1108
C14 C -0.0936(8) 0.1392(10) -0.1081(7)
H6 H -0.1683 0.1251 -0.1328
C15 C -0.0641(10) 0.0723(9) -0.0872(8)
H7 H -0.1190 0.0115 -0.1011
C16 C 0.0463(10) 0.0964(7) -0.0461(8)
H8 H 0.0650 0.0510 -0.0327
C17 C -0.0299(5) 0.4856(4) -0.4085(4)
C18 C -0.2796(4) 0.3627(4) -0.5371(4)
C19 C -0.0775(5) 0.3886(4) -0.4851(4)
C20 C -0.1901(4) 0.3298(4) -0.5414(4)
C21 C -0.1431(5) 0.2128(4) -0.6253(4)
C22 C -0.0287(5) 0.2714(4) -0.5715(4)
C23 C 0.0713(5) 0.2527(4) -0.5803(4)
C24 C 0.0648(6) 0.1666(5) -0.6401(6)
H9 H -0.0041 0.1145 -0.6784
C25 C 0.1637(7) 0.1593(6) -0.6421(7)
H10 H 0.1615 0.1020 -0.6823
C26 C 0.2642(6) 0.2363(5) -0.5849(5)
H11 H 0.3310 0.2323 -0.5853
C27 C 0.2639(5) 0.3186(5) -0.5278(4)
H12 H 0.3321 0.3709 -0.4884
C28 C -0.1876(5) 0.1209(4) -0.7099(4)
C29 C -0.1708(7) 0.1235(5) -0.7876(5)
H13 H -0.1255 0.1818 -0.7868
C30 C -0.2214(8) 0.0389(6) -0.8677(5)
H14 H -0.2130 0.0393 -0.9220
C31 C -0.2841(7) -0.0454(5) -0.8648(5)
H15 H -0.3172 -0.1042 -0.9169
C32 C -0.2975(6) -0.0420(5) -0.7840(6)
H16 H -0.3418 -0.0997 -0.7833
C33 C 0.4912(5) 0.9979(4) 0.3833(4)
C34 C 0.5731(5) 0.8380(4) 0.3800(4)
C35 C 0.6002(5) 1.0139(4) 0.4386(4)
C36 C 0.6413(5) 0.9453(4) 0.4359(4)
C37 C 0.8109(5) 1.0674(4) 0.5426(4)
C38 C 0.7650(5) 1.1349(4) 0.5560(4)
C39 C 0.8175(5) 1.2368(4) 0.6301(4)
C40 C 0.9135(6) 1.2784(5) 0.7043(5)
H17 H 0.9556 1.2443 0.7101
C41 C 0.9466(6) 1.3707(5) 0.7699(5)
H18 H 1.0118 1.3994 0.8201
C42 C 0.8856(5) 1.4200(5) 0.7621(4)
H19 H 0.9067 1.4822 0.8065
C43 C 0.7910(5) 1.3752(5) 0.6862(4)
H20 H 0.7495 1.4095 0.6796
C44 C 0.9305(5) 1.0946(4) 0.5897(5)
C45 C 0.9593(6) 1.0744(6) 0.6622(6)
H21 H 0.9042 1.0403 0.6801
C46 C 1.0696(7) 1.1049(6) 0.7084(6)
H22 H 1.0908 1.0917 0.7580
C47 C 1.1481(7) 1.1550(6) 0.6803(7)
H23 H 1.2236 1.1755 0.7097
C48 C 1.1145(7) 1.1744(7) 0.6095(6)
H24 H 1.1687 1.2083 0.5909
N1 N 0.5300(4) 0.6359(3) 0.0823(3)
N2 N 0.6081(5) 0.7117(4) 0.0800(4)
N3 N 0.5775(5) 0.7084(4) -0.0022(4)
N4 N 0.4779(4) 0.6289(4) -0.0556(3)
N5 N 0.3599(4) 0.4328(3) -0.2198(3)
N6 N 0.3367(4) 0.4379(4) -0.2997(3)
N7 N 0.2426(4) 0.4460(4) -0.3144(3)
N8 N 0.2026(4) 0.4466(4) -0.2462(3)
N9 N 0.3522(4) 0.4874(3) 0.0564(3)
N10 N 0.1857(4) 0.3567(4) -0.1076(3)
N11 N 0.3828(4) 0.4674(3) 0.2062(3)
N12 N 0.1310(6) 0.1869(6) -0.0240(5)
N13 N 0.0812(4) 0.5315(3) -0.3696(3)
N14 N 0.1016(4) 0.6163(4) -0.3019(4)
N15 N 0.0048(5) 0.6197(4) -0.3027(4)
N16 N -0.0807(4) 0.5366(3) -0.3714(3)
N17 N -0.3747(4) 0.3141(3) -0.5278(3)
N18 N -0.4375(4) 0.3627(4) -0.5348(3)
N19 N -0.3824(4) 0.4369(4) -0.5493(3)
N20 N -0.2815(4) 0.4387(3) -0.5508(3)
N21 N -0.0012(4) 0.3571(3) -0.5013(3)
N22 N -0.2210(4) 0.2418(3) -0.6086(3)
N23 N 0.1696(4) 0.3283(3) -0.5252(3)
N24 N -0.2502(4) 0.0400(4) -0.7058(4)
N25 N 0.4670(4) 1.0737(4) 0.3996(3)
N26 N 0.3623(5) 1.0387(5) 0.3424(4)
N27 N 0.3275(5) 0.9447(5) 0.2929(4)
N28 N 0.4090(5) 0.9160(4) 0.3182(4)
N29 N 0.5859(4) 0.7871(3) 0.3054(3)
N30 N 0.5125(4) 0.6950(3) 0.2806(3)
N31 N 0.4597(4) 0.6907(3) 0.3379(3)
N32 N 0.4963(4) 0.7816(3) 0.4022(3)
N33 N 0.6624(4) 1.1063(3) 0.5007(3)
N34 N 0.7473(4) 0.9728(3) 0.4857(3)
N35 N 0.7549(4) 1.2854(3) 0.6212(3)
N36 N 1.0053(5) 1.1468(5) 0.5638(4)
Zn1A Zn 0.50457(6) 0.42315(5) -0.17524(4)
Zn2A Zn -0.17041(5) 0.54317(5) -0.57347(4)
Zn3_2 Zn -0.41081(5) 0.20353(5) -0.48912(5)
Zn3A Zn 0.41081(5) 0.79647(5) 0.48912(5)
N5A N 0.6401(4) 0.5672(3) 0.2198(3)
N17_2 N 0.6253(4) 1.3141(3) 0.4722(3)
N20A N 0.2815(4) 0.5613(3) -0.4492(3)
N32A N 0.5037(4) 1.2184(3) 0.5978(3)
C49 C 0.5640(11) 0.2691(9) 0.2096(8)
H25 H 0.5401 0.3174 0.2053
H26 H 0.6137 0.2644 0.1760
H27 H 0.6021 0.2873 0.2726
C50 C 0.4902(17) 0.0992(13) 0.1735(15)
H28 H 0.4207 0.0416 0.1468
H29 H 0.5260 0.1121 0.2353
H30 H 0.5378 0.0897 0.1388
C51 C 0.3722(16) 0.1638(15) 0.1371(12)
H31 H 0.3594 0.2180 0.1422
N37 N 0.4698(9) 0.1779(7) 0.1728(6)
O1 O 0.2903(10) 0.0820(11) 0.0949(8)
C52 C 0.2611(18) 0.662(2) 0.0987(11)
H32 H 0.3119 0.7017 0.1605
H33 H 0.2732 0.6047 0.0735
H34 H 0.1856 0.6423 0.0980
C53 C 0.3638(15) 0.8126(15) 0.0553(15)
H35 H 0.3468 0.8259 0.0031
H36 H 0.4356 0.8118 0.0668
H37 H 0.3649 0.8623 0.1077
C54 C 0.2088(19) 0.6685(19) -0.0593(13)
H38 H 0.1951 0.6777 -0.1122
N38 N 0.2826(10) 0.7225(8) 0.0381(12)
O2 O 0.168(2) 0.592(2) -0.027(2)
O3 O 0.0481(18) 0.4603(17) 0.0125(12)
loop_
_geom_bond_atom_site_label_1
_geom_bond_atom_site_label_2
_geom_bond_site_symmetry_1
_geom_bond_site_symmetry_2
Zn1 N1 1_555 1_555
Zn2 N7 1_555 1_555
Zn3 N25 1_555 1_555
C1 C3 1_555 1_555
C2 C4 1_555 1_555
C3 C4 1_555 1_555
C4 N10 1_555 1_555
C5 C6 1_555 1_555
C6 C7 1_555 1_555
C7 C8 1_555 1_555
C8 H1 1_555 1_555
C9 C8 1_555 1_555
H2 C9 1_555 1_555
C10 C9 1_555 1_555
H3 C10 1_555 1_555
C11 C10 1_555 1_555
H4 C11 1_555 1_555
C12 C5 1_555 1_555
C13 C12 1_555 1_555
H5 C13 1_555 1_555
C14 C13 1_555 1_555
H6 C14 1_555 1_555
C15 C14 1_555 1_555
H7 C15 1_555 1_555
C16 C15 1_555 1_555
H8 C16 1_555 1_555
C17 C19 1_555 1_555
C18 C20 1_555 1_555
C19 C20 1_555 1_555
C20 N22 1_555 1_555
C21 C22 1_555 1_555
C22 C23 1_555 1_555
C23 C24 1_555 1_555
C24 H9 1_555 1_555
C25 C24 1_555 1_555
H10 C25 1_555 1_555
C26 C25 1_555 1_555
H11 C26 1_555 1_555
C27 C26 1_555 1_555
H12 C27 1_555 1_555
C28 C21 1_555 1_555
C29 C28 1_555 1_555
H13 C29 1_555 1_555
C30 C29 1_555 1_555
H14 C30 1_555 1_555
C31 C30 1_555 1_555
H15 C31 1_555 1_555
C32 C31 1_555 1_555
H16 C32 1_555 1_555
C33 C35 1_555 1_555
C34 C36 1_555 1_555
C35 C36 1_555 1_555
C36 N34 1_555 1_555
C37 C38 1_555 1_555
C38 C39 1_555 1_555
C39 C40 1_555 1_555
C40 H17 1_555 1_555
C41 C40 1_555 1_555
H18 C41 1_555 1_555
C42 C41 1_555 1_555
H19 C42 1_555 1_555
C43 C42 1_555 1_555
H20 C43 1_555 1_555
C44 C37 1_555 1_555
C45 C44 1_555 1_555
H21 C45 1_555 1_555
C46 C45 1_555 1_555
H22 C46 1_555 1_555
C47 C46 1_555 1_555
H23 C47 1_555 1_555
C48 C47 1_555 1_555
H24 C48 1_555 1_555
C49 H25 1_555 1_555
H26 C49 1_555 1_555
H27 C49 1_555 1_555
C50 H28 1_555 1_555
H29 C50 1_555 1_555
H30 C50 1_555 1_555
C51 H31 1_555 1_555
C52 H32 1_555 1_555
H33 C52 1_555 1_555
H34 C52 1_555 1_555
C53 H35 1_555 1_555
H36 C53 1_555 1_555
H37 C53 1_555 1_555
C54 H38 1_555 1_555
N1 C1 1_555 1_555
N2 N1 1_555 1_555
N3 N2 1_555 1_555
N4 C1 1_555 1_555
N5 C2 1_555 1_555
N6 N5 1_555 1_555
N7 N6 1_555 1_555
N8 C2 1_555 1_555
N9 Zn1 1_555 1_555
N10 C5 1_555 1_555
N11 Zn1 1_555 1_555
N12 C12 1_555 1_555
N13 Zn2 1_555 1_555
N14 N13 1_555 1_555
N15 N14 1_555 1_555
N16 C17 1_555 1_555
N17 C18 1_555 1_555
N18 N17 1_555 1_555
N19 N18 1_555 1_555
N20 C18 1_555 1_555
N21 Zn2 1_555 1_555
N22 C21 1_555 1_555
N23 Zn2 1_555 1_555
N24 C28 1_555 1_555
N25 C33 1_555 1_555
N26 N25 1_555 1_555
N27 N26 1_555 1_555
N28 C33 1_555 1_555
N29 C34 1_555 1_555
N30 Zn1 1_555 1_555
N31 N30 1_555 1_555
N32 C34 1_555 1_555
N33 Zn3 1_555 1_555
N34 C37 1_555 1_555
N35 Zn3 1_555 1_555
N36 C44 1_555 1_555
N37 C49 1_555 1_555
N38 C52 1_555 1_555
O1 C51 1_555 1_555
O2 C54 1_555 1_555
Zn1A N5 1_555 1_555
Zn2A N20 1_555 1_555
Zn3_2 N17 1_555 1_555
Zn3A N32 1_555 1_555
N5A Zn1 1_555 1_555
N17_2 Zn3 1_555 1_555
N20A Zn2 1_555 1_555
N32A Zn3 1_555 1_555
C3 N9 1_555 1_555
C6 N9 1_555 1_555
C7 N11 1_555 1_555
C11 N11 1_555 1_555
C16 N12 1_555 1_555
C17 N13 1_555 1_555
C19 N21 1_555 1_555
C22 N21 1_555 1_555
C23 N23 1_555 1_555
C27 N23 1_555 1_555
C32 N24 1_555 1_555
C35 N33 1_555 1_555
C38 N33 1_555 1_555
C39 N35 1_555 1_555
C43 N35 1_555 1_555
C48 N36 1_555 1_555
C50 N37 1_555 1_555
C51 N37 1_555 1_555
C53 N38 1_555 1_555
C54 N38 1_555 1_555
N3 N4 1_555 1_555
N7 N8 1_555 1_555
N15 N16 1_555 1_555
N19 N20 1_555 1_555
N27 N28 1_555 1_555
N29 N30 1_555 1_555
N31 N32 1_555 1_555

#END
