
#######################################################################
#
#                 Cambridge Crystallographic Data Centre
#                                CCDC 
#
#######################################################################
#
# If this CIF has been generated from an entry in the Cambridge 
# Structural Database, then it will include bibliographic, chemical, 
# crystal, experimental, refinement or atomic coordinate data resulting 
# from the CCDC's data processing and validation procedures.
#
#######################################################################

data_SENWAL
_chemical_formula_moiety         '(C15 H21 N1 O12 Zn2)n,3n(C2 H6 O1)'
_chemical_name_systematic        
'catena-[(\m~6~-Benzene-1,3,5-tricarboxylato)-triethanol-nitrato-di-zinc(ii) ethanol solvate]'
_symmetry_cell_setting           orthorhombic
_symmetry_space_group_name_H-M   'P 21 21 21'
_symmetry_Int_Tables_number      19
_space_group_name_Hall           'P 2ac 2ab'
loop_
_symmetry_equiv_pos_site_id
_symmetry_equiv_pos_as_xyz
1 x,y,z
2 1/2-x,-y,1/2+z
3 -x,1/2+y,1/2-z
4 1/2+x,1/2-y,-z
_cell_length_a                   13.385(3)
_cell_length_b                   14.712(3)
_cell_length_c                   15.573(3)
_cell_angle_alpha                90
_cell_angle_beta                 90
_cell_angle_gamma                90
_cell_volume                     3066.64
_exptl_crystal_colour            colorless
_exptl_crystal_description       block
_cell_formula_units_Z            4
loop_
_atom_site_label
_atom_site_type_symbol
_atom_site_fract_x
_atom_site_fract_y
_atom_site_fract_z
_atom_site_U_iso_or_equiv
_atom_site_thermal_displace_type
Zn1 Zn -0.21248(9) 0.29730(8) 0.20923(7) 0.0402 Uani
Zn2 Zn -0.04996(9) 0.44806(8) 0.09328(7) 0.0416 Uani
O1 O -0.0932(6) 0.2241(5) 0.1974(5) 0.0487 Uani
O2 O -0.0343(6) 0.3073(5) 0.0871(5) 0.0513 Uani
O3 O 0.2233(6) 0.1842(5) -0.0977(5) 0.0480 Uani
O4 O 0.3006(5) 0.0542(6) -0.0647(5) 0.0507 Uani
O5 O 0.2192(6) -0.0976(5) 0.2156(5) 0.0503 Uani
O6 O 0.0739(5) -0.0593(6) 0.2750(4) 0.0457 Uani
C1 C 0.0439(8) 0.1688(7) 0.1199(6) 0.0383 Uani
C2 C 0.1048(8) 0.1744(7) 0.0466(6) 0.0400 Uani
H1 H 0.0966 0.2240 0.0082 0.0480 Uiso
C3 C 0.1755(8) 0.1101(8) 0.0294(7) 0.0457 Uani
C4 C 0.1917(8) 0.0387(7) 0.0870(6) 0.0420 Uani
H2 H 0.2433 -0.0043 0.0766 0.0500 Uiso
C5 C 0.1315(8) 0.0309(7) 0.1601(6) 0.0407 Uani
C6 C 0.0587(9) 0.0962(8) 0.1756(7) 0.0500 Uani
H3 H 0.0182 0.0911 0.2255 0.0600 Uiso
C7 C -0.0331(8) 0.2392(7) 0.1368(6) 0.0427 Uani
C8 C 0.2388(8) 0.1143(8) -0.0495(7) 0.0483 Uani
C9 C 0.1437(7) -0.0466(8) 0.2208(7) 0.0427 Uani
N1 N -0.3177(8) 0.1924(8) 0.3264(7) 0.0593 Uani
O7 O -0.3257(7) 0.2173(6) 0.2498(5) 0.0573 Uani
O8 O -0.2422(8) 0.2149(8) 0.3675(6) 0.0713 Uani
O9 O -0.3851(10) 0.1481(11) 0.3611(9) 0.1150 Uani
O10 O -0.0712(6) 0.5893(5) 0.0920(5) 0.0500 Uani
C10 C 0.0064(11) 0.6601(9) 0.0833(12) 0.0680 Uani
H4 H 0.0280 0.6637 0.0226 0.0820 Uiso
H5 H 0.0652 0.6432 0.1184 0.0820 Uiso
C11 C -0.0309(14) 0.7504(12) 0.1114(12) 0.0883 Uani
H6 H -0.0587 0.7830 0.0619 0.1320 Uiso
H7 H 0.0244 0.7857 0.1358 0.1320 Uiso
H8 H -0.0830 0.7423 0.1549 0.1320 Uiso
O11 O -0.0124(7) 0.4605(6) -0.0360(5) 0.0623 Uani
C12 C 0.0272(13) 0.3919(11) -0.0943(10) 0.0763 Uani
H9 H 0.0797 0.3561 -0.0650 0.0910 Uiso
H10 H 0.0574 0.4217 -0.1451 0.0910 Uiso
C13 C -0.0566(19) 0.3303(13) -0.1221(12) 0.1050 Uani
H11 H -0.0787 0.2935 -0.0732 0.1590 Uiso
H12 H -0.0331 0.2902 -0.1681 0.1590 Uiso
H13 H -0.1126 0.3670 -0.1431 0.1590 Uiso
O12 O 0.1011(6) 0.4629(8) 0.1208(6) 0.0710 Uani
C14 C 0.1527(14) 0.4239(15) 0.1941(12) 0.0943 Uani
H14 H 0.1950 0.3732 0.1733 0.1130 Uiso
H15 H 0.1022 0.3976 0.2333 0.1130 Uiso
C15 C 0.215(3) 0.486(3) 0.243(2) 0.2010 Uani
H16 H 0.2647 0.5135 0.2051 0.3020 Uiso
H17 H 0.2496 0.4517 0.2886 0.3020 Uiso
H18 H 0.1736 0.5330 0.2690 0.3020 Uiso
Zn1B Zn 0.21248(9) -0.20270(8) 0.29077(7) 0.0402 Uani
Zn1C Zn 0.28752(9) 0.20270(8) -0.20923(7) 0.0402 Uani
Zn2B Zn 0.04996(9) -0.05194(8) 0.40672(7) 0.0416 Uani
Zn2C Zn 0.45004(9) 0.05194(8) -0.09328(7) 0.0416 Uani
O3C O -0.2767(6) 0.3158(5) 0.0977(5) 0.0480 Uani
O4C O -0.1994(5) 0.4458(6) 0.0647(5) 0.0507 Uani
O5B O -0.2192(6) 0.4024(5) 0.2844(5) 0.0503 Uani
O6B O -0.0739(5) 0.4407(6) 0.2250(4) 0.0457 Uani
O13 O 0.2386(10) 0.5476(11) 1.0177(8) 0.1060 Uani
H19 H 0.2538 0.5643 1.0676 0.1590 Uiso
C16 C 0.318(3) 0.513(3) 0.980(3) 0.2267 Uani
H20 H 0.3777 0.5205 1.0165 0.2740 Uiso
H21 H 0.3302 0.5445 0.9243 0.2740 Uiso
C17 C 0.296(5) 0.419(5) 0.966(4) 0.3533 Uani
H22 H 0.3386 0.3824 1.0036 0.5240 Uiso
H23 H 0.3101 0.4038 0.9059 0.5240 Uiso
H24 H 0.2260 0.4077 0.9788 0.5240 Uiso
O14 O 0.7619(8) 0.6623(8) 0.0178(7) 0.0757 Uani
H25 H 0.7523 0.6689 -0.0352 0.1130 Uiso
C18 C 0.6724(14) 0.6743(18) 0.0614(14) 0.1097 Uani
H26 H 0.6497 0.7377 0.0527 0.1310 Uiso
H27 H 0.6216 0.6337 0.0358 0.1310 Uiso
C19 C 0.6773(19) 0.658(3) 0.1475(15) 0.1873 Uani
H28 H 0.6346 0.6055 0.1616 0.2830 Uiso
H29 H 0.6542 0.7112 0.1792 0.2830 Uiso
H30 H 0.7464 0.6439 0.1637 0.2830 Uiso
O15 O 0.9155(7) 0.5860(8) 0.8583(6) 0.0697 Uani
H31 H 0.8701 0.5642 0.8273 0.1050 Uiso
C20 C 0.9934(12) 0.6199(12) 0.8055(11) 0.0810 Uani
H32 H 1.0583 0.6097 0.8345 0.0970 Uiso
H33 H 0.9846 0.6862 0.7981 0.0970 Uiso
C21 C 0.9958(16) 0.5772(18) 0.7217(13) 0.1170 Uani
H34 H 1.0076 0.5118 0.7285 0.1750 Uiso
H35 H 1.0497 0.6039 0.6874 0.1750 Uiso
H36 H 0.9318 0.5869 0.6927 0.1750 Uiso
loop_
_atom_site_aniso_label
_atom_site_aniso_U_11
_atom_site_aniso_U_22
_atom_site_aniso_U_33
_atom_site_aniso_U_23
_atom_site_aniso_U_13
_atom_site_aniso_U_12
Zn1 0.0458(6) 0.0325(6) 0.0423(6) -0.0016(5) -0.0011(5) 0.0022(5)
Zn2 0.0447(6) 0.0347(6) 0.0455(6) 0.0020(5) 0.0012(5) 0.0016(5)
O1 0.059(5) 0.036(4) 0.051(4) 0.002(3) 0.004(3) 0.013(3)
O2 0.066(5) 0.037(4) 0.051(4) 0.007(3) 0.011(4) 0.008(4)
O3 0.068(5) 0.030(4) 0.046(4) 0.005(3) 0.011(3) 0.002(3)
O4 0.048(4) 0.039(4) 0.065(4) -0.007(3) 0.011(3) 0.003(4)
O5 0.058(4) 0.037(4) 0.056(4) 0.005(3) -0.001(4) 0.007(4)
O6 0.056(4) 0.041(4) 0.040(4) 0.004(3) 0.003(3) -0.002(4)
C1 0.041(5) 0.031(5) 0.043(5) 0.008(4) -0.001(4) 0.001(4)
C2 0.045(5) 0.032(5) 0.043(5) 0.007(4) 0.007(4) 0.000(4)
C3 0.052(6) 0.039(6) 0.046(6) 0.002(5) 0.003(4) -0.002(5)
C4 0.048(5) 0.035(5) 0.043(5) -0.002(4) 0.002(4) 0.001(4)
C5 0.055(6) 0.034(5) 0.033(5) 0.000(4) -0.004(4) 0.006(5)
C6 0.053(6) 0.052(7) 0.045(6) 0.003(5) 0.003(5) 0.000(6)
C7 0.056(7) 0.036(5) 0.036(5) -0.003(4) -0.005(4) 0.001(5)
C8 0.048(6) 0.040(6) 0.057(7) -0.001(5) -0.002(4) 0.006(5)
C9 0.044(5) 0.038(5) 0.046(6) 0.006(4) -0.002(4) 0.008(5)
N1 0.053(6) 0.060(7) 0.065(7) 0.014(5) 0.007(5) -0.003(5)
O7 0.069(5) 0.048(5) 0.055(5) 0.008(4) -0.006(4) -0.014(4)
O8 0.086(7) 0.071(7) 0.057(5) -0.002(4) 0.002(4) 0.014(6)
O9 0.100(9) 0.119(12) 0.126(10) 0.068(9) 0.020(8) -0.020(9)
O10 0.049(4) 0.035(4) 0.066(5) 0.007(3) 0.003(3) -0.010(3)
C10 0.068(8) 0.027(6) 0.109(11) -0.001(7) 0.005(7) -0.008(6)
C11 0.101(13) 0.065(10) 0.099(12) 0.001(9) -0.022(9) -0.014(9)
O11 0.089(6) 0.056(6) 0.042(4) 0.003(4) 0.015(4) 0.026(5)
C12 0.102(11) 0.068(9) 0.059(8) -0.008(7) 0.013(7) 0.030(9)
C13 0.16(2) 0.077(12) 0.078(11) -0.006(8) 0.004(11) 0.049(14)
O12 0.040(4) 0.086(8) 0.087(6) 0.029(5) -0.001(4) 0.003(5)
C14 0.084(8) 0.116(10) 0.083(8) 0.006(7) -0.011(6) 0.000(7)
C15 0.199(18) 0.202(18) 0.202(17) 0.002(10) 0.002(10) -0.004(10)
Zn1B 0.0458 0.0325 0.0423 0.0016 -0.0011 -0.0022
Zn1C 0.0458 0.0325 0.0423 -0.0016 0.0011 -0.0022
Zn2B 0.0447 0.0347 0.0455 -0.002 0.0012 -0.0016
Zn2C 0.0447 0.0347 0.0455 0.002 -0.0012 -0.0016
O3C 0.068 0.03 0.046 0.005 -0.011 -0.002
O4C 0.048 0.039 0.065 -0.007 -0.011 -0.003
O5B 0.058 0.037 0.056 -0.005 -0.001 -0.007
O6B 0.056 0.041 0.04 -0.004 0.003 0.002
O13 0.110(9) 0.114(11) 0.094(8) -0.033(8) 0.024(7) -0.045(9)
C16 0.25(4) 0.19(4) 0.24(3) -0.14(3) 0.16(3) -0.12(3)
C17 0.31(6) 0.39(7) 0.36(6) -0.13(6) 0.17(5) 0.07(5)
O14 0.079(7) 0.065(6) 0.083(7) 0.022(5) -0.005(5) 0.014(5)
C18 0.080(11) 0.122(18) 0.127(16) 0.033(13) 0.023(10) 0.035(12)
C19 0.112(17) 0.37(5) 0.080(15) 0.02(2) 0.015(11) 0.08(3)
O15 0.058(5) 0.074(7) 0.077(6) 0.026(5) 0.002(4) 0.005(5)
C20 0.070(9) 0.077(10) 0.096(12) 0.041(9) 0.017(7) 0.023(8)
C21 0.115(14) 0.14(2) 0.096(14) 0.032(13) 0.027(11) 0.045(15)
loop_
_geom_bond_atom_site_label_1
_geom_bond_atom_site_label_2
_geom_bond_site_symmetry_1
_geom_bond_site_symmetry_2
Zn1 O1 1_555 1_555
Zn2 O2 1_555 1_555
O1 C7 1_555 1_555
O2 C7 1_555 1_555
O3 C8 1_555 1_555
O4 C8 1_555 1_555
O5 C9 1_555 1_555
O6 C9 1_555 1_555
C1 C2 1_555 1_555
C2 H1 1_555 1_555
C3 C2 1_555 1_555
C4 C3 1_555 1_555
H2 C4 1_555 1_555
C5 C4 1_555 1_555
C6 C1 1_555 1_555
H3 C6 1_555 1_555
C7 C1 1_555 1_555
C8 C3 1_555 1_555
C9 C5 1_555 1_555
N1 O7 1_555 1_555
O7 Zn1 1_555 1_555
O8 N1 1_555 1_555
O9 N1 1_555 1_555
O10 Zn2 1_555 1_555
C10 O10 1_555 1_555
H4 C10 1_555 1_555
H5 C10 1_555 1_555
C11 C10 1_555 1_555
H6 C11 1_555 1_555
H7 C11 1_555 1_555
H8 C11 1_555 1_555
O11 Zn2 1_555 1_555
C12 O11 1_555 1_555
H9 C12 1_555 1_555
H10 C12 1_555 1_555
C13 C12 1_555 1_555
H11 C13 1_555 1_555
H12 C13 1_555 1_555
H13 C13 1_555 1_555
O12 Zn2 1_555 1_555
C14 O12 1_555 1_555
H14 C14 1_555 1_555
H15 C14 1_555 1_555
C15 C14 1_555 1_555
H16 C15 1_555 1_555
H17 C15 1_555 1_555
H18 C15 1_555 1_555
O13 H19 1_555 1_555
C16 O13 1_555 1_555
H20 C16 1_555 1_555
H21 C16 1_555 1_555
C17 C16 1_555 1_555
H22 C17 1_555 1_555
H23 C17 1_555 1_555
H24 C17 1_555 1_555
O14 H25 1_555 1_555
C18 O14 1_555 1_555
H26 C18 1_555 1_555
H27 C18 1_555 1_555
C19 C18 1_555 1_555
H28 C19 1_555 1_555
H29 C19 1_555 1_555
H30 C19 1_555 1_555
O15 H31 1_555 1_555
C20 O15 1_555 1_555
H32 C20 1_555 1_555
H33 C20 1_555 1_555
C21 C20 1_555 1_555
H34 C21 1_555 1_555
H35 C21 1_555 1_555
H36 C21 1_555 1_555
Zn1B O5 1_555 1_555
Zn1C O3 1_555 1_555
Zn2B O6 1_555 1_555
Zn2C O4 1_555 1_555
O3C Zn1 1_555 1_555
O4C Zn2 1_555 1_555
O5B Zn1 1_555 1_555
O6B Zn2 1_555 1_555
C5 C6 1_555 1_555

#END
