
#######################################################################
#
#                 Cambridge Crystallographic Data Centre
#                                CCDC 
#
#######################################################################
#
# If this CIF has been generated from an entry in the Cambridge 
# Structural Database, then it will include bibliographic, chemical, 
# crystal, experimental, refinement or atomic coordinate data resulting 
# from the CCDC's data processing and validation procedures.
#
#######################################################################

data_LIDSEY01
_chemical_formula_moiety         '(C26 H20 N2 Ni2 O11)n'
_chemical_name_systematic        
'catena-[bis(\m-5-(pyridin-4-yl)isophthalato)-(\m-aqua)-diaqua-di-nickel(ii) unknown solvate]'
_symmetry_cell_setting           monoclinic
_symmetry_space_group_name_H-M   'C 2/c'
_symmetry_Int_Tables_number      15
_space_group_name_Hall           '-C 2yc'
loop_
_symmetry_equiv_pos_site_id
_symmetry_equiv_pos_as_xyz
1 x,y,z
2 -x,y,1/2-z
3 1/2+x,1/2+y,z
4 1/2-x,1/2+y,1/2-z
5 -x,-y,-z
6 x,-y,1/2+z
7 1/2-x,1/2-y,-z
8 1/2+x,1/2-y,1/2+z
_cell_length_a                   17.298(8)
_cell_length_b                   13.402(6)
_cell_length_c                   18.056(8)
_cell_angle_alpha                90
_cell_angle_beta                 96.196(6)
_cell_angle_gamma                90
_cell_volume                     4161.43
_cell_formula_units_Z            4
loop_
_atom_site_label
_atom_site_type_symbol
_atom_site_fract_x
_atom_site_fract_y
_atom_site_fract_z
_atom_site_U_iso_or_equiv
_atom_site_thermal_displace_type
Ni1 Ni 1.04044(3) 0.30594(4) 0.16562(3) 0.0271 Uani
C1 C 0.8319(3) -0.0330(3) 0.0817(3) 0.0401 Uani
C2 C 0.7610(3) -0.0546(3) 0.1071(3) 0.0501 Uani
H1 H 0.7302 -0.1054 0.0847 0.0600 Uiso
C3 C 0.7349(2) -0.0006(3) 0.1663(3) 0.0430 Uani
C4 C 0.7789(2) 0.0782(3) 0.1978(3) 0.0389 Uani
H2 H 0.7621 0.1141 0.2371 0.0460 Uiso
C5 C 0.8493(2) 0.1032(3) 0.1696(2) 0.0352 Uani
C6 C 0.8740(3) 0.0486(3) 0.1130(3) 0.0432 Uani
H3 H 0.9203 0.0661 0.0946 0.0520 Uiso
C7 C 0.8598(2) -0.0946(3) 0.0199(2) 0.0329 Uani
C8 C 0.80947(17) -0.1335(3) -0.0382(3) 0.0472 Uani
H4 H 0.7567 -0.1183 -0.0418 0.0570 Uiso
C9 C 0.8380(2) -0.1951(3) -0.0909(2) 0.0432 Uani
H5 H 0.8044 -0.2211 -0.1297 0.0520 Uiso
N1 N 0.9168(2) -0.2177(3) -0.0855(2) 0.0326 Uani
C10 C 0.96711(17) -0.1788(3) -0.0274(3) 0.0471 Uani
H6 H 1.0198 -0.1940 -0.0238 0.0560 Uiso
C11 C 0.9386(2) -0.1173(3) 0.0253(2) 0.0523 Uani
H7 H 0.9722 -0.0912 0.0642 0.0620 Uiso
C12 C 0.6585(3) -0.0317(3) 0.1918(3) 0.0446 Uani
C13 C 0.9004(2) 0.1872(3) 0.2028(2) 0.0290 Uani
O1 O 0.62180(18) -0.0944(2) 0.14971(19) 0.0508 Uani
O2 O 0.63674(19) 0.0024(3) 0.2499(2) 0.0625 Uani
O3 O 0.95715(18) 0.2049(2) 0.1676(2) 0.0475 Uani
O4 O 0.88291(16) 0.2314(2) 0.25860(17) 0.0407 Uani
O5 O 0.9673(2) 0.3801(3) 0.0842(2) 0.0725 Uani
H8 H 0.9468 0.4311 0.0620 0.0870 Uiso
H9 H 0.9329 0.3348 0.0828 0.0870 Uiso
O6 O 1.0000 0.3975(3) 0.2500 0.0305 Uani
H10 H 1.0288 0.4467 0.2418 0.0360 Uiso
H10A H 0.9712 0.4467 0.2582 0.0360 Uiso
Ni1A Ni 0.95956(3) 0.30594(4) 0.33438(3) 0.0271 Uani
C1A C 1.1681(3) -0.0330(3) 0.4183(3) 0.0401 Uani
C2A C 1.2390(3) -0.0546(3) 0.3929(3) 0.0501 Uani
H1A H 1.2698 -0.1054 0.4153 0.0600 Uiso
C3A C 1.2651(2) -0.0006(3) 0.3337(3) 0.0430 Uani
C4A C 1.2211(2) 0.0782(3) 0.3022(3) 0.0389 Uani
H2A H 1.2379 0.1141 0.2629 0.0460 Uiso
C5A C 1.1507(2) 0.1032(3) 0.3304(2) 0.0352 Uani
C6A C 1.1260(3) 0.0486(3) 0.3870(3) 0.0432 Uani
H3A H 1.0797 0.0661 0.4054 0.0520 Uiso
C7A C 1.1402(2) -0.0946(3) 0.4801(2) 0.0329 Uani
C8A C 1.19053(17) -0.1335(3) 0.5382(3) 0.0472 Uani
H4A H 1.2433 -0.1183 0.5418 0.0570 Uiso
C9A C 1.1620(2) -0.1951(3) 0.5909(2) 0.0432 Uani
H5A H 1.1956 -0.2211 0.6297 0.0520 Uiso
N1A N 1.0832(2) -0.2177(3) 0.5855(2) 0.0326 Uani
C10A C 1.03289(17) -0.1788(3) 0.5274(3) 0.0471 Uani
H6A H 0.9802 -0.1940 0.5238 0.0560 Uiso
C11A C 1.0614(2) -0.1173(3) 0.4747(2) 0.0523 Uani
H7A H 1.0278 -0.0912 0.4358 0.0620 Uiso
C12A C 1.3415(3) -0.0317(3) 0.3082(3) 0.0446 Uani
C13A C 1.0996(2) 0.1872(3) 0.2972(2) 0.0290 Uani
O1A O 1.37820(18) -0.0944(2) 0.35029(19) 0.0508 Uani
O2A O 1.36326(19) 0.0024(3) 0.2501(2) 0.0625 Uani
O3A O 1.04285(18) 0.2049(2) 0.3324(2) 0.0475 Uani
O4A O 1.11709(16) 0.2314(2) 0.24140(17) 0.0407 Uani
O5A O 1.0327(2) 0.3801(3) 0.4158(2) 0.0725 Uani
H8A H 1.0532 0.4311 0.4380 0.0870 Uiso
H9A H 1.0671 0.3348 0.4172 0.0870 Uiso
Ni1B Ni 0.54044(3) -0.19406(4) 0.16562(3) 0.0271 Uani
Ni1C Ni 1.45956(3) -0.19406(4) 0.33438(3) 0.0271 Uani
Ni1D Ni 0.95956(3) -0.30594(4) -0.16562(3) 0.0271 Uani
Ni1E Ni 1.04044(3) -0.30594(4) 0.66562(3) 0.0271 Uani
N1D N 1.0832(2) 0.2177(3) 0.0855(2) 0.0326 Uani
N1E N 0.9168(2) 0.2177(3) 0.4145(2) 0.0326 Uani
O1B O 1.12180(18) 0.4056(2) 0.14971(19) 0.0508 Uani
O1C O 0.87820(18) 0.4056(2) 0.35029(19) 0.0508 Uani
C14? C 0.8678(7) -0.1002(7) 0.0338(5) 0.0329 Uani
C15? C 0.8697(6) -0.2035(7) 0.0409(5) 0.0225 Uani
H11? H 0.8548 -0.2334 0.0836 0.0270 Uiso
C16? C 0.8939(7) -0.2620(5) -0.0159(6) 0.0432 Uani
H12? H 0.8951 -0.3311 -0.0111 0.0520 Uiso
N2? N 0.9162(7) -0.2172(6) -0.0797(5) 0.0328 Uani
C17? C 0.9143(6) -0.1139(7) -0.0868(5) 0.0177 Uani
H13? H 0.9292 -0.0840 -0.1295 0.0210 Uiso
C18? C 0.8901(6) -0.0554(5) -0.0300(6) 0.0261 Uani
H14? H 0.8888 0.0137 -0.0348 0.0310 Uiso
H15? H 0.9785 0.4104 0.2891 0.0360 Uiso
loop_
_atom_site_aniso_label
_atom_site_aniso_U_11
_atom_site_aniso_U_22
_atom_site_aniso_U_33
_atom_site_aniso_U_23
_atom_site_aniso_U_13
_atom_site_aniso_U_12
Ni1 0.0222(3) 0.0316(4) 0.0291(4) -0.0003(2) 0.0100(2) -0.00462(19)
C1 0.036(2) 0.040(2) 0.048(3) -0.010(2) 0.022(2) -0.0126(19)
C2 0.040(3) 0.042(3) 0.073(4) -0.022(3) 0.028(2) -0.017(2)
C3 0.031(2) 0.043(3) 0.059(3) -0.013(2) 0.023(2) -0.009(2)
C4 0.032(2) 0.043(3) 0.045(3) -0.014(2) 0.0195(19) -0.0036(19)
C5 0.028(2) 0.036(2) 0.044(3) -0.007(2) 0.0151(18) -0.0091(18)
C6 0.036(2) 0.045(3) 0.054(3) -0.006(2) 0.029(2) -0.011(2)
C7 0.030(5) 0.034(6) 0.037(4) -0.004(4) 0.014(4) -0.007(4)
C8 0.041(3) 0.057(4) 0.046(4) -0.011(3) 0.015(3) -0.006(3)
C9 0.037(3) 0.055(4) 0.039(4) -0.004(3) 0.011(3) -0.006(3)
N1 0.025(11) 0.041(13) 0.034(7) -0.001(7) 0.013(7) -0.007(9)
C10 0.044(4) 0.053(4) 0.047(4) -0.013(3) 0.017(3) -0.009(3)
C11 0.047(4) 0.062(4) 0.051(4) -0.016(4) 0.019(3) -0.016(3)
C12 0.037(2) 0.041(3) 0.060(3) -0.008(2) 0.025(2) -0.009(2)
C13 0.024(2) 0.033(2) 0.031(2) -0.0004(18) 0.0073(17) -0.0047(16)
O1 0.0474(18) 0.051(2) 0.059(2) -0.0236(17) 0.0286(16) -0.0216(16)
O2 0.0447(19) 0.088(3) 0.061(2) -0.036(2) 0.0338(17) -0.0249(19)
O3 0.0420(18) 0.056(2) 0.049(2) -0.0183(16) 0.0257(16) -0.0243(15)
O4 0.0325(16) 0.0527(19) 0.0395(19) -0.0109(16) 0.0158(14) -0.0100(14)
O5 0.072(3) 0.069(2) 0.072(3) 0.008(2) -0.013(2) 0.019(2)
O6 0.0276(19) 0.036(2) 0.032(2) 0.000 0.0217(16) 0.000
Ni1A 0.0222 0.0316 0.0291 0.0003 0.01 0.00462
C1A 0.036 0.04 0.048 0.01 0.022 0.0126
C2A 0.04 0.042 0.073 0.022 0.028 0.017
C3A 0.031 0.043 0.059 0.013 0.023 0.009
C4A 0.032 0.043 0.045 0.014 0.0195 0.0036
C5A 0.028 0.036 0.044 0.007 0.0151 0.0091
C6A 0.036 0.045 0.054 0.006 0.029 0.011
C7A 0.03 0.034 0.037 0.004 0.014 0.007
C8A 0.041 0.057 0.046 0.011 0.015 0.006
C9A 0.037 0.055 0.039 0.004 0.011 0.006
N1A 0.025 0.041 0.034 0.001 0.013 0.007
C10A 0.044 0.053 0.047 0.013 0.017 0.009
C11A 0.047 0.062 0.051 0.016 0.019 0.016
C12A 0.037 0.041 0.06 0.008 0.025 0.009
C13A 0.024 0.033 0.031 0.0004 0.0073 0.0047
O1A 0.0474 0.051 0.059 0.0236 0.0286 0.0216
O2A 0.0447 0.088 0.061 0.036 0.0338 0.0249
O3A 0.042 0.056 0.049 0.0183 0.0257 0.0243
O4A 0.0325 0.0527 0.0395 0.0109 0.0158 0.01
O5A 0.072 0.069 0.072 -0.008 -0.013 -0.019
Ni1B 0.0222 0.0316 0.0291 -0.0003 0.01 -0.00462
Ni1C 0.0222 0.0316 0.0291 0.0003 0.01 0.00462
Ni1D 0.0222 0.0316 0.0291 -0.0003 0.01 -0.00462
Ni1E 0.0222 0.0316 0.0291 0.0003 0.01 0.00462
N1D 0.025 0.041 0.034 -0.001 0.013 -0.007
N1E 0.025 0.041 0.034 0.001 0.013 0.007
O1B 0.0474 0.051 0.059 -0.0236 0.0286 -0.0216
O1C 0.0474 0.051 0.059 0.0236 0.0286 0.0216
C14? 0.030(14) 0.034(18) 0.037(12) -0.004(11) 0.014(11) -0.007(12)
C15? 0.026(8) 0.019(8) 0.024(8) -0.002(6) 0.010(6) -0.003(6)
C16? 0.037(9) 0.055(12) 0.039(11) -0.004(9) 0.011(8) -0.006(9)
N2? 0.03(3) 0.04(4) 0.03(2) 0.00(2) 0.01(2) -0.01(3)
C17? 0.021(7) 0.018(7) 0.015(7) 0.000(6) 0.006(5) 0.001(6)
C18? 0.029(8) 0.026(8) 0.027(9) 0.002(7) 0.020(7) 0.002(6)
loop_
_geom_bond_atom_site_label_1
_geom_bond_atom_site_label_2
_geom_bond_site_symmetry_1
_geom_bond_site_symmetry_2
Ni1 O3 1_555 1_555
C1 C2 1_555 1_555
C2 H1 1_555 1_555
C3 C2 1_555 1_555
C4 C3 1_555 1_555
H2 C4 1_555 1_555
C5 C4 1_555 1_555
C6 C1 1_555 1_555
H3 C6 1_555 1_555
C7 C1 1_555 1_555
C8 C7 1_555 1_555
H4 C8 1_555 1_555
C9 C8 1_555 1_555
H5 C9 1_555 1_555
N1 C9 1_555 1_555
C10 N1 1_555 1_555
H6 C10 1_555 1_555
C11 C7 1_555 1_555
H7 C11 1_555 1_555
C12 C3 1_555 1_555
C13 C5 1_555 1_555
O1 C12 1_555 1_555
O2 C12 1_555 1_555
O3 C13 1_555 1_555
O4 C13 1_555 1_555
O5 Ni1 1_555 1_555
H8 O5 1_555 1_555
H9 O5 1_555 1_555
O6 Ni1 1_555 1_555
H10 O6 1_555 1_555
H10A O6 1_555 1_555
Ni1A O4 1_555 1_555
C1A C2A 1_555 1_555
C2A H1A 1_555 1_555
C3A C2A 1_555 1_555
C4A C3A 1_555 1_555
H2A C4A 1_555 1_555
C5A C4A 1_555 1_555
C6A C1A 1_555 1_555
H3A C6A 1_555 1_555
C7A C1A 1_555 1_555
C8A C7A 1_555 1_555
H4A C8A 1_555 1_555
C9A C8A 1_555 1_555
H5A C9A 1_555 1_555
N1A C9A 1_555 1_555
C10A N1A 1_555 1_555
H6A C10A 1_555 1_555
C11A C7A 1_555 1_555
H7A C11A 1_555 1_555
C12A C3A 1_555 1_555
C13A C5A 1_555 1_555
O1A C12A 1_555 1_555
O2A C12A 1_555 1_555
O3A Ni1A 1_555 1_555
O4A Ni1 1_555 1_555
O5A Ni1A 1_555 1_555
H8A O5A 1_555 1_555
H9A O5A 1_555 1_555
Ni1B O1 1_555 1_555
Ni1C O1A 1_555 1_555
Ni1D N1 1_555 1_555
Ni1E N1A 1_555 1_555
N1D Ni1 1_555 1_555
N1E Ni1A 1_555 1_555
O1B Ni1 1_555 1_555
O1C Ni1A 1_555 1_555
C5 C6 1_555 1_555
C10 C11 1_555 1_555
O6 Ni1A 1_555 1_555
C5A C6A 1_555 1_555
C10A C11A 1_555 1_555
C13A O3A 1_555 1_555
C13A O4A 1_555 1_555

#END
