
#######################################################################
#
#                 Cambridge Crystallographic Data Centre
#                                CCDC 
#
#######################################################################
#
# If this CIF has been generated from an entry in the Cambridge 
# Structural Database, then it will include bibliographic, chemical, 
# crystal, experimental, refinement or atomic coordinate data resulting 
# from the CCDC's data processing and validation procedures.
#
#######################################################################

data_XOMCOT
_chemical_formula_moiety         '(C62 H42 Co2 N10 O8)n,0.5n(C18 H14 N4)'
_chemical_name_systematic        
"catena-[bis(\m-5-(pyridin-4-yl)isophthalato)-bis(\m-1,1'-biphenyl-4,4'-diylbis(1H-imidazole))-di-cobalt hemikis(1,1'-biphenyl-4,4'-diylbis(1H-imidazole)) unknown solvate]"
_symmetry_cell_setting           monoclinic
_symmetry_space_group_name_H-M   'P 21/c'
_symmetry_Int_Tables_number      14
_space_group_name_Hall           '-P 2ybc'
loop_
_symmetry_equiv_pos_site_id
_symmetry_equiv_pos_as_xyz
1 x,y,z
2 -x,1/2+y,1/2-z
3 -x,-y,-z
4 x,1/2-y,1/2+z
_cell_length_a                   20.365(3)
_cell_length_b                   20.119(3)
_cell_length_c                   17.311(3)
_cell_angle_alpha                90
_cell_angle_beta                 103.166(3)
_cell_angle_gamma                90
_cell_volume                     6906.28
_cell_formula_units_Z            4
loop_
_atom_site_label
_atom_site_type_symbol
_atom_site_fract_x
_atom_site_fract_y
_atom_site_fract_z
Co1 Co 0.87510(2) 0.13550(2) 1.26328(3)
Co2 Co 0.38409(2) 0.12816(2) 0.25581(3)
C1 C 0.8778(2) 0.2088(3) 1.4233(3)
H1 H 0.8402 0.2339 1.4000
C2 C 0.9134(2) 0.2158(3) 1.4997(3)
H2 H 0.9051 0.2456 1.5375
C3 C 0.95709(18) 0.13844(17) 1.4384(2)
H3 H 0.9860 0.1055 1.4283
C4 C 1.01646(18) 0.15968(19) 1.5784(2)
C5 C 1.04018(18) 0.21439(17) 1.6260(2)
H4 H 1.0229 0.2566 1.6119
C6 C 1.08927(19) 0.20518(17) 1.6937(2)
H5 H 1.1048 0.2417 1.7255
C7 C 1.11666(17) 0.14298(16) 1.7165(2)
C8 C 1.09196(18) 0.08893(18) 1.6674(2)
H6 H 1.1096 0.0467 1.6805
C9 C 1.04190(18) 0.09777(18) 1.6002(2)
H7 H 1.0250 0.0612 1.5691
C10 C 1.17016(17) 0.13557(16) 1.7904(2)
C11 C 1.21752(18) 0.18600(18) 1.8132(2)
H8 H 1.2158 0.2235 1.7814
C12 C 1.26660(19) 0.18114(19) 1.8819(2)
H9 H 1.2980 0.2151 1.8961
C13 C 1.26951(18) 0.12610(19) 1.9301(2)
C14 C 1.2238(2) 0.07521(19) 1.9076(2)
H10 H 1.2262 0.0375 1.9392
C15 C 1.17434(19) 0.08000(18) 1.8383(2)
H11 H 1.1436 0.0455 1.8238
C16 C 1.31195(18) 0.11464(17) 2.0753(2)
H12 H 1.2706 0.1047 2.0868
C17 C 1.4157(2) 0.1380(2) 2.0879(2)
H13 H 1.4609 0.1468 2.1103
C18 C 1.3873(2) 0.1395(2) 2.0094(2)
H14 H 1.4087 0.1496 1.9688
C19 C 0.7954(2) 0.1363(2) 1.0860(2)
H15 H 0.7593 0.1576 1.1000
C20 C 0.8886(2) 0.0925(3) 1.0941(3)
H16 H 0.9324 0.0775 1.1138
C21 C 0.8556(3) 0.0886(4) 1.0183(3)
H17 H 0.8712 0.0687 0.9773
C22 C 0.74334(19) 0.12468(19) 0.9413(2)
C23 C 0.7189(2) 0.1856(2) 0.9119(2)
H18 H 0.7353 0.2242 0.9391
C24 C 0.6701(2) 0.1895(2) 0.8426(2)
H19 H 0.6533 0.2308 0.8238
C25 C 0.64547(19) 0.13238(17) 0.7997(2)
C26 C 0.6697(2) 0.0723(2) 0.8310(2)
H20 H 0.6524 0.0334 0.8052
C27 C 0.7194(2) 0.0683(2) 0.9004(3)
H21 H 0.7365 0.0271 0.9192
C28 C 0.59417(19) 0.13577(17) 0.7232(2)
C29 C 0.5496(2) 0.1893(2) 0.7046(2)
H22 H 0.5529 0.2243 0.7403
C30 C 0.5013(2) 0.1916(2) 0.6353(2)
H23 H 0.4718 0.2275 0.6245
C31 C 0.49654(19) 0.14002(19) 0.5813(2)
C32 C 0.5390(2) 0.0861(2) 0.5980(2)
H24 H 0.5350 0.0510 0.5623
C33 C 0.5877(2) 0.0849(2) 0.6684(2)
H25 H 0.6169 0.0487 0.6791
C34 C 0.3798(2) 0.1624(2) 0.4985(2)
H26 H 0.3586 0.1768 0.5377
C35 C 0.3520(2) 0.1572(2) 0.4209(2)
H27 H 0.3073 0.1672 0.3974
C36 C 0.45403(19) 0.12641(18) 0.4363(2)
H28 H 0.4944 0.1110 0.4264
C37 C 0.5115(2) 0.0903(2) 0.2691(2)
C38 C 0.57589(16) 0.05225(16) 0.2713(2)
C39 C 0.63692(17) 0.08530(16) 0.2755(2)
H29 H 0.6381 0.1315 0.2778
C40 C 0.76082(18) 0.08519(18) 0.2750(2)
C41 C 0.69607(16) 0.05014(16) 0.2764(2)
C42 C 0.69309(15) -0.01887(15) 0.2730(2)
H30 H 0.7323 -0.0429 0.2744
C43 C 0.63289(15) -0.05262(15) 0.26769(19)
C44 C 0.57473(16) -0.01643(16) 0.2667(2)
H31 H 0.5341 -0.0388 0.2629
C45 C 0.63011(15) -0.12649(15) 0.2623(2)
C46 C 0.67573(16) -0.16673(15) 0.3133(2)
H32 H 0.7099 -0.1478 0.3519
C47 C 0.67026(16) -0.23443(16) 0.3067(2)
H33 H 0.7015 -0.2602 0.3415
C48 C 0.57842(17) -0.22694(16) 0.2026(2)
H34 H 0.5453 -0.2471 0.1637
C49 C 0.58041(17) -0.15888(16) 0.2066(2)
H35 H 0.5481 -0.1341 0.1717
C50 C 0.24679(19) 0.10047(19) 0.2470(2)
C51 C 0.18746(16) 0.06167(15) 0.26099(19)
C52 C 0.18859(16) -0.00774(15) 0.26648(19)
H36 H 0.2280 -0.0304 0.2647
C53 C 0.13228(15) -0.04350(15) 0.27449(19)
C54 C 0.07402(15) -0.00820(15) 0.27886(19)
H37 H 0.0361 -0.0312 0.2856
C55 C 0.07191(15) 0.06083(15) 0.27327(18)
C56 C 0.00725(19) 0.09921(19) 0.2709(2)
C57 C 0.12903(16) 0.09486(15) 0.26506(19)
H38 H 0.1280 0.1410 0.2622
C58 C 0.13295(16) -0.11713(16) 0.2740(2)
C59 C 0.1898(2) -0.15392(19) 0.2768(3)
H39 H 0.2310 -0.1323 0.2824
C60 C 0.1877(2) -0.22164(19) 0.2716(4)
H40 H 0.2282 -0.2442 0.2759
C61 C 0.07738(19) -0.22188(17) 0.2614(3)
H41 H 0.0370 -0.2447 0.2572
C62 C 0.07568(18) -0.15369(17) 0.2679(3)
H42 H 0.0352 -0.1325 0.2681
N1 N 0.90468(15) 0.16027(16) 1.38584(18)
N2 N 0.96409(15) 0.16933(16) 1.50887(18)
N3 N 1.32061(15) 0.12323(16) 2.00150(17)
N4 N 1.36857(14) 0.12187(13) 2.12983(16)
N5 N 0.85064(15) 0.12067(14) 1.13710(17)
N6 N 0.79545(16) 0.11891(15) 1.01198(18)
N7 N 0.44593(16) 0.14246(16) 0.50890(17)
N8 N 0.39876(15) 0.13482(14) 0.38084(17)
N9 N 0.62229(12) -0.26582(13) 0.25268(15)
N10 N 0.13148(13) -0.25736(13) 0.26073(16)
O1 O 0.45835(13) 0.05763(15) 0.26419(16)
O2 O 0.51187(17) 0.15124(15) 0.2719(2)
O3 O 0.76035(14) 0.14635(13) 0.26423(19)
O4 O 0.81366(13) 0.05274(13) 0.28271(18)
O5 O 0.30232(13) 0.06987(13) 0.25637(16)
O6 O 0.23860(16) 0.15885(14) 0.2266(2)
O7 O -0.04449(12) 0.06829(13) 0.27658(16)
O8 O 0.00797(17) 0.15959(14) 0.2623(2)
Co1_2 Co -0.12490(2) 0.13550(2) 0.26328(3)
Co1_3 Co 0.87510(2) 0.13550(2) 0.26328(3)
Co1A Co 0.12490(2) -0.36450(2) 0.23672(3)
Co2_2 Co 1.38409(2) 0.12816(2) 2.25581(3)
Co2A Co 0.61591(2) -0.37184(2) 0.24419(3)
N4_2 N 0.36857(14) 0.12187(13) 0.12983(16)
N9A N 0.37771(12) 0.23418(13) 0.24732(15)
N10A N 0.86852(13) 0.24264(13) 1.23927(16)
O3_2 O 0.76035(14) 0.14635(13) 1.26423(19)
O4_2 O 0.81366(13) 0.05274(13) 1.28271(18)
O7_2 O 0.95551(12) 0.06829(13) 1.27658(16)
C63 C 0.91490(18) 0.84559(19) 0.0084(2)
C64 C 0.9019(2) 0.8830(2) -0.0588(2)
H43 H 0.8706 0.8681 -0.1033
C65 C 0.9346(2) 0.9434(2) -0.0621(2)
H44 H 0.9244 0.9678 -0.1089
C66 C 0.98208(18) 0.96841(18) 0.0020(2)
C67 C 0.9943(2) 0.9287(2) 0.0692(3)
H45 H 1.0260 0.9427 0.1139
C68 C 0.9616(2) 0.8699(2) 0.0724(3)
H46 H 0.9712 0.8455 0.1193
C69 C 0.8941(2) 0.7382(2) 0.0705(3)
H47 H 0.9285 0.7396 0.1162
N11 N 0.8054(2) 0.7040(2) -0.0219(2)
C70 C 0.8271(2) 0.7612(2) -0.0418(3)
H48 H 0.8075 0.7833 -0.0885
N12 N 0.88085(15) 0.78512(16) 0.01205(18)
C71 C 0.8479(3) 0.6895(2) 0.0492(3)
H49 H 0.8454 0.6514 0.0789
C63B C 1.08510(18) 1.15441(19) -0.0084(2)
C64B C 1.0981(2) 1.1170(2) 0.0588(2)
H43B H 1.1294 1.1319 0.1033
C65B C 1.0654(2) 1.0566(2) 0.0621(2)
H44B H 1.0756 1.0322 0.1089
C66B C 1.01792(18) 1.03159(18) -0.0020(2)
C67B C 1.0057(2) 1.0713(2) -0.0692(3)
H45B H 0.9740 1.0573 -0.1139
C68B C 1.0384(2) 1.1301(2) -0.0724(3)
H46B H 1.0288 1.1545 -0.1193
C69B C 1.1059(2) 1.2618(2) -0.0705(3)
H47B H 1.0715 1.2604 -0.1162
N11B N 1.1946(2) 1.2960(2) 0.0219(2)
C70B C 1.1729(2) 1.2388(2) 0.0418(3)
H48B H 1.1925 1.2167 0.0885
N12B N 1.11915(15) 1.21488(16) -0.01205(18)
C71B C 1.1521(3) 1.3105(2) -0.0492(3)
H49B H 1.1546 1.3486 -0.0789
loop_
_geom_bond_atom_site_label_1
_geom_bond_atom_site_label_2
_geom_bond_site_symmetry_1
_geom_bond_site_symmetry_2
Co1 N1 1_555 1_555
Co2 N8 1_555 1_555
C1 H1 1_555 1_555
C2 C1 1_555 1_555
H2 C2 1_555 1_555
C3 H3 1_555 1_555
C4 C5 1_555 1_555
C5 H4 1_555 1_555
C6 C5 1_555 1_555
H5 C6 1_555 1_555
C7 C6 1_555 1_555
C8 C7 1_555 1_555
H6 C8 1_555 1_555
C9 C4 1_555 1_555
H7 C9 1_555 1_555
C10 C7 1_555 1_555
C11 C10 1_555 1_555
H8 C11 1_555 1_555
C12 C11 1_555 1_555
H9 C12 1_555 1_555
C13 C12 1_555 1_555
C14 C13 1_555 1_555
H10 C14 1_555 1_555
C15 C10 1_555 1_555
H11 C15 1_555 1_555
C16 H12 1_555 1_555
C17 H13 1_555 1_555
C18 C17 1_555 1_555
H14 C18 1_555 1_555
C19 H15 1_555 1_555
C20 H16 1_555 1_555
C21 C20 1_555 1_555
H17 C21 1_555 1_555
C22 C23 1_555 1_555
C23 H18 1_555 1_555
C24 C23 1_555 1_555
H19 C24 1_555 1_555
C25 C24 1_555 1_555
C26 C25 1_555 1_555
H20 C26 1_555 1_555
C27 C22 1_555 1_555
H21 C27 1_555 1_555
C28 C25 1_555 1_555
C29 C28 1_555 1_555
H22 C29 1_555 1_555
C30 C29 1_555 1_555
H23 C30 1_555 1_555
C31 C30 1_555 1_555
C32 C31 1_555 1_555
H24 C32 1_555 1_555
C33 C28 1_555 1_555
H25 C33 1_555 1_555
C34 H26 1_555 1_555
C35 C34 1_555 1_555
H27 C35 1_555 1_555
C36 H28 1_555 1_555
C37 C38 1_555 1_555
C38 C39 1_555 1_555
C39 H29 1_555 1_555
C40 C41 1_555 1_555
C41 C39 1_555 1_555
C42 C41 1_555 1_555
H30 C42 1_555 1_555
C43 C42 1_555 1_555
C44 C38 1_555 1_555
H31 C44 1_555 1_555
C45 C43 1_555 1_555
C46 C45 1_555 1_555
H32 C46 1_555 1_555
C47 C46 1_555 1_555
H33 C47 1_555 1_555
C48 H34 1_555 1_555
C49 C45 1_555 1_555
H35 C49 1_555 1_555
C50 C51 1_555 1_555
C51 C52 1_555 1_555
C52 H36 1_555 1_555
C53 C52 1_555 1_555
C54 C53 1_555 1_555
H37 C54 1_555 1_555
C55 C54 1_555 1_555
C56 C55 1_555 1_555
C57 C51 1_555 1_555
H38 C57 1_555 1_555
C58 C53 1_555 1_555
C59 C58 1_555 1_555
H39 C59 1_555 1_555
C60 C59 1_555 1_555
H40 C60 1_555 1_555
C61 H41 1_555 1_555
C62 C58 1_555 1_555
H42 C62 1_555 1_555
N1 C1 1_555 1_555
N2 C2 1_555 1_555
N3 C13 1_555 1_555
N4 C16 1_555 1_555
N5 Co1 1_555 1_555
N6 C19 1_555 1_555
N7 C31 1_555 1_555
N8 C35 1_555 1_555
N9 C47 1_555 1_555
N10 C60 1_555 1_555
O1 Co2 1_555 1_555
O2 C37 1_555 1_555
O3 C40 1_555 1_555
O4 C40 1_555 1_555
O5 Co2 1_555 1_555
O6 C50 1_555 1_555
O7 C56 1_555 1_555
O8 C56 1_555 1_555
C63 C64 1_555 1_555
C64 H43 1_555 1_555
C65 C64 1_555 1_555
H44 C65 1_555 1_555
C66 C65 1_555 1_555
C67 C66 1_555 1_555
H45 C67 1_555 1_555
C68 C63 1_555 1_555
H46 C68 1_555 1_555
C69 H47 1_555 1_555
N11 C70 1_555 1_555
C70 H48 1_555 1_555
N12 C63 1_555 1_555
C71 C69 1_555 1_555
H49 C71 1_555 1_555
Co1_2 O7 1_555 1_555
Co1_3 O3 1_555 1_555
Co1A N10 1_555 1_555
Co2_2 N4 1_555 1_555
Co2A N9 1_555 1_555
N4_2 Co2 1_555 1_555
N9A Co2 1_555 1_555
N10A Co1 1_555 1_555
O3_2 Co1 1_555 1_555
O4_2 Co1 1_555 1_555
O7_2 Co1 1_555 1_555
C63B C64B 1_555 1_555
C64B H43B 1_555 1_555
C65B C64B 1_555 1_555
H44B C65B 1_555 1_555
C66B C66 1_555 1_555
C67B C66B 1_555 1_555
H45B C67B 1_555 1_555
C68B C63B 1_555 1_555
H46B C68B 1_555 1_555
C69B H47B 1_555 1_555
N11B C70B 1_555 1_555
C70B H48B 1_555 1_555
N12B C63B 1_555 1_555
C71B C69B 1_555 1_555
H49B C71B 1_555 1_555
C3 N1 1_555 1_555
C3 N2 1_555 1_555
C4 N2 1_555 1_555
C8 C9 1_555 1_555
C14 C15 1_555 1_555
C16 N3 1_555 1_555
C17 N4 1_555 1_555
C18 N3 1_555 1_555
C19 N5 1_555 1_555
C20 N5 1_555 1_555
C21 N6 1_555 1_555
C22 N6 1_555 1_555
C26 C27 1_555 1_555
C32 C33 1_555 1_555
C34 N7 1_555 1_555
C36 N7 1_555 1_555
C36 N8 1_555 1_555
C37 O1 1_555 1_555
C43 C44 1_555 1_555
C48 C49 1_555 1_555
C48 N9 1_555 1_555
C50 O5 1_555 1_555
C55 C57 1_555 1_555
C61 C62 1_555 1_555
C61 N10 1_555 1_555
O4 Co1_3 1_555 1_555
C67 C68 1_555 1_555
C69 N12 1_555 1_555
N11 C71 1_555 1_555
C70 N12 1_555 1_555
C65B C66B 1_555 1_555
C67B C68B 1_555 1_555
C69B N12B 1_555 1_555
N11B C71B 1_555 1_555
C70B N12B 1_555 1_555

#END
