
#######################################################################
#
#                 Cambridge Crystallographic Data Centre
#                                CCDC 
#
#######################################################################
#
# If this CIF has been generated from an entry in the Cambridge 
# Structural Database, then it will include bibliographic, chemical, 
# crystal, experimental, refinement or atomic coordinate data resulting 
# from the CCDC's data processing and validation procedures.
#
#######################################################################

data_VAGMOH
_chemical_formula_moiety         
'(C52 H32 N8 O8 Zn2)n,23n(C3 H7 N1 O1),4n(H2 O1)'
_chemical_name_systematic        
"catena-((\m~8~-4,4',4'',4'''-(Biphenyl-4,4'-diyldinitrilo)tetrabenzoato)-(\m~2~-3,6-bis(4-pyridyl)-1,2,4,5-tetrazine)-di-zinc dimethylformamide solvate tetrahydrate)"
_symmetry_cell_setting           orthorhombic
_symmetry_space_group_name_H-M   'P m n b'
_symmetry_Int_Tables_number      62
_space_group_name_Hall           '-P 2bc 2a'
loop_
_symmetry_equiv_pos_site_id
_symmetry_equiv_pos_as_xyz
1 x,y,z
2 1/2-x,1/2+y,1/2-z
3 1/2+x,-y,-z
4 -x,1/2-y,1/2+z
5 -x,-y,-z
6 1/2+x,1/2-y,1/2+z
7 1/2-x,y,z
8 x,1/2+y,1/2-z
_cell_length_a                   34.103(7)
_cell_length_b                   23.758(5)
_cell_length_c                   17.033(3)
_cell_angle_alpha                90
_cell_angle_beta                 90
_cell_angle_gamma                90
_cell_volume                     13800.5
_cell_formula_units_Z            4
loop_
_atom_site_label
_atom_site_type_symbol
_atom_site_fract_x
_atom_site_fract_y
_atom_site_fract_z
_atom_site_U_iso_or_equiv
_atom_site_thermal_displace_type
Zn1 Zn 0.53378(2) 0.50564(4) 0.94805(8) 0.1236 Uani
O1 O 0.5436(3) 0.0483(3) 1.4647(7) 0.1703 Uani
O2 O 0.49504(18) 0.0422(2) 1.3697(4) 0.1483 Uani
N1 N 0.5883(2) 0.5120(6) 0.9042(5) 0.1360 Uani
N2 N 0.6046(4) 0.2197(5) 1.1841(8) 0.1627 Uani
C1 C 0.7278(3) 0.2211(8) 1.1849(7) 0.1560 Uani
C2 C 0.5301(4) 0.0605(6) 1.3959(11) 0.1417 Uani
C3 C 0.5329(3) 0.1177(6) 1.2719(14) 0.1457 Uani
H1 H 0.5083 0.1022 1.2568 0.1750 Uiso
C4 C 0.5838(4) 0.1240(5) 1.3638(6) 0.1450 Uani
H2 H 0.5966 0.1152 1.4118 0.1740 Uiso
C5 C 0.6467(4) 0.2189(7) 1.1915(8) 0.1610 Uani
C6 C 0.6660(5) 0.1750(6) 1.1680(7) 0.1787 Uani
H3 H 0.6521 0.1424 1.1515 0.2140 Uiso
C7 C 0.5327(2) 0.3347(6) 1.1566(9) 0.1423 Uani
H4 H 0.5091 0.3477 1.1801 0.1710 Uiso
C8 C 0.6646(4) 0.2636(7) 1.2107(7) 0.1847 Uani
H5 H 0.65 0.2951 1.2285 0.2220 Uiso
C9 C 0.6734(4) 0.5139(6) 0.8772(7) 0.1710 Uani
C10 C 0.5467(4) 0.1002(7) 1.3396(13) 0.1503 Uani
C11 C 0.5832(4) 0.2636(8) 1.1568(9) 0.1543 Uani
C12 C 0.5843(5) 0.1836(7) 1.2383(11) 0.1463 Uani
C13 C 0.5451(3) 0.3618(5) 1.0929(9) 0.1307 Uani
C14 C 0.5493(4) 0.1555(6) 1.2199(7) 0.1523 Uani
H6 H 0.5367 0.1626 1.1711 0.1830 Uiso
C15 C 0.7070(5) 0.2675(6) 1.2059(7) 0.1933 Uani
H7 H 0.72 0.302 1.2174 0.2320 Uiso
C16 C 0.5510(4) 0.2899(6) 1.1915(6) 0.1487 Uani
H8 H 0.5415 0.2764 1.2405 0.1780 Uiso
N3 N 0.7297(2) 0.4649(4) 0.8474(5) 0.1983 Uani
C17 C 0.7130(3) 0.5156(5) 0.8619(7) 0.1580 Uani
C18 C 0.7068(6) 0.1748(6) 1.1667(7) 0.1937 Uani
H9 H 0.7202 0.1412 1.1527 0.2320 Uiso
N4 N 0.7298(2) 0.5615(4) 0.8607(6) 0.1800 Uani
C19 C 0.6129(6) 0.5574(5) 0.9066(6) 0.1537 Uani
H10 H 0.601 0.5924 0.9195 0.1850 Uiso
C20 C 0.5993(3) 0.1637(6) 1.3052(15) 0.1563 Uani
H11 H 0.6247 0.1779 1.3172 0.1880 Uiso
C21 C 0.6481(5) 0.5589(5) 0.8942(7) 0.1670 Uani
H12 H 0.6599 0.5951 0.8964 0.2000 Uiso
C22 C 0.6103(6) 0.4644(6) 0.8828(7) 0.1860 Uani
H13 H 0.5962 0.43 0.8805 0.2230 Uiso
C23 C 0.6486(5) 0.4610(6) 0.8653(7) 0.1943 Uani
H14 H 0.6598 0.427 0.8462 0.2330 Uiso
C24 C 0.5779(3) 0.3376(5) 1.0558(6) 0.1650 Uiso
H15 H 0.5878 0.3532 1.0085 0.1980 Uiso
C25 C 0.5961(3) 0.2892(5) 1.0902(10) 0.1547 Uani
H16 H 0.6185 0.274 1.0649 0.1860 Uiso
O3 O 0.54136(15) 0.4348(3) 1.0099(4) 0.1533 Uani
O4 O 0.49406(16) 0.4264(2) 1.0994(4) 0.1623 Uani
C26 C 0.5275(3) 0.4119(6) 1.0633(7) 0.1210 Uiso
Zn1F Zn 0.96622(2) 0.50564(4) 0.94805(8) 0.1236 Uani
Zn1E Zn 1.03378(2) -0.00564(4) 1.44805(8) 0.1236 Uani
Zn1G Zn 0.53378(2) 0.00564(4) 1.55195(8) 0.1236 Uani
Zn1D Zn 0.46622(2) 0.49436(4) 1.05195(8) 0.1236 Uani
Zn1A Zn 0.96622(2) 0.00564(4) 1.55195(8) 0.1236 Uani
Zn1B Zn 1.03378(2) 0.49436(4) 1.05195(8) 0.1236 Uani
Zn1C Zn 0.46622(2) -0.00564(4) 1.44805(8) 0.1236 Uani
O1F O 0.9564(3) 0.0483(3) 1.4647(7) 0.1703 Uani
O1G O 0.5436(3) 0.5483(3) 1.0353(7) 0.1703 Uani
O1A O 0.9564(3) 0.5483(3) 1.0353(7) 0.1703 Uani
O2F O 1.00496(18) 0.0422(2) 1.3697(4) 0.1483 Uani
O2E O 0.99504(18) 0.4578(2) 0.8697(4) 0.1483 Uani
O2C O 0.50496(18) 0.4578(2) 0.8697(4) 0.1483 Uani
N1F N 0.9117(2) 0.5120(6) 0.9042(5) 0.1360 Uani
N2F N 0.8954(4) 0.2197(5) 1.1841(8) 0.1627 Uani
C1F C 0.7722(3) 0.2211(8) 1.1849(7) 0.1560 Uani
C2F C 0.9699(4) 0.0605(6) 1.3959(11) 0.1417 Uani
C3F C 0.9671(3) 0.1177(6) 1.2719(14) 0.1457 Uani
H1F H 0.9917 0.1022 1.2568 0.1750 Uiso
C4F C 0.9162(4) 0.1240(5) 1.3638(6) 0.1450 Uani
H2F H 0.9034 0.1152 1.4118 0.1740 Uiso
C5F C 0.8533(4) 0.2189(7) 1.1915(8) 0.1610 Uani
C6F C 0.8340(5) 0.1750(6) 1.1680(7) 0.1787 Uani
H3F H 0.8479 0.1424 1.1515 0.2140 Uiso
C7F C 0.9673(2) 0.3347(6) 1.1566(9) 0.1423 Uani
H4F H 0.9909 0.3477 1.1801 0.1710 Uiso
C8F C 0.8354(4) 0.2636(7) 1.2107(7) 0.1847 Uani
H5F H 0.85 0.2951 1.2285 0.2220 Uiso
C9F C 0.8266(4) 0.5139(6) 0.8772(7) 0.1710 Uani
C10F C 0.9533(4) 0.1002(7) 1.3396(13) 0.1503 Uani
C11F C 0.9168(4) 0.2636(8) 1.1568(9) 0.1543 Uani
C12F C 0.9157(5) 0.1836(7) 1.2383(11) 0.1463 Uani
C13F C 0.9549(3) 0.3618(5) 1.0929(9) 0.1307 Uani
C14F C 0.9507(4) 0.1555(6) 1.2199(7) 0.1523 Uani
H6F H 0.9633 0.1626 1.1711 0.1830 Uiso
C15F C 0.7930(5) 0.2675(6) 1.2059(7) 0.1933 Uani
H7F H 0.78 0.302 1.2174 0.2320 Uiso
C16F C 0.9490(4) 0.2899(6) 1.1915(6) 0.1487 Uani
H8F H 0.9585 0.2764 1.2405 0.1780 Uiso
N3F N 0.7703(2) 0.4649(4) 0.8474(5) 0.1983 Uani
C17F C 0.7870(3) 0.5156(5) 0.8619(7) 0.1580 Uani
C18F C 0.7932(6) 0.1748(6) 1.1667(7) 0.1937 Uani
H9F H 0.7798 0.1412 1.1527 0.2320 Uiso
N4F N 0.7702(2) 0.5615(4) 0.8607(6) 0.1800 Uani
C19F C 0.8871(6) 0.5574(5) 0.9066(6) 0.1537 Uani
H10F H 0.899 0.5924 0.9195 0.1850 Uiso
C20F C 0.9007(3) 0.1637(6) 1.3052(15) 0.1563 Uani
H11F H 0.8753 0.1779 1.3172 0.1880 Uiso
C21F C 0.8519(5) 0.5589(5) 0.8942(7) 0.1670 Uani
H12F H 0.8401 0.5951 0.8964 0.2000 Uiso
C22F C 0.8897(6) 0.4644(6) 0.8828(7) 0.1860 Uani
H13F H 0.9038 0.43 0.8805 0.2230 Uiso
C23F C 0.8514(5) 0.4610(6) 0.8653(7) 0.1943 Uani
H14F H 0.8402 0.427 0.8462 0.2330 Uiso
C24F C 0.9221(3) 0.3376(5) 1.0558(6) 0.1650 Uiso
H15F H 0.9122 0.3532 1.0085 0.1980 Uiso
C25F C 0.9039(3) 0.2892(5) 1.0902(10) 0.1547 Uani
H16F H 0.8815 0.274 1.0649 0.1860 Uiso
O3F O 0.95864(15) 0.4348(3) 1.0099(4) 0.1533 Uani
O4F O 1.00594(16) 0.4264(2) 1.0994(4) 0.1623 Uani
O4D O 0.50594(16) 0.5736(2) 0.9006(4) 0.1623 Uani
O4B O 0.99406(16) 0.5736(2) 0.9006(4) 0.1623 Uani
C26F C 0.9725(3) 0.4119(6) 1.0633(7) 0.1210 Uiso
loop_
_atom_site_aniso_label
_atom_site_aniso_U_11
_atom_site_aniso_U_22
_atom_site_aniso_U_33
_atom_site_aniso_U_23
_atom_site_aniso_U_13
_atom_site_aniso_U_12
Zn1 0.0885(7) 0.1054(9) 0.1769(13) 0.0008(9) -0.0027(7) -0.0004(5)
O1 0.159(7) 0.132(7) 0.220(11) 0.002(8) 0.017(8) -0.012(5)
O2 0.096(4) 0.145(5) 0.204(7) -0.008(4) 0.003(5) -0.001(4)
N1 0.114(5) 0.103(6) 0.191(7) -0.013(6) 0.018(5) 0.003(7)
N2 0.144(13) 0.116(8) 0.228(12) 0.020(8) 0.017(9) 0.000(8)
C1 0.126(8) 0.110(7) 0.232(11) -0.004(8) 0.003(6) 0.000(8)
C2 0.140(14) 0.102(8) 0.183(19) 0.040(12) 0.067(15) 0.009(10)
C3 0.076(7) 0.119(9) 0.242(18) -0.018(9) 0.012(12) -0.030(7)
C4 0.109(9) 0.142(8) 0.184(11) 0.025(9) -0.026(9) 0.018(6)
C5 0.067(11) 0.160(13) 0.256(13) 0.012(11) 0.002(8) -0.011(11)
C6 0.088(10) 0.163(12) 0.285(13) -0.011(9) 0.023(9) -0.012(8)
C7 0.074(6) 0.124(9) 0.229(15) 0.011(9) 0.011(8) 0.017(7)
C8 0.092(11) 0.207(15) 0.255(13) 0.032(11) -0.020(9) 0.016(8)
C9 0.109(11) 0.111(9) 0.293(14) 0.001(8) 0.018(9) -0.002(11)
C10 0.088(12) 0.168(12) 0.195(18) -0.023(13) -0.054(10) 0.022(10)
C11 0.108(12) 0.165(14) 0.190(15) 0.022(13) 0.025(10) -0.021(11)
C12 0.126(16) 0.140(11) 0.173(15) 0.037(11) -0.043(10) 0.025(11)
C13 0.107(8) 0.102(8) 0.183(11) -0.005(7) 0.032(7) -0.013(7)
C14 0.083(8) 0.148(9) 0.226(14) 0.001(11) -0.037(9) -0.003(6)
C15 0.171(13) 0.144(11) 0.265(13) -0.011(9) 0.015(10) -0.040(9)
C16 0.120(9) 0.151(10) 0.175(11) 0.002(10) 0.033(9) -0.013(7)
N3 0.137(7) 0.176(7) 0.282(10) -0.023(7) 0.019(5) -0.012(5)
C17 0.081(10) 0.160(14) 0.233(12) 0.002(10) -0.004(7) 0.007(9)
C18 0.173(13) 0.132(11) 0.276(13) -0.002(9) 0.007(10) 0.030(9)
N4 0.120(7) 0.168(7) 0.252(9) -0.001(7) 0.018(5) -0.001(5)
C19 0.145(10) 0.101(10) 0.215(10) -0.002(7) 0.041(9) 0.014(9)
C20 0.102(8) 0.101(9) 0.266(18) 0.001(10) 0.046(13) -0.015(7)
C21 0.089(8) 0.165(13) 0.247(12) 0.005(9) 0.008(8) -0.039(10)
C22 0.179(12) 0.117(11) 0.262(13) -0.007(8) 0.014(10) -0.046(9)
C23 0.109(8) 0.187(15) 0.287(14) 0.005(9) 0.032(9) 0.041(10)
C25 0.083(6) 0.134(10) 0.247(14) -0.015(9) -0.003(9) 0.003(6)
O3 0.120(4) 0.178(6) 0.162(6) 0.030(5) 0.009(4) 0.022(3)
O4 0.113(4) 0.163(5) 0.211(6) 0.007(4) -0.001(4) 0.011(4)
Zn1F 0.0885 0.1054 0.1769 0.0008 0.0027 0.0004
Zn1E 0.0885 0.1054 0.1769 -0.0008 -0.0027 0.0004
Zn1G 0.0885 0.1054 0.1769 -0.0008 0.0027 -0.0004
Zn1D 0.0885 0.1054 0.1769 0.0008 -0.0027 -0.0004
Zn1A 0.0885 0.1054 0.1769 -0.0008 -0.0027 0.0004
Zn1B 0.0885 0.1054 0.1769 0.0008 0.0027 0.0004
Zn1C 0.0885 0.1054 0.1769 -0.0008 0.0027 -0.0004
O1F 0.159 0.132 0.22 0.002 -0.017 0.012
O1G 0.159 0.132 0.22 -0.002 -0.017 -0.012
O1A 0.159 0.132 0.22 -0.002 0.017 0.012
O2F 0.096 0.145 0.204 -0.008 -0.003 0.001
O2E 0.096 0.145 0.204 0.008 0.003 0.001
O2C 0.096 0.145 0.204 0.008 -0.003 -0.001
N1F 0.114 0.103 0.191 -0.013 -0.018 -0.003
N2F 0.144 0.116 0.228 0.02 -0.017 0
C1F 0.126 0.11 0.232 -0.004 -0.003 0
C2F 0.14 0.102 0.183 0.04 -0.067 -0.009
C3F 0.076 0.119 0.242 -0.018 -0.012 0.03
C4F 0.109 0.142 0.184 0.025 0.026 -0.018
C5F 0.067 0.16 0.256 0.012 -0.002 0.011
C6F 0.088 0.163 0.285 -0.011 -0.023 0.012
C7F 0.074 0.124 0.229 0.011 -0.011 -0.017
C8F 0.092 0.207 0.255 0.032 0.02 -0.016
C9F 0.109 0.111 0.293 0.001 -0.018 0.002
C10F 0.088 0.168 0.195 -0.023 0.054 -0.022
C11F 0.108 0.165 0.19 0.022 -0.025 0.021
C12F 0.126 0.14 0.173 0.037 0.043 -0.025
C13F 0.107 0.102 0.183 -0.005 -0.032 0.013
C14F 0.083 0.148 0.226 0.001 0.037 0.003
C15F 0.171 0.144 0.265 -0.011 -0.015 0.04
C16F 0.12 0.151 0.175 0.002 -0.033 0.013
N3F 0.137 0.176 0.282 -0.023 -0.019 0.012
C17F 0.081 0.16 0.233 0.002 0.004 -0.007
C18F 0.173 0.132 0.276 -0.002 -0.007 -0.03
N4F 0.12 0.168 0.252 -0.001 -0.018 0.001
C19F 0.145 0.101 0.215 -0.002 -0.041 -0.014
C20F 0.102 0.101 0.266 0.001 -0.046 0.015
C21F 0.089 0.165 0.247 0.005 -0.008 0.039
C22F 0.179 0.117 0.262 -0.007 -0.014 0.046
C23F 0.109 0.187 0.287 0.005 -0.032 -0.041
C25F 0.083 0.134 0.247 -0.015 0.003 -0.003
O3F 0.12 0.178 0.162 0.03 -0.009 -0.022
O4F 0.113 0.163 0.211 0.007 0.001 -0.011
O4D 0.113 0.163 0.211 0.007 -0.001 0.011
O4B 0.113 0.163 0.211 0.007 0.001 -0.011
loop_
_geom_bond_atom_site_label_1
_geom_bond_atom_site_label_2
_geom_bond_site_symmetry_1
_geom_bond_site_symmetry_2
Zn1 N1 1_555 1_555
O1 C2 1_555 1_555
O2 C2 1_555 1_555
N1 C19 1_555 1_555
N2 C5 1_555 1_555
C1 C15 1_555 1_555
C2 C10 1_555 1_555
C3 H1 1_555 1_555
C4 H2 1_555 1_555
C5 C6 1_555 1_555
C6 H3 1_555 1_555
C7 H4 1_555 1_555
C8 C5 1_555 1_555
H5 C8 1_555 1_555
C9 C17 1_555 1_555
C10 C3 1_555 1_555
C11 N2 1_555 1_555
C12 N2 1_555 1_555
C13 C7 1_555 1_555
C14 C3 1_555 1_555
H6 C14 1_555 1_555
C15 C8 1_555 1_555
H7 C15 1_555 1_555
C16 C7 1_555 1_555
H8 C16 1_555 1_555
N3 C17 1_555 1_555
C17 N4 1_555 1_555
C18 C1 1_555 1_555
H9 C18 1_555 1_555
N4 N4F 1_555 1_555
C19 H10 1_555 1_555
C20 C4 1_555 1_555
H11 C20 1_555 1_555
C21 C9 1_555 1_555
H12 C21 1_555 1_555
C22 N1 1_555 1_555
H13 C22 1_555 1_555
C23 C9 1_555 1_555
H14 C23 1_555 1_555
C24 C13 1_555 1_555
H15 C24 1_555 1_555
C25 C11 1_555 1_555
H16 C25 1_555 1_555
O3 Zn1 1_555 1_555
O4 C26 1_555 1_555
C26 C13 1_555 1_555
Zn1F O1A 1_555 1_555
Zn1E O2F 1_555 1_555
Zn1G O1 1_555 1_555
Zn1D O4 1_555 1_555
Zn1A O1F 1_555 1_555
Zn1B O4F 1_555 1_555
Zn1C O2 1_555 1_555
O1F C2F 1_555 1_555
O1G Zn1 1_555 1_555
O2F C2F 1_555 1_555
O2E Zn1F 1_555 1_555
O2C Zn1 1_555 1_555
N1F Zn1F 1_555 1_555
N2F C5F 1_555 1_555
C1F C1 1_555 1_555
C2F C10F 1_555 1_555
C3F H1F 1_555 1_555
C4F H2F 1_555 1_555
C5F C6F 1_555 1_555
C6F H3F 1_555 1_555
C7F H4F 1_555 1_555
C8F C5F 1_555 1_555
H5F C8F 1_555 1_555
C9F C17F 1_555 1_555
C10F C3F 1_555 1_555
C11F N2F 1_555 1_555
C12F N2F 1_555 1_555
C13F C7F 1_555 1_555
C14F C3F 1_555 1_555
H6F C14F 1_555 1_555
C15F C1F 1_555 1_555
H7F C15F 1_555 1_555
C16F C7F 1_555 1_555
H8F C16F 1_555 1_555
N3F N3 1_555 1_555
C17F N3F 1_555 1_555
C18F C1F 1_555 1_555
H9F C18F 1_555 1_555
N4F C17F 1_555 1_555
C19F N1F 1_555 1_555
H10F C19F 1_555 1_555
C20F C4F 1_555 1_555
H11F C20F 1_555 1_555
C21F C9F 1_555 1_555
H12F C21F 1_555 1_555
C22F N1F 1_555 1_555
H13F C22F 1_555 1_555
C23F C9F 1_555 1_555
H14F C23F 1_555 1_555
C24F C13F 1_555 1_555
H15F C24F 1_555 1_555
C25F C11F 1_555 1_555
H16F C25F 1_555 1_555
O3F Zn1F 1_555 1_555
O4F C26F 1_555 1_555
O4D Zn1 1_555 1_555
O4B Zn1F 1_555 1_555
C26F C13F 1_555 1_555
C4 C10 1_555 1_555
C6 C18 1_555 1_555
C11 C16 1_555 1_555
C12 C14 1_555 1_555
C12 C20 1_555 1_555
C19 C21 1_555 1_555
C22 C23 1_555 1_555
C24 C25 1_555 1_555
O3 C26 1_555 1_555
C4F C10F 1_555 1_555
C6F C18F 1_555 1_555
C8F C15F 1_555 1_555
C11F C16F 1_555 1_555
C12F C14F 1_555 1_555
C12F C20F 1_555 1_555
C19F C21F 1_555 1_555
C22F C23F 1_555 1_555
C24F C25F 1_555 1_555
O3F C26F 1_555 1_555

#END
