
#######################################################################
#
#                 Cambridge Crystallographic Data Centre
#                                CCDC 
#
#######################################################################
#
# If this CIF has been generated from an entry in the Cambridge 
# Structural Database, then it will include bibliographic, chemical, 
# crystal, experimental, refinement or atomic coordinate data resulting 
# from the CCDC's data processing and validation procedures.
#
#######################################################################

data_VAGMIB01
_chemical_formula_moiety         '(C52 H32 N8 O8 Zn2)n,20n(C2 H3 N1),5n(H2 O1)'
_chemical_name_systematic        
"catena-((\m~8~-4,4',4'',4'''-(Biphenyl-4,4'-diyldinitrilo)tetrabenzoato)-(\m~2~-3,6-bis(4-pyridyl)-1,2,4,5-tetrazine)-di-zinc acetonitrile solvate pentahydrate)"
_symmetry_cell_setting           orthorhombic
_symmetry_space_group_name_H-M   'I m m a'
_symmetry_Int_Tables_number      74
_space_group_name_Hall           '-I 2b 2'
loop_
_symmetry_equiv_pos_site_id
_symmetry_equiv_pos_as_xyz
1 x,y,z
2 -x,1/2-y,z
3 x,-y,-z
4 -x,1/2+y,-z
5 1/2+x,1/2+y,1/2+z
6 1/2-x,-y,1/2+z
7 1/2+x,1/2-y,1/2-z
8 1/2-x,y,1/2-z
9 -x,-y,-z
10 x,1/2+y,-z
11 -x,y,z
12 x,1/2-y,z
13 1/2-x,1/2-y,1/2-z
14 1/2+x,y,1/2-z
15 1/2-x,1/2+y,1/2+z
16 1/2+x,-y,1/2+z
_cell_length_a                   34.277(7)
_cell_length_b                   23.356(5)
_cell_length_c                   18.400(4)
_cell_angle_alpha                90
_cell_angle_beta                 90
_cell_angle_gamma                90
_cell_volume                     14730.6
_cell_formula_units_Z            4
loop_
_atom_site_label
_atom_site_type_symbol
_atom_site_fract_x
_atom_site_fract_y
_atom_site_fract_z
_atom_site_U_iso_or_equiv
_atom_site_thermal_displace_type
O1 O 0.29429(8) 0.31236(11) 0.22130(15) 0.0950 Uani
C1 C 0.28234(11) 0.39340(16) 0.0590(2) 0.0983 Uani
H1 H 0.2589 0.3786 0.042 0.1180 Uiso
C2 C 0.35019(13) 0.44010(18) 0.1048(3) 0.1220 Uani
H2 H 0.374 0.454 0.1214 0.1460 Uiso
C3 C 0.29658(12) 0.37376(14) 0.1226(2) 0.0853 Uani
C4 C 0.27796(12) 0.32934(14) 0.1645(2) 0.0807 Uani
N1 N 0.35456(18) 0.50000 0.00000 0.1277 Uani
C5 C 0.33495(14) 0.45988(18) 0.0423(3) 0.1103 Uani
C6 C 0.32966(14) 0.39761(18) 0.1459(3) 0.1170 Uani
H3 H 0.3398 0.3862 0.1905 0.1400 Uiso
C7 C 0.30139(14) 0.43503(18) 0.0176(3) 0.1157 Uani
H4 H 0.2912 0.4459 -0.0272 0.1390 Uiso
C8 C 0.47834(18) 0.50000 0.00000 0.1247 Uani
C9 C 0.3963(3) 0.50000 0.00000 0.1283 Uani
C10 C 0.45638(19) 0.5473(2) 0.0126(3) 0.1627 Uani
H5 H 0.4693 0.5817 0.0211 0.1950 Uiso
C11 C 0.41505(18) 0.5476(2) 0.0136(4) 0.1610 Uani
H6 H 0.4015 0.5811 0.0238 0.1930 Uiso
N2 N 0.34082(12) 0.25000 0.3387(2) 0.0790 Uani
O2 O 0.24443(8) 0.31146(9) 0.14347(13) 0.0904 Uani
C12 C 0.4210(3) 0.25000 0.3667(5) 0.1420 Uani
C13 C 0.35904(17) 0.2044(2) 0.3479(4) 0.1523 Uani
H7 H 0.3448 0.1705 0.3479 0.1830 Uiso
C14 C 0.4653(5) 0.25000 0.3730(8) 0.1730 Uani
C15 C 0.4009(2) 0.2005(3) 0.3586(4) 0.1813 Uani
H8 H 0.4135 0.1653 0.3598 0.2170 Uiso
N3 N 0.4761(3) 0.2086(3) 0.3837(5) 0.2667 Uani
Zn1 Zn 0.283884(14) 0.25000 0.29897(3) 0.0635 Uani
O1H O 0.70571(8) 0.68764(11) -0.22130(15) 0.0950 Uani
O1J O 0.70571(8) 0.31236(11) 0.22130(15) 0.0950 Uani
O1B O 0.29429(8) 0.68764(11) -0.22130(15) 0.0950 Uani
O1K O 0.29429(8) 0.18764(11) 0.22130(15) 0.0950 Uani
O1A O 0.70571(8) 0.18764(11) 0.22130(15) 0.0950 Uani
C1H C 0.71766(11) 0.60660(16) -0.0590(2) 0.0983 Uani
C1J C 0.71766(11) 0.39340(16) 0.0590(2) 0.0983 Uani
C1B C 0.28234(11) 0.60660(16) -0.0590(2) 0.0983 Uani
H1H H 0.7411 0.6214 -0.042 0.1180 Uiso
H1J H 0.7411 0.3786 0.042 0.1180 Uiso
H1B H 0.2589 0.6214 -0.042 0.1180 Uiso
C2H C 0.64981(13) 0.55990(18) -0.1048(3) 0.1220 Uani
C2J C 0.64981(13) 0.44010(18) 0.1048(3) 0.1220 Uani
C2B C 0.35019(13) 0.55990(18) -0.1048(3) 0.1220 Uani
H2H H 0.626 0.546 -0.1214 0.1460 Uiso
H2J H 0.626 0.454 0.1214 0.1460 Uiso
H2B H 0.374 0.546 -0.1214 0.1460 Uiso
C3H C 0.70342(12) 0.62624(14) -0.1226(2) 0.0853 Uani
C3J C 0.70342(12) 0.37376(14) 0.1226(2) 0.0853 Uani
C3B C 0.29658(12) 0.62624(14) -0.1226(2) 0.0853 Uani
C4H C 0.72204(12) 0.67066(14) -0.1645(2) 0.0807 Uani
C4J C 0.72204(12) 0.32934(14) 0.1645(2) 0.0807 Uani
C4B C 0.27796(12) 0.67066(14) -0.1645(2) 0.0807 Uani
N1H N 0.64544(18) 0.50000 0.00000 0.1277 Uani
C5H C 0.66505(14) 0.54012(18) -0.0423(3) 0.1103 Uani
C5J C 0.66505(14) 0.45988(18) 0.0423(3) 0.1103 Uani
C5B C 0.33495(14) 0.54012(18) -0.0423(3) 0.1103 Uani
C6H C 0.67034(14) 0.60239(18) -0.1459(3) 0.1170 Uani
C6J C 0.67034(14) 0.39761(18) 0.1459(3) 0.1170 Uani
C6B C 0.32966(14) 0.60239(18) -0.1459(3) 0.1170 Uani
H3H H 0.6602 0.6138 -0.1905 0.1400 Uiso
H3J H 0.6602 0.3862 0.1905 0.1400 Uiso
H3B H 0.3398 0.6138 -0.1905 0.1400 Uiso
C7H C 0.69861(14) 0.56497(18) -0.0176(3) 0.1157 Uani
C7J C 0.69861(14) 0.43503(18) 0.0176(3) 0.1157 Uani
C7B C 0.30139(14) 0.56497(18) -0.0176(3) 0.1157 Uani
H4H H 0.7088 0.5541 0.0272 0.1390 Uiso
H4J H 0.7088 0.4459 -0.0272 0.1390 Uiso
H4B H 0.2912 0.5541 0.0272 0.1390 Uiso
C8H C 0.52166(18) 0.50000 0.00000 0.1247 Uani
C9H C 0.6037(3) 0.50000 0.00000 0.1283 Uani
C10H C 0.54362(19) 0.4527(2) -0.0126(3) 0.1627 Uani
C10J C 0.54362(19) 0.5473(2) 0.0126(3) 0.1627 Uani
C10B C 0.45638(19) 0.4527(2) -0.0126(3) 0.1627 Uani
H5H H 0.5307 0.4183 -0.0211 0.1950 Uiso
H5J H 0.5307 0.5817 0.0211 0.1950 Uiso
H5B H 0.4693 0.4183 -0.0211 0.1950 Uiso
C11H C 0.58495(18) 0.4524(2) -0.0136(4) 0.1610 Uani
C11J C 0.58495(18) 0.5476(2) 0.0136(4) 0.1610 Uani
C11B C 0.41505(18) 0.4524(2) -0.0136(4) 0.1610 Uani
H6J H 0.5985 0.5811 0.0238 0.1930 Uiso
H6H H 0.5985 0.4189 -0.0238 0.1930 Uiso
H6B H 0.4015 0.4189 -0.0238 0.1930 Uiso
N2A N 0.65918(12) 0.25000 0.3387(2) 0.0790 Uani
O2H O 0.75557(8) 0.68854(9) -0.14347(13) 0.0904 Uani
O2J O 0.75557(8) 0.31146(9) 0.14347(13) 0.0904 Uani
O2B O 0.24443(8) 0.68854(9) -0.14347(13) 0.0904 Uani
O2G O 0.25557(8) 0.31146(9) 0.35653(13) 0.0904 Uani
O2L O 0.25557(8) 0.18854(9) 0.35653(13) 0.0904 Uani
O2F O 0.74443(8) 0.18854(9) 0.35653(13) 0.0904 Uani
O2M O 0.74443(8) 0.31146(9) 0.35653(13) 0.0904 Uani
C12A C 0.5790(3) 0.25000 0.3667(5) 0.1420 Uani
C13J C 0.64096(17) 0.2044(2) 0.3479(4) 0.1523 Uani
C13A C 0.64096(17) 0.2956(2) 0.3479(4) 0.1523 Uani
C13K C 0.35904(17) 0.2956(2) 0.3479(4) 0.1523 Uani
H7A H 0.6552 0.3295 0.3479 0.1830 Uiso
H7J H 0.6552 0.1705 0.3479 0.1830 Uiso
H7K H 0.3448 0.3295 0.3479 0.1830 Uiso
C14A C 0.5347(5) 0.25000 0.3730(8) 0.1730 Uani
C15J C 0.5991(2) 0.2005(3) 0.3586(4) 0.1813 Uani
C15A C 0.5991(2) 0.2995(3) 0.3586(4) 0.1813 Uani
C15K C 0.4009(2) 0.2995(3) 0.3586(4) 0.1813 Uani
H8A H 0.5865 0.3347 0.3598 0.2170 Uiso
H8J H 0.5865 0.1653 0.3598 0.2170 Uiso
H8K H 0.4135 0.3347 0.3598 0.2170 Uiso
N3J N 0.5239(3) 0.2086(3) 0.3837(5) 0.2667 Uani
N3A N 0.5239(3) 0.2914(3) 0.3837(5) 0.2667 Uani
N3K N 0.4761(3) 0.2914(3) 0.3837(5) 0.2667 Uani
Zn1C Zn 0.716116(14) 0.75000 -0.29897(3) 0.0635 Uani
Zn1G Zn 0.216116(14) 0.25000 0.20103(3) 0.0635 Uani
Zn1D Zn 0.783884(14) 0.75000 -0.20103(3) 0.0635 Uani
Zn1A Zn 0.716116(14) 0.25000 0.29897(3) 0.0635 Uani
Zn1F Zn 0.783884(14) 0.25000 0.20103(3) 0.0635 Uani
Zn1B Zn 0.283884(14) 0.75000 -0.29897(3) 0.0635 Uani
Zn1E Zn 0.216116(14) 0.75000 -0.20103(3) 0.0635 Uani
loop_
_atom_site_aniso_label
_atom_site_aniso_U_11
_atom_site_aniso_U_22
_atom_site_aniso_U_33
_atom_site_aniso_U_23
_atom_site_aniso_U_13
_atom_site_aniso_U_12
O1 0.0923(19) 0.0868(16) 0.106(2) 0.0268(15) 0.0051(16) -0.0033(14)
C1 0.078(3) 0.094(3) 0.123(3) 0.018(3) -0.005(3) -0.007(2)
C2 0.094(3) 0.115(3) 0.157(4) 0.022(3) -0.008(3) -0.017(3)
C3 0.083(3) 0.076(2) 0.097(3) 0.013(2) -0.006(2) 0.0000(19)
C4 0.083(3) 0.075(2) 0.084(3) 0.005(2) 0.012(2) -0.007(2)
N1 0.106(5) 0.113(4) 0.164(5) 0.031(4) 0 0
C5 0.093(3) 0.114(3) 0.124(4) 0.032(3) -0.011(3) 0.004(3)
C6 0.104(4) 0.116(3) 0.131(4) 0.030(3) -0.014(3) 0.001(3)
C7 0.109(3) 0.114(3) 0.124(4) 0.033(3) -0.020(3) -0.001(3)
C8 0.102(5) 0.107(4) 0.165(6) 0.014(4) 0 0
C9 0.125(7) 0.104(5) 0.156(6) 0.031(5) 0 0
C10 0.160(6) 0.125(4) 0.203(6) 0.013(4) -0.019(5) -0.014(4)
C11 0.115(5) 0.147(5) 0.221(6) 0.019(5) -0.004(5) 0.021(4)
N2 0.071(3) 0.079(3) 0.087(3) 0 -0.003(2) 0
O2 0.0830(19) 0.0870(14) 0.1013(19) 0.0106(13) -0.0005(15) -0.0026(14)
C12 0.135(8) 0.128(7) 0.163(7) 0 -0.006(6) 0
C13 0.108(4) 0.128(4) 0.221(6) 0.025(4) -0.010(4) -0.008(3)
C14 0.173(12) 0.142(10) 0.204(11) 0 0.000(9) 0
C15 0.150(6) 0.150(5) 0.244(8) 0.014(5) -0.024(6) 0.025(5)
N3 0.252(9) 0.243(9) 0.305(9) 0.024(7) 0.011(6) -0.019(6)
Zn1 0.0537(3) 0.0619(4) 0.0748(4) 0 0.0020(3) 0
O1H 0.0923 0.0868 0.106 0.0268 0.0051 -0.0033
O1J 0.0923 0.0868 0.106 0.0268 -0.0051 0.0033
O1B 0.0923 0.0868 0.106 0.0268 -0.0051 0.0033
O1K 0.0923 0.0868 0.106 -0.0268 0.0051 0.0033
O1A 0.0923 0.0868 0.106 -0.0268 -0.0051 -0.0033
C1H 0.078 0.094 0.123 0.018 -0.005 -0.007
C1J 0.078 0.094 0.123 0.018 0.005 0.007
C1B 0.078 0.094 0.123 0.018 0.005 0.007
C2H 0.094 0.115 0.157 0.022 -0.008 -0.017
C2J 0.094 0.115 0.157 0.022 0.008 0.017
C2B 0.094 0.115 0.157 0.022 0.008 0.017
C3H 0.083 0.076 0.097 0.013 -0.006 0
C3J 0.083 0.076 0.097 0.013 0.006 0
C3B 0.083 0.076 0.097 0.013 0.006 0
C4H 0.083 0.075 0.084 0.005 0.012 -0.007
C4J 0.083 0.075 0.084 0.005 -0.012 0.007
C4B 0.083 0.075 0.084 0.005 -0.012 0.007
N1H 0.106 0.113 0.164 0.031 0 0
C5H 0.093 0.114 0.124 0.032 -0.011 0.004
C5J 0.093 0.114 0.124 0.032 0.011 -0.004
C5B 0.093 0.114 0.124 0.032 0.011 -0.004
C6H 0.104 0.116 0.131 0.03 -0.014 0.001
C6J 0.104 0.116 0.131 0.03 0.014 -0.001
C6B 0.104 0.116 0.131 0.03 0.014 -0.001
C7H 0.109 0.114 0.124 0.033 -0.02 -0.001
C7J 0.109 0.114 0.124 0.033 0.02 0.001
C7B 0.109 0.114 0.124 0.033 0.02 0.001
C8H 0.102 0.107 0.165 0.014 0 0
C9H 0.125 0.104 0.156 0.031 0 0
C10H 0.16 0.125 0.203 0.013 -0.019 -0.014
C10J 0.16 0.125 0.203 0.013 0.019 0.014
C10B 0.16 0.125 0.203 0.013 0.019 0.014
C11H 0.115 0.147 0.221 0.019 -0.004 0.021
C11J 0.115 0.147 0.221 0.019 0.004 -0.021
C11B 0.115 0.147 0.221 0.019 0.004 -0.021
N2A 0.071 0.079 0.087 0 0.003 0
O2H 0.083 0.087 0.1013 0.0106 -0.0005 -0.0026
O2J 0.083 0.087 0.1013 0.0106 0.0005 0.0026
O2B 0.083 0.087 0.1013 0.0106 0.0005 0.0026
O2G 0.083 0.087 0.1013 -0.0106 -0.0005 0.0026
O2L 0.083 0.087 0.1013 0.0106 -0.0005 -0.0026
O2F 0.083 0.087 0.1013 0.0106 0.0005 0.0026
O2M 0.083 0.087 0.1013 -0.0106 0.0005 -0.0026
C12A 0.135 0.128 0.163 0 0.006 0
C13J 0.108 0.128 0.221 0.025 0.01 0.008
C13A 0.108 0.128 0.221 -0.025 0.01 -0.008
C13K 0.108 0.128 0.221 -0.025 -0.01 0.008
C14A 0.173 0.142 0.204 0 0 0
C15J 0.15 0.15 0.244 0.014 0.024 -0.025
C15A 0.15 0.15 0.244 -0.014 0.024 0.025
C15K 0.15 0.15 0.244 -0.014 -0.024 -0.025
N3J 0.252 0.243 0.305 0.024 -0.011 0.019
N3A 0.252 0.243 0.305 -0.024 -0.011 -0.019
N3K 0.252 0.243 0.305 -0.024 0.011 0.019
Zn1C 0.0537 0.0619 0.0748 0 0.002 0
Zn1G 0.0537 0.0619 0.0748 0 0.002 0
Zn1D 0.0537 0.0619 0.0748 0 0.002 0
Zn1A 0.0537 0.0619 0.0748 0 -0.002 0
Zn1F 0.0537 0.0619 0.0748 0 -0.002 0
Zn1B 0.0537 0.0619 0.0748 0 -0.002 0
Zn1E 0.0537 0.0619 0.0748 0 -0.002 0
loop_
_geom_bond_atom_site_label_1
_geom_bond_atom_site_label_2
_geom_bond_site_symmetry_1
_geom_bond_site_symmetry_2
O1 C4 1_555 1_555
C1 H1 1_555 1_555
C2 H2 1_555 1_555
C3 C1 1_555 1_555
C4 C3 1_555 1_555
N1 C5 1_555 1_555
C5 C2 1_555 1_555
C6 C2 1_555 1_555
H3 C6 1_555 1_555
C7 C1 1_555 1_555
H4 C7 1_555 1_555
C8 C10 1_555 1_555
C9 N1 1_555 1_555
C10 H5 1_555 1_555
C11 C9 1_555 1_555
H6 C11 1_555 1_555
N2 C13 1_555 1_555
O2 C4 1_555 1_555
C12 C14 1_555 1_555
C13 H7 1_555 1_555
C14 N3 1_555 1_555
C15 C12 1_555 1_555
H8 C15 1_555 1_555
N3 N3J 1_555 1_555
Zn1 O1 1_555 1_555
O1H C4H 1_555 1_555
O1J C4J 1_555 1_555
O1B C4B 1_555 1_555
O1K Zn1 1_555 1_555
O1A Zn1A 1_555 1_555
C1H H1H 1_555 1_555
C1J H1J 1_555 1_555
C1B H1B 1_555 1_555
C2H H2H 1_555 1_555
C2J H2J 1_555 1_555
C2B H2B 1_555 1_555
C3H C1H 1_555 1_555
C3J C1J 1_555 1_555
C3B C1B 1_555 1_555
C4H C3H 1_555 1_555
C4J C3J 1_555 1_555
C4B C3B 1_555 1_555
N1H C5H 1_555 1_555
C5H C2H 1_555 1_555
C5J C2J 1_555 1_555
C5B N1 1_555 1_555
C6H C2H 1_555 1_555
C6J C2J 1_555 1_555
C6B C2B 1_555 1_555
H3H C6H 1_555 1_555
H3J C6J 1_555 1_555
H3B C6B 1_555 1_555
C7H C1H 1_555 1_555
C7J C1J 1_555 1_555
C7B C1B 1_555 1_555
H4H C7H 1_555 1_555
H4J C7J 1_555 1_555
H4B C7B 1_555 1_555
C8H C8 1_555 1_555
C9H N1H 1_555 1_555
C10H C8H 1_555 1_555
C10J C8H 1_555 1_555
C10B C8 1_555 1_555
H5H C10H 1_555 1_555
H5J C10J 1_555 1_555
H5B C10B 1_555 1_555
C11H C9H 1_555 1_555
C11J C9H 1_555 1_555
C11B C9 1_555 1_555
H6J C11J 1_555 1_555
H6H C11H 1_555 1_555
H6B C11B 1_555 1_555
N2A C13J 1_555 1_555
O2H C4H 1_555 1_555
O2J C4J 1_555 1_555
O2B C4B 1_555 1_555
O2G Zn1 1_555 1_555
O2L Zn1 1_555 1_555
O2F Zn1A 1_555 1_555
O2M Zn1A 1_555 1_555
C12A C14A 1_555 1_555
C13J H7J 1_555 1_555
C13A N2A 1_555 1_555
C13K N2 1_555 1_555
H7A C13A 1_555 1_555
H7K C13K 1_555 1_555
C14A N3J 1_555 1_555
C15J C12A 1_555 1_555
C15A C12A 1_555 1_555
C15K C12 1_555 1_555
H8A C15A 1_555 1_555
H8J C15J 1_555 1_555
H8K C15K 1_555 1_555
N3A C14A 1_555 1_555
N3K C14 1_555 1_555
Zn1C O1H 1_555 1_555
Zn1G O2 1_555 1_555
Zn1D O2H 1_555 1_555
Zn1A O1J 1_555 1_555
Zn1F O2J 1_555 1_555
Zn1B O1B 1_555 1_555
Zn1E O2B 1_555 1_555
C3 C6 1_555 1_555
C5 C7 1_555 1_555
C10 C11 1_555 1_555
N2 Zn1 1_555 1_555
C13 C15 1_555 1_555
C2B C5B 1_555 1_555
C3H C6H 1_555 1_555
C3J C6J 1_555 1_555
C3B C6B 1_555 1_555
N1H C5J 1_555 1_555
C5H C7H 1_555 1_555
C5J C7J 1_555 1_555
C5B C7B 1_555 1_555
C10H C11H 1_555 1_555
C10J C11J 1_555 1_555
C10B C11B 1_555 1_555
N2A Zn1A 1_555 1_555
C13J C15J 1_555 1_555
C13A C15A 1_555 1_555
C13K C15K 1_555 1_555
N3A N3K 1_555 1_555

#END
