
#######################################################################
#
#                 Cambridge Crystallographic Data Centre
#                                CCDC 
#
#######################################################################
#
# If this CIF has been generated from an entry in the Cambridge 
# Structural Database, then it will include bibliographic, chemical, 
# crystal, experimental, refinement or atomic coordinate data resulting 
# from the CCDC's data processing and validation procedures.
#
#######################################################################

data_VAGMEX
_chemical_name_common            SNU-30SC
_chemical_formula_moiety         '(C40 H28 N2 O10 Zn2)n,23n(C5 H11 N1 O1)'
_chemical_name_systematic        
"catena-((\m~8~-4,4',4'',4'''-(Biphenyl-4,4'-diyldinitrilo)tetrabenzoato)-diaqua-di-zinc diethylformamide solvate)"
_symmetry_cell_setting           orthorhombic
_symmetry_space_group_name_H-M   'I m m a'
_symmetry_Int_Tables_number      74
_space_group_name_Hall           '-I 2b 2'
loop_
_symmetry_equiv_pos_site_id
_symmetry_equiv_pos_as_xyz
1 x,y,z
2 -x,1/2-y,z
3 x,-y,-z
4 -x,1/2+y,-z
5 1/2+x,1/2+y,1/2+z
6 1/2-x,-y,1/2+z
7 1/2+x,1/2-y,1/2-z
8 1/2-x,y,1/2-z
9 -x,-y,-z
10 x,1/2+y,-z
11 -x,y,z
12 x,1/2-y,z
13 1/2-x,1/2-y,1/2-z
14 1/2+x,y,1/2-z
15 1/2-x,1/2+y,1/2+z
16 1/2+x,-y,1/2+z
_cell_length_a                   34.583(7)
_cell_length_b                   22.915(5)
_cell_length_c                   18.833(4)
_cell_angle_alpha                90
_cell_angle_beta                 90
_cell_angle_gamma                90
_cell_volume                     14924.6
_cell_formula_units_Z            4
loop_
_atom_site_label
_atom_site_type_symbol
_atom_site_fract_x
_atom_site_fract_y
_atom_site_fract_z
_atom_site_U_iso_or_equiv
_atom_site_thermal_displace_type
O1 O 0.29630(9) 0.18575(12) 0.22269(19) 0.0850 Uani
C1 C 0.28322(15) 0.1078(2) 0.0609(3) 0.0860 Uani
H1 H 0.2601 0.1235 0.0445 0.1040 Uiso
C2 C 0.35011(16) 0.0590(2) 0.1060(4) 0.1037 Uani
H2 H 0.3727 0.0422 0.1232 0.1240 Uiso
C3 C 0.27857(16) 0.1694(2) 0.1671(3) 0.0750 Uani
C4 C 0.33557(18) 0.0412(2) 0.0411(4) 0.0893 Uani
N1 N 0.3560(2) 0.00000 0.00000 0.1107 Uani
C5 C 0.29795(15) 0.12483(19) 0.1235(3) 0.0720 Uani
C6 C 0.33155(17) 0.1015(2) 0.1460(3) 0.0910 Uani
H3 H 0.3424 0.114 0.1886 0.1090 Uiso
C7 C 0.30288(18) 0.0668(2) 0.0211(3) 0.0997 Uani
H4 H 0.2925 0.0565 -0.0227 0.1200 Uiso
C8 C 0.4788(2) 0.00000 0.00000 0.1160 Uani
C9 C 0.3967(3) 0.00000 0.00000 0.0973 Uani
C10 C 0.4591(2) 0.0487(2) -0.0118(3) 0.1263 Uani
H5 H 0.4724 0.0836 -0.0183 0.1520 Uiso
C11 C 0.4179(2) 0.0487(2) -0.0146(4) 0.1340 Uani
H6 H 0.4051 0.0829 -0.0268 0.1610 Uiso
O2 O 0.24598(9) 0.18740(11) 0.14798(16) 0.0753 Uani
O3 O 0.33890(16) 0.25000 0.3443(3) 0.1377 Uani
Zn1 Zn 0.283540(19) 0.25000 0.29797(4) 0.0544 Uiso
O1B O 0.29630(9) -0.18575(12) -0.22269(19) 0.0850 Uani
O1H O 0.70370(9) -0.18575(12) -0.22269(19) 0.0850 Uani
O1J O 0.70370(9) 0.18575(12) 0.22269(19) 0.0850 Uani
O1A O 0.70370(9) 0.31425(12) 0.22269(19) 0.0850 Uani
O1K O 0.29630(9) 0.31425(12) 0.22269(19) 0.0850 Uani
C1B C 0.28322(15) -0.1078(2) -0.0609(3) 0.0860 Uani
C1H C 0.71678(15) -0.1078(2) -0.0609(3) 0.0860 Uani
C1J C 0.71678(15) 0.1078(2) 0.0609(3) 0.0860 Uani
H1B H 0.2601 -0.1235 -0.0445 0.1040 Uiso
H1H H 0.7399 -0.1235 -0.0445 0.1040 Uiso
H1J H 0.7399 0.1235 0.0445 0.1040 Uiso
C2B C 0.35011(16) -0.0590(2) -0.1060(4) 0.1037 Uani
C2H C 0.64989(16) -0.0590(2) -0.1060(4) 0.1037 Uani
C2J C 0.64989(16) 0.0590(2) 0.1060(4) 0.1037 Uani
H2B H 0.3727 -0.0422 -0.1232 0.1240 Uiso
H2H H 0.6273 -0.0422 -0.1232 0.1240 Uiso
H2J H 0.6273 0.0422 0.1232 0.1240 Uiso
C3B C 0.27857(16) -0.1694(2) -0.1671(3) 0.0750 Uani
C3H C 0.72143(16) -0.1694(2) -0.1671(3) 0.0750 Uani
C3J C 0.72143(16) 0.1694(2) 0.1671(3) 0.0750 Uani
C4B C 0.33557(18) -0.0412(2) -0.0411(4) 0.0893 Uani
C4H C 0.66443(18) -0.0412(2) -0.0411(4) 0.0893 Uani
C4J C 0.66443(18) 0.0412(2) 0.0411(4) 0.0893 Uani
N1H N 0.6440(2) 0.00000 0.00000 0.1107 Uani
C5B C 0.29795(15) -0.12483(19) -0.1235(3) 0.0720 Uani
C5H C 0.70205(15) -0.12483(19) -0.1235(3) 0.0720 Uani
C5J C 0.70205(15) 0.12483(19) 0.1235(3) 0.0720 Uani
C6B C 0.33155(17) -0.1015(2) -0.1460(3) 0.0910 Uani
C6H C 0.66845(17) -0.1015(2) -0.1460(3) 0.0910 Uani
C6J C 0.66845(17) 0.1015(2) 0.1460(3) 0.0910 Uani
H3B H 0.3424 -0.114 -0.1886 0.1090 Uiso
H3H H 0.6576 -0.114 -0.1886 0.1090 Uiso
H3J H 0.6576 0.114 0.1886 0.1090 Uiso
C7B C 0.30288(18) -0.0668(2) -0.0211(3) 0.0997 Uani
C7H C 0.69712(18) -0.0668(2) -0.0211(3) 0.0997 Uani
C7J C 0.69712(18) 0.0668(2) 0.0211(3) 0.0997 Uani
H4B H 0.2925 -0.0565 0.0227 0.1200 Uiso
H4H H 0.7075 -0.0565 0.0227 0.1200 Uiso
H4J H 0.7075 0.0565 -0.0227 0.1200 Uiso
C8H C 0.5212(2) 0.00000 0.00000 0.1160 Uani
C9H C 0.6033(3) 0.00000 0.00000 0.0973 Uani
C10B C 0.4591(2) -0.0487(2) 0.0118(3) 0.1263 Uani
C10H C 0.5409(2) -0.0487(2) 0.0118(3) 0.1263 Uani
C10J C 0.5409(2) 0.0487(2) -0.0118(3) 0.1263 Uani
H5B H 0.4724 -0.0836 0.0183 0.1520 Uiso
H5H H 0.5276 -0.0836 0.0183 0.1520 Uiso
H5J H 0.5276 0.0836 -0.0183 0.1520 Uiso
C11B C 0.4179(2) -0.0487(2) 0.0146(4) 0.1340 Uani
C11H C 0.5821(2) -0.0487(2) 0.0146(4) 0.1340 Uani
C11J C 0.5821(2) 0.0487(2) -0.0146(4) 0.1340 Uani
H6B H 0.4051 -0.0829 0.0268 0.1610 Uiso
H6H H 0.5949 -0.0829 0.0268 0.1610 Uiso
H6J H 0.5949 0.0829 -0.0268 0.1610 Uiso
O2B O 0.24598(9) -0.18740(11) -0.14798(16) 0.0753 Uani
O2H O 0.75402(9) -0.18740(11) -0.14798(16) 0.0753 Uani
O2J O 0.75402(9) 0.18740(11) 0.14798(16) 0.0753 Uani
O2F O 0.74598(9) 0.31260(11) 0.35202(16) 0.0753 Uani
O2G O 0.25402(9) 0.18740(11) 0.35202(16) 0.0753 Uani
O2L O 0.25402(9) 0.31260(11) 0.35202(16) 0.0753 Uani
O2M O 0.74598(9) 0.18740(11) 0.35202(16) 0.0753 Uani
O3A O 0.66110(16) 0.25000 0.3443(3) 0.1377 Uani
Zn1A Zn 0.716460(19) 0.25000 0.29797(4) 0.0544 Uiso
Zn1B Zn 0.283540(19) -0.25000 -0.29797(4) 0.0544 Uiso
Zn1C Zn 0.716460(19) -0.25000 -0.29797(4) 0.0544 Uiso
Zn1D Zn 0.783540(19) -0.25000 -0.20203(4) 0.0544 Uiso
Zn1E Zn 0.216460(19) -0.25000 -0.20203(4) 0.0544 Uiso
Zn1F Zn 0.783540(19) 0.25000 0.20203(4) 0.0544 Uiso
Zn1G Zn 0.216460(19) 0.25000 0.20203(4) 0.0544 Uiso
loop_
_atom_site_aniso_label
_atom_site_aniso_U_11
_atom_site_aniso_U_22
_atom_site_aniso_U_33
_atom_site_aniso_U_23
_atom_site_aniso_U_13
_atom_site_aniso_U_12
O1 0.088(3) 0.0741(19) 0.093(3) -0.0152(19) 0.010(2) 0.0017(18)
C1 0.069(4) 0.087(4) 0.102(5) -0.025(3) -0.010(4) 0.006(3)
C2 0.073(4) 0.103(4) 0.135(6) 0.010(4) -0.015(4) 0.008(3)
C3 0.066(4) 0.074(4) 0.085(4) -0.005(3) 0.008(4) 0.005(3)
C4 0.067(4) 0.098(4) 0.103(6) -0.011(4) -0.016(4) -0.006(4)
N1 0.087(6) 0.116(6) 0.129(7) -0.030(5) 0 0
C5 0.061(4) 0.058(3) 0.097(5) -0.007(3) 0.012(3) 0.006(3)
C6 0.080(4) 0.092(4) 0.101(5) -0.029(3) -0.001(4) 0.001(3)
C7 0.098(5) 0.110(4) 0.091(5) -0.027(4) -0.020(4) 0.001(4)
C8 0.112(8) 0.101(7) 0.135(8) 0.007(6) 0 0
C9 0.105(8) 0.068(6) 0.119(7) 0.003(5) 0 0
C10 0.118(6) 0.098(5) 0.163(7) 0.001(4) 0.026(6) -0.022(4)
C11 0.121(6) 0.104(5) 0.177(7) -0.002(5) 0.004(6) 0.022(5)
O2 0.071(2) 0.0680(19) 0.087(3) -0.0096(17) 0.012(2) -0.0052(18)
O3 0.122(5) 0.173(5) 0.118(5) 0 -0.020(4) 0
O1B 0.088 0.0741 0.093 -0.0152 -0.01 -0.0017
O1H 0.088 0.0741 0.093 -0.0152 0.01 0.0017
O1J 0.088 0.0741 0.093 -0.0152 -0.01 -0.0017
O1A 0.088 0.0741 0.093 0.0152 -0.01 0.0017
O1K 0.088 0.0741 0.093 0.0152 0.01 -0.0017
C1B 0.069 0.087 0.102 -0.025 0.01 -0.006
C1H 0.069 0.087 0.102 -0.025 -0.01 0.006
C1J 0.069 0.087 0.102 -0.025 0.01 -0.006
C2B 0.073 0.103 0.135 0.01 0.015 -0.008
C2H 0.073 0.103 0.135 0.01 -0.015 0.008
C2J 0.073 0.103 0.135 0.01 0.015 -0.008
C3B 0.066 0.074 0.085 -0.005 -0.008 -0.005
C3H 0.066 0.074 0.085 -0.005 0.008 0.005
C3J 0.066 0.074 0.085 -0.005 -0.008 -0.005
C4B 0.067 0.098 0.103 -0.011 0.016 0.006
C4H 0.067 0.098 0.103 -0.011 -0.016 -0.006
C4J 0.067 0.098 0.103 -0.011 0.016 0.006
N1H 0.087 0.116 0.129 -0.03 0 0
C5B 0.061 0.058 0.097 -0.007 -0.012 -0.006
C5H 0.061 0.058 0.097 -0.007 0.012 0.006
C5J 0.061 0.058 0.097 -0.007 -0.012 -0.006
C6B 0.08 0.092 0.101 -0.029 0.001 -0.001
C6H 0.08 0.092 0.101 -0.029 -0.001 0.001
C6J 0.08 0.092 0.101 -0.029 0.001 -0.001
C7B 0.098 0.11 0.091 -0.027 0.02 -0.001
C7H 0.098 0.11 0.091 -0.027 -0.02 0.001
C7J 0.098 0.11 0.091 -0.027 0.02 -0.001
C8H 0.112 0.101 0.135 0.007 0 0
C9H 0.105 0.068 0.119 0.003 0 0
C10B 0.118 0.098 0.163 0.001 -0.026 0.022
C10H 0.118 0.098 0.163 0.001 0.026 -0.022
C10J 0.118 0.098 0.163 0.001 -0.026 0.022
C11B 0.121 0.104 0.177 -0.002 -0.004 -0.022
C11H 0.121 0.104 0.177 -0.002 0.004 0.022
C11J 0.121 0.104 0.177 -0.002 -0.004 -0.022
O2B 0.071 0.068 0.087 -0.0096 -0.012 0.0052
O2H 0.071 0.068 0.087 -0.0096 0.012 -0.0052
O2J 0.071 0.068 0.087 -0.0096 -0.012 0.0052
O2F 0.071 0.068 0.087 -0.0096 -0.012 0.0052
O2G 0.071 0.068 0.087 0.0096 0.012 0.0052
O2L 0.071 0.068 0.087 -0.0096 0.012 -0.0052
O2M 0.071 0.068 0.087 0.0096 -0.012 -0.0052
O3A 0.122 0.173 0.118 0 0.02 0
loop_
_geom_bond_atom_site_label_1
_geom_bond_atom_site_label_2
_geom_bond_site_symmetry_1
_geom_bond_site_symmetry_2
O1 C3 1_555 1_555
C1 H1 1_555 1_555
C2 H2 1_555 1_555
C3 C5 1_555 1_555
C4 C2 1_555 1_555
N1 C4 1_555 1_555
C5 C1 1_555 1_555
C6 C2 1_555 1_555
H3 C6 1_555 1_555
C7 C1 1_555 1_555
H4 C7 1_555 1_555
C8 C10 1_555 1_555
C9 N1 1_555 1_555
C10 H5 1_555 1_555
C11 C9 1_555 1_555
H6 C11 1_555 1_555
O2 C3 1_555 1_555
O3 Zn1 1_555 1_555
Zn1 O1 1_555 1_555
O1B C3B 1_555 1_555
O1H C3H 1_555 1_555
O1J C3J 1_555 1_555
O1A Zn1A 1_555 1_555
O1K Zn1 1_555 1_555
C1B H1B 1_555 1_555
C1H H1H 1_555 1_555
C1J H1J 1_555 1_555
C2B H2B 1_555 1_555
C2H H2H 1_555 1_555
C2J H2J 1_555 1_555
C3B C5B 1_555 1_555
C3H C5H 1_555 1_555
C3J C5J 1_555 1_555
C4B N1 1_555 1_555
C4H C2H 1_555 1_555
C4J C2J 1_555 1_555
N1H C4H 1_555 1_555
C5B C1B 1_555 1_555
C5H C1H 1_555 1_555
C5J C1J 1_555 1_555
C6B C2B 1_555 1_555
C6H C2H 1_555 1_555
C6J C2J 1_555 1_555
H3B C6B 1_555 1_555
H3H C6H 1_555 1_555
H3J C6J 1_555 1_555
C7B C1B 1_555 1_555
C7H C1H 1_555 1_555
C7J C1J 1_555 1_555
H4B C7B 1_555 1_555
H4H C7H 1_555 1_555
H4J C7J 1_555 1_555
C8H C8 1_555 1_555
C9H N1H 1_555 1_555
C10B C8 1_555 1_555
C10H C8H 1_555 1_555
C10J C8H 1_555 1_555
H5B C10B 1_555 1_555
H5H C10H 1_555 1_555
H5J C10J 1_555 1_555
C11B C9 1_555 1_555
C11H C9H 1_555 1_555
C11J C9H 1_555 1_555
H6B C11B 1_555 1_555
H6H C11H 1_555 1_555
H6J C11J 1_555 1_555
O2B C3B 1_555 1_555
O2H C3H 1_555 1_555
O2J C3J 1_555 1_555
O2F Zn1A 1_555 1_555
O2G Zn1 1_555 1_555
O2L Zn1 1_555 1_555
O2M Zn1A 1_555 1_555
O3A Zn1A 1_555 1_555
Zn1A O1J 1_555 1_555
Zn1B O1B 1_555 1_555
Zn1C O1H 1_555 1_555
Zn1D O2H 1_555 1_555
Zn1E O2B 1_555 1_555
Zn1F O2J 1_555 1_555
Zn1G O2 1_555 1_555
C4 C7 1_555 1_555
C5 C6 1_555 1_555
C10 C11 1_555 1_555
C2B C4B 1_555 1_555
C4B C7B 1_555 1_555
C4H C7H 1_555 1_555
C4J N1H 1_555 1_555
C4J C7J 1_555 1_555
C5B C6B 1_555 1_555
C5H C6H 1_555 1_555
C5J C6J 1_555 1_555
C10B C11B 1_555 1_555
C10H C11H 1_555 1_555
C10J C11J 1_555 1_555

#END
