
#######################################################################
#
#                 Cambridge Crystallographic Data Centre
#                                CCDC 
#
#######################################################################
#
# If this CIF has been generated from an entry in the Cambridge 
# Structural Database, then it will include bibliographic, chemical, 
# crystal, experimental, refinement or atomic coordinate data resulting 
# from the CCDC's data processing and validation procedures.
#
#######################################################################

data_VAGMAT
_chemical_name_common            SNU-30
_chemical_formula_moiety         
'(C40 H28 N2 O10 Zn2)n,30n(C3 H7 N1 O1),6n(H2 O1)'
_chemical_name_systematic        
"catena-((\m~8~-4,4',4'',4'''-(Biphenyl-4,4'-diyldinitrilo)tetrabenzoato)-diaqua-di-zinc dimethylformamide solvate hexahydrate)"
_symmetry_cell_setting           orthorhombic
_symmetry_space_group_name_H-M   'I m m a'
_symmetry_Int_Tables_number      74
_space_group_name_Hall           '-I 2b 2'
loop_
_symmetry_equiv_pos_site_id
_symmetry_equiv_pos_as_xyz
1 x,y,z
2 -x,1/2-y,z
3 x,-y,-z
4 -x,1/2+y,-z
5 1/2+x,1/2+y,1/2+z
6 1/2-x,-y,1/2+z
7 1/2+x,1/2-y,1/2-z
8 1/2-x,y,1/2-z
9 -x,-y,-z
10 x,1/2+y,-z
11 -x,y,z
12 x,1/2-y,z
13 1/2-x,1/2-y,1/2-z
14 1/2+x,y,1/2-z
15 1/2-x,1/2+y,1/2+z
16 1/2+x,-y,1/2+z
_cell_length_a                   35.965(7)
_cell_length_b                   23.273(5)
_cell_length_c                   17.219(3)
_cell_angle_alpha                90
_cell_angle_beta                 90
_cell_angle_gamma                90
_cell_volume                     14412.5
_exptl_crystal_colour            yellow
_exptl_crystal_description       prism
_cell_formula_units_Z            4
loop_
_atom_site_label
_atom_site_type_symbol
_atom_site_fract_x
_atom_site_fract_y
_atom_site_fract_z
_atom_site_U_iso_or_equiv
_atom_site_thermal_displace_type
O1 O 0.29964(7) 0.18903(9) 0.23422(16) 0.0973 Uani
C1 C 0.28473(12) 0.17198(15) 0.1728(2) 0.0840 Uani
C2 C 0.35583(12) 0.06134(18) 0.1129(3) 0.1173 Uani
H1 H 0.3775 0.0452 0.1327 0.1410 Uiso
C3 C 0.34214(12) 0.04223(16) 0.0426(3) 0.0980 Uani
C4 C 0.29116(11) 0.10675(16) 0.0574(3) 0.1013 Uani
H2 H 0.2689 0.1215 0.0382 0.1210 Uiso
C5 C 0.30479(11) 0.12573(14) 0.1285(3) 0.0913 Uani
C6 C 0.33798(12) 0.10410(17) 0.1546(3) 0.1070 Uani
H3 H 0.3485 0.1181 0.2002 0.1290 Uiso
N1 N 0.36153(14) 0.00000 0.00000 0.1100 Uani
C7 C 0.31022(13) 0.06681(17) 0.0160(2) 0.1067 Uani
H4 H 0.3011 0.0558 -0.0323 0.1280 Uiso
C8 C 0.40156(18) 0.00000 0.00000 0.1037 Uani
C9 C 0.42011(14) -0.04801(17) 0.0134(3) 0.1270 Uani
H5 H 0.4071 -0.0816 0.0243 0.1530 Uiso
C10 C 0.45929(13) -0.04933(16) 0.0114(3) 0.1267 Uani
H6 H 0.4717 -0.084 0.018 0.1520 Uiso
C11 C 0.47907(14) 0.00000 0.00000 0.0970 Uani
O2 O 0.25441(7) 0.18866(9) 0.14635(15) 0.0926 Uani
O3 O 0.32069(11) 0.25000 0.3858(2) 0.1340 Uani
Zn1 Zn 0.279998(14) 0.25000 0.30825(3) 0.0664 Uani
O1B O 0.29964(7) -0.18903(9) -0.23422(16) 0.0973 Uani
O1H O 0.70036(7) -0.18903(9) -0.23422(16) 0.0973 Uani
O1J O 0.70036(7) 0.18903(9) 0.23422(16) 0.0973 Uani
O1A O 0.70036(7) 0.31097(9) 0.23422(16) 0.0973 Uani
O1K O 0.29964(7) 0.31097(9) 0.23422(16) 0.0973 Uani
C1B C 0.28473(12) -0.17198(15) -0.1728(2) 0.0840 Uani
C1H C 0.71527(12) -0.17198(15) -0.1728(2) 0.0840 Uani
C1J C 0.71527(12) 0.17198(15) 0.1728(2) 0.0840 Uani
C2B C 0.35583(12) -0.06134(18) -0.1129(3) 0.1173 Uani
C2H C 0.64417(12) -0.06134(18) -0.1129(3) 0.1173 Uani
C2J C 0.64417(12) 0.06134(18) 0.1129(3) 0.1173 Uani
H1B H 0.3775 -0.0452 -0.1327 0.1410 Uiso
H1H H 0.6225 -0.0452 -0.1327 0.1410 Uiso
H1J H 0.6225 0.0452 0.1327 0.1410 Uiso
C3B C 0.34214(12) -0.04223(16) -0.0426(3) 0.0980 Uani
C3H C 0.65786(12) -0.04223(16) -0.0426(3) 0.0980 Uani
C3J C 0.65786(12) 0.04223(16) 0.0426(3) 0.0980 Uani
C4B C 0.29116(11) -0.10675(16) -0.0574(3) 0.1013 Uani
C4H C 0.70884(11) -0.10675(16) -0.0574(3) 0.1013 Uani
C4J C 0.70884(11) 0.10675(16) 0.0574(3) 0.1013 Uani
H2B H 0.2689 -0.1215 -0.0382 0.1210 Uiso
H2H H 0.7311 -0.1215 -0.0382 0.1210 Uiso
H2J H 0.7311 0.1215 0.0382 0.1210 Uiso
C5B C 0.30479(11) -0.12573(14) -0.1285(3) 0.0913 Uani
C5H C 0.69521(11) -0.12573(14) -0.1285(3) 0.0913 Uani
C5J C 0.69521(11) 0.12573(14) 0.1285(3) 0.0913 Uani
C6B C 0.33798(12) -0.10410(17) -0.1546(3) 0.1070 Uani
C6H C 0.66202(12) -0.10410(17) -0.1546(3) 0.1070 Uani
C6J C 0.66202(12) 0.10410(17) 0.1546(3) 0.1070 Uani
H3B H 0.3485 -0.1181 -0.2002 0.1290 Uiso
H3H H 0.6515 -0.1181 -0.2002 0.1290 Uiso
H3J H 0.6515 0.1181 0.2002 0.1290 Uiso
N1H N 0.63847(14) 0.00000 0.00000 0.1100 Uani
C7B C 0.31022(13) -0.06681(17) -0.0160(2) 0.1067 Uani
C7H C 0.68978(13) -0.06681(17) -0.0160(2) 0.1067 Uani
C7J C 0.68978(13) 0.06681(17) 0.0160(2) 0.1067 Uani
H4B H 0.3011 -0.0558 0.0323 0.1280 Uiso
H4H H 0.6989 -0.0558 0.0323 0.1280 Uiso
H4J H 0.6989 0.0558 -0.0323 0.1280 Uiso
C8H C 0.59844(18) 0.00000 0.00000 0.1037 Uani
C9B C 0.42011(14) 0.04801(17) -0.0134(3) 0.1270 Uani
C9H C 0.57989(14) 0.04801(17) -0.0134(3) 0.1270 Uani
C9J C 0.57989(14) -0.04801(17) 0.0134(3) 0.1270 Uani
H5B H 0.4071 0.0816 -0.0243 0.1530 Uiso
H5H H 0.5929 0.0816 -0.0243 0.1530 Uiso
H5J H 0.5929 -0.0816 0.0243 0.1530 Uiso
C10B C 0.45929(13) 0.04933(16) -0.0114(3) 0.1267 Uani
C10H C 0.54071(13) 0.04933(16) -0.0114(3) 0.1267 Uani
C10J C 0.54071(13) -0.04933(16) 0.0114(3) 0.1267 Uani
H6B H 0.4717 0.084 -0.018 0.1520 Uiso
H6H H 0.5283 0.084 -0.018 0.1520 Uiso
H6J H 0.5283 -0.084 0.018 0.1520 Uiso
C11H C 0.52093(14) 0.00000 0.00000 0.0970 Uani
O2B O 0.25441(7) -0.18866(9) -0.14635(15) 0.0926 Uani
O2H O 0.74559(7) -0.18866(9) -0.14635(15) 0.0926 Uani
O2J O 0.74559(7) 0.18866(9) 0.14635(15) 0.0926 Uani
O2F O 0.75441(7) 0.31134(9) 0.35365(15) 0.0926 Uani
O2G O 0.24559(7) 0.18866(9) 0.35365(15) 0.0926 Uani
O2L O 0.24559(7) 0.31134(9) 0.35365(15) 0.0926 Uani
O2M O 0.75441(7) 0.18866(9) 0.35365(15) 0.0926 Uani
O3A O 0.67931(11) 0.25000 0.3858(2) 0.1340 Uani
Zn1A Zn 0.720002(14) 0.25000 0.30825(3) 0.0664 Uani
Zn1B Zn 0.279998(14) -0.25000 -0.30825(3) 0.0664 Uani
Zn1C Zn 0.720002(14) -0.25000 -0.30825(3) 0.0664 Uani
Zn1D Zn 0.779998(14) -0.25000 -0.19175(3) 0.0664 Uani
Zn1E Zn 0.220002(14) -0.25000 -0.19175(3) 0.0664 Uani
Zn1F Zn 0.779998(14) 0.25000 0.19175(3) 0.0664 Uani
Zn1G Zn 0.220002(14) 0.25000 0.19175(3) 0.0664 Uani
loop_
_atom_site_aniso_label
_atom_site_aniso_U_11
_atom_site_aniso_U_22
_atom_site_aniso_U_33
_atom_site_aniso_U_23
_atom_site_aniso_U_13
_atom_site_aniso_U_12
O1 0.102(2) 0.0869(15) 0.103(2) -0.0081(16) 0.0080(17) 0.0058(14)
C1 0.080(3) 0.073(2) 0.099(3) -0.006(2) 0.003(2) 0.009(2)
C2 0.084(3) 0.118(3) 0.150(4) -0.019(3) -0.011(3) 0.010(2)
C3 0.077(3) 0.091(3) 0.126(4) -0.023(3) 0.000(3) 0.000(2)
C4 0.087(3) 0.088(3) 0.129(4) -0.024(3) -0.002(3) 0.008(2)
C5 0.084(3) 0.077(2) 0.113(3) -0.006(2) 0.011(3) -0.005(2)
C6 0.095(3) 0.104(3) 0.122(3) -0.031(3) -0.006(3) 0.004(2)
N1 0.089(4) 0.110(3) 0.131(4) -0.022(3) 0 0
C7 0.108(3) 0.103(3) 0.109(3) -0.028(3) -0.009(3) -0.007(3)
C8 0.098(5) 0.082(4) 0.131(5) -0.012(4) 0 0
C9 0.107(4) 0.103(3) 0.171(5) 0.003(3) 0.004(3) -0.015(3)
C10 0.102(4) 0.095(3) 0.183(5) 0.004(3) -0.005(3) 0.001(2)
C11 0.091(4) 0.096(4) 0.104(4) 0.002(3) 0 0
O2 0.089(2) 0.0829(14) 0.1060(19) -0.0063(14) 0.0053(16) 0.0033(13)
O3 0.124(3) 0.143(3) 0.135(3) 0 -0.019(3) 0
Zn1 0.0610(4) 0.0616(3) 0.0766(4) 0 0.0018(3) 0
O1B 0.102 0.0869 0.103 -0.0081 -0.008 -0.0058
O1H 0.102 0.0869 0.103 -0.0081 0.008 0.0058
O1J 0.102 0.0869 0.103 -0.0081 -0.008 -0.0058
O1A 0.102 0.0869 0.103 0.0081 -0.008 0.0058
O1K 0.102 0.0869 0.103 0.0081 0.008 -0.0058
C1B 0.08 0.073 0.099 -0.006 -0.003 -0.009
C1H 0.08 0.073 0.099 -0.006 0.003 0.009
C1J 0.08 0.073 0.099 -0.006 -0.003 -0.009
C2B 0.084 0.118 0.15 -0.019 0.011 -0.01
C2H 0.084 0.118 0.15 -0.019 -0.011 0.01
C2J 0.084 0.118 0.15 -0.019 0.011 -0.01
C3B 0.077 0.091 0.126 -0.023 0 0
C3H 0.077 0.091 0.126 -0.023 0 0
C3J 0.077 0.091 0.126 -0.023 0 0
C4B 0.087 0.088 0.129 -0.024 0.002 -0.008
C4H 0.087 0.088 0.129 -0.024 -0.002 0.008
C4J 0.087 0.088 0.129 -0.024 0.002 -0.008
C5B 0.084 0.077 0.113 -0.006 -0.011 0.005
C5H 0.084 0.077 0.113 -0.006 0.011 -0.005
C5J 0.084 0.077 0.113 -0.006 -0.011 0.005
C6B 0.095 0.104 0.122 -0.031 0.006 -0.004
C6H 0.095 0.104 0.122 -0.031 -0.006 0.004
C6J 0.095 0.104 0.122 -0.031 0.006 -0.004
N1H 0.089 0.11 0.131 -0.022 0 0
C7B 0.108 0.103 0.109 -0.028 0.009 0.007
C7H 0.108 0.103 0.109 -0.028 -0.009 -0.007
C7J 0.108 0.103 0.109 -0.028 0.009 0.007
C8H 0.098 0.082 0.131 -0.012 0 0
C9B 0.107 0.103 0.171 0.003 -0.004 0.015
C9H 0.107 0.103 0.171 0.003 0.004 -0.015
C9J 0.107 0.103 0.171 0.003 -0.004 0.015
C10B 0.102 0.095 0.183 0.004 0.005 -0.001
C10H 0.102 0.095 0.183 0.004 -0.005 0.001
C10J 0.102 0.095 0.183 0.004 0.005 -0.001
C11H 0.091 0.096 0.104 0.002 0 0
O2B 0.089 0.0829 0.106 -0.0063 -0.0053 -0.0033
O2H 0.089 0.0829 0.106 -0.0063 0.0053 0.0033
O2J 0.089 0.0829 0.106 -0.0063 -0.0053 -0.0033
O2F 0.089 0.0829 0.106 -0.0063 -0.0053 -0.0033
O2G 0.089 0.0829 0.106 0.0063 0.0053 -0.0033
O2L 0.089 0.0829 0.106 -0.0063 0.0053 0.0033
O2M 0.089 0.0829 0.106 0.0063 -0.0053 0.0033
O3A 0.124 0.143 0.135 0 0.019 0
Zn1A 0.061 0.0616 0.0766 0 -0.0018 0
Zn1B 0.061 0.0616 0.0766 0 -0.0018 0
Zn1C 0.061 0.0616 0.0766 0 0.0018 0
Zn1D 0.061 0.0616 0.0766 0 0.0018 0
Zn1E 0.061 0.0616 0.0766 0 -0.0018 0
Zn1F 0.061 0.0616 0.0766 0 -0.0018 0
Zn1G 0.061 0.0616 0.0766 0 0.0018 0
loop_
_geom_bond_atom_site_label_1
_geom_bond_atom_site_label_2
_geom_bond_site_symmetry_1
_geom_bond_site_symmetry_2
O1 C1 1_555 1_555
C1 C5 1_555 1_555
C2 H1 1_555 1_555
C3 C2 1_555 1_555
C4 H2 1_555 1_555
C5 C4 1_555 1_555
C6 C2 1_555 1_555
H3 C6 1_555 1_555
N1 C3 1_555 1_555
C7 C3 1_555 1_555
H4 C7 1_555 1_555
C8 N1 1_555 1_555
C9 C8 1_555 1_555
H5 C9 1_555 1_555
C10 C9 1_555 1_555
H6 C10 1_555 1_555
C11 C10 1_555 1_555
O2 C1 1_555 1_555
O3 Zn1 1_555 1_555
Zn1 O1 1_555 1_555
O1B C1B 1_555 1_555
O1H C1H 1_555 1_555
O1J C1J 1_555 1_555
O1A Zn1A 1_555 1_555
O1K Zn1 1_555 1_555
C1B C5B 1_555 1_555
C1H C5H 1_555 1_555
C1J C5J 1_555 1_555
C2B H1B 1_555 1_555
C2H H1H 1_555 1_555
C2J H1J 1_555 1_555
C3B N1 1_555 1_555
C3H C2H 1_555 1_555
C3J C2J 1_555 1_555
C4B H2B 1_555 1_555
C4H H2H 1_555 1_555
C4J H2J 1_555 1_555
C5B C4B 1_555 1_555
C5H C4H 1_555 1_555
C5J C4J 1_555 1_555
C6B C2B 1_555 1_555
C6H C2H 1_555 1_555
C6J C2J 1_555 1_555
H3B C6B 1_555 1_555
H3H C6H 1_555 1_555
H3J C6J 1_555 1_555
N1H C3H 1_555 1_555
C7B C3B 1_555 1_555
C7H C3H 1_555 1_555
C7J C3J 1_555 1_555
H4B C7B 1_555 1_555
H4H C7H 1_555 1_555
H4J C7J 1_555 1_555
C8H N1H 1_555 1_555
C9B C8 1_555 1_555
C9H C8H 1_555 1_555
C9J C8H 1_555 1_555
H5B C9B 1_555 1_555
H5H C9H 1_555 1_555
H5J C9J 1_555 1_555
C10B C11 1_555 1_555
C10H C9H 1_555 1_555
C10J C9J 1_555 1_555
H6B C10B 1_555 1_555
H6H C10H 1_555 1_555
H6J C10J 1_555 1_555
C11H C11 1_555 1_555
O2B C1B 1_555 1_555
O2H C1H 1_555 1_555
O2J C1J 1_555 1_555
O2F Zn1A 1_555 1_555
O2G Zn1 1_555 1_555
O2L Zn1 1_555 1_555
O2M Zn1A 1_555 1_555
O3A Zn1A 1_555 1_555
Zn1A O1J 1_555 1_555
Zn1B O1B 1_555 1_555
Zn1C O1H 1_555 1_555
Zn1D O2H 1_555 1_555
Zn1E O2B 1_555 1_555
Zn1F O2J 1_555 1_555
Zn1G O2 1_555 1_555
C4 C7 1_555 1_555
C5 C6 1_555 1_555
C2B C3B 1_555 1_555
C3J N1H 1_555 1_555
C4B C7B 1_555 1_555
C4H C7H 1_555 1_555
C4J C7J 1_555 1_555
C5B C6B 1_555 1_555
C5H C6H 1_555 1_555
C5J C6J 1_555 1_555
C9B C10B 1_555 1_555
C10H C11H 1_555 1_555
C10J C11H 1_555 1_555

#END
