
#######################################################################
#
#                 Cambridge Crystallographic Data Centre
#                                CCDC 
#
#######################################################################
#
# If this CIF has been generated from an entry in the Cambridge 
# Structural Database, then it will include bibliographic, chemical, 
# crystal, experimental, refinement or atomic coordinate data resulting 
# from the CCDC's data processing and validation procedures.
#
#######################################################################

data_VAGMIB
_chemical_formula_moiety         '(C52 H32 N8 O8 Zn2)n,20n(C2 H3 N1),5n(H2 O1)'
_chemical_name_systematic        
"catena-((\m~8~-4,4',4'',4'''-(Biphenyl-4,4'-diyldinitrilo)tetrabenzoato)-(\m~2~-3,6-bis(4-pyridyl)-1,2,4,5-tetrazine)-di-zinc acetonitrile solvate pentahydrate)"
_symmetry_cell_setting           orthorhombic
_symmetry_space_group_name_H-M   'I m m a'
_symmetry_Int_Tables_number      74
_space_group_name_Hall           '-I 2b 2'
loop_
_symmetry_equiv_pos_site_id
_symmetry_equiv_pos_as_xyz
1 x,y,z
2 -x,1/2-y,z
3 x,-y,-z
4 -x,1/2+y,-z
5 1/2+x,1/2+y,1/2+z
6 1/2-x,-y,1/2+z
7 1/2+x,1/2-y,1/2-z
8 1/2-x,y,1/2-z
9 -x,-y,-z
10 x,1/2+y,-z
11 -x,y,z
12 x,1/2-y,z
13 1/2-x,1/2-y,1/2-z
14 1/2+x,y,1/2-z
15 1/2-x,1/2+y,1/2+z
16 1/2+x,-y,1/2+z
_cell_length_a                   34.158(7)
_cell_length_b                   22.850(5)
_cell_length_c                   19.049(4)
_cell_angle_alpha                90
_cell_angle_beta                 90
_cell_angle_gamma                90
_cell_volume                     14867.9
_cell_formula_units_Z            4
loop_
_atom_site_label
_atom_site_type_symbol
_atom_site_fract_x
_atom_site_fract_y
_atom_site_fract_z
_atom_site_U_iso_or_equiv
_atom_site_thermal_displace_type
O1 O 0.29436(4) 0.18763(7) 0.22061(8) 0.0887 Uani
C1 C 0.28151(7) 0.10691(11) 0.06058(14) 0.0994 Uani
H1 H 0.2578 0.1226 0.0454 0.1190 Uiso
C2 C 0.27668(8) 0.17032(10) 0.16710(14) 0.0794 Uani
C3 C 0.34995(8) 0.05879(12) 0.10433(16) 0.1158 Uani
H2 H 0.3736 0.0431 0.1196 0.1390 Uiso
C4 C 0.29675(7) 0.12503(10) 0.12399(14) 0.0817 Uani
N1 N 0.35445(9) 0.00000 0.00000 0.1237 Uani
C5 C 0.33412(8) 0.04100(12) 0.04180(16) 0.1034 Uani
C6 C 0.33056(8) 0.10042(12) 0.14507(14) 0.1045 Uani
H3 H 0.3413 0.1115 0.1879 0.1250 Uiso
C7 C 0.30007(8) 0.06664(13) 0.01927(15) 0.1091 Uani
H4 H 0.2896 0.0566 -0.0242 0.1310 Uiso
N2 N 0.34024(8) 0.25000 0.33429(15) 0.0822 Uani
C8 C 0.39692(12) 0.00000 0.00000 0.1170 Uani
C9 C 0.47817(10) 0.00000 0.00000 0.1117 Uani
C10 C 0.42030(14) 0.25000 0.3598(3) 0.1267 Uani
C11 C 0.35985(9) 0.20145(13) 0.34020(17) 0.1307 Uani
H5 H 0.3463 0.1665 0.3346 0.1570 Uiso
C12 C 0.41637(10) -0.05031(15) 0.0138(2) 0.1480 Uani
H6 H 0.4029 -0.0845 0.0245 0.1780 Uiso
C13 C 0.45755(9) -0.04957(14) 0.0115(2) 0.1460 Uani
H7 H 0.4711 -0.0845 0.018 0.1750 Uiso
C14 C 0.46344(17) 0.25000 0.3722(4) 0.1600 Uani
N3 N 0.47945(11) 0.20047(18) 0.3781(2) 0.2347 Uani
C15 C 0.40045(10) 0.19837(15) 0.35452(18) 0.1480 Uani
H8 H 0.4131 0.1626 0.3601 0.1780 Uiso
O2 O 0.24333(5) 0.18852(6) 0.14709(8) 0.0856 Uani
Zn1 Zn 0.284209(9) 0.25000 0.296040(17) 0.0631 Uani
O1H O 0.70564(4) -0.18763(7) -0.22061(8) 0.0887 Uani
O1J O 0.70564(4) 0.18763(7) 0.22061(8) 0.0887 Uani
O1B O 0.29436(4) -0.18763(7) -0.22061(8) 0.0887 Uani
O1K O 0.29436(4) 0.31237(7) 0.22061(8) 0.0887 Uani
O1A O 0.70564(4) 0.31237(7) 0.22061(8) 0.0887 Uani
C1H C 0.71849(7) -0.10691(11) -0.06058(14) 0.0994 Uani
C1J C 0.71849(7) 0.10691(11) 0.06058(14) 0.0994 Uani
C1B C 0.28151(7) -0.10691(11) -0.06058(14) 0.0994 Uani
H1H H 0.7422 -0.1226 -0.0454 0.1190 Uiso
H1J H 0.7422 0.1226 0.0454 0.1190 Uiso
H1B H 0.2578 -0.1226 -0.0454 0.1190 Uiso
C2H C 0.72332(8) -0.17032(10) -0.16710(14) 0.0794 Uani
C2J C 0.72332(8) 0.17032(10) 0.16710(14) 0.0794 Uani
C2B C 0.27668(8) -0.17032(10) -0.16710(14) 0.0794 Uani
C3H C 0.65005(8) -0.05879(12) -0.10433(16) 0.1158 Uani
C3J C 0.65005(8) 0.05879(12) 0.10433(16) 0.1158 Uani
C3B C 0.34995(8) -0.05879(12) -0.10433(16) 0.1158 Uani
H2H H 0.6264 -0.0431 -0.1196 0.1390 Uiso
H2J H 0.6264 0.0431 0.1196 0.1390 Uiso
H2B H 0.3736 -0.0431 -0.1196 0.1390 Uiso
C4H C 0.70325(7) -0.12503(10) -0.12399(14) 0.0817 Uani
C4J C 0.70325(7) 0.12503(10) 0.12399(14) 0.0817 Uani
C4B C 0.29675(7) -0.12503(10) -0.12399(14) 0.0817 Uani
N1H N 0.64555(9) 0.00000 0.00000 0.1237 Uani
C5H C 0.66588(8) -0.04100(12) -0.04180(16) 0.1034 Uani
C5J C 0.66588(8) 0.04100(12) 0.04180(16) 0.1034 Uani
C5B C 0.33412(8) -0.04100(12) -0.04180(16) 0.1034 Uani
C6H C 0.66944(8) -0.10042(12) -0.14507(14) 0.1045 Uani
C6J C 0.66944(8) 0.10042(12) 0.14507(14) 0.1045 Uani
C6B C 0.33056(8) -0.10042(12) -0.14507(14) 0.1045 Uani
H3H H 0.6587 -0.1115 -0.1879 0.1250 Uiso
H3J H 0.6587 0.1115 0.1879 0.1250 Uiso
H3B H 0.3413 -0.1115 -0.1879 0.1250 Uiso
C7H C 0.69993(8) -0.06664(13) -0.01927(15) 0.1091 Uani
C7J C 0.69993(8) 0.06664(13) 0.01927(15) 0.1091 Uani
C7B C 0.30007(8) -0.06664(13) -0.01927(15) 0.1091 Uani
H4H H 0.7104 -0.0566 0.0242 0.1310 Uiso
H4J H 0.7104 0.0566 -0.0242 0.1310 Uiso
H4B H 0.2896 -0.0566 0.0242 0.1310 Uiso
N2A N 0.65976(8) 0.25000 0.33429(15) 0.0822 Uani
C8H C 0.60308(12) 0.00000 0.00000 0.1170 Uani
C9H C 0.52183(10) 0.00000 0.00000 0.1117 Uani
C10A C 0.57970(14) 0.25000 0.3598(3) 0.1267 Uani
C11J C 0.64015(9) 0.20145(13) 0.34020(17) 0.1307 Uani
C11A C 0.64015(9) 0.29855(13) 0.34020(17) 0.1307 Uani
C11K C 0.35985(9) 0.29855(13) 0.34020(17) 0.1307 Uani
H5A H 0.6537 0.3335 0.3346 0.1570 Uiso
H5J H 0.6537 0.1665 0.3346 0.1570 Uiso
H5K H 0.3463 0.3335 0.3346 0.1570 Uiso
C12H C 0.58363(10) 0.05031(15) -0.0138(2) 0.1480 Uani
C12J C 0.58363(10) -0.05031(15) 0.0138(2) 0.1480 Uani
C12B C 0.41637(10) 0.05031(15) -0.0138(2) 0.1480 Uani
H6J H 0.5971 -0.0845 0.0245 0.1780 Uiso
H6H H 0.5971 0.0845 -0.0245 0.1780 Uiso
H6B H 0.4029 0.0845 -0.0245 0.1780 Uiso
C13H C 0.54245(9) 0.04957(14) -0.0115(2) 0.1460 Uani
C13J C 0.54245(9) -0.04957(14) 0.0115(2) 0.1460 Uani
C13B C 0.45755(9) 0.04957(14) -0.0115(2) 0.1460 Uani
H7J H 0.5289 -0.0845 0.018 0.1750 Uiso
H7H H 0.5289 0.0845 -0.018 0.1750 Uiso
H7B H 0.4711 0.0845 -0.018 0.1750 Uiso
C14A C 0.53656(17) 0.25000 0.3722(4) 0.1600 Uani
N3J N 0.52055(11) 0.20047(18) 0.3781(2) 0.2347 Uani
N3A N 0.52055(11) 0.29953(18) 0.3781(2) 0.2347 Uani
N3K N 0.47945(11) 0.29953(18) 0.3781(2) 0.2347 Uani
C15J C 0.59955(10) 0.19837(15) 0.35452(18) 0.1480 Uani
C15A C 0.59955(10) 0.30163(15) 0.35452(18) 0.1480 Uani
C15K C 0.40045(10) 0.30163(15) 0.35452(18) 0.1480 Uani
H8A H 0.5869 0.3374 0.3601 0.1780 Uiso
H8J H 0.5869 0.1626 0.3601 0.1780 Uiso
H8K H 0.4131 0.3374 0.3601 0.1780 Uiso
O2H O 0.75667(5) -0.18852(6) -0.14709(8) 0.0856 Uani
O2J O 0.75667(5) 0.18852(6) 0.14709(8) 0.0856 Uani
O2B O 0.24333(5) -0.18852(6) -0.14709(8) 0.0856 Uani
O2G O 0.25667(5) 0.18852(6) 0.35291(8) 0.0856 Uani
O2L O 0.25667(5) 0.31148(6) 0.35291(8) 0.0856 Uani
O2F O 0.74333(5) 0.31148(6) 0.35291(8) 0.0856 Uani
O2M O 0.74333(5) 0.18852(6) 0.35291(8) 0.0856 Uani
Zn1C Zn 0.715791(9) -0.25000 -0.296040(17) 0.0631 Uani
Zn1G Zn 0.215791(9) 0.25000 0.203960(17) 0.0631 Uani
Zn1D Zn 0.784209(9) -0.25000 -0.203960(17) 0.0631 Uani
Zn1A Zn 0.715791(9) 0.25000 0.296040(17) 0.0631 Uani
Zn1F Zn 0.784209(9) 0.25000 0.203960(17) 0.0631 Uani
Zn1B Zn 0.284209(9) -0.25000 -0.296040(17) 0.0631 Uani
Zn1E Zn 0.215791(9) -0.25000 -0.203960(17) 0.0631 Uani
loop_
_atom_site_aniso_label
_atom_site_aniso_U_11
_atom_site_aniso_U_22
_atom_site_aniso_U_33
_atom_site_aniso_U_23
_atom_site_aniso_U_13
_atom_site_aniso_U_12
O1 0.0712(11) 0.0929(12) 0.1020(12) -0.0280(10) 0.0068(9) 0.0013(9)
C1 0.0712(16) 0.104(2) 0.123(2) -0.0334(18) -0.0061(17) 0.0145(15)
C2 0.0729(18) 0.0773(17) 0.0881(17) -0.0112(15) 0.0105(15) -0.0047(14)
C3 0.0723(18) 0.124(2) 0.151(2) -0.049(2) -0.0120(18) 0.0184(16)
C4 0.0637(16) 0.0810(17) 0.1004(18) -0.0196(15) 0.0032(14) 0.0046(13)
N1 0.070(2) 0.133(3) 0.168(3) -0.073(3) 0 0
C5 0.0702(18) 0.109(2) 0.131(2) -0.0523(19) -0.0028(17) -0.0052(16)
C6 0.0784(19) 0.118(2) 0.117(2) -0.0389(18) -0.0120(16) 0.0067(17)
C7 0.0824(19) 0.123(2) 0.122(2) -0.0492(19) -0.0174(17) 0.0068(17)
N2 0.0597(18) 0.083(2) 0.104(2) 0 -0.0019(15) 0
C8 0.076(3) 0.118(4) 0.157(4) -0.065(3) 0 0
C9 0.072(2) 0.107(3) 0.156(3) -0.053(3) 0 0
C10 0.078(3) 0.137(4) 0.165(4) 0 -0.003(3) 0
C11 0.093(2) 0.108(2) 0.191(3) 0.008(2) -0.006(2) -0.0069(19)
C12 0.095(3) 0.118(3) 0.231(4) -0.042(3) -0.006(3) -0.008(2)
C13 0.090(2) 0.110(3) 0.238(4) -0.041(2) 0.002(3) 0.0078(19)
C14 0.089(4) 0.167(7) 0.224(6) 0 0.002(4) 0
N3 0.127(3) 0.240(5) 0.337(5) 0.038(4) -0.011(3) 0.005(2)
C15 0.090(3) 0.135(3) 0.219(4) 0.010(3) -0.018(2) 0.017(2)
O2 0.0682(11) 0.0854(11) 0.1031(12) -0.0159(9) 0.0032(9) 0.0091(9)
Zn1 0.0460(2) 0.0661(2) 0.0771(2) 0 0.00289(19) 0
O1H 0.0712 0.0929 0.102 -0.028 0.0068 0.0013
O1J 0.0712 0.0929 0.102 -0.028 -0.0068 -0.0013
O1B 0.0712 0.0929 0.102 -0.028 -0.0068 -0.0013
O1K 0.0712 0.0929 0.102 0.028 0.0068 -0.0013
O1A 0.0712 0.0929 0.102 0.028 -0.0068 0.0013
C1H 0.0712 0.104 0.123 -0.0334 -0.0061 0.0145
C1J 0.0712 0.104 0.123 -0.0334 0.0061 -0.0145
C1B 0.0712 0.104 0.123 -0.0334 0.0061 -0.0145
C2H 0.0729 0.0773 0.0881 -0.0112 0.0105 -0.0047
C2J 0.0729 0.0773 0.0881 -0.0112 -0.0105 0.0047
C2B 0.0729 0.0773 0.0881 -0.0112 -0.0105 0.0047
C3H 0.0723 0.124 0.151 -0.049 -0.012 0.0184
C3J 0.0723 0.124 0.151 -0.049 0.012 -0.0184
C3B 0.0723 0.124 0.151 -0.049 0.012 -0.0184
C4H 0.0637 0.081 0.1004 -0.0196 0.0032 0.0046
C4J 0.0637 0.081 0.1004 -0.0196 -0.0032 -0.0046
C4B 0.0637 0.081 0.1004 -0.0196 -0.0032 -0.0046
N1H 0.07 0.133 0.168 -0.073 0 0
C5H 0.0702 0.109 0.131 -0.0523 -0.0028 -0.0052
C5J 0.0702 0.109 0.131 -0.0523 0.0028 0.0052
C5B 0.0702 0.109 0.131 -0.0523 0.0028 0.0052
C6H 0.0784 0.118 0.117 -0.0389 -0.012 0.0067
C6J 0.0784 0.118 0.117 -0.0389 0.012 -0.0067
C6B 0.0784 0.118 0.117 -0.0389 0.012 -0.0067
C7H 0.0824 0.123 0.122 -0.0492 -0.0174 0.0068
C7J 0.0824 0.123 0.122 -0.0492 0.0174 -0.0068
C7B 0.0824 0.123 0.122 -0.0492 0.0174 -0.0068
N2A 0.0597 0.083 0.104 0 0.0019 0
C8H 0.076 0.118 0.157 -0.065 0 0
C9H 0.072 0.107 0.156 -0.053 0 0
C10A 0.078 0.137 0.165 0 0.003 0
C11J 0.093 0.108 0.191 0.008 0.006 0.0069
C11A 0.093 0.108 0.191 -0.008 0.006 -0.0069
C11K 0.093 0.108 0.191 -0.008 -0.006 0.0069
C12H 0.095 0.118 0.231 -0.042 -0.006 -0.008
C12J 0.095 0.118 0.231 -0.042 0.006 0.008
C12B 0.095 0.118 0.231 -0.042 0.006 0.008
C13H 0.09 0.11 0.238 -0.041 0.002 0.0078
C13J 0.09 0.11 0.238 -0.041 -0.002 -0.0078
C13B 0.09 0.11 0.238 -0.041 -0.002 -0.0078
C14A 0.089 0.167 0.224 0 -0.002 0
N3J 0.127 0.24 0.337 0.038 0.011 -0.005
N3A 0.127 0.24 0.337 -0.038 0.011 0.005
N3K 0.127 0.24 0.337 -0.038 -0.011 -0.005
C15J 0.09 0.135 0.219 0.01 0.018 -0.017
C15A 0.09 0.135 0.219 -0.01 0.018 0.017
C15K 0.09 0.135 0.219 -0.01 -0.018 -0.017
O2H 0.0682 0.0854 0.1031 -0.0159 0.0032 0.0091
O2J 0.0682 0.0854 0.1031 -0.0159 -0.0032 -0.0091
O2B 0.0682 0.0854 0.1031 -0.0159 -0.0032 -0.0091
O2G 0.0682 0.0854 0.1031 0.0159 0.0032 -0.0091
O2L 0.0682 0.0854 0.1031 -0.0159 0.0032 0.0091
O2F 0.0682 0.0854 0.1031 -0.0159 -0.0032 -0.0091
O2M 0.0682 0.0854 0.1031 0.0159 -0.0032 0.0091
Zn1C 0.046 0.0661 0.0771 0 0.00289 0
Zn1G 0.046 0.0661 0.0771 0 0.00289 0
Zn1D 0.046 0.0661 0.0771 0 0.00289 0
Zn1A 0.046 0.0661 0.0771 0 -0.00289 0
Zn1F 0.046 0.0661 0.0771 0 -0.00289 0
Zn1B 0.046 0.0661 0.0771 0 -0.00289 0
Zn1E 0.046 0.0661 0.0771 0 -0.00289 0
loop_
_geom_bond_atom_site_label_1
_geom_bond_atom_site_label_2
_geom_bond_site_symmetry_1
_geom_bond_site_symmetry_2
O1 C2 1_555 1_555
C1 H1 1_555 1_555
C2 C4 1_555 1_555
C3 H2 1_555 1_555
C4 C1 1_555 1_555
N1 C5 1_555 1_555
C5 C3 1_555 1_555
C6 C3 1_555 1_555
H3 C6 1_555 1_555
C7 C1 1_555 1_555
H4 C7 1_555 1_555
N2 C11 1_555 1_555
C8 N1 1_555 1_555
C9 C13 1_555 1_555
C10 C14 1_555 1_555
C11 H5 1_555 1_555
C12 C8 1_555 1_555
H6 C12 1_555 1_555
C13 C12 1_555 1_555
H7 C13 1_555 1_555
C14 N3 1_555 1_555
N3 N3J 1_555 1_555
C15 C10 1_555 1_555
H8 C15 1_555 1_555
O2 C2 1_555 1_555
Zn1 O1 1_555 1_555
O1H C2H 1_555 1_555
O1J C2J 1_555 1_555
O1B C2B 1_555 1_555
O1K Zn1 1_555 1_555
O1A Zn1A 1_555 1_555
C1H H1H 1_555 1_555
C1J H1J 1_555 1_555
C1B H1B 1_555 1_555
C2H C4H 1_555 1_555
C2J C4J 1_555 1_555
C2B C4B 1_555 1_555
C3H H2H 1_555 1_555
C3J H2J 1_555 1_555
C3B H2B 1_555 1_555
C4H C1H 1_555 1_555
C4J C1J 1_555 1_555
C4B C1B 1_555 1_555
N1H C5H 1_555 1_555
C5H C3H 1_555 1_555
C5J C3J 1_555 1_555
C5B N1 1_555 1_555
C6H C3H 1_555 1_555
C6J C3J 1_555 1_555
C6B C3B 1_555 1_555
H3H C6H 1_555 1_555
H3J C6J 1_555 1_555
H3B C6B 1_555 1_555
C7H C1H 1_555 1_555
C7J C1J 1_555 1_555
C7B C1B 1_555 1_555
H4H C7H 1_555 1_555
H4J C7J 1_555 1_555
H4B C7B 1_555 1_555
N2A C11J 1_555 1_555
C8H N1H 1_555 1_555
C9H C9 1_555 1_555
C10A C14A 1_555 1_555
C11J H5J 1_555 1_555
C11A N2A 1_555 1_555
C11K N2 1_555 1_555
H5A C11A 1_555 1_555
H5K C11K 1_555 1_555
C12H C8H 1_555 1_555
C12J C8H 1_555 1_555
C12B C8 1_555 1_555
H6J C12J 1_555 1_555
H6H C12H 1_555 1_555
H6B C12B 1_555 1_555
C13H C9H 1_555 1_555
C13J C9H 1_555 1_555
C13B C9 1_555 1_555
H7J C13J 1_555 1_555
H7H C13H 1_555 1_555
H7B C13B 1_555 1_555
C14A N3J 1_555 1_555
N3A C14A 1_555 1_555
N3K C14 1_555 1_555
C15J C10A 1_555 1_555
C15A C10A 1_555 1_555
C15K C10 1_555 1_555
H8A C15A 1_555 1_555
H8J C15J 1_555 1_555
H8K C15K 1_555 1_555
O2H C2H 1_555 1_555
O2J C2J 1_555 1_555
O2B C2B 1_555 1_555
O2G Zn1 1_555 1_555
O2L Zn1 1_555 1_555
O2F Zn1A 1_555 1_555
O2M Zn1A 1_555 1_555
Zn1C O1H 1_555 1_555
Zn1G O2 1_555 1_555
Zn1D O2H 1_555 1_555
Zn1A O1J 1_555 1_555
Zn1F O2J 1_555 1_555
Zn1B O1B 1_555 1_555
Zn1E O2B 1_555 1_555
C4 C6 1_555 1_555
C5 C7 1_555 1_555
N2 Zn1 1_555 1_555
C11 C15 1_555 1_555
C3B C5B 1_555 1_555
C4H C6H 1_555 1_555
C4J C6J 1_555 1_555
C4B C6B 1_555 1_555
N1H C5J 1_555 1_555
C5H C7H 1_555 1_555
C5J C7J 1_555 1_555
C5B C7B 1_555 1_555
N2A Zn1A 1_555 1_555
C11J C15J 1_555 1_555
C11A C15A 1_555 1_555
C11K C15K 1_555 1_555
C12H C13H 1_555 1_555
C12J C13J 1_555 1_555
C12B C13B 1_555 1_555
N3A N3K 1_555 1_555

#END
