
#######################################################################
#
#                 Cambridge Crystallographic Data Centre
#                                CCDC 
#
#######################################################################
#
# If this CIF has been generated from an entry in the Cambridge 
# Structural Database, then it will include bibliographic, chemical, 
# crystal, experimental, refinement or atomic coordinate data resulting 
# from the CCDC's data processing and validation procedures.
#
#######################################################################

data_VUMBOW
_chemical_formula_moiety         '(C18 H19 Cu2 N2 O11 P3)n,4n(H2 O1)'
_chemical_name_systematic        
"catena-[(\m-4,4'-ethene-1,2-diyldipyridine)-(\m-[3,5-bis(hydroxyphosphinato)phenyl]phosphonato)-diaqua-di-copper tetrahydrate]"
_symmetry_cell_setting           orthorhombic
_symmetry_space_group_name_H-M   'C m c a'
_symmetry_Int_Tables_number      64
_space_group_name_Hall           '-C 2ac 2'
loop_
_symmetry_equiv_pos_site_id
_symmetry_equiv_pos_as_xyz
1 x,y,z
2 -x,1/2-y,1/2+z
3 x,-y,-z
4 -x,1/2+y,1/2-z
5 1/2+x,1/2+y,z
6 1/2-x,-y,1/2+z
7 1/2+x,1/2-y,-z
8 1/2-x,y,1/2-z
9 -x,-y,-z
10 x,1/2+y,1/2-z
11 -x,y,z
12 x,1/2-y,1/2+z
13 1/2-x,1/2-y,-z
14 1/2+x,y,1/2-z
15 1/2-x,1/2+y,z
16 1/2+x,-y,1/2+z
_cell_length_a                   33.7186(11)
_cell_length_b                   7.9481(3)
_cell_length_c                   20.5910(5)
_cell_angle_alpha                90
_cell_angle_beta                 90
_cell_angle_gamma                90
_cell_volume                     5518.36
_exptl_crystal_colour            green
_exptl_crystal_description       block
_cell_formula_units_Z            8
loop_
_atom_site_label
_atom_site_type_symbol
_atom_site_fract_x
_atom_site_fract_y
_atom_site_fract_z
_atom_site_U_iso_or_equiv
_atom_site_thermal_displace_type
C1 C 0.87639(12) 0.2202(6) -0.02776(19) 0.0301 Uani
H1 H 0.8963 0.1792 -0.0562 0.0160 Uiso
C2 C 0.83683(13) 0.1917(7) -0.0430(2) 0.0377 Uani
H2 H 0.8295 0.1321 -0.0811 0.0520 Uiso
C3 C 0.80722(12) 0.2494(8) -0.0020(2) 0.0393 Uani
C4 C 0.81901(13) 0.3362(7) 0.0535(2) 0.0377 Uani
H3 H 0.7991 0.3772 0.0820 0.0430 Uiso
C5 C 0.85889(12) 0.3603(6) 0.0659(2) 0.0297 Uani
H4 H 0.8662 0.4199 0.1040 0.0160 Uiso
C6 C 0.76504(13) 0.2244(8) -0.0180(2) 0.0453 Uani
C7 C 0.96411(10) 0.2509(5) 0.24748(17) 0.0163 Uani
C8 C 1.0000 0.2694(7) 0.2151(2) 0.0167 Uani
H5 H 1.0000 0.2942 0.1700 -0.0010 Uiso
C9 C 0.96418(10) 0.2124(5) 0.31373(17) 0.0157 Uani
H6 H 0.9399 0.1988 0.3361 0.0240 Uiso
C10 C 1.0000 0.1930(7) 0.3467(2) 0.0157 Uani
Cu1 Cu 0.94524(2) 0.33315(7) 0.05044(2) 0.0150 Uani
N1 N 0.88762(9) 0.3028(5) 0.02601(15) 0.0230 Uani
O1 O 0.93048(7) 0.3707(3) 0.13967(11) 0.0174 Uani
O2 O 0.90662(8) 0.0944(4) 0.17795(12) 0.0208 Uani
O3 O 0.88838(7) 0.3573(4) 0.24241(12) 0.0205 Uani
O4 O 1.0000 -0.0714(5) 0.43059(16) 0.0145 Uani
O5 O 1.03838(7) 0.1871(3) 0.46008(11) 0.0184 Uani
O6 O 0.95914(9) 0.0599(4) 0.06995(14) 0.0285 Uani
P1 P 0.91955(3) 0.27588(13) 0.20077(4) 0.0157 Uani
P2 P 1.0000 0.12468(17) 0.42989(6) 0.0123 Uani
H7 H 0.761(4) 0.199(13) -0.0626(13) 0.2700 Uiso
H8 H 0.8982(13) 0.021(4) 0.2040(15) 0.0420 Uiso
H9 H 0.9476(13) 0.044(8) 0.1126(10) 0.0800 Uiso
H10 H 0.9875(5) 0.047(19) 0.075(3) 0.4100 Uiso
C1L C 0.62361(12) 0.2798(6) 0.02776(19) 0.0301 Uani
H1L H 0.6037 0.3208 0.0562 0.0160 Uiso
C2L C 0.66317(13) 0.3083(7) 0.0430(2) 0.0377 Uani
H2L H 0.6705 0.3679 0.0811 0.0520 Uiso
C3L C 0.69278(12) 0.2506(8) 0.0020(2) 0.0393 Uani
C4L C 0.68099(13) 0.1638(7) -0.0535(2) 0.0377 Uani
H3L H 0.7009 0.1228 -0.0820 0.0430 Uiso
C5L C 0.64111(12) 0.1397(6) -0.0659(2) 0.0297 Uani
H4L H 0.6338 0.0801 -0.1040 0.0160 Uiso
C6L C 0.73496(13) 0.2756(8) 0.0180(2) 0.0453 Uani
N1L N 0.61238(9) 0.1972(5) -0.02601(15) 0.0230 Uani
H7L H 0.739(4) 0.301(13) 0.0626(13) 0.2700 Uiso
C7J C 1.03589(10) 0.2509(5) 0.24748(17) 0.0163 Uani
O1J O 1.06952(7) 0.3707(3) 0.13967(11) 0.0174 Uani
O2J O 1.09338(8) 0.0944(4) 0.17795(12) 0.0208 Uani
O3J O 1.11162(7) 0.3573(4) 0.24241(12) 0.0205 Uani
P1J P 1.08045(3) 0.27588(13) 0.20077(4) 0.0157 Uani
H8J H 1.1018(13) 0.021(4) 0.2040(15) 0.0420 Uiso
C9J C 1.03582(10) 0.2124(5) 0.31373(17) 0.0157 Uani
H6J H 1.0601 0.1988 0.3361 0.0240 Uiso
O5J O 0.96162(7) 0.1871(3) 0.46008(11) 0.0184 Uani
Cu1J Cu 1.05476(2) 0.33315(7) 0.05044(2) 0.0150 Uani
O6J O 1.04086(9) 0.0599(4) 0.06995(14) 0.0285 Uani
H9J H 1.0524(13) 0.044(8) 0.1126(10) 0.0800 Uiso
H10J H 1.0125(5) 0.047(19) 0.075(3) 0.4100 Uiso
Cu1A Cu 1.05476(2) 0.16685(7) 0.55044(2) 0.0150 Uani
Cu1C Cu 1.05476(2) -0.16685(7) 0.44956(2) 0.0150 Uani
Cu1I Cu 0.94524(2) -0.16685(7) 0.44956(2) 0.0150 Uani
Cu1K Cu 0.94524(2) 0.16685(7) 0.55044(2) 0.0150 Uani
Cu1L Cu 0.55476(2) 0.16685(7) -0.05044(2) 0.0150 Uani
N1J N 1.11238(9) 0.3028(5) 0.02601(15) 0.0230 Uani
O4C O 1.0000 0.4286(5) 0.06941(16) 0.0145 Uani
O5A O 0.96162(7) 0.3129(3) -0.03992(11) 0.0184 Uani
O5K O 1.03838(7) 0.3129(3) -0.03992(11) 0.0184 Uani
O7 O 0.8077(2) 0.3008(16) 0.2496(5) 0.0670 Uani
O9 O 0.7508(4) 0.456(2) 0.1680(5) 0.0967 Uani
O8? O 0.8086(2) 0.4365(19) 0.2372(6) 0.0750 Uani
O10? O 0.7445(4) 0.302(3) 0.1739(5) 0.1037 Uani
loop_
_atom_site_aniso_label
_atom_site_aniso_U_11
_atom_site_aniso_U_22
_atom_site_aniso_U_33
_atom_site_aniso_U_23
_atom_site_aniso_U_13
_atom_site_aniso_U_12
C1 0.0186(19) 0.051(3) 0.0206(19) -0.0030(19) -0.0011(16) -0.0066(19)
C2 0.024(2) 0.064(3) 0.025(2) -0.001(2) -0.0059(17) -0.013(2)
C3 0.0160(19) 0.076(4) 0.026(2) 0.012(2) -0.0035(18) -0.012(2)
C4 0.015(2) 0.075(4) 0.023(2) 0.009(2) -0.0007(16) 0.000(2)
C5 0.0167(19) 0.055(3) 0.0174(18) 0.0041(19) -0.0008(15) -0.0015(19)
C6 0.017(2) 0.085(4) 0.034(3) 0.013(3) -0.0071(17) -0.011(2)
C7 0.0151(17) 0.0204(19) 0.0134(16) 0.0001(14) -0.0037(14) -0.0002(15)
C8 0.017(2) 0.021(3) 0.012(2) 0.000(2) 0.000 0.000
C9 0.0144 0.0194 0.0133 0.0011 0.0018 -0.0018
C10 0.018 0.02 0.009 0.0024 0 0
Cu1 0.0115(3) 0.0239(3) 0.0096(3) 0.0003(2) 0.00002(18) -0.0022(2)
N1 0.0134(15) 0.040(2) 0.0157(15) 0.0035(14) -0.0006(12) -0.0040(14)
O1 0.0155(12) 0.0246(14) 0.0121(12) 0.0023(10) -0.0007(9) 0.0000(10)
O2 0.0224(13) 0.0249(15) 0.0151(12) 0.0011(11) 0.0001(10) -0.0057(11)
O3 0.0152(12) 0.0304(15) 0.0159(12) -0.0016(11) 0.0008(10) -0.0011(11)
O4 0.0134 0.0193 0.0107 0.0012 0 0
O5 0.0155 0.0285 0.0113 0.0031 -0.0015 -0.0053
O6 0.0336(16) 0.0270(17) 0.0249(14) -0.0015(12) 0.0011(12) -0.0025(13)
P1 0.0129(4) 0.0244(5) 0.0099(4) 0.0011(4) -0.0006(3) -0.0007(4)
P2 0.0119 0.0165 0.0085 0.0011 0 0
C1L 0.0186 0.051 0.0206 -0.003 -0.0011 -0.0066
C2L 0.024 0.064 0.025 -0.001 -0.0059 -0.013
C3L 0.016 0.076 0.026 0.012 -0.0035 -0.012
C4L 0.015 0.075 0.023 0.009 -0.0007 0
C5L 0.0167 0.055 0.0174 0.0041 -0.0008 -0.0015
C6L 0.017 0.085 0.034 0.013 -0.0071 -0.011
N1L 0.0134 0.04 0.0157 0.0035 -0.0006 -0.004
C7J 0.0151 0.0204 0.0134 0.0001 0.0037 0.0002
O1J 0.0155 0.0246 0.0121 0.0023 0.0007 0
O2J 0.0224 0.0249 0.0151 0.0011 -0.0001 0.0057
O3J 0.0152 0.0304 0.0159 -0.0016 -0.0008 0.0011
P1J 0.0129 0.0244 0.0099 0.0011 0.0006 0.0007
C9J 0.0144 0.0194 0.0133 0.0011 -0.0018 0.0018
O5J 0.0155 0.0285 0.0113 0.0031 0.0015 0.0053
Cu1J 0.0115 0.0239 0.0096 0.0003 -2e-05 0.0022
O6J 0.0336 0.027 0.0249 -0.0015 -0.0011 0.0025
Cu1A 0.0115 0.0239 0.0096 -0.0003 -2e-05 -0.0022
Cu1C 0.0115 0.0239 0.0096 -0.0003 2e-05 0.0022
Cu1I 0.0115 0.0239 0.0096 -0.0003 -2e-05 -0.0022
Cu1K 0.0115 0.0239 0.0096 -0.0003 2e-05 0.0022
Cu1L 0.0115 0.0239 0.0096 0.0003 2e-05 -0.0022
N1J 0.0134 0.04 0.0157 0.0035 0.0006 0.004
O4C 0.0134 0.0193 0.0107 -0.0012 0 0
O5A 0.0155 0.0285 0.0113 -0.0031 0.0015 -0.0053
O5K 0.0155 0.0285 0.0113 -0.0031 -0.0015 0.0053
O7 0.024(4) 0.068(9) 0.109(8) -0.005(6) 0.011(4) -0.007(4)
O9 0.102(8) 0.126(13) 0.062(6) -0.007(7) 0.003(6) -0.015(9)
O8? 0.025 0.09 0.11 -0.001 0.002 -0.006
O10? 0.083 0.174 0.054 -0.01 -0.005 -0.01
loop_
_geom_bond_atom_site_label_1
_geom_bond_atom_site_label_2
_geom_bond_site_symmetry_1
_geom_bond_site_symmetry_2
C1 H1 1_555 1_555
C2 C1 1_555 1_555
H2 C2 1_555 1_555
C3 C2 1_555 1_555
C4 C3 1_555 1_555
H3 C4 1_555 1_555
C5 C4 1_555 1_555
H4 C5 1_555 1_555
C6 C3 1_555 1_555
C7 C8 1_555 1_555
C8 H5 1_555 1_555
C9 C7 1_555 1_555
H6 C9 1_555 1_555
C10 C9 1_555 1_555
Cu1 N1 1_555 1_555
N1 C1 1_555 1_555
O1 Cu1 1_555 1_555
O2 P1 1_555 1_555
O3 P1 1_555 1_555
O4 P2 1_555 1_555
O5 P2 1_555 1_555
O6 Cu1 1_555 1_555
P1 C7 1_555 1_555
P2 C10 1_555 1_555
H7 C6 1_555 1_555
H8 O2 1_555 1_555
H9 O6 1_555 1_555
H10 O6 1_555 1_555
C1L H1L 1_555 1_555
C2L C1L 1_555 1_555
H2L C2L 1_555 1_555
C3L C2L 1_555 1_555
C4L C3L 1_555 1_555
H3L C4L 1_555 1_555
C5L C4L 1_555 1_555
H4L C5L 1_555 1_555
C6L C6 1_555 1_555
N1L C1L 1_555 1_555
H7L C6L 1_555 1_555
C7J C8 1_555 1_555
O1J P1J 1_555 1_555
O2J P1J 1_555 1_555
O3J P1J 1_555 1_555
P1J C7J 1_555 1_555
H8J O2J 1_555 1_555
C9J C10 1_555 1_555
H6J C9J 1_555 1_555
O5J P2 1_555 1_555
Cu1J O1J 1_555 1_555
O6J Cu1J 1_555 1_555
H9J O6J 1_555 1_555
H10J O6J 1_555 1_555
Cu1A O5 1_555 1_555
Cu1C O4 1_555 1_555
Cu1I O4 1_555 1_555
Cu1K O5J 1_555 1_555
Cu1L N1L 1_555 1_555
N1J Cu1J 1_555 1_555
O4C Cu1 1_555 1_555
O5A Cu1 1_555 1_555
O5K Cu1J 1_555 1_555
C5 N1 1_555 1_555
O1 P1 1_555 1_555
C3L C6L 1_555 1_555
C5L N1L 1_555 1_555
C7J C9J 1_555 1_555
Cu1J O4C 1_555 1_555

#END
