
#######################################################################
#
#                 Cambridge Crystallographic Data Centre
#                                CCDC 
#
#######################################################################
#
# If this CIF has been generated from an entry in the Cambridge 
# Structural Database, then it will include bibliographic, chemical, 
# crystal, experimental, refinement or atomic coordinate data resulting 
# from the CCDC's data processing and validation procedures.
#
#######################################################################

data_VEXYON
_chemical_formula_moiety         
'(C18 H42 Cu1 N6 O6 2+)n,n(C72 H48 Cl3 Cu12 N96 O12 3-),3.5n(H1 Cl1),n(H3 O1 1+),16n(C1 H4 O1),11n(H2 O1)'
_chemical_name_systematic        
'catena-(hexakis(dimethylformamide-copper(ii)) oxonium tris(\m~4~-chloro)-octakis(\m~6~-1,3,5-tris(tetrazol-5-yl)benzene)-dodeca-aqua-dodeca-copper(ii) hydrogen chloride methanol solvate undecahydrate)'
_symmetry_cell_setting           cubic
_symmetry_space_group_name_H-M   'P m -3 m'
_symmetry_Int_Tables_number      221
_space_group_name_Hall           '-P 4 2 3'
loop_
_symmetry_equiv_pos_site_id
_symmetry_equiv_pos_as_xyz
1 x,y,z
2 -y,x,z
3 x,-y,-z
4 z,x,y
5 -x,-y,z
6 y,x,-z
7 -x,z,y
8 y,-x,z
9 -x,y,-z
10 -z,-x,y
11 -y,-x,-z
12 x,-z,y
13 z,-x,-y
14 -x,-z,-y
15 -z,x,-y
16 x,z,-y
17 y,z,x
18 z,-y,x
19 -z,y,x
20 z,y,-x
21 y,-z,-x
22 -z,-y,-x
23 -y,z,-x
24 -y,-z,x
25 -x,-y,-z
26 y,-x,-z
27 -x,y,z
28 -z,-x,-y
29 x,y,-z
30 -y,-x,z
31 x,-z,-y
32 -y,x,-z
33 x,-y,z
34 z,x,-y
35 y,x,z
36 -x,z,-y
37 -z,x,y
38 x,z,y
39 z,-x,y
40 -x,-z,y
41 -y,-z,-x
42 -z,y,-x
43 z,-y,-x
44 -z,-y,x
45 -y,z,x
46 z,y,x
47 y,-z,x
48 y,z,-x
_cell_length_a                   18.595(7)
_cell_length_b                   18.595(7)
_cell_length_c                   18.595(7)
_cell_angle_alpha                90
_cell_angle_beta                 90
_cell_angle_gamma                90
_cell_volume                     6429.67
_exptl_crystal_colour            green
_exptl_crystal_description       parallelepiped
_cell_formula_units_Z            1
loop_
_atom_site_label
_atom_site_type_symbol
_atom_site_fract_x
_atom_site_fract_y
_atom_site_fract_z
_atom_site_U_iso_or_equiv
_atom_site_thermal_displace_type
Cl1 Cl 0.5000 0.0000 0.0000 0.0244 Uani
O1 O 0.5000 0.2564(4) 0.0000 0.0680 Uani
N1 N 0.42504(18) 0.13009(19) -0.0792(2) 0.0182 Uani
N2 N 0.36954(19) 0.1747(2) -0.0893(2) 0.0230 Uani
C1 C 0.3362(4) 0.1485(3) -0.1485(3) 0.0233 Uani
C2 C 0.2723(4) 0.1805(3) -0.1805(3) 0.0260 Uani
C3 C 0.2413(3) 0.2413(3) -0.1491(4) 0.0280 Uani
H1 H 0.2610 0.2610 -0.1076 0.0340 Uiso
Cu1 Cu 0.5000 0.13693(5) 0.0000 0.0129 Uani
N1DA N 0.42504(18) 0.0792(2) -0.13009(19) 0.0182 Uani
N1H N 0.57496(18) 0.13009(19) 0.0792(2) 0.0182 Uani
N1Z N 0.57496(18) 0.13009(19) -0.0792(2) 0.0182 Uani
N1BA N 0.42504(18) 0.13009(19) 0.0792(2) 0.0182 Uani
N2DA N 0.36954(19) 0.0893(2) -0.1747(2) 0.0230 Uani
C2N C 0.1805(3) 0.2723(4) -0.1805(3) 0.0260 Uani
C3T C 0.2413(3) 0.1491(4) -0.2413(3) 0.0280 Uani
Cu1B Cu 0.5000 -0.13693(5) 0.0000 0.0129 Uani
Cu1F Cu 0.5000 0.0000 0.13693(5) 0.0129 Uani
Cu1M Cu 0.5000 0.0000 -0.13693(5) 0.0129 Uani
Cu2 Cu 0.0000 0.0000 0.0000 0.0517 Uani
O2 O 0.0000 0.041(3) 0.095(3) 0.1900 Uiso
C4 C 0.0000 0.0000 0.158(3) 0.1690 Uiso
O2A O -0.041(3) 0.0000 0.095(3) 0.1900 Uiso
O2B O 0.0000 -0.041(3) -0.095(3) 0.1900 Uiso
O2C O 0.095(3) 0.0000 0.041(3) 0.1900 Uiso
O2D O 0.0000 -0.041(3) 0.095(3) 0.1900 Uiso
O2E O 0.041(3) 0.0000 -0.095(3) 0.1900 Uiso
O2F O 0.0000 0.095(3) 0.041(3) 0.1900 Uiso
O2G O 0.041(3) 0.0000 0.095(3) 0.1900 Uiso
O2H O 0.0000 0.041(3) -0.095(3) 0.1900 Uiso
O2I O -0.095(3) 0.0000 0.041(3) 0.1900 Uiso
O2J O -0.041(3) 0.0000 -0.095(3) 0.1900 Uiso
O2K O 0.0000 -0.095(3) 0.041(3) 0.1900 Uiso
O2L O 0.095(3) 0.0000 -0.041(3) 0.1900 Uiso
O2M O 0.0000 -0.095(3) -0.041(3) 0.1900 Uiso
O2N O -0.095(3) 0.0000 -0.041(3) 0.1900 Uiso
O2O O 0.0000 0.095(3) -0.041(3) 0.1900 Uiso
O2P O 0.041(3) 0.095(3) 0.0000 0.1900 Uiso
O2Q O 0.095(3) -0.041(3) 0.0000 0.1900 Uiso
O2R O -0.095(3) 0.041(3) 0.0000 0.1900 Uiso
O2S O 0.095(3) 0.041(3) 0.0000 0.1900 Uiso
O2T O 0.041(3) -0.095(3) 0.0000 0.1900 Uiso
O2U O -0.095(3) -0.041(3) 0.0000 0.1900 Uiso
O2V O -0.041(3) 0.095(3) 0.0000 0.1900 Uiso
O2W O -0.041(3) -0.095(3) 0.0000 0.1900 Uiso
N3? N 0.0242(12) 0.0000 0.2225(12) 0.0420 Uiso
C5? C 0.0000 0.0000 0.2916(19) 0.1150 Uiso
C6? C 0.085(5) 0.0000 0.210(5) 0.1600 Uiso
loop_
_atom_site_aniso_label
_atom_site_aniso_U_11
_atom_site_aniso_U_22
_atom_site_aniso_U_33
_atom_site_aniso_U_23
_atom_site_aniso_U_13
_atom_site_aniso_U_12
Cl1 0.034(3) 0.0196(15) 0.0196(15) 0.000 0.000 0.000
O1 0.104(8) 0.022(4) 0.078(7) 0.000 0.000 0.000
N1 0.0157(19) 0.019(2) 0.0199(19) -0.0027(14) -0.0035(15) 0.0043(16)
N2 0.021(2) 0.026(2) 0.022(2) -0.0062(17) -0.0045(16) 0.0082(17)
C1 0.024(4) 0.023(2) 0.023(2) -0.009(3) -0.007(2) 0.007(2)
C2 0.028(4) 0.025(2) 0.025(2) -0.008(3) -0.013(2) 0.013(2)
C3 0.030(3) 0.030(3) 0.024(4) -0.014(2) -0.014(2) 0.009(3)
Cu1 0.0095(6) 0.0173(7) 0.0120(7) 0.000 0.000 0.000
N1DA 0.0157 0.0199 0.019 -0.0027 -0.0043 0.0035
N1H 0.0157 0.019 0.0199 0.0027 -0.0035 -0.0043
N1Z 0.0157 0.019 0.0199 -0.0027 0.0035 -0.0043
N1BA 0.0157 0.019 0.0199 0.0027 0.0035 0.0043
N2DA 0.021 0.022 0.026 -0.0062 -0.0082 0.0045
C2N 0.025 0.028 0.025 -0.013 -0.008 0.013
C3T 0.03 0.024 0.03 -0.014 -0.009 0.014
Cu1B 0.0095 0.0173 0.012 0 0 0
Cu1F 0.0095 0.012 0.0173 0 0 0
Cu1M 0.0095 0.012 0.0173 0 0 0
Cu2 0.0517(15) 0.0517(15) 0.0517(15) 0.000 0.000 0.000
loop_
_geom_bond_atom_site_label_1
_geom_bond_atom_site_label_2
_geom_bond_site_symmetry_1
_geom_bond_site_symmetry_2
Cl1 Cu1 1_555 1_555
O1 Cu1 1_555 1_555
N1 N2 1_555 1_555
N2 C1 1_555 1_555
C1 C2 1_555 1_555
C2 C3 1_555 1_555
C3 H1 1_555 1_555
Cu1 N1 1_555 1_555
Cu2 O2 1_555 1_555
O2 C4 1_555 1_555
C4 O2A 1_555 1_555
N1DA N1 1_555 1_555
N1H Cu1 1_555 1_555
N1Z Cu1 1_555 1_555
N1BA Cu1 1_555 1_555
N2DA C1 1_555 1_555
C2N C3 1_555 1_555
C3T C2 1_555 1_555
Cu1B Cl1 1_555 1_555
Cu1F Cl1 1_555 1_555
Cu1M Cl1 1_555 1_555
O2A Cu2 1_555 1_555
O2B Cu2 1_555 1_555
O2C Cu2 1_555 1_555
O2D Cu2 1_555 1_555
O2E Cu2 1_555 1_555
O2F Cu2 1_555 1_555
O2G Cu2 1_555 1_555
O2H Cu2 1_555 1_555
O2I Cu2 1_555 1_555
O2J Cu2 1_555 1_555
O2K Cu2 1_555 1_555
O2L Cu2 1_555 1_555
O2M Cu2 1_555 1_555
O2N Cu2 1_555 1_555
O2O Cu2 1_555 1_555
O2P Cu2 1_555 1_555
O2Q Cu2 1_555 1_555
O2R Cu2 1_555 1_555
O2S Cu2 1_555 1_555
O2T Cu2 1_555 1_555
O2U Cu2 1_555 1_555
O2V Cu2 1_555 1_555
O2W Cu2 1_555 1_555
O2 O2A 1_555 1_555
O2 O2D 1_555 1_555
O2 O2F 1_555 1_555
O2 O2G 1_555 1_555
C4 O2D 1_555 1_555
C4 O2G 1_555 1_555
N1DA N2DA 1_555 1_555
N1DA Cu1M 1_555 1_555
O2A O2D 1_555 1_555
O2A O2G 1_555 1_555
O2A O2I 1_555 1_555
O2B O2E 1_555 1_555
O2B O2H 1_555 1_555
O2B O2J 1_555 1_555
O2B O2M 1_555 1_555
O2C O2G 1_555 1_555
O2C O2L 1_555 1_555
O2C O2Q 1_555 1_555
O2C O2S 1_555 1_555
O2D O2G 1_555 1_555
O2D O2K 1_555 1_555
O2E O2H 1_555 1_555
O2E O2J 1_555 1_555
O2E O2L 1_555 1_555
O2F O2O 1_555 1_555
O2F O2P 1_555 1_555
O2F O2V 1_555 1_555
O2H O2J 1_555 1_555
O2H O2O 1_555 1_555
O2I O2N 1_555 1_555
O2I O2R 1_555 1_555
O2I O2U 1_555 1_555
O2J O2N 1_555 1_555
O2K O2M 1_555 1_555
O2K O2T 1_555 1_555
O2K O2W 1_555 1_555
O2L O2Q 1_555 1_555
O2L O2S 1_555 1_555
O2M O2T 1_555 1_555
O2M O2W 1_555 1_555
O2N O2R 1_555 1_555
O2N O2U 1_555 1_555
O2O O2P 1_555 1_555
O2O O2V 1_555 1_555
O2P O2S 1_555 1_555
O2P O2V 1_555 1_555
O2Q O2S 1_555 1_555
O2Q O2T 1_555 1_555
O2R O2U 1_555 1_555
O2R O2V 1_555 1_555
O2T O2W 1_555 1_555
O2U O2W 1_555 1_555

#END
