
#######################################################################
#
#                 Cambridge Crystallographic Data Centre
#                                CCDC 
#
#######################################################################
#
# If this CIF has been generated from an entry in the Cambridge 
# Structural Database, then it will include bibliographic, chemical, 
# crystal, experimental, refinement or atomic coordinate data resulting 
# from the CCDC's data processing and validation procedures.
#
#######################################################################

data_BUBJUF
_chemical_formula_moiety         '(C6 H4 N10 O8 Zn2)n'
_chemical_name_systematic        
'catena-[bis(\m-oxalato)-bis(\m-5-amino-tetrazolato)-di-zinc unknown solvate]'
_symmetry_cell_setting           orthorhombic
_symmetry_space_group_name_H-M   'P n m a'
_symmetry_Int_Tables_number      62
_space_group_name_Hall           '-P 2ac 2n'
loop_
_symmetry_equiv_pos_site_id
_symmetry_equiv_pos_as_xyz
1 x,y,z
2 1/2-x,-y,1/2+z
3 1/2+x,1/2-y,1/2-z
4 -x,1/2+y,-z
5 -x,-y,-z
6 1/2+x,y,1/2-z
7 1/2-x,1/2+y,1/2+z
8 x,1/2-y,z
_cell_length_a                   17.621(3)
_cell_length_b                   15.958(3)
_cell_length_c                   8.7728(18)
_cell_angle_alpha                90
_cell_angle_beta                 90
_cell_angle_gamma                90
_cell_volume                     2466.88
_exptl_crystal_colour            colorless
_exptl_crystal_description       block
_cell_formula_units_Z            4
loop_
_atom_site_label
_atom_site_type_symbol
_atom_site_fract_x
_atom_site_fract_y
_atom_site_fract_z
_atom_site_U_iso_or_equiv
_atom_site_thermal_displace_type
C1 C 0.1675(4) 0.2500 1.0174(7) 0.0320 Uani
C2 C 0.1147(4) 0.2500 0.8779(7) 0.0310 Uani
C3 C -0.0087(2) 0.0284(3) 1.0672(5) 0.0310 Uani
C4 C 0.2383(3) -0.0081(3) 0.6961(6) 0.0413 Uani
N1 N 0.2253(2) 0.0547(2) 0.7927(5) 0.0367 Uani
N2 N 0.2859(3) 0.1038(3) 0.7760(7) 0.0823 Uani
N3 N 0.3321(3) 0.0716(3) 0.6781(7) 0.0720 Uani
N4 N 0.3035(2) 0.0005(2) 0.6237(4) 0.0377 Uani
N5 N 0.1892(3) -0.0715(4) 0.6709(9) 0.1233 Uani
H1 H 0.1997 -0.1094 0.6044 0.1480 Uiso
H2 H 0.1474 -0.0741 0.7213 0.1480 Uiso
O1 O 0.18731(19) 0.18010(19) 1.0701(4) 0.0384 Uani
O2 O 0.09449(18) 0.1802(2) 0.8278(4) 0.0405 Uani
O3 O 0.04028(18) 0.0820(2) 1.1025(4) 0.0405 Uani
O4 O -0.07020(17) 0.0166(2) 1.1355(4) 0.0398 Uani
Zn1 Zn 0.14204(3) 0.07494(3) 0.96020(6) 0.0330 Uani
O1G O 0.18731(19) 0.31990(19) 1.0701(4) 0.0384 Uani
O2G O 0.09449(18) 0.3198(2) 0.8278(4) 0.0405 Uani
C3D C 0.0087(2) -0.0284(3) 0.9328(5) 0.0310 Uani
O3D O -0.04028(18) -0.0820(2) 0.8975(4) 0.0405 Uani
O4D O 0.07020(17) -0.0166(2) 0.8645(4) 0.0398 Uani
C4D C -0.2383(3) 0.0081(3) 1.3039(6) 0.0413 Uani
N1D N -0.2253(2) -0.0547(2) 1.2073(5) 0.0367 Uani
N2D N -0.2859(3) -0.1038(3) 1.2240(7) 0.0823 Uani
N3D N -0.3321(3) -0.0716(3) 1.3219(7) 0.0720 Uani
N4D N -0.3035(2) -0.0005(2) 1.3763(4) 0.0377 Uani
N5D N -0.1892(3) 0.0715(4) 1.3291(9) 0.1233 Uani
H1D H -0.1997 0.1094 1.3956 0.1480 Uiso
H2D H -0.1474 0.0741 1.2787 0.1480 Uiso
Zn1D Zn -0.14204(3) -0.07494(3) 1.03980(6) 0.0330 Uani
N4A N 0.1965(2) -0.0005(2) 1.1237(4) 0.0377 Uani
N4E N -0.1965(2) 0.0005(2) 0.8763(4) 0.0377 Uani
O1D O -0.18731(19) -0.18010(19) 0.9299(4) 0.0384 Uani
O2D O -0.09449(18) -0.1802(2) 1.1722(4) 0.0405 Uani
Zn1A Zn 0.35796(3) -0.07494(3) 0.46020(6) 0.0330 Uani
Zn1E Zn -0.35796(3) 0.07494(3) 1.53980(6) 0.0330 Uani
Zn1G Zn 0.14204(3) 0.42506(3) 0.96020(6) 0.0330 Uani
loop_
_atom_site_aniso_label
_atom_site_aniso_U_11
_atom_site_aniso_U_22
_atom_site_aniso_U_33
_atom_site_aniso_U_23
_atom_site_aniso_U_13
_atom_site_aniso_U_12
C1 0.027(3) 0.033(4) 0.036(3) 0.000 0.001(3) 0.000
C2 0.032(3) 0.025(3) 0.036(3) 0.000 0.007(3) 0.000
C3 0.025(2) 0.036(2) 0.032(2) 0.0055(19) -0.0027(18) 0.0021(19)
C4 0.032(2) 0.035(3) 0.057(3) -0.007(2) 0.003(2) -0.002(2)
N1 0.030(2) 0.036(2) 0.044(2) -0.0040(18) 0.0046(18) -0.0004(16)
N2 0.073(4) 0.069(3) 0.105(4) -0.049(3) 0.056(3) -0.031(3)
N3 0.065(3) 0.054(3) 0.097(4) -0.026(3) 0.038(3) -0.022(3)
N4 0.035(2) 0.038(2) 0.040(2) -0.0038(19) 0.0077(18) -0.0034(17)
N5 0.075(4) 0.110(5) 0.185(8) -0.098(5) 0.078(5) -0.048(4)
O1 0.0464(19) 0.0268(17) 0.0420(18) 0.0042(14) -0.0117(15) 0.0023(14)
O2 0.0410(18) 0.0375(18) 0.0431(19) -0.0067(16) -0.0109(16) 0.0005(15)
O3 0.0359(17) 0.0409(19) 0.0446(18) -0.0120(16) 0.0007(15) -0.0085(15)
O4 0.0328(17) 0.0444(19) 0.0423(19) -0.0096(16) 0.0057(15) -0.0046(15)
Zn1 0.0298(3) 0.0317(3) 0.0375(3) -0.0047(2) -0.0028(2) -0.0007(2)
O1G 0.0464 0.0268 0.042 -0.0042 -0.0117 -0.0023
O2G 0.041 0.0375 0.0431 0.0067 -0.0109 -0.0005
C3D 0.025 0.036 0.032 0.0055 -0.0027 0.0021
O3D 0.0359 0.0409 0.0446 -0.012 0.0007 -0.0085
O4D 0.0328 0.0444 0.0423 -0.0096 0.0057 -0.0046
C4D 0.032 0.035 0.057 -0.007 0.003 -0.002
N1D 0.03 0.036 0.044 -0.004 0.0046 -0.0004
N2D 0.073 0.069 0.105 -0.049 0.056 -0.031
N3D 0.065 0.054 0.097 -0.026 0.038 -0.022
N4D 0.035 0.038 0.04 -0.0038 0.0077 -0.0034
N5D 0.075 0.11 0.185 -0.098 0.078 -0.048
Zn1D 0.0298 0.0317 0.0375 -0.0047 -0.0028 -0.0007
N4A 0.035 0.038 0.04 0.0038 -0.0077 -0.0034
N4E 0.035 0.038 0.04 0.0038 -0.0077 -0.0034
O1D 0.0464 0.0268 0.042 0.0042 -0.0117 0.0023
O2D 0.041 0.0375 0.0431 -0.0067 -0.0109 0.0005
Zn1A 0.0298 0.0317 0.0375 0.0047 0.0028 -0.0007
Zn1E 0.0298 0.0317 0.0375 0.0047 0.0028 -0.0007
Zn1G 0.0298 0.0317 0.0375 0.0047 -0.0028 0.0007
loop_
_geom_bond_atom_site_label_1
_geom_bond_atom_site_label_2
_geom_bond_site_symmetry_1
_geom_bond_site_symmetry_2
C1 C2 1_555 1_555
C2 O2 1_555 1_555
C3 O3 1_555 1_555
C4 N1 1_555 1_555
N1 N2 1_555 1_555
N2 N3 1_555 1_555
N3 N4 1_555 1_555
N4 C4 1_555 1_555
N5 C4 1_555 1_555
H1 N5 1_555 1_555
H2 N5 1_555 1_555
O1 C1 1_555 1_555
O2 Zn1 1_555 1_555
O3 Zn1 1_555 1_555
O4 C3 1_555 1_555
Zn1 N1 1_555 1_555
O1G C1 1_555 1_555
O2G C2 1_555 1_555
C3D C3 1_555 1_555
O3D C3D 1_555 1_555
O4D Zn1 1_555 1_555
C4D N1D 1_555 1_555
N1D N2D 1_555 1_555
N2D N3D 1_555 1_555
N3D N4D 1_555 1_555
N4D C4D 1_555 1_555
N5D C4D 1_555 1_555
H1D N5D 1_555 1_555
H2D N5D 1_555 1_555
Zn1D O4 1_555 1_555
N4A Zn1 1_555 1_555
N4E Zn1D 1_555 1_555
O1D Zn1D 1_555 1_555
O2D Zn1D 1_555 1_555
Zn1A N4 1_555 1_555
Zn1E N4D 1_555 1_555
Zn1G O1G 1_555 1_555
O1 Zn1 1_555 1_555
O2G Zn1G 1_555 1_555
C3D O4D 1_555 1_555
O3D Zn1D 1_555 1_555
N1D Zn1D 1_555 1_555

#END
