
#######################################################################
#
#                 Cambridge Crystallographic Data Centre
#                                CCDC 
#
#######################################################################
#
# If this CIF has been generated from an entry in the Cambridge 
# Structural Database, then it will include bibliographic, chemical, 
# crystal, experimental, refinement or atomic coordinate data resulting 
# from the CCDC's data processing and validation procedures.
#
#######################################################################

data_MOKVOZ
_chemical_formula_moiety         '(C30 H18 Cu2 O10)n'
_chemical_name_systematic        
"catena-[(\m~8~-5,5'-anthracene-2,6-diyldibenzene-1,3-dicarboxylato)-diaqua-di-copper unknown solvate]"
_symmetry_cell_setting           rhombohedral
_symmetry_space_group_name_H-M   'R -3 m'
_symmetry_Int_Tables_number      166
_space_group_name_Hall           '-R 3 2"'
loop_
_symmetry_equiv_pos_site_id
_symmetry_equiv_pos_as_xyz
1 x,y,z
2 -y,x-y,z
3 -x+y,-x,z
4 y,x,-z
5 x-y,-y,-z
6 -x,-x+y,-z
7 2/3+x,1/3+y,1/3+z
8 2/3-y,1/3+x-y,1/3+z
9 2/3-x+y,1/3-x,1/3+z
10 2/3+y,1/3+x,1/3-z
11 2/3+x-y,1/3-y,1/3-z
12 2/3-x,1/3-x+y,1/3-z
13 1/3+x,2/3+y,2/3+z
14 1/3-y,2/3+x-y,2/3+z
15 1/3-x+y,2/3-x,2/3+z
16 1/3+y,2/3+x,2/3-z
17 1/3+x-y,2/3-y,2/3-z
18 1/3-x,2/3-x+y,2/3-z
19 -x,-y,-z
20 y,-x+y,-z
21 x-y,x,-z
22 -y,-x,z
23 -x+y,y,z
24 x,x-y,z
25 1/3-x,2/3-y,2/3-z
26 1/3+y,2/3-x+y,2/3-z
27 1/3+x-y,2/3+x,2/3-z
28 1/3-y,2/3-x,2/3+z
29 1/3-x+y,2/3+y,2/3+z
30 1/3+x,2/3+x-y,2/3+z
31 2/3-x,1/3-y,1/3-z
32 2/3+y,1/3-x+y,1/3-z
33 2/3+x-y,1/3+x,1/3-z
34 2/3-y,1/3-x,1/3+z
35 2/3-x+y,1/3+y,1/3+z
36 2/3+x,1/3+x-y,1/3+z
_cell_length_a                   18.3855(7)
_cell_length_b                   18.3855(7)
_cell_length_c                   52.2463(14)
_cell_angle_alpha                90
_cell_angle_beta                 90
_cell_angle_gamma                120
_cell_volume                     15294.6
_exptl_crystal_colour            green
_exptl_crystal_description       block
_cell_formula_units_Z            9
loop_
_atom_site_label
_atom_site_type_symbol
_atom_site_fract_x
_atom_site_fract_y
_atom_site_fract_z
_atom_site_U_iso_or_equiv
_atom_site_thermal_displace_type
Cu1 Cu 0.71618(10) 0.85809(5) 0.35385(2) 0.1042 Uani
O1 O 0.7741(3) 0.9604(3) 0.33277(9) 0.0922 Uani
O2 O 0.7868(8) 0.8934(4) 0.3892(2) 0.1599 Uani
O3 O 0.7025(6) 0.9181(10) 0.30111(12) 0.1673 Uani
C1 C 0.7556(5) 0.9612(7) 0.31319(15) 0.1152 Uani
C2 C 0.8114(5) 1.0452(5) 0.29941(11) 0.0893 Uani
C3 C 0.8901(3) 1.1099(3) 0.31220(14) 0.0826 Uani
C4 C 0.8000(6) 1.0680(6) 0.27448(12) 0.1018 Uani
H1 H 0.8995 1.1005 0.3291 0.0990 Uiso
H2 H 0.7505 1.0315 0.2660 0.1220 Uiso
C5 C 0.8581(5) 1.1419(5) 0.26150(18) 0.1154 Uani
C6 C 0.8418(5) 1.1582(5) 0.2342(2) 0.1078 Uani
C7 C 0.7599(19) 1.1271(14) 0.2268(4) 0.1646 Uani
C8 C 0.9150(10) 1.1967(11) 0.2184(2) 0.0956 Uani
C9 C 0.7609(17) 1.1292(18) 0.1975(5) 0.1414 Uani
C10 C 0.9122(12) 1.1963(19) 0.1904(3) 0.1518 Uani
C11 C 0.8007(11) 1.1993(11) 0.1888(6) 0.1202 Uani
C12 C 0.8390(8) 1.1610(8) 0.1809(3) 0.1464 Uani
C13 C 0.8810(11) 1.1190(11) 0.1755(5) 0.1153 Uani
O1I O 0.6271(3) 1.1074(3) 0.00056(9) 0.0922 Uani
O3I O 0.5848(10) 1.0358(6) 0.03222(12) 0.1673 Uani
C1I C 0.6279(7) 1.0889(5) 0.02014(15) 0.1152 Uani
C2I C 0.7119(5) 1.1447(5) 0.03392(11) 0.0893 Uani
C3I C 0.7766(3) 1.2234(3) 0.02113(14) 0.0826 Uani
C4I C 0.7347(6) 1.1333(6) 0.05885(12) 0.1018 Uani
H1I H 0.7672 1.2328 0.0042 0.0990 Uiso
H2I H 0.6982 1.0838 0.0673 0.1220 Uiso
C5I C 0.8086(5) 1.1914(5) 0.07183(18) 0.1154 Uani
C6I C 0.8249(5) 1.1751(5) 0.0991(2) 0.1078 Uani
C7I C 0.7938(14) 1.0932(19) 0.1065(4) 0.1646 Uani
C8I C 0.8634(11) 1.2483(10) 0.1149(2) 0.0956 Uani
C9I C 0.7959(18) 1.0942(17) 0.1358(5) 0.1414 Uani
C10I C 0.8630(19) 1.2455(12) 0.1429(3) 0.1518 Uani
C11I C 0.8660(11) 1.1340(11) 0.1445(6) 0.1202 Uani
C12I C 0.8277(8) 1.1723(8) 0.1524(3) 0.1464 Uani
C13I C 0.7857(11) 1.2143(11) 0.1578(5) 0.1153 Uani
O1U O 1.0396(3) 1.2259(3) 0.33277(9) 0.0922 Uani
O3U O 1.0819(10) 1.2975(6) 0.30111(12) 0.1673 Uani
C1U C 1.0388(7) 1.2444(5) 0.31319(15) 0.1152 Uani
C2U C 0.9548(5) 1.1886(5) 0.29941(11) 0.0893 Uani
C4U C 0.9320(6) 1.2000(6) 0.27448(12) 0.1018 Uani
H2U H 0.9685 1.2495 0.2660 0.1220 Uiso
C7U C 0.8729(14) 1.2401(19) 0.2268(4) 0.1646 Uani
C8U C 0.8033(11) 1.0850(10) 0.2184(2) 0.0956 Uani
C9U C 0.8708(18) 1.2391(17) 0.1975(5) 0.1414 Uani
C10U C 0.8037(19) 1.0878(12) 0.1904(3) 0.1518 Uani
O1DA O 0.8926(3) 1.3729(3) 0.00056(9) 0.0922 Uani
O3DA O 0.9642(6) 1.4152(10) 0.03222(12) 0.1673 Uani
C1DA C 0.9111(5) 1.3721(7) 0.02014(15) 0.1152 Uani
C2DA C 0.8553(5) 1.2881(5) 0.03392(11) 0.0893 Uani
C4DA C 0.8667(6) 1.2653(6) 0.05885(12) 0.1018 Uani
H2DA H 0.9162 1.3018 0.0673 0.1220 Uiso
C7DA C 0.9068(19) 1.2062(14) 0.1065(4) 0.1646 Uani
C8DA C 0.7517(10) 1.1366(11) 0.1149(2) 0.0956 Uani
C9DA C 0.9058(17) 1.2041(18) 0.1358(5) 0.1414 Uani
C10DA C 0.7545(12) 1.1370(19) 0.1429(3) 0.1518 Uani
Cu1Q Cu 0.61715(10) 0.80858(11) 0.31282(2) 0.1042 Uani
O2Q O 0.5465(8) 0.7733(9) 0.2775(2) 0.1599 Uani
Cu1B Cu 1.14191(11) 1.28382(10) 0.35385(2) 0.1042 Uani
Cu1I Cu 0.52476(5) 1.04951(10) -0.02052(2) 0.1042 Uani
Cu1K Cu 0.95049(10) 1.47524(11) -0.02052(2) 0.1042 Uani
Cu1L Cu 1.04951(10) 1.52476(5) 0.02052(2) 0.1042 Uani
Cu1N Cu 0.47524(11) 0.95049(10) 0.02052(2) 0.1042 Uani
Cu1O Cu 1.19142(5) 1.38285(10) 0.31282(2) 0.1042 Uani
O1Q O 0.5592(3) 0.8530(4) 0.33390(9) 0.0922 Uani
O1W O 0.7741(3) 0.8137(4) 0.33277(9) 0.0922 Uani
O1X O 0.5592(3) 0.7063(3) 0.33390(9) 0.0922 Uani
O3Q O 0.6308(6) 0.8823(12) 0.36556(12) 0.1673 Uani
O3W O 0.7025(6) 0.7844(12) 0.30111(12) 0.1673 Uani
O3X O 0.6308(6) 0.7486(10) 0.36556(12) 0.1673 Uani
loop_
_atom_site_aniso_label
_atom_site_aniso_U_11
_atom_site_aniso_U_22
_atom_site_aniso_U_33
_atom_site_aniso_U_23
_atom_site_aniso_U_13
_atom_site_aniso_U_12
Cu1 0.0813(11) 0.1559(15) 0.0504(9) -0.0020(3) -0.0041(7) 0.0406(6)
O1 0.058(3) 0.121(4) 0.070(3) -0.006(3) -0.002(2) 0.024(3)
O2 0.149(9) 0.141(6) 0.193(10) -0.052(4) -0.104(8) 0.075(5)
O3 0.221 0.156 0.074 0.016 0.102 0.056
C1 0.065(4) 0.202(8) 0.047(4) 0.016(5) -0.022(3) 0.043(5)
C2 0.094(5) 0.111(6) 0.048(3) -0.010(4) -0.011(3) 0.040(5)
C3 0.119(6) 0.119(6) 0.033(4) 0.002(2) -0.002(2) 0.077(7)
C4 0.106(6) 0.106(6) 0.056(4) 0.012(4) -0.001(4) 0.025(5)
C5 0.116(6) 0.116(6) 0.053(5) 0.003(4) -0.003(4) 0.012(8)
C6 0.108(6) 0.108(6) 0.086(7) 0.013(4) -0.013(4) 0.038(8)
C7 0.27(3) 0.136(16) 0.111(13) -0.041(12) -0.139(17) 0.119(19)
C8 0.071(7) 0.114(8) 0.056(6) 0.030(6) 0.003(5) 0.012(6)
C9 0.140(11) 0.145(11) 0.131(10) 0.006(8) -0.017(8) 0.065(8)
C10 0.106(13) 0.28(3) 0.082(10) -0.074(15) -0.076(10) 0.106(17)
C11 0.120(9) 0.120(9) 0.110(11) 0.005(6) -0.005(6) 0.052(9)
C12 0.146(7) 0.146(7) 0.130(9) 0.007(5) -0.007(5) 0.060(7)
C13 0.119(8) 0.119(8) 0.102(11) 0.004(6) -0.004(6) 0.055(8)
O1I 0.121 0.058 0.07 0.002 0.006 0.024
O3I 0.156 0.221 0.074 -0.102 -0.016 0.056
C1I 0.202 0.065 0.047 0.022 -0.016 0.043
C2I 0.111 0.094 0.048 0.011 0.01 0.04
C3I 0.119 0.119 0.033 0.002 -0.002 0.077
C4I 0.106 0.106 0.056 0.001 -0.012 0.025
C5I 0.116 0.116 0.053 0.003 -0.003 0.012
C6I 0.108 0.108 0.086 0.013 -0.013 0.038
C7I 0.136 0.27 0.111 0.139 0.041 0.119
C8I 0.114 0.071 0.056 -0.003 -0.03 0.012
C9I 0.145 0.14 0.131 0.017 -0.006 0.065
C10I 0.28 0.106 0.082 0.076 0.074 0.106
C11I 0.12 0.12 0.11 0.005 -0.005 0.052
C12I 0.146 0.146 0.13 0.007 -0.007 0.06
C13I 0.119 0.119 0.102 0.004 -0.004 0.055
O1U 0.121 0.058 0.07 0.002 0.006 0.024
O3U 0.156 0.221 0.074 -0.102 -0.016 0.056
C1U 0.202 0.065 0.047 0.022 -0.016 0.043
C2U 0.111 0.094 0.048 0.011 0.01 0.04
C4U 0.106 0.106 0.056 0.001 -0.012 0.025
C7U 0.136 0.27 0.111 0.139 0.041 0.119
C8U 0.114 0.071 0.056 -0.003 -0.03 0.012
C9U 0.145 0.14 0.131 0.017 -0.006 0.065
C10U 0.28 0.106 0.082 0.076 0.074 0.106
O1DA 0.058 0.121 0.07 -0.006 -0.002 0.024
O3DA 0.221 0.156 0.074 0.016 0.102 0.056
C1DA 0.065 0.202 0.047 0.016 -0.022 0.043
C2DA 0.094 0.111 0.048 -0.01 -0.011 0.04
C4DA 0.106 0.106 0.056 0.012 -0.001 0.025
C7DA 0.27 0.136 0.111 -0.041 -0.139 0.119
C8DA 0.071 0.114 0.056 0.03 0.003 0.012
C9DA 0.14 0.145 0.131 0.006 -0.017 0.065
C10DA 0.106 0.28 0.082 -0.074 -0.076 0.106
Cu1Q 0.0813 0.156 0.0504 -0.0021 -0.0041 0.0407
O2Q 0.149 0.14 0.193 -0.052 -0.104 0.074
Cu1B 0.156 0.0813 0.0504 0.0041 0.0021 0.0407
Cu1I 0.1559 0.0813 0.0504 0.0041 0.002 0.0406
Cu1K 0.0813 0.156 0.0504 -0.0021 -0.0041 0.0407
Cu1L 0.0813 0.1559 0.0504 -0.002 -0.0041 0.0406
Cu1N 0.156 0.0813 0.0504 0.0041 0.0021 0.0407
Cu1O 0.1559 0.0813 0.0504 0.0041 0.002 0.0406
O1Q 0.058 0.131 0.07 0.004 -0.002 0.034
O1W 0.058 0.131 0.07 0.004 -0.002 0.034
O1X 0.058 0.121 0.07 -0.006 -0.002 0.024
O3Q 0.221 0.265 0.074 0.086 0.102 0.165
O3W 0.221 0.265 0.074 0.086 0.102 0.165
O3X 0.221 0.156 0.074 0.016 0.102 0.056
loop_
_geom_bond_atom_site_label_1
_geom_bond_atom_site_label_2
_geom_bond_site_symmetry_1
_geom_bond_site_symmetry_2
Cu1 O1 1_555 1_555
O1 C1 1_555 1_555
O2 Cu1 1_555 1_555
O3 C1 1_555 1_555
C1 C2 1_555 1_555
C2 C3 1_555 1_555
C3 H1 1_555 1_555
C4 C2 1_555 1_555
H2 C4 1_555 1_555
C5 C4 1_555 1_555
C6 C5 1_555 1_555
C7 C6 1_555 1_555
C8 C6 1_555 1_555
C9 C7 1_555 1_555
C10 C8 1_555 1_555
C11 C9 1_555 1_555
C12 C9 1_555 1_555
C13 C10 1_555 1_555
O1I C1I 1_555 1_555
O3I C1I 1_555 1_555
C1I C2I 1_555 1_555
C2I C3I 1_555 1_555
C3I H1I 1_555 1_555
C4I C2I 1_555 1_555
H2I C4I 1_555 1_555
C5I C4I 1_555 1_555
C6I C5I 1_555 1_555
C7I C6I 1_555 1_555
C8I C6I 1_555 1_555
C9I C7I 1_555 1_555
C10I C8I 1_555 1_555
C11I C13 1_555 1_555
C12I C12 1_555 1_555
C13I C11 1_555 1_555
O1U C1U 1_555 1_555
O3U C1U 1_555 1_555
C1U C2U 1_555 1_555
C2U C3 1_555 1_555
C4U C5 1_555 1_555
H2U C4U 1_555 1_555
C7U C6 1_555 1_555
C8U C6 1_555 1_555
C9U C8 1_555 1_555
C10U C9 1_555 1_555
O1DA C1DA 1_555 1_555
O3DA C1DA 1_555 1_555
C1DA C2DA 1_555 1_555
C2DA C3I 1_555 1_555
C4DA C5I 1_555 1_555
H2DA C4DA 1_555 1_555
C7DA C6I 1_555 1_555
C8DA C6I 1_555 1_555
C9DA C8I 1_555 1_555
C10DA C9I 1_555 1_555
Cu1Q Cu1 1_555 1_555
O2Q Cu1Q 1_555 1_555
Cu1B O1U 1_555 1_555
Cu1I O1I 1_555 1_555
Cu1K O1DA 1_555 1_555
Cu1L O3DA 1_555 1_555
Cu1N O3I 1_555 1_555
Cu1O O3U 1_555 1_555
O1Q Cu1Q 1_555 1_555
O1W Cu1 1_555 1_555
O1X Cu1Q 1_555 1_555
O3Q Cu1 1_555 1_555
O3W Cu1Q 1_555 1_555
O3X Cu1 1_555 1_555
O3 Cu1Q 1_555 1_555
C7 C8U 1_555 1_555
C8 C7U 1_555 1_555
C9 C8U 1_555 1_555
C10 C12 1_555 1_555
C10 C9U 1_555 1_555
C11 C12 1_555 1_555
C11 C9U 1_555 1_555
C12 C13 1_555 1_555
C12 C9U 1_555 1_555
C12 C10U 1_555 1_555
C13 C10U 1_555 1_555
C7I C8DA 1_555 1_555
C8I C7DA 1_555 1_555
C9I C11I 1_555 1_555
C9I C12I 1_555 1_555
C9I C8DA 1_555 1_555
C10I C12I 1_555 1_555
C10I C13I 1_555 1_555
C10I C9DA 1_555 1_555
C11I C12I 1_555 1_555
C11I C9DA 1_555 1_555
C12I C13I 1_555 1_555
C12I C9DA 1_555 1_555
C12I C10DA 1_555 1_555
C13I C10DA 1_555 1_555
C2U C4U 1_555 1_555
C7U C9U 1_555 1_555
C8U C10U 1_555 1_555
C2DA C4DA 1_555 1_555
C7DA C9DA 1_555 1_555
C8DA C10DA 1_555 1_555
Cu1B Cu1O 1_555 1_555
Cu1I Cu1N 1_555 1_555
Cu1K Cu1L 1_555 1_555

#END
