
#######################################################################
#
#                 Cambridge Crystallographic Data Centre
#                                CCDC 
#
#######################################################################
#
# If this CIF has been generated from an entry in the Cambridge 
# Structural Database, then it will include bibliographic, chemical, 
# crystal, experimental, refinement or atomic coordinate data resulting 
# from the CCDC's data processing and validation procedures.
#
#######################################################################

data_TIJMOQ
_chemical_formula_moiety         
'(C90 H60 Fe3 N18 S6)n,15n(C1 H2 Cl2),60n(C2 H6 O1),10n(H2 O1)'
_chemical_name_systematic        
"catena-[tetrakis(\m~3~-4,4',4''-Benzene-1,3,5-triyltripyridine)-hexakis(isothiocyanato)-tri-iron(ii) dichloromethane ethanol solvate decahydrate]"
_symmetry_cell_setting           cubic
_symmetry_space_group_name_H-M   'F m -3 m'
_symmetry_Int_Tables_number      225
_space_group_name_Hall           '-F 4 2 3'
loop_
_symmetry_equiv_pos_site_id
_symmetry_equiv_pos_as_xyz
1 x,y,z
2 -x,-y,z
3 -x,y,-z
4 x,-y,-z
5 z,x,y
6 z,-x,-y
7 -z,-x,y
8 -z,x,-y
9 y,z,x
10 -y,z,-x
11 y,-z,-x
12 -y,-z,x
13 y,x,-z
14 -y,-x,-z
15 y,-x,z
16 -y,x,z
17 x,z,-y
18 -x,z,y
19 -x,-z,-y
20 x,-z,y
21 z,y,-x
22 z,-y,x
23 -z,y,x
24 -z,-y,-x
25 x,1/2+y,1/2+z
26 -x,1/2-y,1/2+z
27 -x,1/2+y,1/2-z
28 x,1/2-y,1/2-z
29 z,1/2+x,1/2+y
30 z,1/2-x,1/2-y
31 -z,1/2-x,1/2+y
32 -z,1/2+x,1/2-y
33 y,1/2+z,1/2+x
34 -y,1/2+z,1/2-x
35 y,1/2-z,1/2-x
36 -y,1/2-z,1/2+x
37 y,1/2+x,1/2-z
38 -y,1/2-x,1/2-z
39 y,1/2-x,1/2+z
40 -y,1/2+x,1/2+z
41 x,1/2+z,1/2-y
42 -x,1/2+z,1/2+y
43 -x,1/2-z,1/2-y
44 x,1/2-z,1/2+y
45 z,1/2+y,1/2-x
46 z,1/2-y,1/2+x
47 -z,1/2+y,1/2+x
48 -z,1/2-y,1/2-x
49 1/2+x,y,1/2+z
50 1/2-x,-y,1/2+z
51 1/2-x,y,1/2-z
52 1/2+x,-y,1/2-z
53 1/2+z,x,1/2+y
54 1/2+z,-x,1/2-y
55 1/2-z,-x,1/2+y
56 1/2-z,x,1/2-y
57 1/2+y,z,1/2+x
58 1/2-y,z,1/2-x
59 1/2+y,-z,1/2-x
60 1/2-y,-z,1/2+x
61 1/2+y,x,1/2-z
62 1/2-y,-x,1/2-z
63 1/2+y,-x,1/2+z
64 1/2-y,x,1/2+z
65 1/2+x,z,1/2-y
66 1/2-x,z,1/2+y
67 1/2-x,-z,1/2-y
68 1/2+x,-z,1/2+y
69 1/2+z,y,1/2-x
70 1/2+z,-y,1/2+x
71 1/2-z,y,1/2+x
72 1/2-z,-y,1/2-x
73 1/2+x,1/2+y,z
74 1/2-x,1/2-y,z
75 1/2-x,1/2+y,-z
76 1/2+x,1/2-y,-z
77 1/2+z,1/2+x,y
78 1/2+z,1/2-x,-y
79 1/2-z,1/2-x,y
80 1/2-z,1/2+x,-y
81 1/2+y,1/2+z,x
82 1/2-y,1/2+z,-x
83 1/2+y,1/2-z,-x
84 1/2-y,1/2-z,x
85 1/2+y,1/2+x,-z
86 1/2-y,1/2-x,-z
87 1/2+y,1/2-x,z
88 1/2-y,1/2+x,z
89 1/2+x,1/2+z,-y
90 1/2-x,1/2+z,y
91 1/2-x,1/2-z,-y
92 1/2+x,1/2-z,y
93 1/2+z,1/2+y,-x
94 1/2+z,1/2-y,x
95 1/2-z,1/2+y,x
96 1/2-z,1/2-y,-x
97 -x,-y,-z
98 x,y,-z
99 x,-y,z
100 -x,y,z
101 -z,-x,-y
102 -z,x,y
103 z,x,-y
104 z,-x,y
105 -y,-z,-x
106 y,-z,x
107 -y,z,x
108 y,z,-x
109 -y,-x,z
110 y,x,z
111 -y,x,-z
112 y,-x,-z
113 -x,-z,y
114 x,-z,-y
115 x,z,y
116 -x,z,-y
117 -z,-y,x
118 -z,y,-x
119 z,-y,-x
120 z,y,x
121 -x,1/2-y,1/2-z
122 x,1/2+y,1/2-z
123 x,1/2-y,1/2+z
124 -x,1/2+y,1/2+z
125 -z,1/2-x,1/2-y
126 -z,1/2+x,1/2+y
127 z,1/2+x,1/2-y
128 z,1/2-x,1/2+y
129 -y,1/2-z,1/2-x
130 y,1/2-z,1/2+x
131 -y,1/2+z,1/2+x
132 y,1/2+z,1/2-x
133 -y,1/2-x,1/2+z
134 y,1/2+x,1/2+z
135 -y,1/2+x,1/2-z
136 y,1/2-x,1/2-z
137 -x,1/2-z,1/2+y
138 x,1/2-z,1/2-y
139 x,1/2+z,1/2+y
140 -x,1/2+z,1/2-y
141 -z,1/2-y,1/2+x
142 -z,1/2+y,1/2-x
143 z,1/2-y,1/2-x
144 z,1/2+y,1/2+x
145 1/2-x,-y,1/2-z
146 1/2+x,y,1/2-z
147 1/2+x,-y,1/2+z
148 1/2-x,y,1/2+z
149 1/2-z,-x,1/2-y
150 1/2-z,x,1/2+y
151 1/2+z,x,1/2-y
152 1/2+z,-x,1/2+y
153 1/2-y,-z,1/2-x
154 1/2+y,-z,1/2+x
155 1/2-y,z,1/2+x
156 1/2+y,z,1/2-x
157 1/2-y,-x,1/2+z
158 1/2+y,x,1/2+z
159 1/2-y,x,1/2-z
160 1/2+y,-x,1/2-z
161 1/2-x,-z,1/2+y
162 1/2+x,-z,1/2-y
163 1/2+x,z,1/2+y
164 1/2-x,z,1/2-y
165 1/2-z,-y,1/2+x
166 1/2-z,y,1/2-x
167 1/2+z,-y,1/2-x
168 1/2+z,y,1/2+x
169 1/2-x,1/2-y,-z
170 1/2+x,1/2+y,-z
171 1/2+x,1/2-y,z
172 1/2-x,1/2+y,z
173 1/2-z,1/2-x,-y
174 1/2-z,1/2+x,y
175 1/2+z,1/2+x,-y
176 1/2+z,1/2-x,y
177 1/2-y,1/2-z,-x
178 1/2+y,1/2-z,x
179 1/2-y,1/2+z,x
180 1/2+y,1/2+z,-x
181 1/2-y,1/2-x,z
182 1/2+y,1/2+x,z
183 1/2-y,1/2+x,-z
184 1/2+y,1/2-x,-z
185 1/2-x,1/2-z,y
186 1/2+x,1/2-z,-y
187 1/2+x,1/2+z,y
188 1/2-x,1/2+z,-y
189 1/2-z,1/2-y,x
190 1/2-z,1/2+y,-x
191 1/2+z,1/2-y,-x
192 1/2+z,1/2+y,x
_cell_length_a                   37.4447(4)
_cell_length_b                   37.4447(4)
_cell_length_c                   37.4447(4)
_cell_angle_alpha                90
_cell_angle_beta                 90
_cell_angle_gamma                90
_cell_volume                     52501.4
_exptl_crystal_colour            red
_exptl_crystal_description       block
_cell_formula_units_Z            12
loop_
_atom_site_label
_atom_site_type_symbol
_atom_site_fract_x
_atom_site_fract_y
_atom_site_fract_z
_atom_site_U_iso_or_equiv
_atom_site_thermal_displace_type
Fe1 Fe 0.5000 0.2500 0.2500 0.0398 Uani
N1 N 0.46213(14) 0.22342(10) 0.22342(10) 0.0337 Uani
C1 C 0.4612(3) 0.2207(3) 0.1873(3) 0.0390 Uani
C2 C 0.4333(3) 0.2036(3) 0.1685(3) 0.0423 Uani
C3 C 0.40622(17) 0.18764(13) 0.18764(13) 0.0360 Uani
C4 C 0.37561(17) 0.16995(13) 0.16995(13) 0.0347 Uani
C5 C 0.36063(13) 0.13937(13) 0.18451(17) 0.0353 Uani
H1 H 0.3715 0.1285 0.2047 0.0430 Uiso
N2 N 0.5000 0.28660(15) 0.21340(15) 0.0333 Uani
C6 C 0.5000 0.3080(2) 0.1920(2) 0.0563 Uani
S1 S 0.5000 0.33923(7) 0.16077(7) 0.1270 Uani
N1EB N 0.27658(10) 0.22342(10) 0.03787(14) 0.0337 Uani
C1EB C 0.2793(3) 0.1873(3) 0.0388(3) 0.0390 Uani
C2EB C 0.2964(3) 0.1685(3) 0.0667(3) 0.0423 Uani
C3EB C 0.31236(13) 0.18764(13) 0.09378(17) 0.0360 Uani
C4EB C 0.33005(13) 0.16995(13) 0.12439(17) 0.0347 Uani
C5EB C 0.36063(13) 0.18451(17) 0.13937(13) 0.0353 Uani
H1EB H 0.3715 0.2047 0.1285 0.0430 Uiso
N1ZB N 0.27658(10) 0.03787(14) 0.22342(10) 0.0337 Uani
C1ZB C 0.3127(3) 0.0388(3) 0.2207(3) 0.0390 Uani
C2ZB C 0.3315(3) 0.0667(3) 0.2036(3) 0.0423 Uani
C3ZB C 0.31236(13) 0.09378(17) 0.18764(13) 0.0360 Uani
C4ZB C 0.33005(13) 0.12439(17) 0.16995(13) 0.0347 Uani
C5ZB C 0.31549(17) 0.13937(13) 0.13937(13) 0.0353 Uani
H1ZB H 0.2953 0.1285 0.1285 0.0430 Uiso
C1JD C 0.4612(3) 0.1873(3) 0.2207(3) 0.0390 Uani
C2JD C 0.4333(3) 0.1685(3) 0.2036(3) 0.0423 Uani
C1IF C 0.3127(3) 0.2207(3) 0.0388(3) 0.0390 Uani
C2IF C 0.3315(3) 0.2036(3) 0.0667(3) 0.0423 Uani
C1XF C 0.2793(3) 0.0388(3) 0.1873(3) 0.0390 Uani
C2XF C 0.2964(3) 0.0667(3) 0.1685(3) 0.0423 Uani
N1Q N 0.53787(14) 0.22342(10) 0.22342(10) 0.0337 Uani
C1Q C 0.5388(3) 0.1873(3) 0.2207(3) 0.0390 Uani
C2Q C 0.5667(3) 0.1685(3) 0.2036(3) 0.0423 Uani
C3Q C 0.59378(17) 0.18764(13) 0.18764(13) 0.0360 Uani
C4Q C 0.62439(17) 0.16995(13) 0.16995(13) 0.0347 Uani
C5Q C 0.63937(13) 0.18451(17) 0.13937(13) 0.0353 Uani
H1Q H 0.6285 0.2047 0.1285 0.0430 Uiso
N2Q N 0.5000 0.21340(15) 0.28660(15) 0.0333 Uani
C6Q C 0.5000 0.1920(2) 0.3080(2) 0.0563 Uani
S1Q S 0.5000 0.16077(7) 0.33923(7) 0.1270 Uani
N1HC N 0.72342(10) 0.03787(14) 0.22342(10) 0.0337 Uani
C1HC C 0.7207(3) 0.0388(3) 0.1873(3) 0.0390 Uani
C2HC C 0.7036(3) 0.0667(3) 0.1685(3) 0.0423 Uani
C3HC C 0.68764(13) 0.09378(17) 0.18764(13) 0.0360 Uani
C4HC C 0.66995(13) 0.12439(17) 0.16995(13) 0.0347 Uani
C5HC C 0.63937(13) 0.13937(13) 0.18451(17) 0.0353 Uani
H1HC H 0.6285 0.1285 0.2047 0.0430 Uiso
N1PB N 0.72342(10) 0.22342(10) 0.03787(14) 0.0337 Uani
C1PB C 0.6873(3) 0.2207(3) 0.0388(3) 0.0390 Uani
C2PB C 0.6685(3) 0.2036(3) 0.0667(3) 0.0423 Uani
C3PB C 0.68764(13) 0.18764(13) 0.09378(17) 0.0360 Uani
C4PB C 0.66995(13) 0.16995(13) 0.12439(17) 0.0347 Uani
C5PB C 0.68451(17) 0.13937(13) 0.13937(13) 0.0353 Uani
H1PB H 0.7047 0.1285 0.1285 0.0430 Uiso
C1UC C 0.5388(3) 0.2207(3) 0.1873(3) 0.0390 Uani
C2UC C 0.5667(3) 0.2036(3) 0.1685(3) 0.0423 Uani
C1SF C 0.6873(3) 0.0388(3) 0.2207(3) 0.0390 Uani
C2SF C 0.6685(3) 0.0667(3) 0.2036(3) 0.0423 Uani
C1YE C 0.7207(3) 0.1873(3) 0.0388(3) 0.0390 Uani
C2YE C 0.7036(3) 0.1685(3) 0.0667(3) 0.0423 Uani
N1AA N 0.46213(14) 0.27658(10) 0.27658(10) 0.0337 Uani
C1AA C 0.4612(3) 0.2793(3) 0.3127(3) 0.0390 Uani
C2AA C 0.4333(3) 0.2964(3) 0.3315(3) 0.0423 Uani
C3AA C 0.40622(17) 0.31236(13) 0.31236(13) 0.0360 Uani
C4AA C 0.37561(17) 0.33005(13) 0.33005(13) 0.0347 Uani
C5AA C 0.36063(13) 0.36063(13) 0.31549(17) 0.0353 Uani
H1AA H 0.3715 0.3715 0.2953 0.0430 Uiso
N1EC N 0.27658(10) 0.27658(10) 0.46213(14) 0.0337 Uani
C1EC C 0.2793(3) 0.3127(3) 0.4612(3) 0.0390 Uani
C2EC C 0.2964(3) 0.3315(3) 0.4333(3) 0.0423 Uani
C3EC C 0.31236(13) 0.31236(13) 0.40622(17) 0.0360 Uani
C4EC C 0.33005(13) 0.33005(13) 0.37561(17) 0.0347 Uani
C5EC C 0.36063(13) 0.31549(17) 0.36063(13) 0.0353 Uani
H1EC H 0.3715 0.2953 0.3715 0.0430 Uiso
N1CB N 0.27658(10) 0.46213(14) 0.27658(10) 0.0337 Uani
C1CB C 0.3127(3) 0.4612(3) 0.2793(3) 0.0390 Uani
C2CB C 0.3315(3) 0.4333(3) 0.2964(3) 0.0423 Uani
C3CB C 0.31236(13) 0.40622(17) 0.31236(13) 0.0360 Uani
C4CB C 0.33005(13) 0.37561(17) 0.33005(13) 0.0347 Uani
C5CB C 0.31549(17) 0.36063(13) 0.36063(13) 0.0353 Uani
H1CB H 0.2953 0.3715 0.3715 0.0430 Uiso
C1GE C 0.4612(3) 0.3127(3) 0.2793(3) 0.0390 Uani
C2GE C 0.4333(3) 0.3315(3) 0.2964(3) 0.0423 Uani
C1FG C 0.3127(3) 0.2793(3) 0.4612(3) 0.0390 Uani
C2FG C 0.3315(3) 0.2964(3) 0.4333(3) 0.0423 Uani
C1BF C 0.2793(3) 0.4612(3) 0.3127(3) 0.0390 Uani
C2BF C 0.2964(3) 0.4333(3) 0.3315(3) 0.0423 Uani
Fe1D Fe 0.2500 0.5000 0.2500 0.0398 Uani
N1D N 0.22342(10) 0.46213(14) 0.22342(10) 0.0337 Uani
C1ED C 0.2207(3) 0.4612(3) 0.1873(3) 0.0390 Uani
C2ED C 0.2036(3) 0.4333(3) 0.1685(3) 0.0423 Uani
C3D C 0.18764(13) 0.40622(17) 0.18764(13) 0.0360 Uani
C4D C 0.16995(13) 0.37561(17) 0.16995(13) 0.0347 Uani
C5UB C 0.13937(13) 0.36063(13) 0.18451(17) 0.0353 Uani
H1UB H 0.1285 0.3715 0.2047 0.0430 Uiso
N2N N 0.28660(15) 0.5000 0.21340(15) 0.0333 Uani
C6N C 0.3080(2) 0.5000 0.1920(2) 0.0563 Uani
S1N S 0.33923(7) 0.5000 0.16077(7) 0.1270 Uani
N1HA N 0.22342(10) 0.27658(10) 0.03787(14) 0.0337 Uani
C1LE C 0.1873(3) 0.2793(3) 0.0388(3) 0.0390 Uani
C2LE C 0.1685(3) 0.2964(3) 0.0667(3) 0.0423 Uani
C3HA C 0.18764(13) 0.31236(13) 0.09378(17) 0.0360 Uani
C4HA C 0.16995(13) 0.33005(13) 0.12439(17) 0.0347 Uani
C5D C 0.18451(17) 0.36063(13) 0.13937(13) 0.0353 Uani
H1D H 0.2047 0.3715 0.1285 0.0430 Uiso
N1UB N 0.03787(14) 0.27658(10) 0.22342(10) 0.0337 Uani
C1BG C 0.0388(3) 0.3127(3) 0.2207(3) 0.0390 Uani
C2BG C 0.0667(3) 0.3315(3) 0.2036(3) 0.0423 Uani
C3UB C 0.09378(17) 0.31236(13) 0.18764(13) 0.0360 Uani
C4UB C 0.12439(17) 0.33005(13) 0.16995(13) 0.0347 Uani
C5HA C 0.13937(13) 0.31549(17) 0.13937(13) 0.0353 Uani
H1HA H 0.1285 0.2953 0.1285 0.0430 Uiso
C1D C 0.1873(3) 0.4612(3) 0.2207(3) 0.0390 Uani
C2D C 0.1685(3) 0.4333(3) 0.2036(3) 0.0423 Uani
C1HA C 0.2207(3) 0.3127(3) 0.0388(3) 0.0390 Uani
C2HA C 0.2036(3) 0.3315(3) 0.0667(3) 0.0423 Uani
C1UB C 0.0388(3) 0.2793(3) 0.1873(3) 0.0390 Uani
C2UB C 0.0667(3) 0.2964(3) 0.1685(3) 0.0423 Uani
Fe1H Fe 0.2500 0.2500 0.5000 0.0398 Uani
N2T N 0.21340(15) 0.28660(15) 0.5000 0.0333 Uani
C6T C 0.1920(2) 0.3080(2) 0.5000 0.0563 Uani
S1T S 0.16077(7) 0.33923(7) 0.5000 0.1270 Uani
N2D N 0.21340(15) 0.5000 0.28660(15) 0.0333 Uani
C6D C 0.1920(2) 0.5000 0.3080(2) 0.0563 Uani
S1D S 0.16077(7) 0.5000 0.33923(7) 0.1270 Uani
N2H N 0.28660(15) 0.21340(15) 0.5000 0.0333 Uani
C6H C 0.3080(2) 0.1920(2) 0.5000 0.0563 Uani
S1H S 0.33923(7) 0.16077(7) 0.5000 0.1270 Uani
Fe1CA Fe 0.2500 0.0000 0.2500 0.0398 Uani
Fe1EA Fe 0.7500 0.0000 0.2500 0.0398 Uani
Fe1HA Fe 0.2500 0.2500 0.0000 0.0398 Uani
Fe1IA Fe 0.7500 0.2500 0.0000 0.0398 Uani
Fe1XA Fe 0.0000 0.2500 0.2500 0.0398 Uani
N1H N 0.22342(10) 0.22342(10) 0.46213(14) 0.0337 Uani
N1N N 0.22342(10) 0.53787(14) 0.22342(10) 0.0337 Uani
N1T N 0.22342(10) 0.22342(10) 0.53787(14) 0.0337 Uani
N1PA N 0.53787(14) 0.27658(10) 0.27658(10) 0.0337 Uani
N1IB N 0.27658(10) 0.53787(14) 0.27658(10) 0.0337 Uani
N1QC N 0.27658(10) 0.27658(10) 0.53787(14) 0.0337 Uani
C7? C 0.4077(3) 0.2254(2) 0.1882(3) 0.0410 Uani
C8? C 0.4350(2) 0.2419(3) 0.2073(3) 0.0393 Uani
loop_
_atom_site_aniso_label
_atom_site_aniso_U_11
_atom_site_aniso_U_22
_atom_site_aniso_U_33
_atom_site_aniso_U_23
_atom_site_aniso_U_13
_atom_site_aniso_U_12
Fe1 0.0319(13) 0.0437(9) 0.0437(9) 0.0038(10) 0.000 0.000
N1 0.027(3) 0.0371(19) 0.0371(19) 0.002(2) -0.0011(16) -0.0011(16)
C1 0.032(5) 0.039(5) 0.046(6) -0.003(5) -0.004(4) -0.005(4)
C2 0.033(5) 0.050(6) 0.044(6) -0.002(5) -0.004(4) -0.006(5)
C3 0.034(4) 0.037(2) 0.037(2) 0.006(3) -0.002(2) -0.002(2)
C4 0.030(4) 0.037(2) 0.037(2) 0.004(3) -0.002(2) -0.002(2)
C5 0.038(2) 0.038(2) 0.030(3) 0.008(2) -0.008(2) 0.000(3)
N2 0.028(4) 0.036(3) 0.036(3) 0.008(4) 0.000 0.000
C6 0.045(7) 0.062(5) 0.062(5) 0.014(7) 0.000 0.000
S1 0.159(5) 0.111(3) 0.111(3) 0.076(3) 0.000 0.000
N1EB 0.0371 0.0371 0.027 0.0011 -0.0011 -0.002
C1EB 0.039 0.046 0.032 0.004 -0.005 0.003
C2EB 0.05 0.044 0.033 0.004 -0.006 0.002
C3EB 0.037 0.037 0.034 0.002 -0.002 -0.006
C4EB 0.037 0.037 0.03 0.002 -0.002 -0.004
C5EB 0.038 0.03 0.038 0.008 0 -0.008
N1ZB 0.0371 0.027 0.0371 0.0011 -0.002 -0.0011
C1ZB 0.046 0.032 0.039 0.005 0.003 -0.004
C2ZB 0.044 0.033 0.05 0.006 0.002 -0.004
C3ZB 0.037 0.034 0.037 0.002 -0.006 -0.002
C4ZB 0.037 0.03 0.037 0.002 -0.004 -0.002
C5ZB 0.03 0.038 0.038 0 -0.008 -0.008
C1JD 0.032 0.046 0.039 -0.003 -0.005 -0.004
C2JD 0.033 0.044 0.05 -0.002 -0.006 -0.004
C1IF 0.046 0.039 0.032 0.005 -0.004 0.003
C2IF 0.044 0.05 0.033 0.006 -0.004 0.002
C1XF 0.039 0.032 0.046 0.004 0.003 -0.005
C2XF 0.05 0.033 0.044 0.004 0.002 -0.006
N1Q 0.027 0.0371 0.0371 0.002 0.0011 0.0011
C1Q 0.032 0.046 0.039 -0.003 0.005 0.004
C2Q 0.033 0.044 0.05 -0.002 0.006 0.004
C3Q 0.034 0.037 0.037 0.006 0.002 0.002
C4Q 0.03 0.037 0.037 0.004 0.002 0.002
C5Q 0.038 0.03 0.038 0.008 0 0.008
N2Q 0.028 0.036 0.036 0.008 0 0
C6Q 0.045 0.062 0.062 0.014 0 0
S1Q 0.159 0.111 0.111 0.076 0 0
N1HC 0.0371 0.027 0.0371 0.0011 0.002 0.0011
C1HC 0.039 0.032 0.046 0.004 -0.003 0.005
C2HC 0.05 0.033 0.044 0.004 -0.002 0.006
C3HC 0.037 0.034 0.037 0.002 0.006 0.002
C4HC 0.037 0.03 0.037 0.002 0.004 0.002
C5HC 0.038 0.038 0.03 0.008 0.008 0
N1PB 0.0371 0.0371 0.027 0.0011 0.0011 0.002
C1PB 0.046 0.039 0.032 0.005 0.004 -0.003
C2PB 0.044 0.05 0.033 0.006 0.004 -0.002
C3PB 0.037 0.037 0.034 0.002 0.002 0.006
C4PB 0.037 0.037 0.03 0.002 0.002 0.004
C5PB 0.03 0.038 0.038 0 0.008 0.008
C1UC 0.032 0.039 0.046 -0.003 0.004 0.005
C2UC 0.033 0.05 0.044 -0.002 0.004 0.006
C1SF 0.046 0.032 0.039 0.005 -0.003 0.004
C2SF 0.044 0.033 0.05 0.006 -0.002 0.004
C1YE 0.039 0.046 0.032 0.004 0.005 -0.003
C2YE 0.05 0.044 0.033 0.004 0.006 -0.002
N1AA 0.027 0.0371 0.0371 0.002 0.0011 0.0011
C1AA 0.032 0.039 0.046 -0.003 0.004 0.005
C2AA 0.033 0.05 0.044 -0.002 0.004 0.006
C3AA 0.034 0.037 0.037 0.006 0.002 0.002
C4AA 0.03 0.037 0.037 0.004 0.002 0.002
C5AA 0.038 0.038 0.03 0.008 0.008 0
N1EC 0.0371 0.0371 0.027 0.0011 0.0011 0.002
C1EC 0.039 0.046 0.032 0.004 0.005 -0.003
C2EC 0.05 0.044 0.033 0.004 0.006 -0.002
C3EC 0.037 0.037 0.034 0.002 0.002 0.006
C4EC 0.037 0.037 0.03 0.002 0.002 0.004
C5EC 0.038 0.03 0.038 0.008 0 0.008
N1CB 0.0371 0.027 0.0371 0.0011 0.002 0.0011
C1CB 0.046 0.032 0.039 0.005 -0.003 0.004
C2CB 0.044 0.033 0.05 0.006 -0.002 0.004
C3CB 0.037 0.034 0.037 0.002 0.006 0.002
C4CB 0.037 0.03 0.037 0.002 0.004 0.002
C5CB 0.03 0.038 0.038 0 0.008 0.008
C1GE 0.032 0.046 0.039 -0.003 0.005 0.004
C2GE 0.033 0.044 0.05 -0.002 0.006 0.004
C1FG 0.046 0.039 0.032 0.005 0.004 -0.003
C2FG 0.044 0.05 0.033 0.006 0.004 -0.002
C1BF 0.039 0.032 0.046 0.004 -0.003 0.005
C2BF 0.05 0.033 0.044 0.004 -0.002 0.006
Fe1D 0.0437 0.0319 0.0437 0 0.0038 0
N1D 0.0371 0.027 0.0371 -0.0011 0.002 -0.0011
C1ED 0.039 0.032 0.046 -0.004 -0.003 -0.005
C2ED 0.05 0.033 0.044 -0.004 -0.002 -0.006
C3D 0.037 0.034 0.037 -0.002 0.006 -0.002
C4D 0.037 0.03 0.037 -0.002 0.004 -0.002
C5UB 0.038 0.038 0.03 -0.008 0.008 0
N2N 0.036 0.028 0.036 0 0.008 0
C6N 0.062 0.045 0.062 0 0.014 0
S1N 0.111 0.159 0.111 0 0.076 0
N1HA 0.0371 0.0371 0.027 -0.0011 0.0011 -0.002
C1LE 0.046 0.039 0.032 -0.005 0.004 0.003
C2LE 0.044 0.05 0.033 -0.006 0.004 0.002
C3HA 0.037 0.037 0.034 -0.002 0.002 -0.006
C4HA 0.037 0.037 0.03 -0.002 0.002 -0.004
C5D 0.03 0.038 0.038 0 0.008 -0.008
N1UB 0.027 0.0371 0.0371 -0.002 0.0011 -0.0011
C1BG 0.032 0.046 0.039 0.003 0.005 -0.004
C2BG 0.033 0.044 0.05 0.002 0.006 -0.004
C3UB 0.034 0.037 0.037 -0.006 0.002 -0.002
C4UB 0.03 0.037 0.037 -0.004 0.002 -0.002
C5HA 0.038 0.03 0.038 -0.008 0 -0.008
C1D 0.046 0.032 0.039 -0.005 -0.003 -0.004
C2D 0.044 0.033 0.05 -0.006 -0.002 -0.004
C1HA 0.039 0.046 0.032 -0.004 0.005 0.003
C2HA 0.05 0.044 0.033 -0.004 0.006 0.002
C1UB 0.032 0.039 0.046 0.003 0.004 -0.005
C2UB 0.033 0.05 0.044 0.002 0.004 -0.006
Fe1H 0.0437 0.0437 0.0319 0 0 0.0038
N2T 0.036 0.036 0.028 0 0 0.008
C6T 0.062 0.062 0.045 0 0 0.014
S1T 0.111 0.111 0.159 0 0 0.076
N2D 0.036 0.028 0.036 0 0.008 0
C6D 0.062 0.045 0.062 0 0.014 0
S1D 0.111 0.159 0.111 0 0.076 0
N2H 0.036 0.036 0.028 0 0 0.008
C6H 0.062 0.062 0.045 0 0 0.014
S1H 0.111 0.111 0.159 0 0 0.076
Fe1CA 0.0437 0.0319 0.0437 0 -0.0038 0
Fe1EA 0.0437 0.0319 0.0437 0 0.0038 0
Fe1HA 0.0437 0.0437 0.0319 0 0 -0.0038
Fe1IA 0.0437 0.0437 0.0319 0 0 0.0038
Fe1XA 0.0319 0.0437 0.0437 -0.0038 0 0
N1H 0.0371 0.0371 0.027 -0.0011 -0.0011 0.002
N1N 0.0371 0.027 0.0371 0.0011 0.002 0.0011
N1T 0.0371 0.0371 0.027 0.0011 0.0011 0.002
N1PA 0.027 0.0371 0.0371 0.002 -0.0011 -0.0011
N1IB 0.0371 0.027 0.0371 -0.0011 0.002 -0.0011
N1QC 0.0371 0.0371 0.027 -0.0011 -0.0011 0.002
C7? 0.039(5) 0.028(5) 0.056(6) 0.005(4) -0.009(5) -0.007(4)
C8? 0.025(5) 0.055(6) 0.038(5) 0.004(5) -0.010(4) 0.000(4)
loop_
_geom_bond_atom_site_label_1
_geom_bond_atom_site_label_2
_geom_bond_site_symmetry_1
_geom_bond_site_symmetry_2
Fe1 N1 1_555 1_555
N1 C1 1_555 1_555
C1 C2 1_555 1_555
C2 C3 1_555 1_555
C3 C4 1_555 1_555
C4 C5 1_555 1_555
C5 H1 1_555 1_555
N2 Fe1 1_555 1_555
C6 N2 1_555 1_555
S1 C6 1_555 1_555
N1EB C1EB 1_555 1_555
C1EB C2EB 1_555 1_555
C2EB C3EB 1_555 1_555
C3EB C4EB 1_555 1_555
C4EB C5EB 1_555 1_555
C5EB C4 1_555 1_555
H1EB C5EB 1_555 1_555
N1ZB C1ZB 1_555 1_555
C1ZB C2ZB 1_555 1_555
C2ZB C3ZB 1_555 1_555
C3ZB C4ZB 1_555 1_555
C4ZB C5 1_555 1_555
C5ZB C4EB 1_555 1_555
H1ZB C5ZB 1_555 1_555
C1JD N1 1_555 1_555
C2JD C3 1_555 1_555
C1IF N1EB 1_555 1_555
C2IF C3EB 1_555 1_555
C1XF N1ZB 1_555 1_555
C2XF C3ZB 1_555 1_555
N1Q Fe1 1_555 1_555
C1Q N1Q 1_555 1_555
C2Q C1Q 1_555 1_555
C3Q C2Q 1_555 1_555
C4Q C3Q 1_555 1_555
C5Q C4Q 1_555 1_555
H1Q C5Q 1_555 1_555
N2Q Fe1 1_555 1_555
C6Q N2Q 1_555 1_555
S1Q C6Q 1_555 1_555
N1HC C1HC 1_555 1_555
C1HC C2HC 1_555 1_555
C2HC C3HC 1_555 1_555
C3HC C4HC 1_555 1_555
C4HC C5HC 1_555 1_555
C5HC C4Q 1_555 1_555
H1HC C5HC 1_555 1_555
N1PB C1PB 1_555 1_555
C1PB C2PB 1_555 1_555
C2PB C3PB 1_555 1_555
C3PB C4PB 1_555 1_555
C4PB C5Q 1_555 1_555
C5PB C4HC 1_555 1_555
H1PB C5PB 1_555 1_555
C1UC N1Q 1_555 1_555
C2UC C3Q 1_555 1_555
C1SF N1HC 1_555 1_555
C2SF C3HC 1_555 1_555
C1YE N1PB 1_555 1_555
C2YE C3PB 1_555 1_555
N1AA Fe1 1_555 1_555
C1AA N1AA 1_555 1_555
C2AA C1AA 1_555 1_555
C3AA C2AA 1_555 1_555
C4AA C3AA 1_555 1_555
C5AA C4AA 1_555 1_555
H1AA C5AA 1_555 1_555
N1EC C1EC 1_555 1_555
C1EC C2EC 1_555 1_555
C2EC C3EC 1_555 1_555
C3EC C4EC 1_555 1_555
C4EC C5EC 1_555 1_555
C5EC C4AA 1_555 1_555
H1EC C5EC 1_555 1_555
N1CB C1CB 1_555 1_555
C1CB C2CB 1_555 1_555
C2CB C3CB 1_555 1_555
C3CB C4CB 1_555 1_555
C4CB C5AA 1_555 1_555
C5CB C4EC 1_555 1_555
H1CB C5CB 1_555 1_555
C1GE N1AA 1_555 1_555
C2GE C3AA 1_555 1_555
C1FG N1EC 1_555 1_555
C2FG C3EC 1_555 1_555
C1BF N1CB 1_555 1_555
C2BF C3CB 1_555 1_555
Fe1D N1CB 1_555 1_555
N1D Fe1D 1_555 1_555
C1ED N1D 1_555 1_555
C2ED C1ED 1_555 1_555
C3D C2ED 1_555 1_555
C4D C3D 1_555 1_555
C5UB C4D 1_555 1_555
H1UB C5UB 1_555 1_555
N2N Fe1D 1_555 1_555
C6N N2N 1_555 1_555
S1N C6N 1_555 1_555
N1HA C1LE 1_555 1_555
C1LE C2LE 1_555 1_555
C2LE C3HA 1_555 1_555
C3HA C4HA 1_555 1_555
C4HA C5D 1_555 1_555
C5D C4D 1_555 1_555
H1D C5D 1_555 1_555
N1UB C1BG 1_555 1_555
C1BG C2BG 1_555 1_555
C2BG C3UB 1_555 1_555
C3UB C4UB 1_555 1_555
C4UB C5UB 1_555 1_555
C5HA C4HA 1_555 1_555
H1HA C5HA 1_555 1_555
C1D N1D 1_555 1_555
C2D C3D 1_555 1_555
C1HA N1HA 1_555 1_555
C2HA C3HA 1_555 1_555
C1UB N1UB 1_555 1_555
C2UB C3UB 1_555 1_555
Fe1H N1EC 1_555 1_555
N2T Fe1H 1_555 1_555
C6T N2T 1_555 1_555
S1T C6T 1_555 1_555
N2D Fe1D 1_555 1_555
C6D N2D 1_555 1_555
S1D C6D 1_555 1_555
N2H Fe1H 1_555 1_555
C6H N2H 1_555 1_555
S1H C6H 1_555 1_555
Fe1CA N1ZB 1_555 1_555
Fe1EA N1HC 1_555 1_555
Fe1HA N1EB 1_555 1_555
Fe1IA N1PB 1_555 1_555
Fe1XA N1UB 1_555 1_555
N1H Fe1H 1_555 1_555
N1N Fe1D 1_555 1_555
N1T Fe1H 1_555 1_555
N1PA Fe1 1_555 1_555
N1IB Fe1D 1_555 1_555
N1QC Fe1H 1_555 1_555
C4ZB C5ZB 1_555 1_555
C1JD C2JD 1_555 1_555
C1IF C2IF 1_555 1_555
C1XF C2XF 1_555 1_555
C4PB C5PB 1_555 1_555
C1UC C2UC 1_555 1_555
C1SF C2SF 1_555 1_555
C1YE C2YE 1_555 1_555
C4CB C5CB 1_555 1_555
C1GE C2GE 1_555 1_555
C1FG C2FG 1_555 1_555
C1BF C2BF 1_555 1_555
N1HA Fe1HA 1_555 1_555
C4UB C5HA 1_555 1_555
C1D C2D 1_555 1_555
C1HA C2HA 1_555 1_555
C1UB C2UB 1_555 1_555

#END
