
#######################################################################
#
#                 Cambridge Crystallographic Data Centre
#                                CCDC 
#
#######################################################################
#
# If this CIF has been generated from an entry in the Cambridge 
# Structural Database, then it will include bibliographic, chemical, 
# crystal, experimental, refinement or atomic coordinate data resulting 
# from the CCDC's data processing and validation procedures.
#
#######################################################################

data_SARHAW
_chemical_formula_moiety         '(C8 H2 Fe2 O6)n,1.3n(C3 D6)'
_chemical_name_systematic        
'catena-((\m~8~-2,5-dioxido-1,4-benzenedicarboxylate)-di-iron(ii) perdeuteropropene solvate)'
_symmetry_cell_setting           rhombohedral
_symmetry_space_group_name_H-M   'R -3'
_symmetry_Int_Tables_number      148
_space_group_name_Hall           '-R 3'
loop_
_symmetry_equiv_pos_site_id
_symmetry_equiv_pos_as_xyz
1 x,y,z
2 -y,x-y,z
3 -x+y,-x,z
4 1/3+x,2/3+y,2/3+z
5 1/3-y,2/3+x-y,2/3+z
6 1/3-x+y,2/3-x,2/3+z
7 2/3+x,1/3+y,1/3+z
8 2/3-y,1/3+x-y,1/3+z
9 2/3-x+y,1/3-x,1/3+z
10 -x,-y,-z
11 y,-x+y,-z
12 x-y,x,-z
13 2/3-x,1/3-y,1/3-z
14 2/3+y,1/3-x+y,1/3-z
15 2/3+x-y,1/3+x,1/3-z
16 1/3-x,2/3-y,2/3-z
17 1/3+y,2/3-x+y,2/3-z
18 1/3+x-y,2/3+x,2/3-z
_cell_length_a                   25.8980(9)
_cell_length_b                   25.8980(9)
_cell_length_c                   6.94477(32)
_cell_angle_alpha                90
_cell_angle_beta                 90
_cell_angle_gamma                120
_cell_volume                     4033.86
_cell_formula_units_Z            9
loop_
_atom_site_label
_atom_site_type_symbol
_atom_site_fract_x
_atom_site_fract_y
_atom_site_fract_z
_atom_site_U_iso_or_equiv
_atom_site_thermal_displace_type
Fe1 Fe 0.3865(4) 0.3531(4) 0.1571(12) 0.0154 Uiso
O1 O 0.3174(5) 0.2935(6) 0.3556(20) 0.0034 Uiso
O2 O 0.3046(6) 0.2337(6) 0.5911(19) 0.0017 Uiso
O3 O 0.3561(6) 0.2773(6) 0.0017(20) 0.0075 Uiso
C1 C 0.3218(6) 0.2466(6) 0.4165(22) 0.0249 Uiso
C2 C 0.3257(6) 0.2042(5) 0.2821(16) 0.0016 Uiso
C3 C 0.3388(6) 0.2229(5) 0.0901(16) 0.0064 Uiso
C4 C 0.3165(5) 0.1521(6) 0.3495(17) 0.0032 Uiso
H1 H 0.2989(11) 0.1450(10) 0.510(4) 0.0360 Uiso
Fe1L Fe 0.2802(4) -0.0198(4) 0.1762(12) 0.0154 Uiso
Fe1G Fe 0.3136(4) 0.3667(6) 0.4904(12) 0.0154 Uiso
Fe1E Fe 0.2999(6) 0.2802(4) 0.8238(12) 0.0154 Uiso
Fe1E_2 Fe 0.2999(6) 0.2802(4) -0.1762(12) 0.0154 Uiso
Fe1J Fe 0.3531(4) -0.0334(6) -0.1571(12) 0.0154 Uiso
Fe1Q Fe 0.3667(6) 0.0532(4) -0.4904(12) 0.0154 Uiso
Fe1Q_2 Fe 0.3667(6) 0.0532(4) 0.5096(12) 0.0154 Uiso
O1L O 0.3493(5) 0.0398(6) -0.0223(20) 0.0034 Uiso
O1E O 0.3094(8) 0.3493(5) 0.0223(20) 0.0034 Uiso
O1Q O 0.3572(8) -0.0159(5) 0.3111(20) 0.0034 Uiso
O2L O 0.3621(6) 0.0996(6) -0.2578(19) 0.0017 Uiso
O2G O 0.4330(6) 0.4042(8) -0.0756(19) 0.0017 Uiso
O2J O 0.2337(6) -0.0709(8) 0.4089(19) 0.0017 Uiso
O3L O 0.3106(6) 0.0560(6) 0.3316(20) 0.0075 Uiso
O3G O 0.3894(6) 0.4121(8) 0.3350(20) 0.0075 Uiso
O3J O 0.2773(6) -0.0788(8) -0.0017(20) 0.0075 Uiso
C1L C 0.3449(6) 0.0867(6) -0.0832(22) 0.0249 Uiso
C2L C 0.3410(6) 0.1291(5) 0.0512(16) 0.0016 Uiso
C3L C 0.3279(6) 0.1104(5) 0.2432(16) 0.0064 Uiso
C4L C 0.3502(5) 0.1812(6) -0.0162(17) 0.0032 Uiso
H1L H 0.3678(11) 0.1883(10) -0.177(4) 0.0360 Uiso
C5 C 0.9664(9) 0.7912(9) 0.8412(33) 0.0190 Uiso
C6 C 0.9983(9) 0.7964(8) 0.9980(24) 0.0090 Uiso
D1 D 0.9204(8) 0.7694(8) 0.8391(28) 0.0020 Uiso
D2 D 1.0446(7) 0.8186(7) 0.9875(25) 0.0050 Uiso
D3 D 0.9787(8) 0.7691(8) 1.1116(23) 0.0030 Uiso
D4 D 0.9800(16) 0.8691(14) 0.686(5) 0.0960 Uiso
D5 D 0.9769(11) 0.8140(12) 0.5380(35) 0.0610 Uiso
D6 D 1.0373(8) 0.8559(9) 0.6801(25) 0.0040 Uiso
C7 C 0.9928(20) 0.8351(20) 0.679(7) 0.3489 Uani
loop_
_atom_site_aniso_label
_atom_site_aniso_U_11
_atom_site_aniso_U_22
_atom_site_aniso_U_33
_atom_site_aniso_U_23
_atom_site_aniso_U_13
_atom_site_aniso_U_12
C7 0.25(5) 0.27(6) 0.38(7) -0.21(5) -0.40(5) 0.02(5)
loop_
_geom_bond_atom_site_label_1
_geom_bond_atom_site_label_2
_geom_bond_site_symmetry_1
_geom_bond_site_symmetry_2
Fe1 O1 1_555 1_555
O1 C1 1_555 1_555
O2 C1 1_555 1_555
O3 Fe1 1_555 1_555
C1 C2 1_555 1_555
C2 C3 1_555 1_555
C3 O3 1_555 1_555
C4 C2 1_555 1_555
H1 C4 1_555 1_555
C5 C6 1_555 1_555
C6 D2 1_555 1_555
D1 C5 1_555 1_555
D3 C6 1_555 1_555
D4 C7 1_555 1_555
D5 C7 1_555 1_555
D6 C7 1_555 1_555
C7 C5 1_555 1_555
Fe1L O1L 1_555 1_555
Fe1G O1 1_555 1_555
Fe1E O2 1_555 1_555
Fe1E_2 O3 1_555 1_555
Fe1J O1L 1_555 1_555
Fe1Q O2L 1_555 1_555
Fe1Q_2 O1Q 1_555 1_555
O1L C1L 1_555 1_555
O1E Fe1 1_555 1_555
O1Q Fe1L 1_555 1_555
O2L C1L 1_555 1_555
O2G Fe1 1_555 1_555
O2J Fe1L 1_555 1_555
O3L Fe1L 1_555 1_555
O3G Fe1 1_555 1_555
O3J Fe1L 1_555 1_555
C1L C2L 1_555 1_555
C2L C3L 1_555 1_555
C3L C4 1_555 1_555
C4L C3 1_555 1_555
H1L C4L 1_555 1_555
Fe1G O3G 1_555 1_555
Fe1E_2 O1E 1_555 1_555
Fe1J O3J 1_555 1_555
Fe1Q_2 O3L 1_555 1_555
O3L C3L 1_555 1_555
C2L C4L 1_555 1_555

#END
