
#######################################################################
#
#                 Cambridge Crystallographic Data Centre
#                                CCDC 
#
#######################################################################
#
# If this CIF has been generated from an entry in the Cambridge 
# Structural Database, then it will include bibliographic, chemical, 
# crystal, experimental, refinement or atomic coordinate data resulting 
# from the CCDC's data processing and validation procedures.
#
#######################################################################

data_REWSUJ
_chemical_formula_moiety         
'(C56 H44 Dy2 N4 O18 2+)n,2n(H1 O1 1-),26n(H2 O1)'
_chemical_name_systematic        
"catena-[bis(\m~2~-4,4'-(4,4'-bipyridinium-1,1'-diyldimethanediyl)dibenzoato)-bis(\m~2~-oxalato)-diaqua-di-dysprosium(iii) bis(hydroxide) hexacosahydrate]"
_symmetry_cell_setting           monoclinic
_symmetry_space_group_name_H-M   'P 2/c'
_symmetry_Int_Tables_number      13
_space_group_name_Hall           '-P 2yc'
loop_
_symmetry_equiv_pos_site_id
_symmetry_equiv_pos_as_xyz
1 x,y,z
2 -x,y,1/2-z
3 -x,-y,-z
4 x,-y,1/2+z
_cell_length_a                   12.3743(8)
_cell_length_b                   14.5842(7)
_cell_length_c                   21.9435(15)
_cell_angle_alpha                90
_cell_angle_beta                 104.821(4)
_cell_angle_gamma                90
_cell_volume                     3828.37
_exptl_crystal_colour            yellow
_exptl_crystal_description       Plate
_cell_formula_units_Z            2
loop_
_atom_site_label
_atom_site_type_symbol
_atom_site_fract_x
_atom_site_fract_y
_atom_site_fract_z
Dy1 Dy 0.066490(14) 0.385939(11) 0.396474(7)
O1 O -0.1335(2) 0.38550(17) 0.36717(13)
O2 O 0.2362(2) 0.47642(18) 0.44423(12)
O3 O 0.2364(2) 0.40064(19) 0.35803(13)
O4 O 0.8099(2) 1.26279(17) 0.04730(12)
O5 O 0.9884(2) 1.23104(16) 0.08295(11)
O6 O 0.0277(2) 0.29698(17) 0.30278(11)
O7 O 0.0204(2) 0.47991(16) 0.30284(10)
O8 O 0.0422(2) 0.38579(15) 0.50040(11)
O9 O -0.0057(2) 0.46704(16) 0.57585(11)
N1 N 0.7194(3) 0.6437(2) 0.33239(16)
N2 N 0.7919(3) 0.7783(2) 0.04063(15)
C1 C 0.2822(3) 0.4572(3) 0.39975(17)
C2 C 0.3901(3) 0.5018(3) 0.39846(17)
C3 C 0.4437(4) 0.4790(3) 0.35188(19)
H1 H 0.4106 0.4349 0.3209
C4 C 0.5430(4) 0.5189(3) 0.3498(2)
H2 H 0.5778 0.5019 0.3176
C5 C 0.5931(3) 0.5839(3) 0.39420(18)
C6 C 0.5391(4) 0.6095(3) 0.4394(2)
H3 H 0.5705 0.6558 0.4691
C7 C 0.4394(3) 0.5682(3) 0.44166(18)
H4 H 0.4041 0.5859 0.4736
C8 C 0.7072(4) 0.6212(3) 0.3966(2)
H5 H 0.7203 0.6772 0.4230
H6 H 0.7644 0.5753 0.4164
C9 C 0.7928(3) 0.5987(2) 0.30797(18)
H7 H 0.8387 0.5527 0.3322
C10 C 0.8027(4) 0.6179(2) 0.2495(2)
H8 H 0.8525 0.5827 0.2324
C11 C 0.7429(3) 0.6863(2) 0.21454(18)
C12 C 0.6697(4) 0.7359(3) 0.24180(19)
H9 H 0.6272 0.7853 0.2196
C13 C 0.6601(4) 0.7123(3) 0.3009(2)
H10 H 0.6105 0.7456 0.3193
C14 C 0.7572(3) 0.7146(2) 0.15193(17)
C15 C 0.8503(4) 0.6869(3) 0.13164(19)
H11 H 0.9022 0.6447 0.1561
C16 C 0.8667(4) 0.7208(2) 0.07634(19)
H12 H 0.9313 0.7035 0.0633
C17 C 0.6979(4) 0.8015(3) 0.05711(19)
H13 H 0.6444 0.8398 0.0300
C18 C 0.6785(3) 0.7716(3) 0.11128(18)
H14 H 0.6118 0.7889 0.1222
C19 C 0.8152(4) 0.8234(3) -0.01482(18)
H15 H 0.7506 0.8164 -0.0519
H16 H 0.8815 0.7953 -0.0247
C20 C 0.8369(4) 0.9253(3) 0.00096(18)
C21 C 0.9259(4) 0.9513(3) 0.04974(19)
H17 H 0.9765 0.9060 0.0715
C22 C 0.9424(4) 1.0408(3) 0.06721(19)
H18 H 1.0039 1.0571 0.1013
C23 C 0.8708(4) 1.1086(2) 0.03596(18)
C24 C 0.7799(4) 1.0840(3) -0.01416(19)
H19 H 0.7301 1.1296 -0.0361
C25 C 0.7633(4) 0.9915(3) -0.03169(18)
H20 H 0.7022 0.9741 -0.0656
C26 C 0.8897(4) 1.2064(3) 0.05557(16)
C27 C 0.0000 0.3350(3) 0.2500
C28 C 0.0000 0.4414(3) 0.2500
C29 C 0.0118(3) 0.4580(2) 0.52223(15)
O6A O -0.0277(2) 0.29698(17) 0.19722(11)
O7A O -0.0204(2) 0.47991(16) 0.19716(10)
O8B O -0.0422(2) 0.61421(15) 0.49960(11)
O9B O 0.0057(2) 0.53296(16) 0.42415(11)
C29B C -0.0118(3) 0.5420(2) 0.47777(15)
Dy1A Dy -0.066490(14) 0.385939(11) 0.103526(7)
O1A O 0.1335(2) 0.38550(17) 0.13283(13)
O2A O -0.2362(2) 0.47642(18) 0.05577(12)
O3A O -0.2364(2) 0.40064(19) 0.14197(13)
O4A O -0.8099(2) 1.26279(17) 0.45270(12)
O5A O -0.9884(2) 1.23104(16) 0.41705(11)
N1A N -0.7194(3) 0.6437(2) 0.16761(16)
N2A N -0.7919(3) 0.7783(2) 0.45937(15)
C1A C -0.2822(3) 0.4572(3) 0.10025(17)
C2A C -0.3901(3) 0.5018(3) 0.10154(17)
C3A C -0.4437(4) 0.4790(3) 0.14812(19)
H1A H -0.4106 0.4349 0.1791
C4A C -0.5430(4) 0.5189(3) 0.1502(2)
H2A H -0.5778 0.5019 0.1824
C5A C -0.5931(3) 0.5839(3) 0.10580(18)
C6A C -0.5391(4) 0.6095(3) 0.0606(2)
H3A H -0.5705 0.6558 0.0309
C7A C -0.4394(3) 0.5682(3) 0.05834(18)
H4A H -0.4041 0.5859 0.0264
C8A C -0.7072(4) 0.6212(3) 0.1034(2)
H5A H -0.7203 0.6772 0.0770
H6A H -0.7644 0.5753 0.0836
C9A C -0.7928(3) 0.5987(2) 0.19203(18)
H7A H -0.8387 0.5527 0.1678
C10A C -0.8027(4) 0.6179(2) 0.2505(2)
H8A H -0.8525 0.5827 0.2676
C11A C -0.7429(3) 0.6863(2) 0.28546(18)
C12A C -0.6697(4) 0.7359(3) 0.25820(19)
H9A H -0.6272 0.7853 0.2804
C13A C -0.6601(4) 0.7123(3) 0.1991(2)
H10A H -0.6105 0.7456 0.1807
C14A C -0.7572(3) 0.7146(2) 0.34807(17)
C15A C -0.8503(4) 0.6869(3) 0.36836(19)
H11A H -0.9022 0.6447 0.3439
C16A C -0.8667(4) 0.7208(2) 0.42366(19)
H12A H -0.9313 0.7035 0.4367
C17A C -0.6979(4) 0.8015(3) 0.44289(19)
H13A H -0.6444 0.8398 0.4700
C18A C -0.6785(3) 0.7716(3) 0.38872(18)
H14A H -0.6118 0.7889 0.3778
C19A C -0.8152(4) 0.8234(3) 0.51482(18)
H15A H -0.7506 0.8164 0.5519
H16A H -0.8815 0.7953 0.5247
C20A C -0.8369(4) 0.9253(3) 0.49904(18)
C21A C -0.9259(4) 0.9513(3) 0.45026(19)
H17A H -0.9765 0.9060 0.4285
C22A C -0.9424(4) 1.0408(3) 0.43279(19)
H18A H -1.0039 1.0571 0.3987
C23A C -0.8708(4) 1.1086(2) 0.46404(18)
C24A C -0.7799(4) 1.0840(3) 0.51416(19)
H19A H -0.7301 1.1296 0.5361
C25A C -0.7633(4) 0.9915(3) 0.53169(18)
H20A H -0.7022 0.9741 0.5656
C26A C -0.8897(4) 1.2064(3) 0.44443(16)
Dy1_2 Dy -0.933510(14) 1.385939(11) 0.396474(7)
Dy1A_2 Dy 0.933510(14) 1.385939(11) 0.103526(7)
Dy1B Dy -0.066490(14) 0.614061(11) 0.603526(7)
O4_2 O -0.1901(2) 0.26279(17) 0.04730(12)
O4A_2 O 0.1901(2) 0.26279(17) 0.45270(12)
O5_2 O -0.0116(2) 0.23104(16) 0.08295(11)
O5A_2 O 0.0116(2) 0.23104(16) 0.41705(11)
O8A O -0.0422(2) 0.38579(15) -0.00040(11)
O9C O -0.0057(2) 0.53296(16) 0.07585(11)
loop_
_geom_bond_atom_site_label_1
_geom_bond_atom_site_label_2
_geom_bond_site_symmetry_1
_geom_bond_site_symmetry_2
Dy1 O1 1_555 1_555
O2 Dy1 1_555 1_555
O3 Dy1 1_555 1_555
O4 C26 1_555 1_555
O5 C26 1_555 1_555
O6 Dy1 1_555 1_555
O7 Dy1 1_555 1_555
O8 Dy1 1_555 1_555
O9 C29 1_555 1_555
N1 C8 1_555 1_555
N2 C16 1_555 1_555
C1 O2 1_555 1_555
C2 C1 1_555 1_555
C3 C2 1_555 1_555
H1 C3 1_555 1_555
C4 C3 1_555 1_555
H2 C4 1_555 1_555
C5 C4 1_555 1_555
C6 C5 1_555 1_555
H3 C6 1_555 1_555
C7 C2 1_555 1_555
H4 C7 1_555 1_555
C8 C5 1_555 1_555
H5 C8 1_555 1_555
H6 C8 1_555 1_555
C9 N1 1_555 1_555
H7 C9 1_555 1_555
C10 C9 1_555 1_555
H8 C10 1_555 1_555
C11 C10 1_555 1_555
C12 C11 1_555 1_555
H9 C12 1_555 1_555
C13 N1 1_555 1_555
H10 C13 1_555 1_555
C14 C11 1_555 1_555
C15 C14 1_555 1_555
H11 C15 1_555 1_555
C16 C15 1_555 1_555
H12 C16 1_555 1_555
C17 N2 1_555 1_555
H13 C17 1_555 1_555
C18 C14 1_555 1_555
H14 C18 1_555 1_555
C19 N2 1_555 1_555
H15 C19 1_555 1_555
H16 C19 1_555 1_555
C20 C19 1_555 1_555
C21 C20 1_555 1_555
H17 C21 1_555 1_555
C22 C21 1_555 1_555
H18 C22 1_555 1_555
C23 C22 1_555 1_555
C24 C23 1_555 1_555
H19 C24 1_555 1_555
C25 C20 1_555 1_555
H20 C25 1_555 1_555
C26 C23 1_555 1_555
C27 O6 1_555 1_555
C28 O7 1_555 1_555
C29 O8 1_555 1_555
O6A C27 1_555 1_555
O7A C28 1_555 1_555
O8B C29B 1_555 1_555
O9B Dy1 1_555 1_555
C29B C29 1_555 1_555
Dy1A O6A 1_555 1_555
O1A Dy1A 1_555 1_555
O2A Dy1A 1_555 1_555
O3A Dy1A 1_555 1_555
O4A C26A 1_555 1_555
O5A C26A 1_555 1_555
N1A C8A 1_555 1_555
N2A C16A 1_555 1_555
C1A O2A 1_555 1_555
C2A C1A 1_555 1_555
C3A C2A 1_555 1_555
H1A C3A 1_555 1_555
C4A C3A 1_555 1_555
H2A C4A 1_555 1_555
C5A C4A 1_555 1_555
C6A C5A 1_555 1_555
H3A C6A 1_555 1_555
C7A C2A 1_555 1_555
H4A C7A 1_555 1_555
C8A C5A 1_555 1_555
H5A C8A 1_555 1_555
H6A C8A 1_555 1_555
C9A N1A 1_555 1_555
H7A C9A 1_555 1_555
C10A C9A 1_555 1_555
H8A C10A 1_555 1_555
C11A C10A 1_555 1_555
C12A C11A 1_555 1_555
H9A C12A 1_555 1_555
C13A N1A 1_555 1_555
H10A C13A 1_555 1_555
C14A C11A 1_555 1_555
C15A C14A 1_555 1_555
H11A C15A 1_555 1_555
C16A C15A 1_555 1_555
H12A C16A 1_555 1_555
C17A N2A 1_555 1_555
H13A C17A 1_555 1_555
C18A C14A 1_555 1_555
H14A C18A 1_555 1_555
C19A N2A 1_555 1_555
H15A C19A 1_555 1_555
H16A C19A 1_555 1_555
C20A C19A 1_555 1_555
C21A C20A 1_555 1_555
H17A C21A 1_555 1_555
C22A C21A 1_555 1_555
H18A C22A 1_555 1_555
C23A C22A 1_555 1_555
C24A C23A 1_555 1_555
H19A C24A 1_555 1_555
C25A C20A 1_555 1_555
H20A C25A 1_555 1_555
C26A C23A 1_555 1_555
Dy1_2 O4A 1_555 1_555
Dy1A_2 O4 1_555 1_555
Dy1B O9 1_555 1_555
O4_2 Dy1A 1_555 1_555
O4A_2 Dy1 1_555 1_555
O5_2 Dy1A 1_555 1_555
O5A_2 Dy1 1_555 1_555
O8A Dy1A 1_555 1_555
O9C Dy1A 1_555 1_555
O3 C1 1_555 1_555
O5 Dy1A_2 1_555 1_555
C6 C7 1_555 1_555
C12 C13 1_555 1_555
C17 C18 1_555 1_555
C24 C25 1_555 1_555
C27 C28 1_555 1_555
O7A Dy1A 1_555 1_555
O8B Dy1B 1_555 1_555
O9B C29B 1_555 1_555
O3A C1A 1_555 1_555
O5A Dy1_2 1_555 1_555
C6A C7A 1_555 1_555
C12A C13A 1_555 1_555
C17A C18A 1_555 1_555
C24A C25A 1_555 1_555

#END
