
#######################################################################
#
#                 Cambridge Crystallographic Data Centre
#                                CCDC 
#
#######################################################################
#
# If this CIF has been generated from an entry in the Cambridge 
# Structural Database, then it will include bibliographic, chemical, 
# crystal, experimental, refinement or atomic coordinate data resulting 
# from the CCDC's data processing and validation procedures.
#
#######################################################################

data_CAYBAH
_chemical_formula_moiety         '(C12 H12 Cu3 N18)n'
_chemical_name_systematic        
catena-[hexakis(\m~3~-1,2,3-Triazolato)-tri-copper(ii)]
_symmetry_cell_setting           tetragonal
_symmetry_space_group_name_H-M   'I 41/a m d'
_symmetry_Int_Tables_number      141
_space_group_name_Hall           '-I 4bd 2'
loop_
_symmetry_equiv_pos_site_id
_symmetry_equiv_pos_as_xyz
1 x,y,z
2 1/2-x,-y,1/2+z
3 1/4-y,3/4+x,1/4+z
4 1/4+y,1/4-x,3/4+z
5 1/2-x,y,1/2-z
6 x,-y,-z
7 1/4+y,3/4+x,1/4-z
8 1/4-y,1/4-x,3/4-z
9 1/2+x,1/2+y,1/2+z
10 -x,1/2-y,z
11 3/4-y,1/4+x,3/4+z
12 3/4+y,3/4-x,1/4+z
13 -x,1/2+y,-z
14 1/2+x,1/2-y,1/2-z
15 3/4+y,1/4+x,3/4-z
16 3/4-y,3/4-x,1/4-z
17 -x,-y,-z
18 1/2+x,y,1/2-z
19 3/4+y,1/4-x,3/4-z
20 3/4-y,3/4+x,1/4-z
21 1/2+x,-y,1/2+z
22 -x,y,z
23 3/4-y,1/4-x,3/4+z
24 3/4+y,3/4+x,1/4+z
25 1/2-x,1/2-y,1/2-z
26 x,1/2+y,-z
27 1/4+y,3/4-x,1/4-z
28 1/4-y,1/4+x,3/4-z
29 x,1/2-y,z
30 1/2-x,1/2+y,1/2+z
31 1/4-y,3/4-x,1/4+z
32 1/4+y,1/4+x,3/4+z
_cell_length_a                   11.8447(7)
_cell_length_b                   11.8447(7)
_cell_length_c                   18.9782(13)
_cell_angle_alpha                90
_cell_angle_beta                 90
_cell_angle_gamma                90
_cell_volume                     2662.58
_exptl_crystal_colour            blue
_exptl_crystal_description       'distorted octahedral'
_cell_formula_units_Z            4
loop_
_atom_site_label
_atom_site_type_symbol
_atom_site_fract_x
_atom_site_fract_y
_atom_site_fract_z
_atom_site_U_iso_or_equiv
_atom_site_thermal_displace_type
Cu1 Cu 0.0000 0.7500 0.1250 0.0148 Uani
Cu2 Cu -0.2500 0.7500 0.2500 0.0201 Uani
N1 N 0.0000 0.7500 0.2487(3) 0.0203 Uani
N2 N -0.1218(3) 0.8718(3) 0.1250 0.0267 Uani
N3 N -0.0915 0.7500(4) 0.2894(2) 0.0230 Uani
N4 N -0.2053(3) 0.8784(3) 0.1721(2) 0.0347 Uani
C1 C -0.0570 0.7500(5) 0.3562(3) 0.0357 Uani
H1 H -0.1033 0.7500 0.3958 0.0430 Uiso
C2 C -0.2665(4) 0.9694(4) 0.1539(3) 0.0520 Uani
H2 H -0.3304 0.9955 0.1772 0.0630 Uiso
Cu2I Cu 0.2500 0.7500 0.2500 0.0201 Uani
Cu2J Cu 0.0000 1.0000 0.0000 0.0201 Uani
Cu2C Cu 0.0000 0.5000 0.0000 0.0201 Uani
N1F N 0.0000 0.7500 0.0013(3) 0.0203 Uani
N2U N 0.1218(3) 0.8718(3) 0.1250 0.0267 Uani
N2S N -0.1218(3) 0.6282(3) 0.1250 0.0267 Uani
N2F N 0.1218(3) 0.6282(3) 0.1250 0.0267 Uani
N3I N 0.0915 0.7500(4) 0.2894(2) 0.0230 Uani
N3F N 0.0000(4) 0.6585 -0.0394(2) 0.0230 Uani
N3O N 0.0000(4) 0.8415 -0.0394(2) 0.0230 Uani
N3D N -0.4085 0.7500(4) 0.2106(2) 0.0230 Uani
N3M N 0.4085 0.7500(4) 0.2106(2) 0.0230 Uani
N4O N -0.1284(3) 0.9553(3) 0.0779(2) 0.0347 Uani
N4U N 0.2053(3) 0.8784(3) 0.1721(2) 0.0347 Uani
N4Z N 0.1284(3) 0.9553(3) 0.0779(2) 0.0347 Uani
N4S N -0.1284(3) 0.5447(3) 0.0779(2) 0.0347 Uani
N4BA N -0.2053(3) 0.6216(3) 0.1721(2) 0.0347 Uani
N4F N 0.1284(3) 0.5447(3) 0.0779(2) 0.0347 Uani
N4I N 0.2053(3) 0.6216(3) 0.1721(2) 0.0347 Uani
N4D N -0.2947(3) 0.8784(3) 0.3279(2) 0.0347 Uani
N4X N -0.2947(3) 0.6216(3) 0.3279(2) 0.0347 Uani
N4M N 0.2947(3) 0.6216(3) 0.3279(2) 0.0347 Uani
N4Q N 0.2947(3) 0.8784(3) 0.3279(2) 0.0347 Uani
C1I C 0.0570 0.7500(5) 0.3562(3) 0.0357 Uani
C1F C 0.0000(5) 0.6930 -0.1062(3) 0.0357 Uani
C1O C 0.0000(5) 0.8070 -0.1062(3) 0.0357 Uani
H1I H 0.1033 0.7500 0.3958 0.0430 Uiso
H1F H 0.0000 0.6467 -0.1458 0.0430 Uiso
H1O H 0.0000 0.8533 -0.1458 0.0430 Uiso
C2O C -0.2194(4) 1.0165(4) 0.0961(3) 0.0520 Uani
C2U C 0.2665(4) 0.9694(4) 0.1539(3) 0.0520 Uani
C2Z C 0.2194(4) 1.0165(4) 0.0961(3) 0.0520 Uani
C2S C -0.2194(4) 0.4835(4) 0.0961(3) 0.0520 Uani
C2BA C -0.2665(4) 0.5306(4) 0.1539(3) 0.0520 Uani
C2F C 0.2194(4) 0.4835(4) 0.0961(3) 0.0520 Uani
C2I C 0.2665(4) 0.5306(4) 0.1539(3) 0.0520 Uani
H2O H -0.2455 1.0804 0.0728 0.0630 Uiso
H2U H 0.3304 0.9955 0.1772 0.0630 Uiso
H2Z H 0.2455 1.0804 0.0728 0.0630 Uiso
H2S H -0.2455 0.4196 0.0728 0.0630 Uiso
H2BA H -0.3304 0.5045 0.1772 0.0630 Uiso
H2F H 0.2455 0.4196 0.0728 0.0630 Uiso
H2I H 0.3304 0.5045 0.1772 0.0630 Uiso
loop_
_atom_site_aniso_label
_atom_site_aniso_U_11
_atom_site_aniso_U_22
_atom_site_aniso_U_33
_atom_site_aniso_U_23
_atom_site_aniso_U_13
_atom_site_aniso_U_12
Cu1 0.0137(5) 0.0137(5) 0.0170(7) 0.000 0.000 0.000
Cu2 0.0137 0.0271 0.0195 0 0.0042 0
N1 0.011 0.028 0.022 0 0 0
N2 0.027 0.027 0.026 -0.0052 -0.0052 0.011
N3 0.017 0.033 0.019 0 0.008 0
N4 0.025 0.035 0.044 -0.0117 -0.0018 0.0092
C1 0.024 0.062 0.021 0 0.002 0
C2 0.031 0.037 0.088 -0.008 0.002 0.014
Cu2I 0.0137 0.0271 0.0195 0 -0.0042 0
Cu2J 0.0271 0.0137 0.0195 0.0042 0 0
Cu2C 0.0271(6) 0.0137(6) 0.0195(5) -0.0042(4) 0.000 0.000
N1F 0.028 0.011 0.022 0 0 0
N2U 0.027 0.027 0.026 -0.0052 0.0052 -0.011
N2S 0.027 0.027 0.026 0.0052 -0.0052 -0.011
N2F 0.0270(17) 0.0270(17) 0.026(2) 0.0052(17) 0.0052(17) 0.011(2)
N3I 0.017 0.033 0.019 0 -0.008 0
N3F 0.033 0.017 0.019 -0.008 0 0
N3O 0.033 0.017 0.019 0.008 0 0
N3D 0.017 0.033 0.019 0 0.008 0
N3M 0.017 0.033 0.019 0 -0.008 0
N4O 0.035 0.025 0.044 -0.0018 -0.0117 0.0092
N4U 0.025 0.035 0.044 -0.0117 0.0018 -0.0092
N4Z 0.035 0.025 0.044 -0.0018 0.0117 -0.0092
N4S 0.035 0.025 0.044 0.0018 -0.0117 -0.0092
N4BA 0.025 0.035 0.044 0.0117 -0.0018 -0.0092
N4F 0.035(2) 0.025(2) 0.044(2) 0.0018(18) 0.0117(18) 0.0092(17)
N4I 0.025 0.035 0.044 0.0117 0.0018 0.0092
N4D 0.025 0.035 0.044 0.0117 -0.0018 -0.0092
N4X 0.025 0.035 0.044 -0.0117 -0.0018 0.0092
N4M 0.025 0.035 0.044 -0.0117 0.0018 -0.0092
N4Q 0.025 0.035 0.044 0.0117 0.0018 0.0092
C1I 0.024 0.062 0.021 0 -0.002 0
C1F 0.062 0.024 0.021 -0.002 0 0
C1O 0.062 0.024 0.021 0.002 0 0
C2O 0.037 0.031 0.088 0.002 -0.008 0.014
C2U 0.031 0.037 0.088 -0.008 -0.002 -0.014
C2Z 0.037 0.031 0.088 0.002 0.008 -0.014
C2S 0.037 0.031 0.088 -0.002 -0.008 -0.014
C2BA 0.031 0.037 0.088 0.008 0.002 -0.014
C2F 0.037(3) 0.031(3) 0.088(4) -0.002(3) 0.008(3) 0.014(2)
C2I 0.031 0.037 0.088 0.008 -0.002 0.014
loop_
_geom_bond_atom_site_label_1
_geom_bond_atom_site_label_2
_geom_bond_site_symmetry_1
_geom_bond_site_symmetry_2
Cu1 N1 1_555 1_555
Cu2 N3 1_555 1_555
N1 N3 1_555 1_555
N2 Cu1 1_555 1_555
N3 C1 1_555 1_555
N4 Cu2 1_555 1_555
C1 H1 1_555 1_555
C2 N4 1_555 1_555
H2 C2 1_555 1_555
Cu2I N3I 1_555 1_555
Cu2J N3O 1_555 1_555
Cu2C N3F 1_555 1_555
N1F Cu1 1_555 1_555
N2U Cu1 1_555 1_555
N2S Cu1 1_555 1_555
N2F Cu1 1_555 1_555
N3I N1 1_555 1_555
N3F N1F 1_555 1_555
N3O N1F 1_555 1_555
N3D Cu2 1_555 1_555
N3M Cu2I 1_555 1_555
N4O N2 1_555 1_555
N4U Cu2I 1_555 1_555
N4Z Cu2J 1_555 1_555
N4S Cu2C 1_555 1_555
N4BA Cu2 1_555 1_555
N4F Cu2C 1_555 1_555
N4I Cu2I 1_555 1_555
N4D Cu2 1_555 1_555
N4X Cu2 1_555 1_555
N4M Cu2I 1_555 1_555
N4Q Cu2I 1_555 1_555
C1I C1 1_555 1_555
C1F N3F 1_555 1_555
C1O N3O 1_555 1_555
H1I C1I 1_555 1_555
H1F C1F 1_555 1_555
H1O C1O 1_555 1_555
C2O C2 1_555 1_555
C2U N4U 1_555 1_555
C2Z N4Z 1_555 1_555
C2S N4S 1_555 1_555
C2BA N4BA 1_555 1_555
C2F N4F 1_555 1_555
C2I N4I 1_555 1_555
H2O C2O 1_555 1_555
H2U C2U 1_555 1_555
H2Z C2Z 1_555 1_555
H2S C2S 1_555 1_555
H2BA C2BA 1_555 1_555
H2F C2F 1_555 1_555
H2I C2I 1_555 1_555
N2 N4 1_555 1_555
Cu2J N4O 1_555 1_555
N2U N4U 1_555 1_555
N2U N4Z 1_555 1_555
N2S N4S 1_555 1_555
N2S N4BA 1_555 1_555
N2F N4F 1_555 1_555
N2F N4I 1_555 1_555
N3I C1I 1_555 1_555
N4O C2O 1_555 1_555
C1F C1O 1_555 1_555
C2U C2Z 1_555 1_555
C2S C2BA 1_555 1_555
C2F C2I 1_555 1_555

#END
