
#######################################################################
#
#                 Cambridge Crystallographic Data Centre
#                                CCDC 
#
#######################################################################
#
# If this CIF has been generated from an entry in the Cambridge 
# Structural Database, then it will include bibliographic, chemical, 
# crystal, experimental, refinement or atomic coordinate data resulting 
# from the CCDC's data processing and validation procedures.
#
#######################################################################

data_BEYRUU
_chemical_name_common            bio-MOF-14
_chemical_formula_moiety         '(C10 H13 Co1 N5 O2)n,0.5n(H2 O1)'
_chemical_name_systematic        
'catena-((\m~3~-adeninato)-(\m~2~-valerato)-cobalt(ii) hemihydrate)'
_symmetry_cell_setting           tetragonal
_symmetry_space_group_name_H-M   'I 41/a'
_symmetry_Int_Tables_number      88
_space_group_name_Hall           '-I 4ad'
loop_
_symmetry_equiv_pos_site_id
_symmetry_equiv_pos_as_xyz
1 x,y,z
2 1/2-x,-y,1/2+z
3 3/4-y,1/4+x,1/4+z
4 3/4+y,3/4-x,3/4+z
5 1/2+x,1/2+y,1/2+z
6 -x,1/2-y,z
7 1/4-y,3/4+x,3/4+z
8 1/4+y,1/4-x,1/4+z
9 -x,-y,-z
10 1/2+x,y,1/2-z
11 1/4+y,3/4-x,3/4-z
12 1/4-y,1/4+x,1/4-z
13 1/2-x,1/2-y,1/2-z
14 x,1/2+y,-z
15 3/4+y,1/4-x,1/4-z
16 3/4-y,3/4+x,3/4-z
_cell_length_a                   15.852(3)
_cell_length_b                   15.852(3)
_cell_length_c                   22.346(8)
_cell_angle_alpha                90
_cell_angle_beta                 90
_cell_angle_gamma                90
_cell_volume                     5615.23
_exptl_crystal_description       block
_cell_formula_units_Z            16
loop_
_atom_site_label
_atom_site_type_symbol
_atom_site_fract_x
_atom_site_fract_y
_atom_site_fract_z
_atom_site_U_iso_or_equiv
_atom_site_thermal_displace_type
N1 N 0.1328(5) 0.9725(4) 0.2827(3) 0.0920 Uani
Co1 Co 0.04001(5) 1.01643(5) 0.05946(3) 0.0447 Uani
N2 N 0.1729(3) 1.1749(3) 0.17816(19) 0.0460 Uani
O1 O -0.0142(3) 0.9071(3) 0.0888(2) 0.0663 Uani
N3 N 0.0996(3) 1.0688(3) 0.13295(19) 0.0473 Uani
C1 C 0.1197(4) 1.0466(3) 0.1909(2) 0.0467 Uani
C2 C 0.1331(4) 1.1453(4) 0.1296(2) 0.0533 Uani
H1 H 0.1290 1.1773 0.0948 0.0640 Uiso
O2 O -0.0743(3) 0.8925(3) 0.00036(19) 0.0693 Uani
N4 N 0.1940(3) 1.1096(3) 0.2749(2) 0.0533 Uani
C3 C 0.1637(3) 1.1107(3) 0.2176(2) 0.0430 Uani
C4 C -0.0636(4) 0.8697(4) 0.0531(3) 0.0560 Uani
C5 C 0.1026(5) 0.9735(4) 0.2257(3) 0.0693 Uani
C6 C 0.1748(5) 1.0388(4) 0.3030(3) 0.0773 Uani
H2 H 0.1933 1.0351 0.3424 0.0930 Uiso
N5 N 0.0601(5) 0.9075(4) 0.2062(3) 0.0970 Uani
H3 H 0.0520 0.8650 0.2295 0.1160 Uiso
H4 H 0.0405 0.9069 0.1704 0.1160 Uiso
C7 C -0.1128(6) 0.7958(5) 0.0761(4) 0.0920 Uani
H5 H -0.1658 0.7944 0.0545 0.1100 Uiso
H6 H -0.0821 0.7450 0.0655 0.1100 Uiso
C8 C -0.136(2) 0.7947(13) 0.1396(8) 0.1243 Uani
H7 H -0.0835 0.7886 0.1617 0.1490 Uiso
H8 H -0.1675 0.7432 0.1460 0.1490 Uiso
C9 C -0.184(2) 0.8631(17) 0.1693(11) 0.1940 Uani
H9 H -0.2382 0.8670 0.1497 0.2330 Uiso
H10 H -0.1544 0.9157 0.1615 0.2330 Uiso
C10 C -0.199(3) 0.858(3) 0.2354(12) 0.3733 Uani
H11 H -0.2342 0.9047 0.2476 0.5620 Uiso
H12 H -0.1466 0.8605 0.2563 0.5620 Uiso
H13 H -0.2275 0.8061 0.2446 0.5620 Uiso
Co1G Co 0.26643(5) 1.20999(5) 0.30946(3) 0.0447 Uani
Co1H Co -0.04001(5) 0.98357(5) -0.05946(3) 0.0447 Uani
Co1K Co 0.23357(5) 1.29001(5) 0.19054(3) 0.0447 Uani
N2N N -0.0751(3) 1.0771(3) 0.07184(19) 0.0460 Uani
O2H O 0.0743(3) 1.1075(3) -0.00036(19) 0.0693 Uani
N4F N 0.1404(3) 0.9440(3) 0.0249(2) 0.0533 Uani
O3 O 0.0000 0.7500 0.2814(14) 0.3630 Uiso
C11? C -0.147(5) 0.823(4) 0.1348(14) 0.1443 Uani
C12? C -0.154(4) 0.769(4) 0.1878(13) 0.1707 Uani
C13? C -0.101(5) 0.780(3) 0.242(2) 0.1567 Uani
H14? H -0.1673 0.7944 0.0564 0.1100 Uiso
H15? H -0.0832 0.7440 0.0662 0.1100 Uiso
H16? H -0.1143 0.8715 0.1469 0.1730 Uiso
H17? H -0.2039 0.8436 0.1269 0.1730 Uiso
H18? H -0.1446 0.7113 0.1742 0.2030 Uiso
H19? H -0.2123 0.7716 0.2009 0.2030 Uiso
H20? H -0.0444 0.7613 0.2344 0.2410 Uiso
H21? H -0.1240 0.7483 0.2749 0.2410 Uiso
H22? H -0.0996 0.8390 0.2532 0.2410 Uiso
H23? H -0.0921 0.7450 0.0568 0.1100 Uiso
H24? H -0.1025 0.7901 0.1187 0.1100 Uiso
C14? C -0.2038(10) 0.8022(14) 0.0660(17) 0.1457 Uani
H25? H -0.2296 0.7560 0.0878 0.1750 Uiso
H26? H -0.2131 0.7909 0.0239 0.1750 Uiso
C15? C -0.2530(13) 0.8789(14) 0.0807(17) 0.1653 Uani
H27? H -0.2225 0.9267 0.0643 0.1990 Uiso
H28? H -0.2521 0.8851 0.1239 0.1990 Uiso
C16? C -0.343(2) 0.887(2) 0.061(2) 0.2200 Uani
H29? H -0.3664 0.9379 0.0779 0.3290 Uiso
H30? H -0.3744 0.8395 0.0750 0.3290 Uiso
H31? H -0.3453 0.8900 0.0184 0.3290 Uiso
loop_
_atom_site_aniso_label
_atom_site_aniso_U_11
_atom_site_aniso_U_22
_atom_site_aniso_U_33
_atom_site_aniso_U_23
_atom_site_aniso_U_13
_atom_site_aniso_U_12
N1 0.146(6) 0.063(4) 0.067(4) 0.024(3) -0.044(4) -0.042(4)
Co1 0.0438(5) 0.0522(5) 0.0382(4) -0.0135(3) -0.0029(3) 0.0010(3)
N2 0.055(3) 0.042(3) 0.041(2) 0.0003(19) -0.011(2) -0.005(2)
O1 0.062(3) 0.058(3) 0.079(3) -0.006(2) -0.011(2) -0.009(2)
N3 0.055(3) 0.047(3) 0.040(2) -0.007(2) -0.005(2) -0.001(2)
C1 0.053(3) 0.041(3) 0.046(3) -0.003(2) -0.007(2) 0.000(3)
C2 0.067(4) 0.056(4) 0.037(3) -0.005(2) -0.010(3) -0.007(3)
O2 0.081(3) 0.074(3) 0.053(2) 0.003(2) 0.013(2) -0.002(2)
N4 0.068(3) 0.047(3) 0.045(2) 0.007(2) -0.018(2) -0.006(2)
C3 0.043(3) 0.041(3) 0.045(3) -0.005(2) -0.005(2) 0.001(2)
C4 0.059(4) 0.044(3) 0.065(4) -0.004(3) 0.009(3) -0.006(3)
C5 0.095(5) 0.051(4) 0.062(4) 0.003(3) -0.022(4) -0.018(4)
C6 0.115(6) 0.062(4) 0.055(4) 0.009(3) -0.031(4) -0.023(4)
N5 0.149(6) 0.055(4) 0.087(4) 0.011(3) -0.047(4) -0.042(4)
C7 0.093(6) 0.077(5) 0.106(6) 0.023(5) -0.001(5) -0.027(4)
C8 0.158(16) 0.101(15) 0.114(10) 0.035(10) 0.041(11) -0.053(12)
C9 0.22(2) 0.19(2) 0.172(17) -0.016(16) 0.076(17) -0.018(18)
C10 0.40(5) 0.52(6) 0.20(2) 0.01(3) 0.17(4) 0.12(5)
Co1G 0.0522 0.0438 0.0382 0.0029 -0.0135 -0.001
Co1H 0.0438 0.0522 0.0382 -0.0135 -0.0029 0.001
Co1K 0.0522 0.0438 0.0382 0.0029 -0.0135 -0.001
N2N 0.042 0.055 0.041 -0.011 -0.0003 0.005
O2H 0.081 0.074 0.053 0.003 0.013 -0.002
N4F 0.047 0.068 0.045 -0.018 -0.007 0.006
C11? 0.17(2) 0.12(2) 0.143(15) 0.007(15) 0.072(17) -0.07(2)
C12? 0.23(3) 0.15(2) 0.132(14) 0.011(19) 0.06(2) -0.04(2)
C13? 0.26(4) 0.09(3) 0.12(2) -0.02(3) 0.07(3) -0.07(3)
C14? 0.078(9) 0.119(18) 0.24(3) 0.009(19) 0.058(16) -0.029(11)
C15? 0.115(15) 0.111(19) 0.27(3) 0.01(2) 0.12(2) -0.015(12)
C16? 0.21(3) 0.16(4) 0.29(5) -0.08(3) -0.02(4) 0.09(3)
loop_
_geom_bond_atom_site_label_1
_geom_bond_atom_site_label_2
_geom_bond_site_symmetry_1
_geom_bond_site_symmetry_2
N1 C5 1_555 1_555
Co1 O1 1_555 1_555
N2 C2 1_555 1_555
O1 C4 1_555 1_555
N3 Co1 1_555 1_555
C1 N3 1_555 1_555
C2 N3 1_555 1_555
H1 C2 1_555 1_555
O2 C4 1_555 1_555
N4 C3 1_555 1_555
C3 N2 1_555 1_555
C4 C7 1_555 1_555
C5 C1 1_555 1_555
C6 N1 1_555 1_555
H2 C6 1_555 1_555
N5 C5 1_555 1_555
H3 N5 1_555 1_555
H4 N5 1_555 1_555
C7 H5 1_555 1_555
H6 C7 1_555 1_555
C8 C7 1_555 1_555
H7 C8 1_555 1_555
H8 C8 1_555 1_555
C9 C8 1_555 1_555
H9 C9 1_555 1_555
H10 C9 1_555 1_555
C10 C9 1_555 1_555
H11 C10 1_555 1_555
H12 C10 1_555 1_555
H13 C10 1_555 1_555
Co1G N4 1_555 1_555
Co1H O2 1_555 1_555
Co1K N2 1_555 1_555
N2N Co1 1_555 1_555
O2H Co1 1_555 1_555
N4F Co1 1_555 1_555
C1 C3 1_555 1_555
N4 C6 1_555 1_555

#END
