
#######################################################################
#
#                 Cambridge Crystallographic Data Centre
#                                CCDC 
#
#######################################################################
#
# If this CIF has been generated from an entry in the Cambridge 
# Structural Database, then it will include bibliographic, chemical, 
# crystal, experimental, refinement or atomic coordinate data resulting 
# from the CCDC's data processing and validation procedures.
#
#######################################################################

data_JIZWEW
_chemical_formula_moiety         '(C16 H20 Al2 O10)n,n(C8 H10)'
_chemical_name_systematic        
'catena-[bis(\m~4~-cyclohexane-1,4-dicarboxylato)-di-aluminium m-xylene solvate]'
_symmetry_cell_setting           monoclinic
_symmetry_space_group_name_H-M   'P 21'
_symmetry_Int_Tables_number      4
_space_group_name_Hall           'P 2yb'
loop_
_symmetry_equiv_pos_site_id
_symmetry_equiv_pos_as_xyz
1 x,y,z
2 -x,1/2+y,-z
_cell_length_a                   6.61029(34)
_cell_length_b                   17.89844(85)
_cell_length_c                   11.09887(47)
_cell_angle_alpha                90
_cell_angle_beta                 91.2461(36)
_cell_angle_gamma                90
_cell_volume                     1312.84
_exptl_crystal_colour            white
_cell_formula_units_Z            2
loop_
_atom_site_label
_atom_site_type_symbol
_atom_site_fract_x
_atom_site_fract_y
_atom_site_fract_z
_atom_site_U_iso_or_equiv
_atom_site_thermal_displace_type
Al1 Al 0.2297(18) 0.22389(64) 0.2543(11) 0.0053 Uiso
O1 O -0.0126(20) 0.2210(32) 0.1551(17) 0.0013 Uiso
O2 O -0.1760(24) 0.6492(12) 0.6207(21) 0.0013 Uiso
O3 O 0.3645(28) 1.1452(13) 1.1683(24) 0.1013 Uiso
O4 O 0.1660(27) 0.3083(11) 0.3557(19) 0.0241 Uiso
O5 O 0.6714(29) 0.7965(10) 0.8585(24) 0.0013 Uiso
Al2 Al 0.2457(21) 0.72322(67) 0.7543(12) 0.0013 Uiso
O6 O 0.4971(18) 0.7324(26) 0.6793(16) 0.0013 Uiso
O7 O 0.3637(29) 0.79573(99) 0.8605(16) 0.0013 Uiso
O8 O -0.1152(34) 0.2985(11) 0.3440(20) 0.1013 Uiso
O9 O 0.6815(26) 1.1397(11) 1.1575(25) 0.0177 Uiso
O10 O 0.1818(25) 0.6505(12) 0.6368(19) 0.0013 Uiso
C1 C 0.321032 0.943579 0.956442 0.1013 Uiso
C2 C 0.332834 1.004988 1.050824 0.0013 Uiso
C3 C 0.703380 1.016744 1.019758 0.0203 Uiso
C4 C 0.688864 0.956366 0.924283 0.0013 Uiso
C5 C 0.520119 0.901301 0.950407 0.1013 Uiso
C6 C 0.505448 1.058967 1.027023 0.0013 Uiso
C7 C 0.516006 0.840255 0.857511 0.0013 Uiso
C8 C 0.511914 1.12283 1.115262 0.1013 Uiso
C9 C -0.154019 0.510304 0.567570 0.1013 Uiso
C10 C -0.178324 0.441297 0.488997 0.0899 Uiso
C11 C 0.167989 0.458244 0.416208 0.0291 Uiso
C12 C 0.195685 0.528747 0.492194 0.0013 Uiso
C13 C -0.005223 0.566488 0.516936 0.0013 Uiso
C14 C 0.024889 0.403703 0.475704 0.0101 Uiso
C15 C 0.009094 0.633775 0.598667 0.0253 Uiso
C16 C 0.016241 0.329246 0.412606 0.0013 Uiso
Al1A Al -0.2297(18) 0.72389(64) 0.7457(11) 0.0053 Uiso
Al1A_2 Al 0.7703(18) 0.72389(64) 0.7457(11) 0.0053 Uiso
Al1_2 Al 0.2297(18) 1.22389(64) 1.2543(11) 0.0053 Uiso
O1A O 0.0126(20) 0.7210(32) 0.8449(17) 0.0013 Uiso
O2A O 0.1760(24) 0.1492(12) 0.3793(21) 0.0013 Uiso
O3_2 O 0.3645(28) 0.1452(13) 0.1683(24) 0.1013 Uiso
O5A O 0.3286(29) 0.2965(10) 0.1415(24) 0.0013 Uiso
Al2A Al -0.2457(21) 0.22322(67) 0.2457(12) 0.0013 Uiso
Al2A_2 Al 0.7543(21) 1.22322(67) 1.2457(12) 0.0013 Uiso
O6A O 0.5029(18) 0.2324(26) 0.3207(16) 0.0013 Uiso
O8A O 0.1152(34) 0.7985(11) 0.6560(20) 0.1013 Uiso
O9A O 0.3185(26) 0.6397(11) 0.8425(25) 0.0177 Uiso
C17 C 0.76288 0.78046 0.21100 0.0013 Uiso
C18 C 0.94708 0.74695 0.18910 0.0013 Uiso
C19 C 0.97687 0.67218 0.21600 0.0013 Uiso
C20 C 0.82190 0.63086 0.26503 0.0013 Uiso
C21 C 0.63715 0.66431 0.28662 0.0013 Uiso
C22 C 0.60767 0.73907 0.25944 0.0013 Uiso
C23 C 1.10752 0.79004 0.13215 0.0013 Uiso
C24 C 0.41351 0.77527 0.28447 0.0013 Uiso
C25? C 0.564282 0.776511 0.346446 0.0013 Uiso
C26? C 0.728264 0.800782 0.281477 0.0013 Uiso
C27? C 0.829984 0.751394 0.208477 0.0013 Uiso
C28? C 0.768066 0.677655 0.201048 0.0013 Uiso
C29? C 0.603163 0.653781 0.265565 0.0013 Uiso
C30? C 0.500997 0.703128 0.338129 0.0013 Uiso
C31? C 0.537369 0.575745 0.258360 0.0013 Uiso
C32? C 0.462933 0.827585 0.428881 0.0013 Uiso
loop_
_geom_bond_atom_site_label_1
_geom_bond_atom_site_label_2
_geom_bond_site_symmetry_1
_geom_bond_site_symmetry_2
Al1 O1 1_555 1_555
O1 Al2A 1_555 1_555
O2 C15 1_555 1_555
O3 C8 1_555 1_555
O4 Al1 1_555 1_555
O5 C7 1_555 1_555
Al2 O6 1_555 1_555
O6 Al1A_2 1_555 1_555
O7 Al2 1_555 1_555
O8 C16 1_555 1_555
O9 C8 1_555 1_555
O10 Al2 1_555 1_555
C1 C2 1_555 1_555
C2 C6 1_555 1_555
C3 C4 1_555 1_555
C4 C5 1_555 1_555
C5 C1 1_555 1_555
C6 C3 1_555 1_555
C7 O7 1_555 1_555
C8 C6 1_555 1_555
C9 C10 1_555 1_555
C10 C14 1_555 1_555
C11 C12 1_555 1_555
C12 C13 1_555 1_555
C13 C9 1_555 1_555
C14 C11 1_555 1_555
C15 O10 1_555 1_555
C16 O4 1_555 1_555
C17 C18 1_555 1_555
C18 C19 1_555 1_555
C19 C20 1_555 1_555
C20 C21 1_555 1_555
C21 C22 1_555 1_555
C22 C17 1_555 1_555
C23 C18 1_555 1_555
C24 C22 1_555 1_555
Al1A O2 1_555 1_555
Al1A_2 O5 1_555 1_555
Al1_2 O3 1_555 1_555
O1A Al2 1_555 1_555
O2A Al1 1_555 1_555
O3_2 Al1 1_555 1_555
O5A Al1 1_555 1_555
Al2A O8 1_555 1_555
Al2A_2 O9 1_555 1_555
O6A Al1 1_555 1_555
O8A Al2 1_555 1_555
O9A Al2 1_555 1_555
C5 C7 1_555 1_555
C13 C15 1_555 1_555
C14 C16 1_555 1_555
Al1A O1A 1_555 1_555

#END
