
#######################################################################
#
#                 Cambridge Crystallographic Data Centre
#                                CCDC 
#
#######################################################################
#
# If this CIF has been generated from an entry in the Cambridge 
# Structural Database, then it will include bibliographic, chemical, 
# crystal, experimental, refinement or atomic coordinate data resulting 
# from the CCDC's data processing and validation procedures.
#
#######################################################################

data_JIZWIA
_chemical_formula_moiety         '(C16 H20 Al2 O10)n,n(C8 H10)'
_chemical_name_systematic        
'catena-[bis(\m~4~-cyclohexane-1,4-dicarboxylato)-di-aluminium o-xylene solvate]'
_symmetry_cell_setting           monoclinic
_symmetry_space_group_name_H-M   'P 21'
_symmetry_Int_Tables_number      4
_space_group_name_Hall           'P 2yb'
loop_
_symmetry_equiv_pos_site_id
_symmetry_equiv_pos_as_xyz
1 x,y,z
2 -x,1/2+y,-z
_cell_length_a                   6.60306(75)
_cell_length_b                   18.0599(16)
_cell_length_c                   10.85793(70)
_cell_angle_alpha                90
_cell_angle_beta                 90.3736(87)
_cell_angle_gamma                90
_cell_volume                     1294.79
_exptl_crystal_colour            white
_cell_formula_units_Z            2
loop_
_atom_site_label
_atom_site_type_symbol
_atom_site_fract_x
_atom_site_fract_y
_atom_site_fract_z
_atom_site_U_iso_or_equiv
_atom_site_thermal_displace_type
Al1 Al 0.2366(36) 0.2346(14) 0.2440(21) 0.0013 Uiso
O1 O -0.0109(34) 0.2321(63) 0.1598(38) 0.0013 Uiso
O2 O -0.1646(40) 0.6611(15) 0.6359(27) 0.1013 Uiso
O3 O 0.3235(54) 1.1584(18) 1.1335(40) 0.0684 Uiso
O4 O 0.1618(51) 0.3079(21) 0.3548(37) 0.0557 Uiso
O5 O 0.6812(42) 0.8048(14) 0.8803(40) 0.0013 Uiso
Al2 Al 0.2546(44) 0.7365(15) 0.7551(26) 0.0443 Uiso
O6 O 0.5075(35) 0.7305(40) 0.6830(35) 0.0988 Uiso
O7 O 0.3651(49) 0.8022(22) 0.8730(32) 0.0013 Uiso
O8 O -0.1498(64) 0.2999(24) 0.3657(44) 0.0013 Uiso
O9 O 0.6754(64) 1.1445(21) 1.1662(47) 0.0013 Uiso
O10 O 0.1594(38) 0.6501(18) 0.6570(36) 0.0013 Uiso
C1 C -0.183952 0.510818 0.534718 0.0393 Uiso
C2 C -0.169491 0.439974 0.459694 0.0013 Uiso
C3 C 0.204230 0.438759 0.479071 0.0849 Uiso
C4 C 0.199476 0.512123 0.550768 0.0013 Uiso
C5 C 0.005809 0.556519 0.531366 0.1013 Uiso
C6 C 0.013228 0.392601 0.491386 0.0013 Uiso
C7 C -0.007026 0.626402 0.606482 0.1013 Uiso
C8 C 0.018338 0.32484 0.410533 0.1013 Uiso
C9 C 0.322097 0.955363 0.946925 0.0013 Uiso
C10 C 0.314356 1.026395 1.024744 0.0912 Uiso
C11 C 0.682661 1.017812 1.066289 0.0013 Uiso
C12 C 0.700907 0.949210 0.985996 0.0836 Uiso
C13 C 0.506066 0.906970 0.973619 0.0013 Uiso
C14 C 0.511977 1.069347 1.02833 0.1013 Uiso
C15 C 0.522847 0.839360 0.893219 0.1013 Uiso
C16 C 0.501679 1.134513 1.114689 0.0013 Uiso
Al1A Al -0.2366(36) 0.7346(14) 0.7560(21) 0.0013 Uiso
Al1A_2 Al 0.7634(36) 0.7346(14) 0.7560(21) 0.0013 Uiso
Al1_2 Al 0.2366(36) 1.2346(14) 1.2440(21) 0.0013 Uiso
O1A O 0.0109(34) 0.7321(63) 0.8402(38) 0.0013 Uiso
O2A O 0.1646(40) 0.1611(15) 0.3641(27) 0.1013 Uiso
O3_2 O 0.3235(54) 0.1584(18) 0.1335(40) 0.0684 Uiso
O5A O 0.3188(42) 0.3048(14) 0.1197(40) 0.0013 Uiso
Al2A Al -0.2546(44) 0.2365(15) 0.2449(26) 0.0443 Uiso
Al2A_2 Al 0.7454(44) 1.2365(15) 1.2449(26) 0.0443 Uiso
O6A O 0.4925(35) 0.2305(40) 0.3170(35) 0.0988 Uiso
O8A O 0.1498(64) 0.7999(24) 0.6343(44) 0.0013 Uiso
O9A O 0.3246(64) 0.6445(21) 0.8338(47) 0.0013 Uiso
C17 C -0.654973 0.687207 0.277496 0.0013 Uiso
C18 C -0.635055 0.763652 0.268959 0.0013 Uiso
C19 C -0.792626 0.805761 0.224592 0.0013 Uiso
C20 C -0.969187 0.772963 0.189579 0.0013 Uiso
C21 C -0.986574 0.696831 0.192828 0.0013 Uiso
C22 C -0.830403 0.653873 0.235887 0.0013 Uiso
C23 C -0.448887 0.800993 0.306161 0.0013 Uiso
C24 C -0.499409 0.643238 0.340056 0.0013 Uiso
C25? C -1.000812 0.661201 0.255161 0.0013 Uiso
C26? C -0.822221 0.701914 0.253178 0.0013 Uiso
C27? C -0.827169 0.776362 0.227361 0.0013 Uiso
C28? C -1.006746 0.810680 0.204432 0.0013 Uiso
C29? C -1.183458 0.769898 0.200997 0.0013 Uiso
C30? C -1.181284 0.695456 0.225547 0.0013 Uiso
C31? C -0.626832 0.667345 0.277937 0.0013 Uiso
C32? C -1.000029 0.584625 0.298934 0.0013 Uiso
loop_
_geom_bond_atom_site_label_1
_geom_bond_atom_site_label_2
_geom_bond_site_symmetry_1
_geom_bond_site_symmetry_2
Al1 O1 1_555 1_555
O1 Al2A 1_555 1_555
O2 C7 1_555 1_555
O3 C16 1_555 1_555
O4 Al1 1_555 1_555
O5 C15 1_555 1_555
Al2 O6 1_555 1_555
O6 Al1A_2 1_555 1_555
O7 Al2 1_555 1_555
O8 C8 1_555 1_555
O9 C16 1_555 1_555
O10 Al2 1_555 1_555
C1 C2 1_555 1_555
C2 C6 1_555 1_555
C3 C4 1_555 1_555
C4 C5 1_555 1_555
C5 C1 1_555 1_555
C6 C3 1_555 1_555
C7 O10 1_555 1_555
C8 O4 1_555 1_555
C9 C10 1_555 1_555
C10 C14 1_555 1_555
C11 C12 1_555 1_555
C12 C13 1_555 1_555
C13 C9 1_555 1_555
C14 C11 1_555 1_555
C15 O7 1_555 1_555
C16 C14 1_555 1_555
C17 C18 1_555 1_555
C18 C19 1_555 1_555
C19 C20 1_555 1_555
C20 C21 1_555 1_555
C21 C22 1_555 1_555
C22 C17 1_555 1_555
C23 C18 1_555 1_555
C24 C17 1_555 1_555
Al1A O2 1_555 1_555
Al1A_2 O5 1_555 1_555
Al1_2 O3 1_555 1_555
O1A Al2 1_555 1_555
O2A Al1 1_555 1_555
O3_2 Al1 1_555 1_555
O5A Al1 1_555 1_555
Al2A O8 1_555 1_555
Al2A_2 O9 1_555 1_555
O6A Al1 1_555 1_555
O8A Al2 1_555 1_555
O9A Al2 1_555 1_555
C5 C7 1_555 1_555
C6 C8 1_555 1_555
C13 C15 1_555 1_555
Al1A O1A 1_555 1_555

#END
