data_image0
_cell_length_a       32.968
_cell_length_b       32.968
_cell_length_c       32.9757
_cell_angle_alpha    60.0077
_cell_angle_beta     60.0077
_cell_angle_gamma    60

_symmetry_space_group_name_H-M    "P 1"
_symmetry_int_tables_number       1

loop_
  _symmetry_equiv_pos_as_xyz
  'x, y, z'

loop_
  _atom_site_label
  _atom_site_occupancy
  _atom_site_fract_x
  _atom_site_fract_y
  _atom_site_fract_z
  _atom_site_thermal_displace_type
  _atom_site_B_iso_or_equiv
  _atom_site_type_symbol
  _atom_site_charge
  C1       1.0000 0.99527  0.36437  0.75199  Biso   1.000  C  0.611008
  C2       1.0000 0.04943  0.34193  0.72811  Biso   1.000  C  -0.011147
  C3       1.0000 0.07595  0.29695  0.75235  Biso   1.000  C  -0.100854
  C4       1.0000 0.12647  0.27277  0.73069  Biso   1.000  C  -0.115884
  C5       1.0000 0.15059  0.29569  0.68323  Biso   1.000  C  0.027862
  C6       1.0000 0.12589  0.34109  0.65803  Biso   1.000  C  -0.121846
  C7       1.0000 0.07627  0.36467  0.67939  Biso   1.000  C  -0.096315
  C8       1.0000 0.20251  0.27201  0.65677  Biso   1.000  C  0.405044
  C9       1.0000 0.34784  0.27074  0.51118  Biso   1.000  C  -0.120074
  C10      1.0000 0.36665  0.29415  0.46165  Biso   1.000  C  -0.095155
  C11      1.0000 0.29145  0.36385  0.27205  Biso   1.000  C  -0.102201
  C12      1.0000 0.26874  0.34034  0.26968  Biso   1.000  C  -0.107140
  C13      1.0000 0.81204  0.44094  0.82948  Biso   1.000  C  0.600065
  C14      1.0000 0.75754  0.46514  0.85228  Biso   1.000  C  -0.001986
  C15      1.0000 0.73354  0.44294  0.89878  Biso   1.000  C  -0.101628
  C16      1.0000 0.68476  0.46366  0.92152  Biso   1.000  C  -0.104149
  C17      1.0000 0.65737  0.50887  0.89779  Biso   1.000  C  0.023271
  C18      1.0000 0.68158  0.53308  0.84946  Biso   1.000  C  -0.115835
  C19      1.0000 0.73047  0.51187  0.82759  Biso   1.000  C  -0.100219
  C20      1.0000 0.60354  0.53774  0.92128  Biso   1.000  C  0.369134
  C21      1.0000 0.46641  0.53301  0.06777  Biso   1.000  C  -0.105490
  C22      1.0000 0.44054  0.51144  0.11808  Biso   1.000  C  -0.114731
  C23      1.0000 0.44161  0.51311  0.31627  Biso   1.000  C  -0.097387
  C24      1.0000 0.46309  0.53529  0.31963  Biso   1.000  C  -0.114870
  C25      1.0000 0.36437  0.88837  0.75199  Biso   1.000  C  0.609439
  C26      1.0000 0.34193  0.88053  0.72811  Biso   1.000  C  -0.011072
  C27      1.0000 0.29695  0.87475  0.75235  Biso   1.000  C  -0.100598
  C28      1.0000 0.27277  0.87007  0.73069  Biso   1.000  C  -0.115857
  C29      1.0000 0.29569  0.87049  0.68323  Biso   1.000  C  0.027571
  C30      1.0000 0.34109  0.87499  0.65803  Biso   1.000  C  -0.121820
  C31      1.0000 0.36467  0.87967  0.67939  Biso   1.000  C  -0.096514
  C32      1.0000 0.27201  0.86871  0.65677  Biso   1.000  C  0.405183
  C33      1.0000 0.27074  0.87024  0.51118  Biso   1.000  C  -0.119693
  C34      1.0000 0.29415  0.87755  0.46165  Biso   1.000  C  -0.095701
  C35      1.0000 0.36385  0.07265  0.27205  Biso   1.000  C  -0.102848
  C36      1.0000 0.34034  0.12124  0.26968  Biso   1.000  C  -0.106918
  C37      1.0000 0.44094  0.91754  0.82948  Biso   1.000  C  0.598504
  C38      1.0000 0.46514  0.92504  0.85228  Biso   1.000  C  -0.002066
  C39      1.0000 0.44294  0.92474  0.89878  Biso   1.000  C  -0.101400
  C40      1.0000 0.46366  0.93006  0.92152  Biso   1.000  C  -0.104055
  C41      1.0000 0.50887  0.93597  0.89779  Biso   1.000  C  0.023123
  C42      1.0000 0.53308  0.93588  0.84946  Biso   1.000  C  -0.115668
  C43      1.0000 0.51187  0.93007  0.82759  Biso   1.000  C  -0.100618
  C44      1.0000 0.53774  0.93744  0.92128  Biso   1.000  C  0.369411
  C45      1.0000 0.53301  0.93281  0.06777  Biso   1.000  C  -0.104930
  C46      1.0000 0.51144  0.92994  0.11808  Biso   1.000  C  -0.115356
  C47      1.0000 0.51311  0.72901  0.31627  Biso   1.000  C  -0.097910
  C48      1.0000 0.53529  0.68199  0.31963  Biso   1.000  C  -0.114589
  C49      1.0000 0.88837  0.99527  0.75199  Biso   1.000  C  0.610984
  C50      1.0000 0.88053  0.04943  0.72811  Biso   1.000  C  -0.010870
  C51      1.0000 0.87475  0.07595  0.75235  Biso   1.000  C  -0.100736
  C52      1.0000 0.87007  0.12647  0.73069  Biso   1.000  C  -0.115827
  C53      1.0000 0.87049  0.15059  0.68323  Biso   1.000  C  0.027589
  C54      1.0000 0.87499  0.12589  0.65803  Biso   1.000  C  -0.121866
  C55      1.0000 0.87967  0.07627  0.67939  Biso   1.000  C  -0.096148
  C56      1.0000 0.86871  0.20251  0.65677  Biso   1.000  C  0.405258
  C57      1.0000 0.87024  0.34784  0.51118  Biso   1.000  C  -0.119191
  C58      1.0000 0.87755  0.36665  0.46165  Biso   1.000  C  -0.096322
  C59      1.0000 0.07265  0.29145  0.27205  Biso   1.000  C  -0.103435
  C60      1.0000 0.12124  0.26874  0.26968  Biso   1.000  C  -0.106581
  C61      1.0000 0.91754  0.81204  0.82948  Biso   1.000  C  0.600046
  C62      1.0000 0.92504  0.75754  0.85228  Biso   1.000  C  -0.001917
  C63      1.0000 0.92474  0.73354  0.89878  Biso   1.000  C  -0.101580
  C64      1.0000 0.93006  0.68476  0.92152  Biso   1.000  C  -0.104038
  C65      1.0000 0.93597  0.65737  0.89779  Biso   1.000  C  0.023292
  C66      1.0000 0.93588  0.68158  0.84946  Biso   1.000  C  -0.115640
  C67      1.0000 0.93007  0.73047  0.82759  Biso   1.000  C  -0.100312
  C68      1.0000 0.93744  0.60354  0.92128  Biso   1.000  C  0.369597
  C69      1.0000 0.93281  0.46641  0.06777  Biso   1.000  C  -0.104141
  C70      1.0000 0.92994  0.44054  0.11808  Biso   1.000  C  -0.115841
  C71      1.0000 0.72901  0.44161  0.31627  Biso   1.000  C  -0.098180
  C72      1.0000 0.68199  0.46309  0.31963  Biso   1.000  C  -0.113794
  C73      1.0000 0.99527  0.88837  0.75199  Biso   1.000  C  0.610996
  C74      1.0000 0.04943  0.88053  0.72811  Biso   1.000  C  -0.011057
  C75      1.0000 0.07595  0.87475  0.75235  Biso   1.000  C  -0.100791
  C76      1.0000 0.12647  0.87007  0.73069  Biso   1.000  C  -0.115843
  C77      1.0000 0.15059  0.87049  0.68323  Biso   1.000  C  0.027767
  C78      1.0000 0.12589  0.87499  0.65803  Biso   1.000  C  -0.121865
  C79      1.0000 0.07627  0.87967  0.67939  Biso   1.000  C  -0.096277
  C80      1.0000 0.20251  0.86871  0.65677  Biso   1.000  C  0.405127
  C81      1.0000 0.34784  0.87024  0.51118  Biso   1.000  C  -0.119737
  C82      1.0000 0.36665  0.87755  0.46165  Biso   1.000  C  -0.095770
  C83      1.0000 0.29145  0.07265  0.27205  Biso   1.000  C  -0.102826
  C84      1.0000 0.26874  0.12124  0.26968  Biso   1.000  C  -0.106944
  C85      1.0000 0.81204  0.91754  0.82948  Biso   1.000  C  0.600054
  C86      1.0000 0.75754  0.92504  0.85228  Biso   1.000  C  -0.002003
  C87      1.0000 0.73354  0.92474  0.89878  Biso   1.000  C  -0.101645
  C88      1.0000 0.68476  0.93006  0.92152  Biso   1.000  C  -0.104131
  C89      1.0000 0.65737  0.93597  0.89779  Biso   1.000  C  0.023321
  C90      1.0000 0.68158  0.93588  0.84946  Biso   1.000  C  -0.115689
  C91      1.0000 0.73047  0.93007  0.82759  Biso   1.000  C  -0.100269
  C92      1.0000 0.60354  0.93744  0.92128  Biso   1.000  C  0.369351
  C93      1.0000 0.46641  0.93281  0.06777  Biso   1.000  C  -0.104864
  C94      1.0000 0.44054  0.92994  0.11808  Biso   1.000  C  -0.115291
  C95      1.0000 0.44161  0.72901  0.31627  Biso   1.000  C  -0.097748
  C96      1.0000 0.46309  0.68199  0.31963  Biso   1.000  C  -0.114296
  C97      1.0000 0.36437  0.99527  0.75199  Biso   1.000  C  0.609430
  C98      1.0000 0.34193  0.04943  0.72811  Biso   1.000  C  -0.011174
  C99      1.0000 0.29695  0.07595  0.75235  Biso   1.000  C  -0.100661
  C100     1.0000 0.27277  0.12647  0.73069  Biso   1.000  C  -0.115894
  C101     1.0000 0.29569  0.15059  0.68323  Biso   1.000  C  0.027683
  C102     1.0000 0.34109  0.12589  0.65803  Biso   1.000  C  -0.121801
  C103     1.0000 0.36467  0.07627  0.67939  Biso   1.000  C  -0.096601
  C104     1.0000 0.27201  0.20251  0.65677  Biso   1.000  C  0.405111
  C105     1.0000 0.27074  0.34784  0.51118  Biso   1.000  C  -0.120060
  C106     1.0000 0.29415  0.36665  0.46165  Biso   1.000  C  -0.095120
  C107     1.0000 0.36385  0.29145  0.27205  Biso   1.000  C  -0.102251
  C108     1.0000 0.34034  0.26874  0.26968  Biso   1.000  C  -0.107146
  C109     1.0000 0.44094  0.81204  0.82948  Biso   1.000  C  0.598507
  C110     1.0000 0.46514  0.75754  0.85228  Biso   1.000  C  -0.002060
  C111     1.0000 0.44294  0.73354  0.89878  Biso   1.000  C  -0.101383
  C112     1.0000 0.46366  0.68476  0.92152  Biso   1.000  C  -0.104062
  C113     1.0000 0.50887  0.65737  0.89779  Biso   1.000  C  0.023080
  C114     1.0000 0.53308  0.68158  0.84946  Biso   1.000  C  -0.115818
  C115     1.0000 0.51187  0.73047  0.82759  Biso   1.000  C  -0.100572
  C116     1.0000 0.53774  0.60354  0.92128  Biso   1.000  C  0.369196
  C117     1.0000 0.53301  0.46641  0.06777  Biso   1.000  C  -0.105559
  C118     1.0000 0.51144  0.44054  0.11808  Biso   1.000  C  -0.114818
  C119     1.0000 0.51311  0.44161  0.31627  Biso   1.000  C  -0.097482
  C120     1.0000 0.53529  0.46309  0.31963  Biso   1.000  C  -0.115024
  C121     1.0000 0.88837  0.36437  0.75199  Biso   1.000  C  0.611005
  C122     1.0000 0.88053  0.34193  0.72811  Biso   1.000  C  -0.010858
  C123     1.0000 0.87475  0.29695  0.75235  Biso   1.000  C  -0.100739
  C124     1.0000 0.87007  0.27277  0.73069  Biso   1.000  C  -0.115830
  C125     1.0000 0.87049  0.29569  0.68323  Biso   1.000  C  0.027571
  C126     1.0000 0.87499  0.34109  0.65803  Biso   1.000  C  -0.121865
  C127     1.0000 0.87967  0.36467  0.67939  Biso   1.000  C  -0.096099
  C128     1.0000 0.86871  0.27201  0.65677  Biso   1.000  C  0.405245
  C129     1.0000 0.87024  0.27074  0.51118  Biso   1.000  C  -0.119160
  C130     1.0000 0.87755  0.29415  0.46165  Biso   1.000  C  -0.096288
  C131     1.0000 0.07265  0.36385  0.27205  Biso   1.000  C  -0.103408
  C132     1.0000 0.12124  0.34034  0.26968  Biso   1.000  C  -0.106549
  C133     1.0000 0.91754  0.44094  0.82948  Biso   1.000  C  0.600053
  C134     1.0000 0.92504  0.46514  0.85228  Biso   1.000  C  -0.001906
  C135     1.0000 0.92474  0.44294  0.89878  Biso   1.000  C  -0.101580
  C136     1.0000 0.93006  0.46366  0.92152  Biso   1.000  C  -0.104049
  C137     1.0000 0.93597  0.50887  0.89779  Biso   1.000  C  0.023284
  C138     1.0000 0.93588  0.53308  0.84946  Biso   1.000  C  -0.115636
  C139     1.0000 0.93007  0.51187  0.82759  Biso   1.000  C  -0.100309
  C140     1.0000 0.93744  0.53774  0.92128  Biso   1.000  C  0.369600
  C141     1.0000 0.93281  0.53301  0.06777  Biso   1.000  C  -0.104139
  C142     1.0000 0.92994  0.51144  0.11808  Biso   1.000  C  -0.115819
  C143     1.0000 0.72901  0.51311  0.31627  Biso   1.000  C  -0.098249
  C144     1.0000 0.68199  0.53529  0.31963  Biso   1.000  C  -0.113932
  C145     1.0000 0.27035  0.27035  0.59260  Biso   1.000  C  0.377267
  C146     1.0000 0.29824  0.29824  0.53683  Biso   1.000  C  -0.009261
  C147     1.0000 0.34016  0.34016  0.43807  Biso   1.000  C  -0.008976
  C148     1.0000 0.36485  0.36485  0.38290  Biso   1.000  C  0.594801
  C149     1.0000 0.36342  0.36342  0.27874  Biso   1.000  C  0.591827
  C150     1.0000 0.33888  0.33888  0.27391  Biso   1.000  C  -0.007552
  C151     1.0000 0.29290  0.29290  0.26725  Biso   1.000  C  0.016031
  C152     1.0000 0.26742  0.26742  0.26524  Biso   1.000  C  0.392140
  C153     1.0000 0.44149  0.44149  0.30358  Biso   1.000  C  0.599099
  C154     1.0000 0.46521  0.46521  0.31357  Biso   1.000  C  -0.023287
  C155     1.0000 0.50962  0.50962  0.32404  Biso   1.000  C  0.017767
  C156     1.0000 0.53506  0.53506  0.32827  Biso   1.000  C  0.384809
  C157     1.0000 0.27035  0.86670  0.59260  Biso   1.000  C  0.377189
  C158     1.0000 0.29824  0.86669  0.53683  Biso   1.000  C  -0.008934
  C159     1.0000 0.34016  0.88161  0.43807  Biso   1.000  C  -0.004494
  C160     1.0000 0.36485  0.88740  0.38290  Biso   1.000  C  0.593823
  C161     1.0000 0.36342  0.99442  0.27874  Biso   1.000  C  0.590625
  C162     1.0000 0.33888  0.04833  0.27391  Biso   1.000  C  -0.003901
  C163     1.0000 0.29290  0.14695  0.26725  Biso   1.000  C  0.016225
  C164     1.0000 0.26742  0.19992  0.26524  Biso   1.000  C  0.392056
  C165     1.0000 0.44149  0.81344  0.30358  Biso   1.000  C  0.597916
  C166     1.0000 0.46521  0.75601  0.31357  Biso   1.000  C  -0.019040
  C167     1.0000 0.50962  0.65672  0.32404  Biso   1.000  C  0.018632
  C168     1.0000 0.53506  0.60161  0.32827  Biso   1.000  C  0.384512
  C169     1.0000 0.86670  0.27035  0.59260  Biso   1.000  C  0.377091
  C170     1.0000 0.86669  0.29824  0.53683  Biso   1.000  C  -0.008491
  C171     1.0000 0.88161  0.34016  0.43807  Biso   1.000  C  -0.000669
  C172     1.0000 0.88740  0.36485  0.38290  Biso   1.000  C  0.590934
  C173     1.0000 0.99442  0.36342  0.27874  Biso   1.000  C  0.587562
  C174     1.0000 0.04833  0.33888  0.27391  Biso   1.000  C  -0.000829
  C175     1.0000 0.14695  0.29290  0.26725  Biso   1.000  C  0.016599
  C176     1.0000 0.19992  0.26742  0.26524  Biso   1.000  C  0.391893
  C177     1.0000 0.81344  0.44149  0.30358  Biso   1.000  C  0.595081
  C178     1.0000 0.75601  0.46521  0.31357  Biso   1.000  C  -0.015474
  C179     1.0000 0.65672  0.50962  0.32404  Biso   1.000  C  0.019593
  C180     1.0000 0.60161  0.53506  0.32827  Biso   1.000  C  0.384157
  C181     1.0000 0.53718  0.53718  0.99106  Biso   1.000  C  0.379248
  C182     1.0000 0.51109  0.51109  0.04353  Biso   1.000  C  0.032002
  C183     1.0000 0.46449  0.46449  0.14313  Biso   1.000  C  -0.008826
  C184     1.0000 0.44096  0.44096  0.19902  Biso   1.000  C  0.597542
  C185     1.0000 0.53718  0.93458  0.99106  Biso   1.000  C  0.379142
  C186     1.0000 0.51109  0.93429  0.04353  Biso   1.000  C  0.032521
  C187     1.0000 0.46449  0.92789  0.14313  Biso   1.000  C  -0.004513
  C188     1.0000 0.44096  0.91906  0.19902  Biso   1.000  C  0.596376
  C189     1.0000 0.93458  0.53718  0.99106  Biso   1.000  C  0.379035
  C190     1.0000 0.93429  0.51109  0.04353  Biso   1.000  C  0.033038
  C191     1.0000 0.92789  0.46449  0.14313  Biso   1.000  C  -0.000729
  C192     1.0000 0.91906  0.44096  0.19902  Biso   1.000  C  0.593551
  C193     1.0000 0.00473  0.11163  0.24801  Biso   1.000  C  0.611009
  C194     1.0000 0.95057  0.11947  0.27189  Biso   1.000  C  -0.010947
  C195     1.0000 0.92405  0.12525  0.24765  Biso   1.000  C  -0.100797
  C196     1.0000 0.87353  0.12993  0.26931  Biso   1.000  C  -0.115900
  C197     1.0000 0.84941  0.12951  0.31677  Biso   1.000  C  0.027694
  C198     1.0000 0.87411  0.12501  0.34197  Biso   1.000  C  -0.121855
  C199     1.0000 0.92373  0.12033  0.32061  Biso   1.000  C  -0.096166
  C200     1.0000 0.79749  0.13129  0.34323  Biso   1.000  C  0.405176
  C201     1.0000 0.65216  0.12976  0.48882  Biso   1.000  C  -0.119674
  C202     1.0000 0.63335  0.12245  0.53835  Biso   1.000  C  -0.095687
  C203     1.0000 0.70855  0.92735  0.72795  Biso   1.000  C  -0.102851
  C204     1.0000 0.73126  0.87876  0.73032  Biso   1.000  C  -0.106922
  C205     1.0000 0.18796  0.08246  0.17052  Biso   1.000  C  0.600082
  C206     1.0000 0.24246  0.07496  0.14772  Biso   1.000  C  -0.001930
  C207     1.0000 0.26646  0.07526  0.10122  Biso   1.000  C  -0.101578
  C208     1.0000 0.31524  0.06994  0.07848  Biso   1.000  C  -0.104070
  C209     1.0000 0.34263  0.06403  0.10221  Biso   1.000  C  0.023247
  C210     1.0000 0.31842  0.06412  0.15054  Biso   1.000  C  -0.115723
  C211     1.0000 0.26953  0.06993  0.17241  Biso   1.000  C  -0.100280
  C212     1.0000 0.39646  0.06256  0.07872  Biso   1.000  C  0.369389
  C213     1.0000 0.53359  0.06719  0.93223  Biso   1.000  C  -0.104928
  C214     1.0000 0.55946  0.07006  0.88192  Biso   1.000  C  -0.115361
  C215     1.0000 0.55839  0.27099  0.68373  Biso   1.000  C  -0.097917
  C216     1.0000 0.53691  0.31801  0.68037  Biso   1.000  C  -0.114585
  C217     1.0000 0.63563  0.00473  0.24801  Biso   1.000  C  0.610986
  C218     1.0000 0.65807  0.95057  0.27189  Biso   1.000  C  -0.010912
  C219     1.0000 0.70305  0.92405  0.24765  Biso   1.000  C  -0.100753
  C220     1.0000 0.72723  0.87353  0.26931  Biso   1.000  C  -0.115803
  C221     1.0000 0.70431  0.84941  0.31677  Biso   1.000  C  0.027612
  C222     1.0000 0.65891  0.87411  0.34197  Biso   1.000  C  -0.121870
  C223     1.0000 0.63533  0.92373  0.32061  Biso   1.000  C  -0.096167
  C224     1.0000 0.72799  0.79749  0.34323  Biso   1.000  C  0.405216
  C225     1.0000 0.72926  0.65216  0.48882  Biso   1.000  C  -0.119199
  C226     1.0000 0.70585  0.63335  0.53835  Biso   1.000  C  -0.096346
  C227     1.0000 0.63615  0.70855  0.72795  Biso   1.000  C  -0.103391
  C228     1.0000 0.65966  0.73126  0.73032  Biso   1.000  C  -0.106556
  C229     1.0000 0.55906  0.18796  0.17052  Biso   1.000  C  0.600048
  C230     1.0000 0.53486  0.24246  0.14772  Biso   1.000  C  -0.001948
  C231     1.0000 0.55706  0.26646  0.10122  Biso   1.000  C  -0.101615
  C232     1.0000 0.53634  0.31524  0.07848  Biso   1.000  C  -0.104071
  C233     1.0000 0.49113  0.34263  0.10221  Biso   1.000  C  0.023322
  C234     1.0000 0.46692  0.31842  0.15054  Biso   1.000  C  -0.115627
  C235     1.0000 0.48813  0.26953  0.17241  Biso   1.000  C  -0.100311
  C236     1.0000 0.46226  0.39646  0.07872  Biso   1.000  C  0.369578
  C237     1.0000 0.46699  0.53359  0.93223  Biso   1.000  C  -0.104105
  C238     1.0000 0.48856  0.55946  0.88192  Biso   1.000  C  -0.115799
  C239     1.0000 0.48689  0.55839  0.68373  Biso   1.000  C  -0.098162
  C240     1.0000 0.46471  0.53691  0.68037  Biso   1.000  C  -0.113790
  C241     1.0000 0.11163  0.63563  0.24801  Biso   1.000  C  0.609428
  C242     1.0000 0.11947  0.65807  0.27189  Biso   1.000  C  -0.011214
  C243     1.0000 0.12525  0.70305  0.24765  Biso   1.000  C  -0.100648
  C244     1.0000 0.12993  0.72723  0.26931  Biso   1.000  C  -0.115872
  C245     1.0000 0.12951  0.70431  0.31677  Biso   1.000  C  0.027699
  C246     1.0000 0.12501  0.65891  0.34197  Biso   1.000  C  -0.121822
  C247     1.0000 0.12033  0.63533  0.32061  Biso   1.000  C  -0.096653
  C248     1.0000 0.13129  0.72799  0.34323  Biso   1.000  C  0.405096
  C249     1.0000 0.12976  0.72926  0.48882  Biso   1.000  C  -0.120087
  C250     1.0000 0.12245  0.70585  0.53835  Biso   1.000  C  -0.095152
  C251     1.0000 0.92735  0.63615  0.72795  Biso   1.000  C  -0.102245
  C252     1.0000 0.87876  0.65966  0.73032  Biso   1.000  C  -0.107164
  C253     1.0000 0.08246  0.55906  0.17052  Biso   1.000  C  0.598501
  C254     1.0000 0.07496  0.53486  0.14772  Biso   1.000  C  -0.002069
  C255     1.0000 0.07526  0.55706  0.10122  Biso   1.000  C  -0.101424
  C256     1.0000 0.06994  0.53634  0.07848  Biso   1.000  C  -0.104115
  C257     1.0000 0.06403  0.49113  0.10221  Biso   1.000  C  0.023094
  C258     1.0000 0.06412  0.46692  0.15054  Biso   1.000  C  -0.115803
  C259     1.0000 0.06993  0.48813  0.17241  Biso   1.000  C  -0.100563
  C260     1.0000 0.06256  0.46226  0.07872  Biso   1.000  C  0.369185
  C261     1.0000 0.06719  0.46699  0.93223  Biso   1.000  C  -0.105530
  C262     1.0000 0.07006  0.48856  0.88192  Biso   1.000  C  -0.114779
  C263     1.0000 0.27099  0.48689  0.68373  Biso   1.000  C  -0.097398
  C264     1.0000 0.31801  0.46471  0.68037  Biso   1.000  C  -0.114878
  C265     1.0000 0.00473  0.63563  0.24801  Biso   1.000  C  0.609405
  C266     1.0000 0.95057  0.65807  0.27189  Biso   1.000  C  -0.010932
  C267     1.0000 0.92405  0.70305  0.24765  Biso   1.000  C  -0.100566
  C268     1.0000 0.87353  0.72723  0.26931  Biso   1.000  C  -0.115814
  C269     1.0000 0.84941  0.70431  0.31677  Biso   1.000  C  0.027431
  C270     1.0000 0.87411  0.65891  0.34197  Biso   1.000  C  -0.121836
  C271     1.0000 0.92373  0.63533  0.32061  Biso   1.000  C  -0.096463
  C272     1.0000 0.79749  0.72799  0.34323  Biso   1.000  C  0.405283
  C273     1.0000 0.65216  0.72926  0.48882  Biso   1.000  C  -0.119163
  C274     1.0000 0.63335  0.70585  0.53835  Biso   1.000  C  -0.096294
  C275     1.0000 0.70855  0.63615  0.72795  Biso   1.000  C  -0.103447
  C276     1.0000 0.73126  0.65966  0.73032  Biso   1.000  C  -0.106586
  C277     1.0000 0.18796  0.55906  0.17052  Biso   1.000  C  0.598483
  C278     1.0000 0.24246  0.53486  0.14772  Biso   1.000  C  -0.002023
  C279     1.0000 0.26646  0.55706  0.10122  Biso   1.000  C  -0.101379
  C280     1.0000 0.31524  0.53634  0.07848  Biso   1.000  C  -0.103988
  C281     1.0000 0.34263  0.49113  0.10221  Biso   1.000  C  0.023126
  C282     1.0000 0.31842  0.46692  0.15054  Biso   1.000  C  -0.115613
  C283     1.0000 0.26953  0.48813  0.17241  Biso   1.000  C  -0.100675
  C284     1.0000 0.39646  0.46226  0.07872  Biso   1.000  C  0.369630
  C285     1.0000 0.53359  0.46699  0.93223  Biso   1.000  C  -0.104172
  C286     1.0000 0.55946  0.48856  0.88192  Biso   1.000  C  -0.115884
  C287     1.0000 0.55839  0.48689  0.68373  Biso   1.000  C  -0.098263
  C288     1.0000 0.53691  0.46471  0.68037  Biso   1.000  C  -0.113943
  C289     1.0000 0.63563  0.11163  0.24801  Biso   1.000  C  0.611004
  C290     1.0000 0.65807  0.11947  0.27189  Biso   1.000  C  -0.011044
  C291     1.0000 0.70305  0.12525  0.24765  Biso   1.000  C  -0.100806
  C292     1.0000 0.72723  0.12993  0.26931  Biso   1.000  C  -0.115865
  C293     1.0000 0.70431  0.12951  0.31677  Biso   1.000  C  0.027744
  C294     1.0000 0.65891  0.12501  0.34197  Biso   1.000  C  -0.121851
  C295     1.0000 0.63533  0.12033  0.32061  Biso   1.000  C  -0.096243
  C296     1.0000 0.72799  0.13129  0.34323  Biso   1.000  C  0.405125
  C297     1.0000 0.72926  0.12976  0.48882  Biso   1.000  C  -0.119742
  C298     1.0000 0.70585  0.12245  0.53835  Biso   1.000  C  -0.095759
  C299     1.0000 0.63615  0.92735  0.72795  Biso   1.000  C  -0.102800
  C300     1.0000 0.65966  0.87876  0.73032  Biso   1.000  C  -0.106926
  C301     1.0000 0.55906  0.08246  0.17052  Biso   1.000  C  0.600059
  C302     1.0000 0.53486  0.07496  0.14772  Biso   1.000  C  -0.001989
  C303     1.0000 0.55706  0.07526  0.10122  Biso   1.000  C  -0.101639
  C304     1.0000 0.53634  0.06994  0.07848  Biso   1.000  C  -0.104131
  C305     1.0000 0.49113  0.06403  0.10221  Biso   1.000  C  0.023306
  C306     1.0000 0.46692  0.06412  0.15054  Biso   1.000  C  -0.115680
  C307     1.0000 0.48813  0.06993  0.17241  Biso   1.000  C  -0.100254
  C308     1.0000 0.46226  0.06256  0.07872  Biso   1.000  C  0.369364
  C309     1.0000 0.46699  0.06719  0.93223  Biso   1.000  C  -0.104865
  C310     1.0000 0.48856  0.07006  0.88192  Biso   1.000  C  -0.115258
  C311     1.0000 0.48689  0.27099  0.68373  Biso   1.000  C  -0.097748
  C312     1.0000 0.46471  0.31801  0.68037  Biso   1.000  C  -0.114307
  C313     1.0000 0.11163  0.00473  0.24801  Biso   1.000  C  0.611015
  C314     1.0000 0.11947  0.95057  0.27189  Biso   1.000  C  -0.011095
  C315     1.0000 0.12525  0.92405  0.24765  Biso   1.000  C  -0.100829
  C316     1.0000 0.12993  0.87353  0.26931  Biso   1.000  C  -0.115896
  C317     1.0000 0.12951  0.84941  0.31677  Biso   1.000  C  0.027829
  C318     1.0000 0.12501  0.87411  0.34197  Biso   1.000  C  -0.121860
  C319     1.0000 0.12033  0.92373  0.32061  Biso   1.000  C  -0.096280
  C320     1.0000 0.13129  0.79749  0.34323  Biso   1.000  C  0.405079
  C321     1.0000 0.12976  0.65216  0.48882  Biso   1.000  C  -0.120055
  C322     1.0000 0.12245  0.63335  0.53835  Biso   1.000  C  -0.095133
  C323     1.0000 0.92735  0.70855  0.72795  Biso   1.000  C  -0.102240
  C324     1.0000 0.87876  0.73126  0.73032  Biso   1.000  C  -0.107128
  C325     1.0000 0.08246  0.18796  0.17052  Biso   1.000  C  0.600089
  C326     1.0000 0.07496  0.24246  0.14772  Biso   1.000  C  -0.001935
  C327     1.0000 0.07526  0.26646  0.10122  Biso   1.000  C  -0.101600
  C328     1.0000 0.06994  0.31524  0.07848  Biso   1.000  C  -0.104136
  C329     1.0000 0.06403  0.34263  0.10221  Biso   1.000  C  0.023230
  C330     1.0000 0.06412  0.31842  0.15054  Biso   1.000  C  -0.115860
  C331     1.0000 0.06993  0.26953  0.17241  Biso   1.000  C  -0.100226
  C332     1.0000 0.06256  0.39646  0.07872  Biso   1.000  C  0.369154
  C333     1.0000 0.06719  0.53359  0.93223  Biso   1.000  C  -0.105525
  C334     1.0000 0.07006  0.55946  0.88192  Biso   1.000  C  -0.114796
  C335     1.0000 0.27099  0.55839  0.68373  Biso   1.000  C  -0.097467
  C336     1.0000 0.31801  0.53691  0.68037  Biso   1.000  C  -0.115002
  C337     1.0000 0.72965  0.13330  0.40740  Biso   1.000  C  0.377207
  C338     1.0000 0.70176  0.13331  0.46317  Biso   1.000  C  -0.008966
  C339     1.0000 0.65984  0.11839  0.56193  Biso   1.000  C  -0.004470
  C340     1.0000 0.63515  0.11260  0.61710  Biso   1.000  C  0.593820
  C341     1.0000 0.63658  0.00558  0.72126  Biso   1.000  C  0.590627
  C342     1.0000 0.66112  0.95167  0.72609  Biso   1.000  C  -0.003898
  C343     1.0000 0.70710  0.85305  0.73275  Biso   1.000  C  0.016217
  C344     1.0000 0.73258  0.80008  0.73476  Biso   1.000  C  0.392064
  C345     1.0000 0.55851  0.18656  0.69642  Biso   1.000  C  0.597914
  C346     1.0000 0.53479  0.24399  0.68643  Biso   1.000  C  -0.019043
  C347     1.0000 0.49038  0.34328  0.67596  Biso   1.000  C  0.018636
  C348     1.0000 0.46494  0.39839  0.67173  Biso   1.000  C  0.384509
  C349     1.0000 0.72965  0.72965  0.40740  Biso   1.000  C  0.377070
  C350     1.0000 0.70176  0.70176  0.46317  Biso   1.000  C  -0.008462
  C351     1.0000 0.65984  0.65984  0.56193  Biso   1.000  C  -0.000696
  C352     1.0000 0.63515  0.63515  0.61710  Biso   1.000  C  0.590937
  C353     1.0000 0.63658  0.63658  0.72126  Biso   1.000  C  0.587566
  C354     1.0000 0.66112  0.66112  0.72609  Biso   1.000  C  -0.000825
  C355     1.0000 0.70710  0.70710  0.73275  Biso   1.000  C  0.016597
  C356     1.0000 0.73258  0.73258  0.73476  Biso   1.000  C  0.391896
  C357     1.0000 0.55851  0.55851  0.69642  Biso   1.000  C  0.595084
  C358     1.0000 0.53479  0.53479  0.68643  Biso   1.000  C  -0.015467
  C359     1.0000 0.49038  0.49038  0.67596  Biso   1.000  C  0.019588
  C360     1.0000 0.46494  0.46494  0.67173  Biso   1.000  C  0.384155
  C361     1.0000 0.13330  0.72965  0.40740  Biso   1.000  C  0.377260
  C362     1.0000 0.13331  0.70176  0.46317  Biso   1.000  C  -0.009238
  C363     1.0000 0.11839  0.65984  0.56193  Biso   1.000  C  -0.008989
  C364     1.0000 0.11260  0.63515  0.61710  Biso   1.000  C  0.594803
  C365     1.0000 0.00558  0.63658  0.72126  Biso   1.000  C  0.591822
  C366     1.0000 0.95167  0.66112  0.72609  Biso   1.000  C  -0.007552
  C367     1.0000 0.85305  0.70710  0.73275  Biso   1.000  C  0.016042
  C368     1.0000 0.80008  0.73258  0.73476  Biso   1.000  C  0.392130
  C369     1.0000 0.18656  0.55851  0.69642  Biso   1.000  C  0.599100
  C370     1.0000 0.24399  0.53479  0.68643  Biso   1.000  C  -0.023293
  C371     1.0000 0.34328  0.49038  0.67596  Biso   1.000  C  0.017770
  C372     1.0000 0.39839  0.46494  0.67173  Biso   1.000  C  0.384813
  C373     1.0000 0.46282  0.06542  0.00894  Biso   1.000  C  0.379157
  C374     1.0000 0.48891  0.06571  0.95647  Biso   1.000  C  0.032508
  C375     1.0000 0.53551  0.07211  0.85687  Biso   1.000  C  -0.004500
  C376     1.0000 0.55904  0.08094  0.80098  Biso   1.000  C  0.596375
  C377     1.0000 0.46282  0.46282  0.00894  Biso   1.000  C  0.379017
  C378     1.0000 0.48891  0.48891  0.95647  Biso   1.000  C  0.033052
  C379     1.0000 0.53551  0.53551  0.85687  Biso   1.000  C  -0.000747
  C380     1.0000 0.55904  0.55904  0.80098  Biso   1.000  C  0.593555
  C381     1.0000 0.06542  0.46282  0.00894  Biso   1.000  C  0.379238
  C382     1.0000 0.06571  0.48891  0.95647  Biso   1.000  C  0.032013
  C383     1.0000 0.07211  0.53551  0.85687  Biso   1.000  C  -0.008831
  C384     1.0000 0.08094  0.55904  0.80098  Biso   1.000  C  0.597541
  Cu1      1.0000 0.36339  0.44370  0.29014  Biso   1.000  Cu  0.863335
  Cu2      1.0000 0.44370  0.90277  0.29014  Biso   1.000  Cu  0.853425
  Cu3      1.0000 0.90277  0.36339  0.29014  Biso   1.000  Cu  0.829366
  Cu4      1.0000 0.36339  0.90277  0.29014  Biso   1.000  Cu  0.853537
  Cu5      1.0000 0.44370  0.36339  0.29014  Biso   1.000  Cu  0.863256
  Cu6      1.0000 0.90277  0.44370  0.29014  Biso   1.000  Cu  0.829343
  Cu7      1.0000 0.90361  0.44306  0.74972  Biso   1.000  Cu  0.862068
  Cu8      1.0000 0.90327  0.36302  0.83044  Biso   1.000  Cu  0.851855
  Cu9      1.0000 0.44306  0.90361  0.74972  Biso   1.000  Cu  0.849126
  Cu10     1.0000 0.36301  0.90327  0.83045  Biso   1.000  Cu  0.837724
  Cu11     1.0000 0.90361  0.90361  0.74972  Biso   1.000  Cu  0.862100
  Cu12     1.0000 0.90327  0.90327  0.83044  Biso   1.000  Cu  0.851894
  Cu13     1.0000 0.63661  0.09723  0.70986  Biso   1.000  Cu  0.853420
  Cu14     1.0000 0.55630  0.63661  0.70986  Biso   1.000  Cu  0.829413
  Cu15     1.0000 0.09723  0.55630  0.70986  Biso   1.000  Cu  0.863294
  Cu16     1.0000 0.63661  0.55630  0.70986  Biso   1.000  Cu  0.829293
  Cu17     1.0000 0.55630  0.09723  0.70986  Biso   1.000  Cu  0.853555
  Cu18     1.0000 0.09723  0.63661  0.70986  Biso   1.000  Cu  0.863266
  Cu19     1.0000 0.09639  0.09639  0.25028  Biso   1.000  Cu  0.862000
  Cu20     1.0000 0.09673  0.09673  0.16955  Biso   1.000  Cu  0.852004
  Cu21     1.0000 0.55694  0.09639  0.25028  Biso   1.000  Cu  0.862103
  Cu22     1.0000 0.63698  0.09673  0.16956  Biso   1.000  Cu  0.851846
  Cu23     1.0000 0.09639  0.55694  0.25028  Biso   1.000  Cu  0.849064
  Cu24     1.0000 0.09673  0.63699  0.16955  Biso   1.000  Cu  0.837655
  H1       1.0000 0.05990  0.28110  0.78520  Biso   1.000  H  0.115460
  H2       1.0000 0.14300  0.24150  0.74890  Biso   1.000  H  0.116362
  H3       1.0000 0.14260  0.35690  0.62560  Biso   1.000  H  0.113277
  H4       1.0000 0.06020  0.39620  0.66130  Biso   1.000  H  0.115949
  H5       1.0000 0.36570  0.23910  0.52750  Biso   1.000  H  0.125404
  H6       1.0000 0.39840  0.27820  0.44350  Biso   1.000  H  0.122426
  H7       1.0000 0.27500  0.39620  0.27250  Biso   1.000  H  0.125647
  H8       1.0000 0.23620  0.35670  0.26980  Biso   1.000  H  0.112994
  H9       1.0000 0.75100  0.41200  0.91630  Biso   1.000  H  0.117725
  H10      1.0000 0.66950  0.44660  0.95410  Biso   1.000  H  0.111565
  H11      1.0000 0.66430  0.56410  0.83170  Biso   1.000  H  0.110744
  H12      1.0000 0.74640  0.52900  0.79510  Biso   1.000  H  0.113180
  H13      1.0000 0.45010  0.56530  0.05100  Biso   1.000  H  0.102296
  H14      1.0000 0.40820  0.52880  0.13350  Biso   1.000  H  0.124263
  H15      1.0000 0.40920  0.53010  0.31570  Biso   1.000  H  0.115343
  H16      1.0000 0.44700  0.56810  0.31900  Biso   1.000  H  0.116829
  H17      1.0000 0.28110  0.87380  0.78520  Biso   1.000  H  0.115531
  H18      1.0000 0.24150  0.86660  0.74890  Biso   1.000  H  0.116349
  H19      1.0000 0.35690  0.87490  0.62560  Biso   1.000  H  0.113172
  H20      1.0000 0.39620  0.88230  0.66130  Biso   1.000  H  0.115920
  H21      1.0000 0.23910  0.86770  0.52750  Biso   1.000  H  0.125676
  H22      1.0000 0.27820  0.87990  0.44350  Biso   1.000  H  0.122925
  H23      1.0000 0.39620  0.05630  0.27250  Biso   1.000  H  0.125946
  H24      1.0000 0.35670  0.13730  0.26980  Biso   1.000  H  0.113176
  H25      1.0000 0.41200  0.92070  0.91630  Biso   1.000  H  0.117788
  H26      1.0000 0.44660  0.92980  0.95410  Biso   1.000  H  0.111553
  H27      1.0000 0.56410  0.93990  0.83170  Biso   1.000  H  0.110768
  H28      1.0000 0.52900  0.92950  0.79510  Biso   1.000  H  0.113110
  H29      1.0000 0.56530  0.93360  0.05100  Biso   1.000  H  0.102598
  H30      1.0000 0.52880  0.92950  0.13350  Biso   1.000  H  0.124735
  H31      1.0000 0.53010  0.74500  0.31570  Biso   1.000  H  0.115786
  H32      1.0000 0.56810  0.66590  0.31900  Biso   1.000  H  0.117069
  H33      1.0000 0.87380  0.05990  0.78520  Biso   1.000  H  0.115520
  H34      1.0000 0.86660  0.14300  0.74890  Biso   1.000  H  0.116352
  H35      1.0000 0.87490  0.14260  0.62560  Biso   1.000  H  0.113186
  H36      1.0000 0.88230  0.06020  0.66130  Biso   1.000  H  0.116021
  H37      1.0000 0.86770  0.36570  0.52750  Biso   1.000  H  0.125998
  H38      1.0000 0.87990  0.39840  0.44350  Biso   1.000  H  0.123347
  H39      1.0000 0.05630  0.27500  0.27250  Biso   1.000  H  0.126249
  H40      1.0000 0.13730  0.23620  0.26980  Biso   1.000  H  0.113400
  H41      1.0000 0.92070  0.75100  0.91630  Biso   1.000  H  0.117744
  H42      1.0000 0.92980  0.66950  0.95410  Biso   1.000  H  0.111506
  H43      1.0000 0.93990  0.66430  0.83170  Biso   1.000  H  0.110845
  H44      1.0000 0.92950  0.74640  0.79510  Biso   1.000  H  0.113191
  H45      1.0000 0.93360  0.45010  0.05100  Biso   1.000  H  0.103009
  H46      1.0000 0.92950  0.40820  0.13350  Biso   1.000  H  0.125252
  H47      1.0000 0.74500  0.40920  0.31570  Biso   1.000  H  0.116320
  H48      1.0000 0.66590  0.44700  0.31900  Biso   1.000  H  0.117698
  H49      1.0000 0.05990  0.87380  0.78520  Biso   1.000  H  0.115492
  H50      1.0000 0.14300  0.86660  0.74890  Biso   1.000  H  0.116378
  H51      1.0000 0.14260  0.87490  0.62560  Biso   1.000  H  0.113239
  H52      1.0000 0.06020  0.88230  0.66130  Biso   1.000  H  0.115966
  H53      1.0000 0.36570  0.86770  0.52750  Biso   1.000  H  0.125667
  H54      1.0000 0.39840  0.87990  0.44350  Biso   1.000  H  0.122883
  H55      1.0000 0.27500  0.05630  0.27250  Biso   1.000  H  0.125965
  H56      1.0000 0.23620  0.13730  0.26980  Biso   1.000  H  0.113143
  H57      1.0000 0.75100  0.92070  0.91630  Biso   1.000  H  0.117711
  H58      1.0000 0.66950  0.92980  0.95410  Biso   1.000  H  0.111525
  H59      1.0000 0.66430  0.93990  0.83170  Biso   1.000  H  0.110840
  H60      1.0000 0.74640  0.92950  0.79510  Biso   1.000  H  0.113195
  H61      1.0000 0.45010  0.93360  0.05100  Biso   1.000  H  0.102641
  H62      1.0000 0.40820  0.92950  0.13350  Biso   1.000  H  0.124775
  H63      1.0000 0.40920  0.74500  0.31570  Biso   1.000  H  0.115878
  H64      1.0000 0.44700  0.66590  0.31900  Biso   1.000  H  0.117297
  H65      1.0000 0.28110  0.05990  0.78520  Biso   1.000  H  0.115498
  H66      1.0000 0.24150  0.14300  0.74890  Biso   1.000  H  0.116337
  H67      1.0000 0.35690  0.14260  0.62560  Biso   1.000  H  0.113214
  H68      1.0000 0.39620  0.06020  0.66130  Biso   1.000  H  0.115898
  H69      1.0000 0.23910  0.36570  0.52750  Biso   1.000  H  0.125401
  H70      1.0000 0.27820  0.39840  0.44350  Biso   1.000  H  0.122453
  H71      1.0000 0.39620  0.27500  0.27250  Biso   1.000  H  0.125622
  H72      1.0000 0.35670  0.23620  0.26980  Biso   1.000  H  0.113000
  H73      1.0000 0.41200  0.75100  0.91630  Biso   1.000  H  0.117806
  H74      1.0000 0.44660  0.66950  0.95410  Biso   1.000  H  0.111597
  H75      1.0000 0.56410  0.66430  0.83170  Biso   1.000  H  0.110674
  H76      1.0000 0.52900  0.74640  0.79510  Biso   1.000  H  0.113099
  H77      1.0000 0.56530  0.45010  0.05100  Biso   1.000  H  0.102241
  H78      1.0000 0.52880  0.40820  0.13350  Biso   1.000  H  0.124212
  H79      1.0000 0.53010  0.40920  0.31570  Biso   1.000  H  0.115288
  H80      1.0000 0.56810  0.44700  0.31900  Biso   1.000  H  0.116702
  H81      1.0000 0.87380  0.28110  0.78520  Biso   1.000  H  0.115520
  H82      1.0000 0.86660  0.24150  0.74890  Biso   1.000  H  0.116343
  H83      1.0000 0.87490  0.35690  0.62560  Biso   1.000  H  0.113179
  H84      1.0000 0.88230  0.39620  0.66130  Biso   1.000  H  0.116025
  H85      1.0000 0.86770  0.23910  0.52750  Biso   1.000  H  0.126007
  H86      1.0000 0.87990  0.27820  0.44350  Biso   1.000  H  0.123362
  H87      1.0000 0.05630  0.39620  0.27250  Biso   1.000  H  0.126254
  H88      1.0000 0.13730  0.35670  0.26980  Biso   1.000  H  0.113426
  H89      1.0000 0.92070  0.41200  0.91630  Biso   1.000  H  0.117739
  H90      1.0000 0.92980  0.44660  0.95410  Biso   1.000  H  0.111500
  H91      1.0000 0.93990  0.56410  0.83170  Biso   1.000  H  0.110843
  H92      1.0000 0.92950  0.52900  0.79510  Biso   1.000  H  0.113187
  H93      1.0000 0.93360  0.56530  0.05100  Biso   1.000  H  0.103018
  H94      1.0000 0.92950  0.52880  0.13350  Biso   1.000  H  0.125263
  H95      1.0000 0.74500  0.53010  0.31570  Biso   1.000  H  0.116284
  H96      1.0000 0.66590  0.56810  0.31900  Biso   1.000  H  0.117591
  H97      1.0000 0.94010  0.12620  0.21480  Biso   1.000  H  0.115479
  H98      1.0000 0.85700  0.13340  0.25110  Biso   1.000  H  0.116324
  H99      1.0000 0.85740  0.12510  0.37440  Biso   1.000  H  0.113214
  H100     1.0000 0.93980  0.11770  0.33870  Biso   1.000  H  0.115984
  H101     1.0000 0.63430  0.13230  0.47250  Biso   1.000  H  0.125681
  H102     1.0000 0.60160  0.12010  0.55650  Biso   1.000  H  0.122940
  H103     1.0000 0.72500  0.94370  0.72750  Biso   1.000  H  0.125945
  H104     1.0000 0.76380  0.86270  0.73020  Biso   1.000  H  0.113175
  H105     1.0000 0.24900  0.07930  0.08370  Biso   1.000  H  0.117751
  H106     1.0000 0.33050  0.07020  0.04590  Biso   1.000  H  0.111545
  H107     1.0000 0.33570  0.06010  0.16830  Biso   1.000  H  0.110811
  H108     1.0000 0.25360  0.07050  0.20490  Biso   1.000  H  0.113188
  H109     1.0000 0.54990  0.06640  0.94900  Biso   1.000  H  0.102591
  H110     1.0000 0.59180  0.07050  0.86650  Biso   1.000  H  0.124732
  H111     1.0000 0.59080  0.25500  0.68430  Biso   1.000  H  0.115779
  H112     1.0000 0.55300  0.33410  0.68100  Biso   1.000  H  0.117066
  H113     1.0000 0.71890  0.94010  0.21480  Biso   1.000  H  0.115520
  H114     1.0000 0.75850  0.85700  0.25110  Biso   1.000  H  0.116374
  H115     1.0000 0.64310  0.85740  0.37440  Biso   1.000  H  0.113187
  H116     1.0000 0.60380  0.93980  0.33870  Biso   1.000  H  0.116020
  H117     1.0000 0.76090  0.63430  0.47250  Biso   1.000  H  0.126007
  H118     1.0000 0.72180  0.60160  0.55650  Biso   1.000  H  0.123330
  H119     1.0000 0.60380  0.72500  0.72750  Biso   1.000  H  0.126266
  H120     1.0000 0.64330  0.76380  0.73020  Biso   1.000  H  0.113421
  H121     1.0000 0.58800  0.24900  0.08370  Biso   1.000  H  0.117724
  H122     1.0000 0.55340  0.33050  0.04590  Biso   1.000  H  0.111489
  H123     1.0000 0.43590  0.33570  0.16830  Biso   1.000  H  0.110857
  H124     1.0000 0.47100  0.25360  0.20490  Biso   1.000  H  0.113190
  H125     1.0000 0.43470  0.54990  0.94900  Biso   1.000  H  0.103048
  H126     1.0000 0.47120  0.59180  0.86650  Biso   1.000  H  0.125280
  H127     1.0000 0.46990  0.59080  0.68430  Biso   1.000  H  0.116334
  H128     1.0000 0.43190  0.55300  0.68100  Biso   1.000  H  0.117707
  H129     1.0000 0.12620  0.71890  0.21480  Biso   1.000  H  0.115506
  H130     1.0000 0.13340  0.75850  0.25110  Biso   1.000  H  0.116360
  H131     1.0000 0.12510  0.64310  0.37440  Biso   1.000  H  0.113221
  H132     1.0000 0.11770  0.60380  0.33870  Biso   1.000  H  0.115880
  H133     1.0000 0.13230  0.76090  0.47250  Biso   1.000  H  0.125391
  H134     1.0000 0.12010  0.72180  0.55650  Biso   1.000  H  0.122421
  H135     1.0000 0.94370  0.60380  0.72750  Biso   1.000  H  0.125628
  H136     1.0000 0.86270  0.64330  0.73020  Biso   1.000  H  0.112970
  H137     1.0000 0.07930  0.58800  0.08370  Biso   1.000  H  0.117779
  H138     1.0000 0.07020  0.55340  0.04590  Biso   1.000  H  0.111577
  H139     1.0000 0.06010  0.43590  0.16830  Biso   1.000  H  0.110684
  H140     1.0000 0.07050  0.47100  0.20490  Biso   1.000  H  0.113102
  H141     1.0000 0.06640  0.43470  0.94900  Biso   1.000  H  0.102265
  H142     1.0000 0.07050  0.47120  0.86650  Biso   1.000  H  0.124233
  H143     1.0000 0.25500  0.46990  0.68430  Biso   1.000  H  0.115334
  H144     1.0000 0.33410  0.43190  0.68100  Biso   1.000  H  0.116823
  H145     1.0000 0.94010  0.71890  0.21480  Biso   1.000  H  0.115557
  H146     1.0000 0.85700  0.75850  0.25110  Biso   1.000  H  0.116347
  H147     1.0000 0.85740  0.64310  0.37440  Biso   1.000  H  0.113115
  H148     1.0000 0.93980  0.60380  0.33870  Biso   1.000  H  0.115957
  H149     1.0000 0.63430  0.76090  0.47250  Biso   1.000  H  0.126015
  H150     1.0000 0.60160  0.72180  0.55650  Biso   1.000  H  0.123367
  H151     1.0000 0.72500  0.60380  0.72750  Biso   1.000  H  0.126238
  H152     1.0000 0.76380  0.64330  0.73020  Biso   1.000  H  0.113406
  H153     1.0000 0.24900  0.58800  0.08370  Biso   1.000  H  0.117803
  H154     1.0000 0.33050  0.55340  0.04590  Biso   1.000  H  0.111520
  H155     1.0000 0.33570  0.43590  0.16830  Biso   1.000  H  0.110786
  H156     1.0000 0.25360  0.47100  0.20490  Biso   1.000  H  0.113105
  H157     1.0000 0.54990  0.43470  0.94900  Biso   1.000  H  0.102994
  H158     1.0000 0.59180  0.47120  0.86650  Biso   1.000  H  0.125229
  H159     1.0000 0.59080  0.46990  0.68430  Biso   1.000  H  0.116273
  H160     1.0000 0.55300  0.43190  0.68100  Biso   1.000  H  0.117587
  H161     1.0000 0.71890  0.12620  0.21480  Biso   1.000  H  0.115484
  H162     1.0000 0.75850  0.13340  0.25110  Biso   1.000  H  0.116349
  H163     1.0000 0.64310  0.12510  0.37440  Biso   1.000  H  0.113253
  H164     1.0000 0.60380  0.11770  0.33870  Biso   1.000  H  0.115983
  H165     1.0000 0.76090  0.13230  0.47250  Biso   1.000  H  0.125654
  H166     1.0000 0.72180  0.12010  0.55650  Biso   1.000  H  0.122882
  H167     1.0000 0.60380  0.94370  0.72750  Biso   1.000  H  0.125972
  H168     1.0000 0.64330  0.86270  0.73020  Biso   1.000  H  0.113153
  H169     1.0000 0.58800  0.07930  0.08370  Biso   1.000  H  0.117710
  H170     1.0000 0.55340  0.07020  0.04590  Biso   1.000  H  0.111527
  H171     1.0000 0.43590  0.06010  0.16830  Biso   1.000  H  0.110837
  H172     1.0000 0.47100  0.07050  0.20490  Biso   1.000  H  0.113198
  H173     1.0000 0.43470  0.06640  0.94900  Biso   1.000  H  0.102640
  H174     1.0000 0.47120  0.07050  0.86650  Biso   1.000  H  0.124790
  H175     1.0000 0.46990  0.25500  0.68430  Biso   1.000  H  0.115880
  H176     1.0000 0.43190  0.33410  0.68100  Biso   1.000  H  0.117295
  H177     1.0000 0.12620  0.94010  0.21480  Biso   1.000  H  0.115464
  H178     1.0000 0.13340  0.85700  0.25110  Biso   1.000  H  0.116355
  H179     1.0000 0.12510  0.85740  0.37440  Biso   1.000  H  0.113253
  H180     1.0000 0.11770  0.93980  0.33870  Biso   1.000  H  0.115944
  H181     1.0000 0.13230  0.63430  0.47250  Biso   1.000  H  0.125409
  H182     1.0000 0.12010  0.60160  0.55650  Biso   1.000  H  0.122442
  H183     1.0000 0.94370  0.72500  0.72750  Biso   1.000  H  0.125628
  H184     1.0000 0.86270  0.76380  0.73020  Biso   1.000  H  0.113005
  H185     1.0000 0.07930  0.24900  0.08370  Biso   1.000  H  0.117740
  H186     1.0000 0.07020  0.33050  0.04590  Biso   1.000  H  0.111563
  H187     1.0000 0.06010  0.33570  0.16830  Biso   1.000  H  0.110728
  H188     1.0000 0.07050  0.25360  0.20490  Biso   1.000  H  0.113177
  H189     1.0000 0.06640  0.54990  0.94900  Biso   1.000  H  0.102268
  H190     1.0000 0.07050  0.59180  0.86650  Biso   1.000  H  0.124225
  H191     1.0000 0.25500  0.59080  0.68430  Biso   1.000  H  0.115294
  H192     1.0000 0.33410  0.55300  0.68100  Biso   1.000  H  0.116707
  N1       1.0000 0.22409  0.29569  0.61213  Biso   1.000  N  -0.399610
  N2       1.0000 0.58325  0.51172  0.96964  Biso   1.000  N  -0.406439
  N3       1.0000 0.29569  0.86809  0.61213  Biso   1.000  N  -0.399557
  N4       1.0000 0.51172  0.93539  0.96964  Biso   1.000  N  -0.406298
  N5       1.0000 0.86809  0.22409  0.61213  Biso   1.000  N  -0.399599
  N6       1.0000 0.93539  0.58325  0.96964  Biso   1.000  N  -0.406293
  N7       1.0000 0.22409  0.86809  0.61213  Biso   1.000  N  -0.399641
  N8       1.0000 0.58325  0.93539  0.96964  Biso   1.000  N  -0.406412
  N9       1.0000 0.29569  0.22409  0.61213  Biso   1.000  N  -0.399548
  N10      1.0000 0.51172  0.58325  0.96964  Biso   1.000  N  -0.406326
  N11      1.0000 0.86809  0.29569  0.61213  Biso   1.000  N  -0.399578
  N12      1.0000 0.93539  0.51172  0.96964  Biso   1.000  N  -0.406294
  N13      1.0000 0.22156  0.29194  0.26494  Biso   1.000  N  -0.410066
  N14      1.0000 0.29194  0.22156  0.26494  Biso   1.000  N  -0.409910
  N15      1.0000 0.22156  0.22156  0.26494  Biso   1.000  N  -0.410190
  N16      1.0000 0.22600  0.22600  0.68050  Biso   1.000  N  -0.443459
  N17      1.0000 0.22600  0.86750  0.68050  Biso   1.000  N  -0.443230
  N18      1.0000 0.86750  0.22600  0.68050  Biso   1.000  N  -0.442957
  N19      1.0000 0.58340  0.58340  0.89575  Biso   1.000  N  -0.372014
  N20      1.0000 0.58340  0.93745  0.89575  Biso   1.000  N  -0.371643
  N21      1.0000 0.93745  0.58340  0.89575  Biso   1.000  N  -0.371324
  N22      1.0000 0.58094  0.51063  0.32749  Biso   1.000  N  -0.406818
  N23      1.0000 0.51063  0.58094  0.32749  Biso   1.000  N  -0.406322
  N24      1.0000 0.58094  0.58094  0.32749  Biso   1.000  N  -0.407273
  N25      1.0000 0.77591  0.13191  0.38787  Biso   1.000  N  -0.399580
  N26      1.0000 0.41675  0.06461  0.03036  Biso   1.000  N  -0.406295
  N27      1.0000 0.70431  0.77591  0.38787  Biso   1.000  N  -0.399641
  N28      1.0000 0.48828  0.41675  0.03036  Biso   1.000  N  -0.406384
  N29      1.0000 0.13191  0.70431  0.38787  Biso   1.000  N  -0.399558
  N30      1.0000 0.06461  0.48828  0.03036  Biso   1.000  N  -0.406371
  N31      1.0000 0.77591  0.70431  0.38787  Biso   1.000  N  -0.399589
  N32      1.0000 0.41675  0.48828  0.03036  Biso   1.000  N  -0.406269
  N33      1.0000 0.70431  0.13191  0.38787  Biso   1.000  N  -0.399567
  N34      1.0000 0.48828  0.06461  0.03036  Biso   1.000  N  -0.406368
  N35      1.0000 0.13191  0.77591  0.38787  Biso   1.000  N  -0.399623
  N36      1.0000 0.06461  0.41675  0.03036  Biso   1.000  N  -0.406411
  N37      1.0000 0.77844  0.77844  0.73506  Biso   1.000  N  -0.409913
  N38      1.0000 0.70806  0.77844  0.73506  Biso   1.000  N  -0.410158
  N39      1.0000 0.77844  0.70806  0.73506  Biso   1.000  N  -0.410097
  N40      1.0000 0.77400  0.13250  0.31950  Biso   1.000  N  -0.443267
  N41      1.0000 0.77400  0.77400  0.31950  Biso   1.000  N  -0.442931
  N42      1.0000 0.13250  0.77400  0.31950  Biso   1.000  N  -0.443443
  N43      1.0000 0.41660  0.06255  0.10425  Biso   1.000  N  -0.371633
  N44      1.0000 0.41660  0.41660  0.10425  Biso   1.000  N  -0.371342
  N45      1.0000 0.06255  0.41660  0.10425  Biso   1.000  N  -0.372004
  N46      1.0000 0.41906  0.41906  0.67251  Biso   1.000  N  -0.406341
  N47      1.0000 0.48937  0.41906  0.67251  Biso   1.000  N  -0.407264
  N48      1.0000 0.41906  0.48937  0.67251  Biso   1.000  N  -0.406807
  O1       1.0000 0.97528  0.33922  0.79450  Biso   1.000  O  -0.530030
  O2       1.0000 0.97485  0.40668  0.72658  Biso   1.000  O  -0.533123
  O3       1.0000 0.34043  0.40789  0.36244  Biso   1.000  O  -0.534903
  O4       1.0000 0.33891  0.40701  0.28048  Biso   1.000  O  -0.533678
  O5       1.0000 0.83211  0.39877  0.85363  Biso   1.000  O  -0.517181
  O6       1.0000 0.83252  0.46672  0.78562  Biso   1.000  O  -0.543664
  O7       1.0000 0.39819  0.46646  0.21840  Biso   1.000  O  -0.521574
  O8       1.0000 0.39955  0.46743  0.30073  Biso   1.000  O  -0.519757
  O9       1.0000 0.33922  0.89100  0.79450  Biso   1.000  O  -0.527939
  O10      1.0000 0.40668  0.89189  0.72658  Biso   1.000  O  -0.527629
  O11      1.0000 0.40789  0.88924  0.36244  Biso   1.000  O  -0.534869
  O12      1.0000 0.40701  0.97360  0.28048  Biso   1.000  O  -0.533701
  O13      1.0000 0.39877  0.91549  0.85363  Biso   1.000  O  -0.515024
  O14      1.0000 0.46672  0.91514  0.78562  Biso   1.000  O  -0.537969
  O15      1.0000 0.46646  0.91695  0.21840  Biso   1.000  O  -0.519449
  O16      1.0000 0.46743  0.83229  0.30073  Biso   1.000  O  -0.517761
  O17      1.0000 0.89100  0.97528  0.79450  Biso   1.000  O  -0.530035
  O18      1.0000 0.89189  0.97485  0.72658  Biso   1.000  O  -0.533090
  O19      1.0000 0.88924  0.34043  0.36244  Biso   1.000  O  -0.529173
  O20      1.0000 0.97360  0.33891  0.28048  Biso   1.000  O  -0.528283
  O21      1.0000 0.91549  0.83211  0.85363  Biso   1.000  O  -0.517108
  O22      1.0000 0.91514  0.83252  0.78562  Biso   1.000  O  -0.543623
  O23      1.0000 0.91695  0.39819  0.21840  Biso   1.000  O  -0.512482
  O24      1.0000 0.83229  0.39955  0.30073  Biso   1.000  O  -0.511010
  O25      1.0000 0.97528  0.89100  0.79450  Biso   1.000  O  -0.530028
  O26      1.0000 0.97485  0.89189  0.72658  Biso   1.000  O  -0.533136
  O27      1.0000 0.34043  0.88924  0.36244  Biso   1.000  O  -0.534790
  O28      1.0000 0.33891  0.97360  0.28048  Biso   1.000  O  -0.533663
  O29      1.0000 0.83211  0.91549  0.85363  Biso   1.000  O  -0.517175
  O30      1.0000 0.83252  0.91514  0.78562  Biso   1.000  O  -0.543632
  O31      1.0000 0.39819  0.91695  0.21840  Biso   1.000  O  -0.519384
  O32      1.0000 0.39955  0.83229  0.30073  Biso   1.000  O  -0.517641
  O33      1.0000 0.33922  0.97528  0.79450  Biso   1.000  O  -0.527945
  O34      1.0000 0.40668  0.97485  0.72658  Biso   1.000  O  -0.527638
  O35      1.0000 0.40789  0.34043  0.36244  Biso   1.000  O  -0.534951
  O36      1.0000 0.40701  0.33891  0.28048  Biso   1.000  O  -0.533731
  O37      1.0000 0.39877  0.83211  0.85363  Biso   1.000  O  -0.515022
  O38      1.0000 0.46672  0.83252  0.78562  Biso   1.000  O  -0.537984
  O39      1.0000 0.46646  0.39819  0.21840  Biso   1.000  O  -0.521650
  O40      1.0000 0.46743  0.39955  0.30073  Biso   1.000  O  -0.519830
  O41      1.0000 0.89100  0.33922  0.79450  Biso   1.000  O  -0.530030
  O42      1.0000 0.89189  0.40668  0.72658  Biso   1.000  O  -0.533065
  O43      1.0000 0.88924  0.40789  0.36244  Biso   1.000  O  -0.529201
  O44      1.0000 0.97360  0.40701  0.28048  Biso   1.000  O  -0.528266
  O45      1.0000 0.91549  0.39877  0.85363  Biso   1.000  O  -0.517116
  O46      1.0000 0.91514  0.46672  0.78562  Biso   1.000  O  -0.543640
  O47      1.0000 0.91695  0.46646  0.21840  Biso   1.000  O  -0.512469
  O48      1.0000 0.83229  0.46743  0.30073  Biso   1.000  O  -0.511053
  O49      1.0000 0.02472  0.10900  0.20550  Biso   1.000  O  -0.530058
  O50      1.0000 0.02515  0.10811  0.27342  Biso   1.000  O  -0.533080
  O51      1.0000 0.65957  0.11076  0.63756  Biso   1.000  O  -0.534880
  O52      1.0000 0.66109  0.02640  0.71952  Biso   1.000  O  -0.533706
  O53      1.0000 0.16789  0.08451  0.14637  Biso   1.000  O  -0.517199
  O54      1.0000 0.16748  0.08486  0.21438  Biso   1.000  O  -0.543648
  O55      1.0000 0.60181  0.08305  0.78160  Biso   1.000  O  -0.519452
  O56      1.0000 0.60045  0.16771  0.69927  Biso   1.000  O  -0.517773
  O57      1.0000 0.66078  0.02472  0.20550  Biso   1.000  O  -0.530025
  O58      1.0000 0.59332  0.02515  0.27342  Biso   1.000  O  -0.533076
  O59      1.0000 0.59211  0.65957  0.63756  Biso   1.000  O  -0.529154
  O60      1.0000 0.59299  0.66109  0.71952  Biso   1.000  O  -0.528239
  O61      1.0000 0.60123  0.16789  0.14637  Biso   1.000  O  -0.517138
  O62      1.0000 0.53328  0.16748  0.21438  Biso   1.000  O  -0.543623
  O63      1.0000 0.53354  0.60181  0.78160  Biso   1.000  O  -0.512433
  O64      1.0000 0.53257  0.60045  0.69927  Biso   1.000  O  -0.510977
  O65      1.0000 0.10900  0.66078  0.20550  Biso   1.000  O  -0.527967
  O66      1.0000 0.10811  0.59332  0.27342  Biso   1.000  O  -0.527709
  O67      1.0000 0.11076  0.59211  0.63756  Biso   1.000  O  -0.534912
  O68      1.0000 0.02640  0.59299  0.71952  Biso   1.000  O  -0.533724
  O69      1.0000 0.08451  0.60123  0.14637  Biso   1.000  O  -0.515102
  O70      1.0000 0.08486  0.53328  0.21438  Biso   1.000  O  -0.538012
  O71      1.0000 0.08305  0.53354  0.78160  Biso   1.000  O  -0.521627
  O72      1.0000 0.16771  0.53257  0.69927  Biso   1.000  O  -0.519774
  O73      1.0000 0.02472  0.66078  0.20550  Biso   1.000  O  -0.527979
  O74      1.0000 0.02515  0.59332  0.27342  Biso   1.000  O  -0.527651
  O75      1.0000 0.65957  0.59211  0.63756  Biso   1.000  O  -0.529221
  O76      1.0000 0.66109  0.59299  0.71952  Biso   1.000  O  -0.528300
  O77      1.0000 0.16789  0.60123  0.14637  Biso   1.000  O  -0.515015
  O78      1.0000 0.16748  0.53328  0.21438  Biso   1.000  O  -0.537995
  O79      1.0000 0.60181  0.53354  0.78160  Biso   1.000  O  -0.512514
  O80      1.0000 0.60045  0.53257  0.69927  Biso   1.000  O  -0.511064
  O81      1.0000 0.66078  0.10900  0.20550  Biso   1.000  O  -0.530040
  O82      1.0000 0.59332  0.10811  0.27342  Biso   1.000  O  -0.533121
  O83      1.0000 0.59211  0.11076  0.63756  Biso   1.000  O  -0.534780
  O84      1.0000 0.59299  0.02640  0.71952  Biso   1.000  O  -0.533640
  O85      1.0000 0.60123  0.08451  0.14637  Biso   1.000  O  -0.517173
  O86      1.0000 0.53328  0.08486  0.21438  Biso   1.000  O  -0.543619
  O87      1.0000 0.53354  0.08305  0.78160  Biso   1.000  O  -0.519356
  O88      1.0000 0.53257  0.16771  0.69927  Biso   1.000  O  -0.517641
  O89      1.0000 0.10900  0.02472  0.20550  Biso   1.000  O  -0.530033
  O90      1.0000 0.10811  0.02515  0.27342  Biso   1.000  O  -0.533103
  O91      1.0000 0.11076  0.65957  0.63756  Biso   1.000  O  -0.534945
  O92      1.0000 0.02640  0.66109  0.71952  Biso   1.000  O  -0.533729
  O93      1.0000 0.08451  0.16789  0.14637  Biso   1.000  O  -0.517253
  O94      1.0000 0.08486  0.16748  0.21438  Biso   1.000  O  -0.543672
  O95      1.0000 0.08305  0.60181  0.78160  Biso   1.000  O  -0.521643
  O96      1.0000 0.16771  0.60045  0.69927  Biso   1.000  O  -0.519818
