data_image0
_cell_length_a       18.6777
_cell_length_b       18.6777
_cell_length_c       54.443
_cell_angle_alpha    90
_cell_angle_beta     90
_cell_angle_gamma    120

_symmetry_space_group_name_H-M    "P 1"
_symmetry_int_tables_number       1

loop_
  _symmetry_equiv_pos_as_xyz
  'x, y, z'

loop_
  _atom_site_label
  _atom_site_occupancy
  _atom_site_fract_x
  _atom_site_fract_y
  _atom_site_fract_z
  _atom_site_thermal_displace_type
  _atom_site_B_iso_or_equiv
  _atom_site_type_symbol
  _atom_site_charge
  C1       1.0000 0.36150  0.90690  0.98067  Biso   1.000  C  0.600081
  C2       1.0000 0.28260  0.84730  0.96828  Biso   1.000  C  0.001192
  C3       1.0000 0.26850  0.86100  0.94429  Biso   1.000  C  -0.154482
  C4       1.0000 0.19760  0.80200  0.93195  Biso   1.000  C  0.125508
  C5       1.0000 0.18350  0.81660  0.88435  Biso   1.000  C  -0.129824
  C6       1.0000 0.18690  0.81350  0.90598  Biso   1.000  C  -0.057385
  C7       1.0000 0.23680  0.89140  0.84530  Biso   1.000  C  0.038422
  C8       1.0000 0.17570  0.82440  0.85883  Biso   1.000  C  -0.001133
  C9       1.0000 0.22530  0.90160  0.82103  Biso   1.000  C  0.056752
  C10      1.0000 0.22490  0.77570  0.98056  Biso   1.000  C  -0.110360
  C11      1.0000 0.15250  0.71730  0.96835  Biso   1.000  C  0.000075
  C12      1.0000 0.13920  0.73180  0.94419  Biso   1.000  C  -0.156175
  C13      1.0000 0.09300  0.63860  0.98071  Biso   1.000  C  0.602126
  C14      1.0000 0.28550  0.97200  0.80884  Biso   1.000  C  -0.925192
  C15      1.0000 0.36020  0.03510  0.82067  Biso   1.000  C  -0.024623
  C16      1.0000 0.37020  0.02370  0.84524  Biso   1.000  C  -0.025101
  C17      1.0000 0.30790  0.95050  0.85718  Biso   1.000  C  -0.877432
  C18      1.0000 0.02817  0.24023  0.31400  Biso   1.000  C  0.599859
  C19      1.0000 0.94927  0.18063  0.30161  Biso   1.000  C  0.002024
  C20      1.0000 0.93517  0.19433  0.27762  Biso   1.000  C  -0.157676
  C21      1.0000 0.86427  0.13533  0.26528  Biso   1.000  C  0.129513
  C22      1.0000 0.85017  0.14993  0.21768  Biso   1.000  C  -0.130193
  C23      1.0000 0.85357  0.14683  0.23931  Biso   1.000  C  -0.059658
  C24      1.0000 0.90347  0.22473  0.17863  Biso   1.000  C  0.040542
  C25      1.0000 0.84237  0.15773  0.19216  Biso   1.000  C  -0.002203
  C26      1.0000 0.89197  0.23493  0.15436  Biso   1.000  C  0.053307
  C27      1.0000 0.89157  0.10903  0.31389  Biso   1.000  C  -0.107215
  C28      1.0000 0.81917  0.05063  0.30168  Biso   1.000  C  -0.000336
  C29      1.0000 0.80587  0.06513  0.27752  Biso   1.000  C  -0.160299
  C30      1.0000 0.75967  0.97193  0.31404  Biso   1.000  C  0.601051
  C31      1.0000 0.95217  0.30533  0.14217  Biso   1.000  C  -0.924152
  C32      1.0000 0.02687  0.36843  0.15400  Biso   1.000  C  -0.023764
  C33      1.0000 0.03687  0.35703  0.17857  Biso   1.000  C  -0.025180
  C34      1.0000 0.97457  0.28383  0.19051  Biso   1.000  C  -0.876325
  C35      1.0000 0.69483  0.57357  0.64734  Biso   1.000  C  0.597504
  C36      1.0000 0.61593  0.51397  0.63495  Biso   1.000  C  0.003811
  C37      1.0000 0.60183  0.52767  0.61096  Biso   1.000  C  -0.157224
  C38      1.0000 0.53093  0.46867  0.59862  Biso   1.000  C  0.129458
  C39      1.0000 0.51683  0.48327  0.55102  Biso   1.000  C  -0.133099
  C40      1.0000 0.52023  0.48017  0.57265  Biso   1.000  C  -0.058342
  C41      1.0000 0.57013  0.55807  0.51197  Biso   1.000  C  0.034247
  C42      1.0000 0.50903  0.49107  0.52550  Biso   1.000  C  0.003948
  C43      1.0000 0.55863  0.56827  0.48770  Biso   1.000  C  0.055634
  C44      1.0000 0.55823  0.44237  0.64723  Biso   1.000  C  -0.110287
  C45      1.0000 0.48583  0.38397  0.63502  Biso   1.000  C  0.000655
  C46      1.0000 0.47253  0.39847  0.61086  Biso   1.000  C  -0.158519
  C47      1.0000 0.42633  0.30527  0.64738  Biso   1.000  C  0.602421
  C48      1.0000 0.61883  0.63867  0.47551  Biso   1.000  C  -0.923205
  C49      1.0000 0.69353  0.70177  0.48734  Biso   1.000  C  -0.024684
  C50      1.0000 0.70353  0.69037  0.51191  Biso   1.000  C  -0.024101
  C51      1.0000 0.64123  0.61717  0.52385  Biso   1.000  C  -0.880365
  C52      1.0000 0.09310  0.45460  0.98067  Biso   1.000  C  0.600154
  C53      1.0000 0.15270  0.43530  0.96828  Biso   1.000  C  0.000664
  C54      1.0000 0.13900  0.40750  0.94429  Biso   1.000  C  -0.155206
  C55      1.0000 0.19800  0.39560  0.93195  Biso   1.000  C  0.124929
  C56      1.0000 0.18340  0.36690  0.88435  Biso   1.000  C  -0.130721
  C57      1.0000 0.18650  0.37340  0.90598  Biso   1.000  C  -0.056562
  C58      1.0000 0.10860  0.34540  0.84530  Biso   1.000  C  0.038372
  C59      1.0000 0.17560  0.35130  0.85883  Biso   1.000  C  -0.000828
  C60      1.0000 0.09840  0.32370  0.82103  Biso   1.000  C  0.056900
  C61      1.0000 0.22430  0.44920  0.98056  Biso   1.000  C  -0.110275
  C62      1.0000 0.28270  0.43520  0.96835  Biso   1.000  C  -0.000501
  C63      1.0000 0.26820  0.40740  0.94419  Biso   1.000  C  -0.155885
  C64      1.0000 0.36140  0.45440  0.98071  Biso   1.000  C  0.602673
  C65      1.0000 0.02800  0.31350  0.80884  Biso   1.000  C  -0.924835
  C66      1.0000 0.96490  0.32510  0.82067  Biso   1.000  C  -0.024486
  C67      1.0000 0.97630  0.34650  0.84524  Biso   1.000  C  -0.025136
  C68      1.0000 0.04950  0.35740  0.85718  Biso   1.000  C  -0.877214
  C69      1.0000 0.75977  0.78793  0.31400  Biso   1.000  C  0.600109
  C70      1.0000 0.81937  0.76863  0.30161  Biso   1.000  C  0.001969
  C71      1.0000 0.80567  0.74083  0.27762  Biso   1.000  C  -0.157675
  C72      1.0000 0.86467  0.72893  0.26528  Biso   1.000  C  0.129462
  C73      1.0000 0.85007  0.70023  0.21768  Biso   1.000  C  -0.130407
  C74      1.0000 0.85317  0.70673  0.23931  Biso   1.000  C  -0.059370
  C75      1.0000 0.77527  0.67873  0.17863  Biso   1.000  C  0.040420
  C76      1.0000 0.84227  0.68463  0.19216  Biso   1.000  C  -0.002259
  C77      1.0000 0.76507  0.65703  0.15436  Biso   1.000  C  0.053174
  C78      1.0000 0.89097  0.78253  0.31389  Biso   1.000  C  -0.107327
  C79      1.0000 0.94937  0.76853  0.30168  Biso   1.000  C  -0.000407
  C80      1.0000 0.93487  0.74073  0.27752  Biso   1.000  C  -0.160573
  C81      1.0000 0.02807  0.78773  0.31404  Biso   1.000  C  0.601545
  C82      1.0000 0.69467  0.64683  0.14217  Biso   1.000  C  -0.923881
  C83      1.0000 0.63157  0.65843  0.15400  Biso   1.000  C  -0.023705
  C84      1.0000 0.64297  0.67983  0.17857  Biso   1.000  C  -0.025477
  C85      1.0000 0.71617  0.69073  0.19051  Biso   1.000  C  -0.875732
  C86      1.0000 0.42643  0.12127  0.64734  Biso   1.000  C  0.597643
  C87      1.0000 0.48603  0.10197  0.63495  Biso   1.000  C  0.002841
  C88      1.0000 0.47233  0.07417  0.61096  Biso   1.000  C  -0.157816
  C89      1.0000 0.53133  0.06227  0.59862  Biso   1.000  C  0.128997
  C90      1.0000 0.51673  0.03357  0.55102  Biso   1.000  C  -0.133804
  C91      1.0000 0.51983  0.04007  0.57265  Biso   1.000  C  -0.057879
  C92      1.0000 0.44193  0.01207  0.51197  Biso   1.000  C  0.034465
  C93      1.0000 0.50893  0.01797  0.52550  Biso   1.000  C  0.004315
  C94      1.0000 0.43173  0.99037  0.48770  Biso   1.000  C  0.055187
  C95      1.0000 0.55763  0.11587  0.64723  Biso   1.000  C  -0.110051
  C96      1.0000 0.61603  0.10187  0.63502  Biso   1.000  C  0.000373
  C97      1.0000 0.60153  0.07407  0.61086  Biso   1.000  C  -0.158670
  C98      1.0000 0.69473  0.12107  0.64738  Biso   1.000  C  0.602869
  C99      1.0000 0.36133  0.98017  0.47551  Biso   1.000  C  -0.922364
  C100     1.0000 0.29823  0.99177  0.48734  Biso   1.000  C  -0.024858
  C101     1.0000 0.30963  0.01317  0.51191  Biso   1.000  C  -0.024267
  C102     1.0000 0.38283  0.02407  0.52385  Biso   1.000  C  -0.880849
  C103     1.0000 0.54540  0.63850  0.98067  Biso   1.000  C  0.600627
  C104     1.0000 0.56470  0.71740  0.96828  Biso   1.000  C  0.000506
  C105     1.0000 0.59250  0.73150  0.94429  Biso   1.000  C  -0.154165
  C106     1.0000 0.60440  0.80240  0.93195  Biso   1.000  C  0.124913
  C107     1.0000 0.63310  0.81650  0.88435  Biso   1.000  C  -0.130736
  C108     1.0000 0.62660  0.81310  0.90598  Biso   1.000  C  -0.056557
  C109     1.0000 0.65460  0.76320  0.84530  Biso   1.000  C  0.038346
  C110     1.0000 0.64870  0.82430  0.85883  Biso   1.000  C  -0.000817
  C111     1.0000 0.67630  0.77470  0.82103  Biso   1.000  C  0.056981
  C112     1.0000 0.55080  0.77510  0.98056  Biso   1.000  C  -0.110202
  C113     1.0000 0.56480  0.84750  0.96835  Biso   1.000  C  -0.000500
  C114     1.0000 0.59260  0.86080  0.94419  Biso   1.000  C  -0.156858
  C115     1.0000 0.54560  0.90700  0.98071  Biso   1.000  C  0.602204
  C116     1.0000 0.68650  0.71450  0.80884  Biso   1.000  C  -0.924978
  C117     1.0000 0.67490  0.63980  0.82067  Biso   1.000  C  -0.024677
  C118     1.0000 0.65350  0.62980  0.84524  Biso   1.000  C  -0.024938
  C119     1.0000 0.64260  0.69210  0.85718  Biso   1.000  C  -0.877133
  C120     1.0000 0.21207  0.97183  0.31400  Biso   1.000  C  0.600050
  C121     1.0000 0.23137  0.05073  0.30161  Biso   1.000  C  0.002345
  C122     1.0000 0.25917  0.06483  0.27762  Biso   1.000  C  -0.157686
  C123     1.0000 0.27107  0.13573  0.26528  Biso   1.000  C  0.129297
  C124     1.0000 0.29977  0.14983  0.21768  Biso   1.000  C  -0.130408
  C125     1.0000 0.29327  0.14643  0.23931  Biso   1.000  C  -0.059463
  C126     1.0000 0.32127  0.09653  0.17863  Biso   1.000  C  0.039826
  C127     1.0000 0.31537  0.15763  0.19216  Biso   1.000  C  -0.002165
  C128     1.0000 0.34297  0.10803  0.15436  Biso   1.000  C  0.053617
  C129     1.0000 0.21747  0.10843  0.31389  Biso   1.000  C  -0.107750
  C130     1.0000 0.23147  0.18083  0.30168  Biso   1.000  C  -0.000697
  C131     1.0000 0.25927  0.19413  0.27752  Biso   1.000  C  -0.159497
  C132     1.0000 0.21227  0.24033  0.31404  Biso   1.000  C  0.601523
  C133     1.0000 0.35317  0.04783  0.14217  Biso   1.000  C  -0.924673
  C134     1.0000 0.34157  0.97313  0.15400  Biso   1.000  C  -0.023351
  C135     1.0000 0.32017  0.96313  0.17857  Biso   1.000  C  -0.025413
  C136     1.0000 0.30927  0.02543  0.19051  Biso   1.000  C  -0.875666
  C137     1.0000 0.87873  0.30517  0.64734  Biso   1.000  C  0.598123
  C138     1.0000 0.89803  0.38407  0.63495  Biso   1.000  C  0.002540
  C139     1.0000 0.92583  0.39817  0.61096  Biso   1.000  C  -0.156719
  C140     1.0000 0.93773  0.46907  0.59862  Biso   1.000  C  0.128770
  C141     1.0000 0.96643  0.48317  0.55102  Biso   1.000  C  -0.133882
  C142     1.0000 0.95993  0.47977  0.57265  Biso   1.000  C  -0.057715
  C143     1.0000 0.98793  0.42987  0.51197  Biso   1.000  C  0.034373
  C144     1.0000 0.98203  0.49097  0.52550  Biso   1.000  C  0.004199
  C145     1.0000 0.00963  0.44137  0.48770  Biso   1.000  C  0.055793
  C146     1.0000 0.88413  0.44177  0.64723  Biso   1.000  C  -0.109783
  C147     1.0000 0.89813  0.51417  0.63502  Biso   1.000  C  -0.000092
  C148     1.0000 0.92593  0.52747  0.61086  Biso   1.000  C  -0.159097
  C149     1.0000 0.87893  0.57367  0.64738  Biso   1.000  C  0.602302
  C150     1.0000 0.01983  0.38117  0.47551  Biso   1.000  C  -0.922749
  C151     1.0000 0.00823  0.30647  0.48734  Biso   1.000  C  -0.024723
  C152     1.0000 0.98683  0.29647  0.51191  Biso   1.000  C  -0.023945
  C153     1.0000 0.97593  0.35877  0.52385  Biso   1.000  C  -0.880666
  C154     1.0000 0.63850  0.09310  0.01933  Biso   1.000  C  0.600075
  C155     1.0000 0.71740  0.15270  0.03172  Biso   1.000  C  0.001203
  C156     1.0000 0.73150  0.13900  0.05571  Biso   1.000  C  -0.154484
  C157     1.0000 0.80240  0.19800  0.06805  Biso   1.000  C  0.125524
  C158     1.0000 0.81650  0.18340  0.11565  Biso   1.000  C  -0.129787
  C159     1.0000 0.81310  0.18650  0.09402  Biso   1.000  C  -0.057397
  C160     1.0000 0.76320  0.10860  0.15470  Biso   1.000  C  0.038398
  C161     1.0000 0.82430  0.17560  0.14117  Biso   1.000  C  -0.001125
  C162     1.0000 0.77470  0.09840  0.17897  Biso   1.000  C  0.056733
  C163     1.0000 0.77510  0.22430  0.01944  Biso   1.000  C  -0.110316
  C164     1.0000 0.84750  0.28270  0.03165  Biso   1.000  C  0.000084
  C165     1.0000 0.86080  0.26820  0.05581  Biso   1.000  C  -0.156181
  C166     1.0000 0.90700  0.36140  0.01929  Biso   1.000  C  0.602120
  C167     1.0000 0.71450  0.02800  0.19116  Biso   1.000  C  -0.925430
  C168     1.0000 0.63980  0.96490  0.17933  Biso   1.000  C  -0.024812
  C169     1.0000 0.62980  0.97630  0.15476  Biso   1.000  C  -0.025177
  C170     1.0000 0.69210  0.04950  0.14282  Biso   1.000  C  -0.877582
  C171     1.0000 0.30517  0.42643  0.35266  Biso   1.000  C  0.597414
  C172     1.0000 0.38407  0.48603  0.36505  Biso   1.000  C  0.003696
  C173     1.0000 0.39817  0.47233  0.38904  Biso   1.000  C  -0.157385
  C174     1.0000 0.46907  0.53133  0.40138  Biso   1.000  C  0.129477
  C175     1.0000 0.48317  0.51673  0.44898  Biso   1.000  C  -0.133006
  C176     1.0000 0.47977  0.51983  0.42735  Biso   1.000  C  -0.058574
  C177     1.0000 0.42987  0.44193  0.48803  Biso   1.000  C  0.034236
  C178     1.0000 0.49097  0.50893  0.47450  Biso   1.000  C  0.003879
  C179     1.0000 0.44137  0.43173  0.51230  Biso   1.000  C  0.055644
  C180     1.0000 0.44177  0.55763  0.35277  Biso   1.000  C  -0.110555
  C181     1.0000 0.51417  0.61603  0.36498  Biso   1.000  C  0.000554
  C182     1.0000 0.52747  0.60153  0.38914  Biso   1.000  C  -0.158667
  C183     1.0000 0.57367  0.69473  0.35262  Biso   1.000  C  0.602312
  C184     1.0000 0.38117  0.36133  0.52449  Biso   1.000  C  -0.923133
  C185     1.0000 0.30647  0.29823  0.51266  Biso   1.000  C  -0.024585
  C186     1.0000 0.29647  0.30963  0.48809  Biso   1.000  C  -0.024203
  C187     1.0000 0.35877  0.38283  0.47615  Biso   1.000  C  -0.880435
  C188     1.0000 0.97183  0.75977  0.68600  Biso   1.000  C  0.599956
  C189     1.0000 0.05073  0.81937  0.69839  Biso   1.000  C  0.002124
  C190     1.0000 0.06483  0.80567  0.72238  Biso   1.000  C  -0.157511
  C191     1.0000 0.13573  0.86467  0.73472  Biso   1.000  C  0.129482
  C192     1.0000 0.14983  0.85007  0.78232  Biso   1.000  C  -0.130322
  C193     1.0000 0.14643  0.85317  0.76069  Biso   1.000  C  -0.059415
  C194     1.0000 0.09653  0.77527  0.82137  Biso   1.000  C  0.040573
  C195     1.0000 0.15763  0.84227  0.80784  Biso   1.000  C  -0.002134
  C196     1.0000 0.10803  0.76507  0.84564  Biso   1.000  C  0.053323
  C197     1.0000 0.10843  0.89097  0.68611  Biso   1.000  C  -0.106993
  C198     1.0000 0.18083  0.94937  0.69832  Biso   1.000  C  -0.000249
  C199     1.0000 0.19413  0.93487  0.72248  Biso   1.000  C  -0.160139
  C200     1.0000 0.24033  0.02807  0.68596  Biso   1.000  C  0.601166
  C201     1.0000 0.04783  0.69467  0.85783  Biso   1.000  C  -0.923991
  C202     1.0000 0.97313  0.63157  0.84600  Biso   1.000  C  -0.023687
  C203     1.0000 0.96313  0.64297  0.82143  Biso   1.000  C  -0.024994
  C204     1.0000 0.02543  0.71617  0.80949  Biso   1.000  C  -0.876112
  C205     1.0000 0.90690  0.54540  0.01933  Biso   1.000  C  0.600162
  C206     1.0000 0.84730  0.56470  0.03172  Biso   1.000  C  0.000625
  C207     1.0000 0.86100  0.59250  0.05571  Biso   1.000  C  -0.155183
  C208     1.0000 0.80200  0.60440  0.06805  Biso   1.000  C  0.124926
  C209     1.0000 0.81660  0.63310  0.11565  Biso   1.000  C  -0.130723
  C210     1.0000 0.81350  0.62660  0.09402  Biso   1.000  C  -0.056618
  C211     1.0000 0.89140  0.65460  0.15470  Biso   1.000  C  0.038333
  C212     1.0000 0.82440  0.64870  0.14117  Biso   1.000  C  -0.000796
  C213     1.0000 0.90160  0.67630  0.17897  Biso   1.000  C  0.056898
  C214     1.0000 0.77570  0.55080  0.01944  Biso   1.000  C  -0.110070
  C215     1.0000 0.71730  0.56480  0.03165  Biso   1.000  C  -0.000482
  C216     1.0000 0.73180  0.59260  0.05581  Biso   1.000  C  -0.156097
  C217     1.0000 0.63860  0.54560  0.01929  Biso   1.000  C  0.602682
  C218     1.0000 0.97200  0.68650  0.19116  Biso   1.000  C  -0.925388
  C219     1.0000 0.03510  0.67490  0.17933  Biso   1.000  C  -0.024821
  C220     1.0000 0.02370  0.65350  0.15476  Biso   1.000  C  -0.025130
  C221     1.0000 0.95050  0.64260  0.14282  Biso   1.000  C  -0.877491
  C222     1.0000 0.57357  0.87873  0.35266  Biso   1.000  C  0.597443
  C223     1.0000 0.51397  0.89803  0.36505  Biso   1.000  C  0.003316
  C224     1.0000 0.52767  0.92583  0.38904  Biso   1.000  C  -0.157263
  C225     1.0000 0.46867  0.93773  0.40138  Biso   1.000  C  0.129603
  C226     1.0000 0.48327  0.96643  0.44898  Biso   1.000  C  -0.132803
  C227     1.0000 0.48017  0.95993  0.42735  Biso   1.000  C  -0.058869
  C228     1.0000 0.55807  0.98793  0.48803  Biso   1.000  C  0.034481
  C229     1.0000 0.49107  0.98203  0.47450  Biso   1.000  C  0.003977
  C230     1.0000 0.56827  0.00963  0.51230  Biso   1.000  C  0.055192
  C231     1.0000 0.44237  0.88413  0.35277  Biso   1.000  C  -0.110547
  C232     1.0000 0.38397  0.89813  0.36498  Biso   1.000  C  0.000816
  C233     1.0000 0.39847  0.92593  0.38914  Biso   1.000  C  -0.158902
  C234     1.0000 0.30527  0.87893  0.35262  Biso   1.000  C  0.602214
  C235     1.0000 0.63867  0.01983  0.52449  Biso   1.000  C  -0.922174
  C236     1.0000 0.70177  0.00823  0.51266  Biso   1.000  C  -0.024631
  C237     1.0000 0.69037  0.98683  0.48809  Biso   1.000  C  -0.024440
  C238     1.0000 0.61717  0.97593  0.47615  Biso   1.000  C  -0.880923
  C239     1.0000 0.24023  0.21207  0.68600  Biso   1.000  C  0.600299
  C240     1.0000 0.18063  0.23137  0.69839  Biso   1.000  C  0.001531
  C241     1.0000 0.19433  0.25917  0.72238  Biso   1.000  C  -0.158239
  C242     1.0000 0.13533  0.27107  0.73472  Biso   1.000  C  0.128851
  C243     1.0000 0.14993  0.29977  0.78232  Biso   1.000  C  -0.131404
  C244     1.0000 0.14683  0.29327  0.76069  Biso   1.000  C  -0.058319
  C245     1.0000 0.22473  0.32127  0.82137  Biso   1.000  C  0.040442
  C246     1.0000 0.15773  0.31537  0.80784  Biso   1.000  C  -0.001944
  C247     1.0000 0.23493  0.34297  0.84564  Biso   1.000  C  0.053183
  C248     1.0000 0.10903  0.21747  0.68611  Biso   1.000  C  -0.107024
  C249     1.0000 0.05063  0.23147  0.69832  Biso   1.000  C  -0.000913
  C250     1.0000 0.06513  0.25927  0.72248  Biso   1.000  C  -0.160112
  C251     1.0000 0.97193  0.21227  0.68596  Biso   1.000  C  0.602197
  C252     1.0000 0.30533  0.35317  0.85783  Biso   1.000  C  -0.923529
  C253     1.0000 0.36843  0.34157  0.84600  Biso   1.000  C  -0.023615
  C254     1.0000 0.35703  0.32017  0.82143  Biso   1.000  C  -0.025301
  C255     1.0000 0.28383  0.30927  0.80949  Biso   1.000  C  -0.875388
  C256     1.0000 0.45460  0.36150  0.01933  Biso   1.000  C  0.600642
  C257     1.0000 0.43530  0.28260  0.03172  Biso   1.000  C  0.000523
  C258     1.0000 0.40750  0.26850  0.05571  Biso   1.000  C  -0.154375
  C259     1.0000 0.39560  0.19760  0.06805  Biso   1.000  C  0.124910
  C260     1.0000 0.36690  0.18350  0.11565  Biso   1.000  C  -0.130749
  C261     1.0000 0.37340  0.18690  0.09402  Biso   1.000  C  -0.056615
  C262     1.0000 0.34540  0.23680  0.15470  Biso   1.000  C  0.038311
  C263     1.0000 0.35130  0.17570  0.14117  Biso   1.000  C  -0.000795
  C264     1.0000 0.32370  0.22530  0.17897  Biso   1.000  C  0.056973
  C265     1.0000 0.44920  0.22490  0.01944  Biso   1.000  C  -0.110000
  C266     1.0000 0.43520  0.15250  0.03165  Biso   1.000  C  -0.000537
  C267     1.0000 0.40740  0.13920  0.05581  Biso   1.000  C  -0.156833
  C268     1.0000 0.45440  0.09300  0.01929  Biso   1.000  C  0.602214
  C269     1.0000 0.31350  0.28550  0.19116  Biso   1.000  C  -0.925338
  C270     1.0000 0.32510  0.36020  0.17933  Biso   1.000  C  -0.024860
  C271     1.0000 0.34650  0.37020  0.15476  Biso   1.000  C  -0.025063
  C272     1.0000 0.35740  0.30790  0.14282  Biso   1.000  C  -0.877399
  C273     1.0000 0.12127  0.69483  0.35266  Biso   1.000  C  0.597451
  C274     1.0000 0.10197  0.61593  0.36505  Biso   1.000  C  0.003115
  C275     1.0000 0.07417  0.60183  0.38904  Biso   1.000  C  -0.156982
  C276     1.0000 0.06227  0.53093  0.40138  Biso   1.000  C  0.129395
  C277     1.0000 0.03357  0.51683  0.44898  Biso   1.000  C  -0.132866
  C278     1.0000 0.04007  0.52023  0.42735  Biso   1.000  C  -0.058718
  C279     1.0000 0.01207  0.57013  0.48803  Biso   1.000  C  0.034370
  C280     1.0000 0.01797  0.50903  0.47450  Biso   1.000  C  0.003855
  C281     1.0000 0.99037  0.55863  0.51230  Biso   1.000  C  0.055787
  C282     1.0000 0.11587  0.55823  0.35277  Biso   1.000  C  -0.110364
  C283     1.0000 0.10187  0.48583  0.36498  Biso   1.000  C  0.000426
  C284     1.0000 0.07407  0.47253  0.38914  Biso   1.000  C  -0.158588
  C285     1.0000 0.12107  0.42633  0.35262  Biso   1.000  C  0.602120
  C286     1.0000 0.98017  0.61883  0.52449  Biso   1.000  C  -0.922655
  C287     1.0000 0.99177  0.69353  0.51266  Biso   1.000  C  -0.024547
  C288     1.0000 0.01317  0.70353  0.48809  Biso   1.000  C  -0.024170
  C289     1.0000 0.02407  0.64123  0.47615  Biso   1.000  C  -0.880841
  C290     1.0000 0.78793  0.02817  0.68600  Biso   1.000  C  0.600696
  C291     1.0000 0.76863  0.94927  0.69839  Biso   1.000  C  0.001749
  C292     1.0000 0.74083  0.93517  0.72238  Biso   1.000  C  -0.157207
  C293     1.0000 0.72893  0.86427  0.73472  Biso   1.000  C  0.128665
  C294     1.0000 0.70023  0.85017  0.78232  Biso   1.000  C  -0.131410
  C295     1.0000 0.70673  0.85357  0.76069  Biso   1.000  C  -0.058396
  C296     1.0000 0.67873  0.90347  0.82137  Biso   1.000  C  0.039865
  C297     1.0000 0.68463  0.84237  0.80784  Biso   1.000  C  -0.001832
  C298     1.0000 0.65703  0.89197  0.84564  Biso   1.000  C  0.053640
  C299     1.0000 0.78253  0.89157  0.68611  Biso   1.000  C  -0.107369
  C300     1.0000 0.76853  0.81917  0.69832  Biso   1.000  C  -0.001176
  C301     1.0000 0.74073  0.80587  0.72248  Biso   1.000  C  -0.160023
  C302     1.0000 0.78773  0.75967  0.68596  Biso   1.000  C  0.601692
  C303     1.0000 0.64683  0.95217  0.85783  Biso   1.000  C  -0.924408
  C304     1.0000 0.65843  0.02687  0.84600  Biso   1.000  C  -0.023361
  C305     1.0000 0.67983  0.03687  0.82143  Biso   1.000  C  -0.025056
  C306     1.0000 0.69073  0.97457  0.80949  Biso   1.000  C  -0.875230
  Cu1      1.0000 0.47641  0.95275  0.01995  Biso   1.000  Cu  0.782873
  Cu2      1.0000 0.14308  0.28608  0.35328  Biso   1.000  Cu  0.780781
  Cu3      1.0000 0.80974  0.61942  0.68661  Biso   1.000  Cu  0.782589
  Cu4      1.0000 0.04725  0.52366  0.01995  Biso   1.000  Cu  0.782884
  Cu5      1.0000 0.71392  0.85699  0.35328  Biso   1.000  Cu  0.780745
  Cu6      1.0000 0.38058  0.19033  0.68661  Biso   1.000  Cu  0.782921
  Cu7      1.0000 0.47634  0.52359  0.01995  Biso   1.000  Cu  0.800206
  Cu8      1.0000 0.14301  0.85692  0.35328  Biso   1.000  Cu  0.780741
  Cu9      1.0000 0.80967  0.19026  0.68661  Biso   1.000  Cu  0.774272
  Cu10     1.0000 0.52359  0.04725  0.98005  Biso   1.000  Cu  0.782922
  Cu11     1.0000 0.19026  0.38058  0.31339  Biso   1.000  Cu  0.781799
  Cu12     1.0000 0.85692  0.71392  0.64672  Biso   1.000  Cu  0.781443
  Cu13     1.0000 0.95275  0.47634  0.98005  Biso   1.000  Cu  0.782960
  Cu14     1.0000 0.61942  0.80967  0.31339  Biso   1.000  Cu  0.782137
  Cu15     1.0000 0.28608  0.14301  0.64672  Biso   1.000  Cu  0.781584
  Cu16     1.0000 0.52366  0.47641  0.98005  Biso   1.000  Cu  0.774393
  Cu17     1.0000 0.19033  0.80974  0.31339  Biso   1.000  Cu  0.782011
  Cu18     1.0000 0.85699  0.14308  0.64672  Biso   1.000  Cu  0.798607
  H1       1.0000 0.30610  0.90950  0.93630  Biso   1.000  H  0.129491
  H2       1.0000 0.23420  0.76660  0.99670  Biso   1.000  H  0.137746
  H3       1.0000 0.09090  0.69410  0.93620  Biso   1.000  H  0.129188
  H4       1.0000 0.27720  0.97870  0.79240  Biso   1.000  H  0.243017
  H5       1.0000 0.39970  0.08100  0.81210  Biso   1.000  H  0.115268
  H6       1.0000 0.41630  0.06270  0.85380  Biso   1.000  H  0.109675
  H7       1.0000 0.31530  0.94230  0.87360  Biso   1.000  H  0.239492
  H8       1.0000 0.27930  0.93380  0.85410  Biso   1.000  H  0.658422
  H9       1.0000 0.26460  0.94970  0.81330  Biso   1.000  H  0.683002
  H10      1.0000 0.97277  0.24283  0.26963  Biso   1.000  H  0.129888
  H11      1.0000 0.90087  0.09993  0.33003  Biso   1.000  H  0.136513
  H12      1.0000 0.75757  0.02743  0.26953  Biso   1.000  H  0.130792
  H13      1.0000 0.94387  0.31203  0.12573  Biso   1.000  H  0.242904
  H14      1.0000 0.06637  0.41433  0.14543  Biso   1.000  H  0.114224
  H15      1.0000 0.08297  0.39603  0.18713  Biso   1.000  H  0.109104
  H16      1.0000 0.98197  0.27563  0.20693  Biso   1.000  H  0.239233
  H17      1.0000 0.94597  0.26713  0.18743  Biso   1.000  H  0.656947
  H18      1.0000 0.93127  0.28303  0.14663  Biso   1.000  H  0.682780
  H19      1.0000 0.63943  0.57617  0.60297  Biso   1.000  H  0.129544
  H20      1.0000 0.56753  0.43327  0.66337  Biso   1.000  H  0.137848
  H21      1.0000 0.42423  0.36077  0.60287  Biso   1.000  H  0.129055
  H22      1.0000 0.61053  0.64537  0.45907  Biso   1.000  H  0.242885
  H23      1.0000 0.73303  0.74767  0.47877  Biso   1.000  H  0.114392
  H24      1.0000 0.74963  0.72937  0.52047  Biso   1.000  H  0.110618
  H25      1.0000 0.64863  0.60897  0.54027  Biso   1.000  H  0.239810
  H26      1.0000 0.61263  0.60047  0.52077  Biso   1.000  H  0.660825
  H27      1.0000 0.59793  0.61637  0.47997  Biso   1.000  H  0.681143
  H28      1.0000 0.09050  0.39660  0.93630  Biso   1.000  H  0.129222
  H29      1.0000 0.23340  0.46760  0.99670  Biso   1.000  H  0.137579
  H30      1.0000 0.30590  0.39680  0.93620  Biso   1.000  H  0.129050
  H31      1.0000 0.02130  0.29850  0.79240  Biso   1.000  H  0.243181
  H32      1.0000 0.91900  0.31870  0.81210  Biso   1.000  H  0.115347
  H33      1.0000 0.93730  0.35360  0.85380  Biso   1.000  H  0.109680
  H34      1.0000 0.05770  0.37300  0.87360  Biso   1.000  H  0.239564
  H35      1.0000 0.06620  0.34550  0.85410  Biso   1.000  H  0.658434
  H36      1.0000 0.05030  0.31490  0.81330  Biso   1.000  H  0.683001
  H37      1.0000 0.75717  0.72993  0.26963  Biso   1.000  H  0.130033
  H38      1.0000 0.90007  0.80093  0.33003  Biso   1.000  H  0.136687
  H39      1.0000 0.97257  0.73013  0.26953  Biso   1.000  H  0.130957
  H40      1.0000 0.68797  0.63183  0.12573  Biso   1.000  H  0.242906
  H41      1.0000 0.58567  0.65203  0.14543  Biso   1.000  H  0.114312
  H42      1.0000 0.60397  0.68693  0.18713  Biso   1.000  H  0.109237
  H43      1.0000 0.72437  0.70633  0.20693  Biso   1.000  H  0.239187
  H44      1.0000 0.73287  0.67883  0.18743  Biso   1.000  H  0.656678
  H45      1.0000 0.71697  0.64823  0.14663  Biso   1.000  H  0.682985
  H46      1.0000 0.42383  0.06327  0.60297  Biso   1.000  H  0.129327
  H47      1.0000 0.56673  0.13427  0.66337  Biso   1.000  H  0.137708
  H48      1.0000 0.63923  0.06347  0.60287  Biso   1.000  H  0.128987
  H49      1.0000 0.35463  0.96517  0.45907  Biso   1.000  H  0.242879
  H50      1.0000 0.25233  0.98537  0.47877  Biso   1.000  H  0.114364
  H51      1.0000 0.27063  0.02027  0.52047  Biso   1.000  H  0.110706
  H52      1.0000 0.39103  0.03967  0.54027  Biso   1.000  H  0.240220
  H53      1.0000 0.39953  0.01217  0.52077  Biso   1.000  H  0.660939
  H54      1.0000 0.38363  0.98157  0.47997  Biso   1.000  H  0.681003
  H55      1.0000 0.60340  0.69390  0.93630  Biso   1.000  H  0.129335
  H56      1.0000 0.53240  0.76580  0.99670  Biso   1.000  H  0.137563
  H57      1.0000 0.60320  0.90910  0.93620  Biso   1.000  H  0.128921
  H58      1.0000 0.70150  0.72280  0.79240  Biso   1.000  H  0.243092
  H59      1.0000 0.68130  0.60030  0.81210  Biso   1.000  H  0.115288
  H60      1.0000 0.64640  0.58370  0.85380  Biso   1.000  H  0.109774
  H61      1.0000 0.62700  0.68470  0.87360  Biso   1.000  H  0.239668
  H62      1.0000 0.65450  0.72070  0.85410  Biso   1.000  H  0.658442
  H63      1.0000 0.68510  0.73540  0.81330  Biso   1.000  H  0.683000
  H64      1.0000 0.27007  0.02723  0.26963  Biso   1.000  H  0.129842
  H65      1.0000 0.19907  0.09913  0.33003  Biso   1.000  H  0.136933
  H66      1.0000 0.26987  0.24243  0.26953  Biso   1.000  H  0.130347
  H67      1.0000 0.36817  0.05613  0.12573  Biso   1.000  H  0.243041
  H68      1.0000 0.34797  0.93363  0.14543  Biso   1.000  H  0.114058
  H69      1.0000 0.31307  0.91703  0.18713  Biso   1.000  H  0.109145
  H70      1.0000 0.29367  0.01803  0.20693  Biso   1.000  H  0.239252
  H71      1.0000 0.32117  0.05403  0.18743  Biso   1.000  H  0.656812
  H72      1.0000 0.35177  0.06873  0.14663  Biso   1.000  H  0.683131
  H73      1.0000 0.93673  0.36057  0.60297  Biso   1.000  H  0.129348
  H74      1.0000 0.86573  0.43247  0.66337  Biso   1.000  H  0.137685
  H75      1.0000 0.93653  0.57577  0.60287  Biso   1.000  H  0.128826
  H76      1.0000 0.03483  0.38947  0.45907  Biso   1.000  H  0.242937
  H77      1.0000 0.01463  0.26697  0.47877  Biso   1.000  H  0.114435
  H78      1.0000 0.97973  0.25037  0.52047  Biso   1.000  H  0.110576
  H79      1.0000 0.96033  0.35137  0.54027  Biso   1.000  H  0.240042
  H80      1.0000 0.98783  0.38737  0.52077  Biso   1.000  H  0.661105
  H81      1.0000 0.01843  0.40207  0.47997  Biso   1.000  H  0.680601
  H82      1.0000 0.69390  0.09050  0.06370  Biso   1.000  H  0.129472
  H83      1.0000 0.76580  0.23340  0.00330  Biso   1.000  H  0.137768
  H84      1.0000 0.90910  0.30590  0.06380  Biso   1.000  H  0.129172
  H85      1.0000 0.72280  0.02130  0.20760  Biso   1.000  H  0.242950
  H86      1.0000 0.60030  0.91900  0.18790  Biso   1.000  H  0.115244
  H87      1.0000 0.58370  0.93730  0.14620  Biso   1.000  H  0.109664
  H88      1.0000 0.68470  0.05770  0.12640  Biso   1.000  H  0.239463
  H89      1.0000 0.72070  0.06620  0.14590  Biso   1.000  H  0.658429
  H90      1.0000 0.73540  0.05030  0.18670  Biso   1.000  H  0.683005
  H91      1.0000 0.36057  0.42383  0.39703  Biso   1.000  H  0.129516
  H92      1.0000 0.43247  0.56673  0.33663  Biso   1.000  H  0.137762
  H93      1.0000 0.57577  0.63923  0.39713  Biso   1.000  H  0.129016
  H94      1.0000 0.38947  0.35463  0.54093  Biso   1.000  H  0.242928
  H95      1.0000 0.26697  0.25233  0.52123  Biso   1.000  H  0.114434
  H96      1.0000 0.25037  0.27063  0.47953  Biso   1.000  H  0.110586
  H97      1.0000 0.35137  0.39103  0.45973  Biso   1.000  H  0.239765
  H98      1.0000 0.38737  0.39953  0.47923  Biso   1.000  H  0.660820
  H99      1.0000 0.40207  0.38363  0.52003  Biso   1.000  H  0.681146
  H100     1.0000 0.02723  0.75717  0.73037  Biso   1.000  H  0.129937
  H101     1.0000 0.09913  0.90007  0.66997  Biso   1.000  H  0.136570
  H102     1.0000 0.24243  0.97257  0.73047  Biso   1.000  H  0.130841
  H103     1.0000 0.05613  0.68797  0.87427  Biso   1.000  H  0.242930
  H104     1.0000 0.93363  0.58567  0.85457  Biso   1.000  H  0.114223
  H105     1.0000 0.91703  0.60397  0.81287  Biso   1.000  H  0.109141
  H106     1.0000 0.01803  0.72437  0.79307  Biso   1.000  H  0.239305
  H107     1.0000 0.05403  0.73287  0.81257  Biso   1.000  H  0.656946
  H108     1.0000 0.06873  0.71697  0.85337  Biso   1.000  H  0.682773
  H109     1.0000 0.90950  0.60340  0.06370  Biso   1.000  H  0.129208
  H110     1.0000 0.76660  0.53240  0.00330  Biso   1.000  H  0.137624
  H111     1.0000 0.69410  0.60320  0.06380  Biso   1.000  H  0.128965
  H112     1.0000 0.97870  0.70150  0.20760  Biso   1.000  H  0.242966
  H113     1.0000 0.08100  0.68130  0.18790  Biso   1.000  H  0.115240
  H114     1.0000 0.06270  0.64640  0.14620  Biso   1.000  H  0.109657
  H115     1.0000 0.94230  0.62700  0.12640  Biso   1.000  H  0.239530
  H116     1.0000 0.93380  0.65450  0.14590  Biso   1.000  H  0.658448
  H117     1.0000 0.94970  0.68510  0.18670  Biso   1.000  H  0.682999
  H118     1.0000 0.57617  0.93673  0.39703  Biso   1.000  H  0.129551
  H119     1.0000 0.43327  0.86573  0.33663  Biso   1.000  H  0.137777
  H120     1.0000 0.36077  0.93653  0.39713  Biso   1.000  H  0.129161
  H121     1.0000 0.64537  0.03483  0.54093  Biso   1.000  H  0.243022
  H122     1.0000 0.74767  0.01463  0.52123  Biso   1.000  H  0.114420
  H123     1.0000 0.72937  0.97973  0.47953  Biso   1.000  H  0.110683
  H124     1.0000 0.60897  0.96033  0.45973  Biso   1.000  H  0.240128
  H125     1.0000 0.60047  0.98783  0.47923  Biso   1.000  H  0.660920
  H126     1.0000 0.61637  0.01843  0.52003  Biso   1.000  H  0.681016
  H127     1.0000 0.24283  0.27007  0.73037  Biso   1.000  H  0.129823
  H128     1.0000 0.09993  0.19907  0.66997  Biso   1.000  H  0.136586
  H129     1.0000 0.02743  0.26987  0.73047  Biso   1.000  H  0.130851
  H130     1.0000 0.31203  0.36817  0.87427  Biso   1.000  H  0.242987
  H131     1.0000 0.41433  0.34797  0.85457  Biso   1.000  H  0.114380
  H132     1.0000 0.39603  0.31307  0.81287  Biso   1.000  H  0.109284
  H133     1.0000 0.27563  0.29367  0.79307  Biso   1.000  H  0.239315
  H134     1.0000 0.26713  0.32117  0.81257  Biso   1.000  H  0.656684
  H135     1.0000 0.28303  0.35177  0.85337  Biso   1.000  H  0.682973
  H136     1.0000 0.39660  0.30610  0.06370  Biso   1.000  H  0.129248
  H137     1.0000 0.46760  0.23420  0.00330  Biso   1.000  H  0.137612
  H138     1.0000 0.39680  0.09090  0.06380  Biso   1.000  H  0.128903
  H139     1.0000 0.29850  0.27720  0.20760  Biso   1.000  H  0.242958
  H140     1.0000 0.31870  0.39970  0.18790  Biso   1.000  H  0.115237
  H141     1.0000 0.35360  0.41630  0.14620  Biso   1.000  H  0.109693
  H142     1.0000 0.37300  0.31530  0.12640  Biso   1.000  H  0.239572
  H143     1.0000 0.34550  0.27930  0.14590  Biso   1.000  H  0.658447
  H144     1.0000 0.31490  0.26460  0.18670  Biso   1.000  H  0.682994
  H145     1.0000 0.06327  0.63943  0.39703  Biso   1.000  H  0.129537
  H146     1.0000 0.13427  0.56753  0.33663  Biso   1.000  H  0.137768
  H147     1.0000 0.06347  0.42423  0.39713  Biso   1.000  H  0.129066
  H148     1.0000 0.96517  0.61053  0.54093  Biso   1.000  H  0.243033
  H149     1.0000 0.98537  0.73303  0.52123  Biso   1.000  H  0.114463
  H150     1.0000 0.02027  0.74963  0.47953  Biso   1.000  H  0.110517
  H151     1.0000 0.03967  0.64863  0.45973  Biso   1.000  H  0.239902
  H152     1.0000 0.01217  0.61263  0.47923  Biso   1.000  H  0.661086
  H153     1.0000 0.98157  0.59793  0.52003  Biso   1.000  H  0.680615
  H154     1.0000 0.72993  0.97277  0.73037  Biso   1.000  H  0.129722
  H155     1.0000 0.80093  0.90087  0.66997  Biso   1.000  H  0.136806
  H156     1.0000 0.73013  0.75757  0.73047  Biso   1.000  H  0.130124
  H157     1.0000 0.63183  0.94387  0.87427  Biso   1.000  H  0.243076
  H158     1.0000 0.65203  0.06637  0.85457  Biso   1.000  H  0.114090
  H159     1.0000 0.68693  0.08297  0.81287  Biso   1.000  H  0.109267
  H160     1.0000 0.70633  0.98197  0.79307  Biso   1.000  H  0.239480
  H161     1.0000 0.67883  0.94597  0.81257  Biso   1.000  H  0.656826
  H162     1.0000 0.64823  0.93127  0.85337  Biso   1.000  H  0.683122
  O1       1.0000 0.37141  0.88949  0.00216  Biso   1.000  O  -0.539771
  O2       1.0000 0.11037  0.62849  0.00213  Biso   1.000  O  -0.539799
  O3       1.0000 0.03172  0.58846  0.96861  Biso   1.000  O  -0.553566
  O4       1.0000 0.41164  0.96833  0.96861  Biso   1.000  O  -0.551651
  O5       1.0000 0.03808  0.22282  0.33549  Biso   1.000  O  -0.540841
  O6       1.0000 0.77704  0.96182  0.33546  Biso   1.000  O  -0.540630
  O7       1.0000 0.69839  0.92179  0.30194  Biso   1.000  O  -0.551820
  O8       1.0000 0.07831  0.30166  0.30194  Biso   1.000  O  -0.550756
  O9       1.0000 0.70474  0.55616  0.66883  Biso   1.000  O  -0.539270
  O10      1.0000 0.44370  0.29516  0.66880  Biso   1.000  O  -0.541195
  O11      1.0000 0.36505  0.25513  0.63528  Biso   1.000  O  -0.552092
  O12      1.0000 0.74497  0.63500  0.63528  Biso   1.000  O  -0.549969
  O13      1.0000 0.11051  0.48192  0.00216  Biso   1.000  O  -0.539841
  O14      1.0000 0.37151  0.48188  0.00213  Biso   1.000  O  -0.545096
  O15      1.0000 0.41154  0.44326  0.96861  Biso   1.000  O  -0.555357
  O16      1.0000 0.03167  0.44331  0.96861  Biso   1.000  O  -0.551966
  O17      1.0000 0.77718  0.81525  0.33549  Biso   1.000  O  -0.540883
  O18      1.0000 0.03818  0.81521  0.33546  Biso   1.000  O  -0.540742
  O19      1.0000 0.07821  0.77659  0.30194  Biso   1.000  O  -0.552133
  O20      1.0000 0.69834  0.77664  0.30194  Biso   1.000  O  -0.551029
  O21      1.0000 0.44384  0.14859  0.66883  Biso   1.000  O  -0.539395
  O22      1.0000 0.70484  0.14855  0.66880  Biso   1.000  O  -0.542924
  O23      1.0000 0.74487  0.10993  0.63528  Biso   1.000  O  -0.557450
  O24      1.0000 0.36500  0.10998  0.63528  Biso   1.000  O  -0.550386
  O25      1.0000 0.51808  0.62859  0.00216  Biso   1.000  O  -0.545082
  O26      1.0000 0.51812  0.88963  0.00213  Biso   1.000  O  -0.539885
  O27      1.0000 0.55674  0.96828  0.96861  Biso   1.000  O  -0.553863
  O28      1.0000 0.55669  0.58836  0.96861  Biso   1.000  O  -0.553473
  O29      1.0000 0.18475  0.96192  0.33549  Biso   1.000  O  -0.540910
  O30      1.0000 0.18479  0.22296  0.33546  Biso   1.000  O  -0.540848
  O31      1.0000 0.22341  0.30161  0.30194  Biso   1.000  O  -0.551933
  O32      1.0000 0.22336  0.92169  0.30194  Biso   1.000  O  -0.551029
  O33      1.0000 0.85141  0.29526  0.66883  Biso   1.000  O  -0.541235
  O34      1.0000 0.85145  0.55630  0.66880  Biso   1.000  O  -0.540984
  O35      1.0000 0.89007  0.63495  0.63528  Biso   1.000  O  -0.552410
  O36      1.0000 0.89002  0.25503  0.63528  Biso   1.000  O  -0.555161
  O37      1.0000 0.62859  0.11051  0.99784  Biso   1.000  O  -0.539696
  O38      1.0000 0.88963  0.37151  0.99787  Biso   1.000  O  -0.539740
  O39      1.0000 0.96828  0.41154  0.03139  Biso   1.000  O  -0.553621
  O40      1.0000 0.58836  0.03167  0.03139  Biso   1.000  O  -0.551724
  O41      1.0000 0.29526  0.44384  0.33117  Biso   1.000  O  -0.539593
  O42      1.0000 0.55630  0.70484  0.33120  Biso   1.000  O  -0.541542
  O43      1.0000 0.63495  0.74487  0.36472  Biso   1.000  O  -0.552322
  O44      1.0000 0.25503  0.36500  0.36472  Biso   1.000  O  -0.550231
  O45      1.0000 0.96192  0.77718  0.66451  Biso   1.000  O  -0.540567
  O46      1.0000 0.22296  0.03818  0.66454  Biso   1.000  O  -0.540388
  O47      1.0000 0.30161  0.07821  0.69806  Biso   1.000  O  -0.551494
  O48      1.0000 0.92169  0.69834  0.69806  Biso   1.000  O  -0.550448
  O49      1.0000 0.88949  0.51808  0.99784  Biso   1.000  O  -0.539765
  O50      1.0000 0.62849  0.51812  0.99787  Biso   1.000  O  -0.541629
  O51      1.0000 0.58846  0.55674  0.03139  Biso   1.000  O  -0.558988
  O52      1.0000 0.96833  0.55669  0.03139  Biso   1.000  O  -0.552126
  O53      1.0000 0.55616  0.85141  0.33117  Biso   1.000  O  -0.539686
  O54      1.0000 0.29516  0.85145  0.33120  Biso   1.000  O  -0.541343
  O55      1.0000 0.25513  0.89007  0.36472  Biso   1.000  O  -0.552363
  O56      1.0000 0.63500  0.89002  0.36472  Biso   1.000  O  -0.550203
  O57      1.0000 0.22282  0.18475  0.66451  Biso   1.000  O  -0.540715
  O58      1.0000 0.96182  0.18479  0.66454  Biso   1.000  O  -0.545743
  O59      1.0000 0.92179  0.22341  0.69806  Biso   1.000  O  -0.553628
  O60      1.0000 0.30166  0.22336  0.69806  Biso   1.000  O  -0.551012
  O61      1.0000 0.48192  0.37141  0.99784  Biso   1.000  O  -0.541619
  O62      1.0000 0.48188  0.11037  0.99787  Biso   1.000  O  -0.539787
  O63      1.0000 0.44326  0.03172  0.03139  Biso   1.000  O  -0.554040
  O64      1.0000 0.44331  0.41164  0.03139  Biso   1.000  O  -0.557101
  O65      1.0000 0.14859  0.70474  0.33117  Biso   1.000  O  -0.539635
  O66      1.0000 0.14855  0.44370  0.33120  Biso   1.000  O  -0.541250
  O67      1.0000 0.10993  0.36505  0.36472  Biso   1.000  O  -0.552250
  O68      1.0000 0.10998  0.74497  0.36472  Biso   1.000  O  -0.550057
  O69      1.0000 0.81525  0.03808  0.66451  Biso   1.000  O  -0.545927
  O70      1.0000 0.81521  0.77704  0.66454  Biso   1.000  O  -0.540659
  O71      1.0000 0.77659  0.69839  0.69806  Biso   1.000  O  -0.551940
  O72      1.0000 0.77664  0.07831  0.69806  Biso   1.000  O  -0.552544
