data_image0
_cell_length_a       20.0157
_cell_length_b       26.8932
_cell_length_c       26.989
_cell_angle_alpha    90
_cell_angle_beta     90
_cell_angle_gamma    90

_symmetry_space_group_name_H-M    "P 1"
_symmetry_int_tables_number       1

loop_
  _symmetry_equiv_pos_as_xyz
  'x, y, z'

loop_
  _atom_site_label
  _atom_site_occupancy
  _atom_site_fract_x
  _atom_site_fract_y
  _atom_site_fract_z
  _atom_site_thermal_displace_type
  _atom_site_B_iso_or_equiv
  _atom_site_type_symbol
  _atom_site_charge
  C1       1.0000 0.42970  0.67840  0.18760  Biso   1.000  C  0.576309
  C2       1.0000 0.07740  0.31950  0.30700  Biso   1.000  C  0.608248
  C3       1.0000 0.10420  0.36530  0.32830  Biso   1.000  C  -0.001847
  C4       1.0000 0.05860  0.46280  0.43200  Biso   1.000  C  0.643874
  C5       1.0000 0.43190  0.54510  0.06640  Biso   1.000  C  0.603989
  C6       1.0000 0.05930  0.68480  0.22570  Biso   1.000  C  0.583294
  C7       1.0000 0.10390  0.64510  0.20150  Biso   1.000  C  0.000101
  C8       1.0000 0.10130  0.64840  0.14760  Biso   1.000  C  -0.105123
  C9       1.0000 0.13430  0.61170  0.12140  Biso   1.000  C  -0.030147
  C10      1.0000 0.18320  0.58140  0.14860  Biso   1.000  C  -0.126235
  C11      1.0000 0.18390  0.58220  0.20030  Biso   1.000  C  0.077884
  C12      1.0000 0.14390  0.61510  0.22530  Biso   1.000  C  -0.124947
  C13      1.0000 0.21920  0.54010  0.22700  Biso   1.000  C  0.032378
  C14      1.0000 0.28690  0.52930  0.21610  Biso   1.000  C  0.029690
  C15      1.0000 0.31230  0.48850  0.23660  Biso   1.000  C  -0.182568
  C16      1.0000 0.28220  0.45850  0.27570  Biso   1.000  C  0.030326
  C17      1.0000 0.21670  0.47280  0.28570  Biso   1.000  C  0.026122
  C18      1.0000 0.18350  0.51290  0.25990  Biso   1.000  C  -0.199163
  C19      1.0000 0.16610  0.44420  0.31730  Biso   1.000  C  0.053043
  C20      1.0000 0.14640  0.39240  0.30280  Biso   1.000  C  -0.148160
  C21      1.0000 0.08010  0.39220  0.37370  Biso   1.000  C  -0.115183
  C22      1.0000 0.14420  0.46660  0.36380  Biso   1.000  C  -0.169448
  C23      1.0000 0.43960  0.31410  0.27130  Biso   1.000  C  0.615441
  C24      1.0000 0.32010  0.42090  0.30060  Biso   1.000  C  0.091673
  C25      1.0000 0.35860  0.38400  0.27530  Biso   1.000  C  -0.155134
  C26      1.0000 0.40230  0.34780  0.29880  Biso   1.000  C  -0.020437
  C27      1.0000 0.32150  0.42120  0.35180  Biso   1.000  C  -0.148701
  C28      1.0000 0.40570  0.35440  0.35150  Biso   1.000  C  -0.092893
  C29      1.0000 0.35960  0.38650  0.37480  Biso   1.000  C  -0.027217
  C30      1.0000 0.36370  0.39120  0.43440  Biso   1.000  C  0.548213
  C31      1.0000 0.13090  0.60960  0.07290  Biso   1.000  C  0.572128
  C32      1.0000 0.09770  0.43680  0.38960  Biso   1.000  C  -0.017487
  C33      1.0000 0.39650  0.63140  0.17110  Biso   1.000  C  -0.006415
  C34      1.0000 0.42600  0.61550  0.12860  Biso   1.000  C  -0.120968
  C35      1.0000 0.40500  0.56620  0.11320  Biso   1.000  C  -0.017394
  C36      1.0000 0.32510  0.56070  0.17990  Biso   1.000  C  0.095654
  C37      1.0000 0.35530  0.53910  0.14150  Biso   1.000  C  -0.141479
  C38      1.0000 0.34200  0.60530  0.19570  Biso   1.000  C  -0.123317
  C39      1.0000 0.07030  0.32160  0.68760  Biso   1.000  C  0.576334
  C40      1.0000 0.42260  0.68050  0.80700  Biso   1.000  C  0.608222
  C41      1.0000 0.39580  0.63470  0.82830  Biso   1.000  C  -0.001637
  C42      1.0000 0.44140  0.53720  0.93200  Biso   1.000  C  0.643702
  C43      1.0000 0.06810  0.45490  0.56640  Biso   1.000  C  0.603775
  C44      1.0000 0.44070  0.31520  0.72570  Biso   1.000  C  0.582977
  C45      1.0000 0.39610  0.35490  0.70150  Biso   1.000  C  0.002391
  C46      1.0000 0.39870  0.35160  0.64760  Biso   1.000  C  -0.106060
  C47      1.0000 0.36570  0.38830  0.62140  Biso   1.000  C  -0.029582
  C48      1.0000 0.31680  0.41860  0.64860  Biso   1.000  C  -0.125609
  C49      1.0000 0.31610  0.41780  0.70030  Biso   1.000  C  0.078861
  C50      1.0000 0.35610  0.38490  0.72530  Biso   1.000  C  -0.125536
  C51      1.0000 0.28080  0.45990  0.72700  Biso   1.000  C  0.031412
  C52      1.0000 0.21310  0.47070  0.71610  Biso   1.000  C  0.029598
  C53      1.0000 0.18770  0.51150  0.73660  Biso   1.000  C  -0.182293
  C54      1.0000 0.21780  0.54150  0.77570  Biso   1.000  C  0.031552
  C55      1.0000 0.28330  0.52720  0.78570  Biso   1.000  C  0.025908
  C56      1.0000 0.31650  0.48710  0.75990  Biso   1.000  C  -0.199465
  C57      1.0000 0.33390  0.55580  0.81730  Biso   1.000  C  0.053343
  C58      1.0000 0.35360  0.60760  0.80280  Biso   1.000  C  -0.147810
  C59      1.0000 0.41990  0.60780  0.87370  Biso   1.000  C  -0.115199
  C60      1.0000 0.35580  0.53340  0.86380  Biso   1.000  C  -0.169761
  C61      1.0000 0.06040  0.68590  0.77130  Biso   1.000  C  0.614393
  C62      1.0000 0.17990  0.57910  0.80060  Biso   1.000  C  0.090902
  C63      1.0000 0.14140  0.61600  0.77530  Biso   1.000  C  -0.156414
  C64      1.0000 0.09770  0.65220  0.79880  Biso   1.000  C  -0.017715
  C65      1.0000 0.17850  0.57880  0.85180  Biso   1.000  C  -0.150292
  C66      1.0000 0.09430  0.64560  0.85150  Biso   1.000  C  -0.093625
  C67      1.0000 0.14040  0.61350  0.87480  Biso   1.000  C  -0.027300
  C68      1.0000 0.13630  0.60880  0.93440  Biso   1.000  C  0.548088
  C69      1.0000 0.36910  0.39040  0.57290  Biso   1.000  C  0.572046
  C70      1.0000 0.40230  0.56320  0.88960  Biso   1.000  C  -0.017508
  C71      1.0000 0.10350  0.36860  0.67110  Biso   1.000  C  -0.006551
  C72      1.0000 0.07400  0.38450  0.62860  Biso   1.000  C  -0.121083
  C73      1.0000 0.09500  0.43380  0.61320  Biso   1.000  C  -0.017149
  C74      1.0000 0.17490  0.43930  0.67990  Biso   1.000  C  0.095469
  C75      1.0000 0.14470  0.46090  0.64150  Biso   1.000  C  -0.141385
  C76      1.0000 0.15800  0.39470  0.69570  Biso   1.000  C  -0.123735
  C77      1.0000 0.57030  0.17840  0.81240  Biso   1.000  C  0.576359
  C78      1.0000 0.92260  0.81950  0.69300  Biso   1.000  C  0.608210
  C79      1.0000 0.89580  0.86530  0.67170  Biso   1.000  C  -0.001687
  C80      1.0000 0.94140  0.96280  0.56800  Biso   1.000  C  0.643664
  C81      1.0000 0.56810  0.04510  0.93360  Biso   1.000  C  0.603875
  C82      1.0000 0.94070  0.18480  0.77430  Biso   1.000  C  0.582981
  C83      1.0000 0.89610  0.14510  0.79850  Biso   1.000  C  0.002390
  C84      1.0000 0.89870  0.14840  0.85240  Biso   1.000  C  -0.106068
  C85      1.0000 0.86570  0.11170  0.87860  Biso   1.000  C  -0.029471
  C86      1.0000 0.81680  0.08140  0.85140  Biso   1.000  C  -0.125701
  C87      1.0000 0.81610  0.08220  0.79970  Biso   1.000  C  0.078771
  C88      1.0000 0.85610  0.11510  0.77470  Biso   1.000  C  -0.125624
  C89      1.0000 0.78080  0.04010  0.77300  Biso   1.000  C  0.031488
  C90      1.0000 0.71310  0.02930  0.78390  Biso   1.000  C  0.029504
  C91      1.0000 0.68770  0.98850  0.76340  Biso   1.000  C  -0.182365
  C92      1.0000 0.71780  0.95850  0.72430  Biso   1.000  C  0.031431
  C93      1.0000 0.78330  0.97280  0.71430  Biso   1.000  C  0.026009
  C94      1.0000 0.81650  0.01290  0.74010  Biso   1.000  C  -0.199392
  C95      1.0000 0.83390  0.94420  0.68270  Biso   1.000  C  0.053190
  C96      1.0000 0.85360  0.89240  0.69720  Biso   1.000  C  -0.147898
  C97      1.0000 0.91990  0.89220  0.62630  Biso   1.000  C  -0.115135
  C98      1.0000 0.85580  0.96660  0.63620  Biso   1.000  C  -0.169728
  C99      1.0000 0.56040  0.81410  0.72870  Biso   1.000  C  0.614405
  C100     1.0000 0.67990  0.92090  0.69940  Biso   1.000  C  0.090994
  C101     1.0000 0.64140  0.88400  0.72470  Biso   1.000  C  -0.156395
  C102     1.0000 0.59770  0.84780  0.70120  Biso   1.000  C  -0.017738
  C103     1.0000 0.67850  0.92120  0.64820  Biso   1.000  C  -0.150242
  C104     1.0000 0.59430  0.85440  0.64850  Biso   1.000  C  -0.093693
  C105     1.0000 0.64040  0.88650  0.62520  Biso   1.000  C  -0.027305
  C106     1.0000 0.63630  0.89120  0.56560  Biso   1.000  C  0.548131
  C107     1.0000 0.86910  0.10960  0.92710  Biso   1.000  C  0.571985
  C108     1.0000 0.90230  0.93680  0.61040  Biso   1.000  C  -0.017473
  C109     1.0000 0.60350  0.13140  0.82890  Biso   1.000  C  -0.006574
  C110     1.0000 0.57400  0.11550  0.87140  Biso   1.000  C  -0.121137
  C111     1.0000 0.59500  0.06620  0.88680  Biso   1.000  C  -0.017273
  C112     1.0000 0.67490  0.06070  0.82010  Biso   1.000  C  0.095551
  C113     1.0000 0.64470  0.03910  0.85850  Biso   1.000  C  -0.141286
  C114     1.0000 0.65800  0.10530  0.80430  Biso   1.000  C  -0.123605
  C115     1.0000 0.92970  0.82160  0.31240  Biso   1.000  C  0.576504
  C116     1.0000 0.57740  0.18050  0.19300  Biso   1.000  C  0.609262
  C117     1.0000 0.60420  0.13470  0.17170  Biso   1.000  C  -0.004649
  C118     1.0000 0.55860  0.03720  0.06800  Biso   1.000  C  0.643742
  C119     1.0000 0.93190  0.95490  0.43360  Biso   1.000  C  0.603969
  C120     1.0000 0.55930  0.81520  0.27430  Biso   1.000  C  0.582978
  C121     1.0000 0.60390  0.85490  0.29850  Biso   1.000  C  0.002319
  C122     1.0000 0.60130  0.85160  0.35240  Biso   1.000  C  -0.105966
  C123     1.0000 0.63430  0.88830  0.37860  Biso   1.000  C  -0.029623
  C124     1.0000 0.68320  0.91860  0.35140  Biso   1.000  C  -0.125539
  C125     1.0000 0.68390  0.91780  0.29970  Biso   1.000  C  0.078918
  C126     1.0000 0.64390  0.88490  0.27470  Biso   1.000  C  -0.125544
  C127     1.0000 0.71920  0.95990  0.27300  Biso   1.000  C  0.031711
  C128     1.0000 0.78690  0.97070  0.28390  Biso   1.000  C  0.030229
  C129     1.0000 0.81230  0.01150  0.26340  Biso   1.000  C  -0.182291
  C130     1.0000 0.78220  0.04150  0.22430  Biso   1.000  C  0.031151
  C131     1.0000 0.71670  0.02720  0.21430  Biso   1.000  C  0.025407
  C132     1.0000 0.68350  0.98710  0.24010  Biso   1.000  C  -0.199856
  C133     1.0000 0.66610  0.05580  0.18270  Biso   1.000  C  0.053518
  C134     1.0000 0.64640  0.10760  0.19720  Biso   1.000  C  -0.147460
  C135     1.0000 0.58010  0.10780  0.12630  Biso   1.000  C  -0.114891
  C136     1.0000 0.64420  0.03340  0.13620  Biso   1.000  C  -0.169089
  C137     1.0000 0.93960  0.18590  0.22870  Biso   1.000  C  0.614452
  C138     1.0000 0.82010  0.07910  0.19940  Biso   1.000  C  0.091126
  C139     1.0000 0.85860  0.11600  0.22470  Biso   1.000  C  -0.156509
  C140     1.0000 0.90230  0.15220  0.20120  Biso   1.000  C  -0.017856
  C141     1.0000 0.82150  0.07880  0.14820  Biso   1.000  C  -0.150231
  C142     1.0000 0.90570  0.14560  0.14850  Biso   1.000  C  -0.093780
  C143     1.0000 0.85960  0.11350  0.12520  Biso   1.000  C  -0.027452
  C144     1.0000 0.86370  0.10880  0.06560  Biso   1.000  C  0.548146
  C145     1.0000 0.63090  0.89040  0.42710  Biso   1.000  C  0.571949
  C146     1.0000 0.59770  0.06320  0.11040  Biso   1.000  C  -0.017540
  C147     1.0000 0.89650  0.86860  0.32890  Biso   1.000  C  -0.008630
  C148     1.0000 0.92600  0.88450  0.37140  Biso   1.000  C  -0.121124
  C149     1.0000 0.90500  0.93380  0.38680  Biso   1.000  C  -0.017782
  C150     1.0000 0.82510  0.93930  0.32010  Biso   1.000  C  0.094845
  C151     1.0000 0.85530  0.96090  0.35850  Biso   1.000  C  -0.142677
  C152     1.0000 0.84200  0.89470  0.30430  Biso   1.000  C  -0.123276
  C153     1.0000 0.57030  0.32160  0.81240  Biso   1.000  C  0.576344
  C154     1.0000 0.92260  0.68050  0.69300  Biso   1.000  C  0.608223
  C155     1.0000 0.89580  0.63470  0.67170  Biso   1.000  C  -0.001679
  C156     1.0000 0.94140  0.53720  0.56800  Biso   1.000  C  0.643654
  C157     1.0000 0.56810  0.45490  0.93360  Biso   1.000  C  0.603861
  C158     1.0000 0.94070  0.31520  0.77430  Biso   1.000  C  0.582980
  C159     1.0000 0.89610  0.35490  0.79850  Biso   1.000  C  0.002393
  C160     1.0000 0.89870  0.35160  0.85240  Biso   1.000  C  -0.106057
  C161     1.0000 0.86570  0.38830  0.87860  Biso   1.000  C  -0.029469
  C162     1.0000 0.81680  0.41860  0.85140  Biso   1.000  C  -0.125707
  C163     1.0000 0.81610  0.41780  0.79970  Biso   1.000  C  0.078765
  C164     1.0000 0.85610  0.38490  0.77470  Biso   1.000  C  -0.125631
  C165     1.0000 0.78080  0.45990  0.77300  Biso   1.000  C  0.031481
  C166     1.0000 0.71310  0.47070  0.78390  Biso   1.000  C  0.029496
  C167     1.0000 0.68770  0.51150  0.76340  Biso   1.000  C  -0.182361
  C168     1.0000 0.71780  0.54150  0.72430  Biso   1.000  C  0.031456
  C169     1.0000 0.78330  0.52720  0.71430  Biso   1.000  C  0.026011
  C170     1.0000 0.81650  0.48710  0.74010  Biso   1.000  C  -0.199394
  C171     1.0000 0.83390  0.55580  0.68270  Biso   1.000  C  0.053194
  C172     1.0000 0.85360  0.60760  0.69720  Biso   1.000  C  -0.147902
  C173     1.0000 0.91990  0.60780  0.62630  Biso   1.000  C  -0.115149
  C174     1.0000 0.85580  0.53340  0.63620  Biso   1.000  C  -0.169748
  C175     1.0000 0.56040  0.68590  0.72870  Biso   1.000  C  0.614403
  C176     1.0000 0.67990  0.57910  0.69940  Biso   1.000  C  0.090982
  C177     1.0000 0.64140  0.61600  0.72470  Biso   1.000  C  -0.156395
  C178     1.0000 0.59770  0.65220  0.70120  Biso   1.000  C  -0.017728
  C179     1.0000 0.67850  0.57880  0.64820  Biso   1.000  C  -0.150248
  C180     1.0000 0.59430  0.64560  0.64850  Biso   1.000  C  -0.093686
  C181     1.0000 0.64040  0.61350  0.62520  Biso   1.000  C  -0.027303
  C182     1.0000 0.63630  0.60880  0.56560  Biso   1.000  C  0.548129
  C183     1.0000 0.86910  0.39040  0.92710  Biso   1.000  C  0.571988
  C184     1.0000 0.90230  0.56320  0.61040  Biso   1.000  C  -0.017456
  C185     1.0000 0.60350  0.36860  0.82890  Biso   1.000  C  -0.006546
  C186     1.0000 0.57400  0.38450  0.87140  Biso   1.000  C  -0.121092
  C187     1.0000 0.59500  0.43380  0.88680  Biso   1.000  C  -0.017273
  C188     1.0000 0.67490  0.43930  0.82010  Biso   1.000  C  0.095566
  C189     1.0000 0.64470  0.46090  0.85850  Biso   1.000  C  -0.141265
  C190     1.0000 0.65800  0.39470  0.80430  Biso   1.000  C  -0.123572
  C191     1.0000 0.92970  0.67840  0.31240  Biso   1.000  C  0.576507
  C192     1.0000 0.57740  0.31950  0.19300  Biso   1.000  C  0.609280
  C193     1.0000 0.60420  0.36530  0.17170  Biso   1.000  C  -0.004648
  C194     1.0000 0.55860  0.46280  0.06800  Biso   1.000  C  0.643738
  C195     1.0000 0.93190  0.54510  0.43360  Biso   1.000  C  0.604017
  C196     1.0000 0.55930  0.68480  0.27430  Biso   1.000  C  0.582978
  C197     1.0000 0.60390  0.64510  0.29850  Biso   1.000  C  0.002315
  C198     1.0000 0.60130  0.64840  0.35240  Biso   1.000  C  -0.105966
  C199     1.0000 0.63430  0.61170  0.37860  Biso   1.000  C  -0.029626
  C200     1.0000 0.68320  0.58140  0.35140  Biso   1.000  C  -0.125524
  C201     1.0000 0.68390  0.58220  0.29970  Biso   1.000  C  0.078928
  C202     1.0000 0.64390  0.61510  0.27470  Biso   1.000  C  -0.125549
  C203     1.0000 0.71920  0.54010  0.27300  Biso   1.000  C  0.031705
  C204     1.0000 0.78690  0.52930  0.28390  Biso   1.000  C  0.030252
  C205     1.0000 0.81230  0.48850  0.26340  Biso   1.000  C  -0.182287
  C206     1.0000 0.78220  0.45850  0.22430  Biso   1.000  C  0.031164
  C207     1.0000 0.71670  0.47280  0.21430  Biso   1.000  C  0.025396
  C208     1.0000 0.68350  0.51290  0.24010  Biso   1.000  C  -0.199870
  C209     1.0000 0.66610  0.44420  0.18270  Biso   1.000  C  0.053534
  C210     1.0000 0.64640  0.39240  0.19720  Biso   1.000  C  -0.147463
  C211     1.0000 0.58010  0.39220  0.12630  Biso   1.000  C  -0.114912
  C212     1.0000 0.64420  0.46660  0.13620  Biso   1.000  C  -0.169113
  C213     1.0000 0.93960  0.31410  0.22870  Biso   1.000  C  0.614452
  C214     1.0000 0.82010  0.42090  0.19940  Biso   1.000  C  0.091125
  C215     1.0000 0.85860  0.38400  0.22470  Biso   1.000  C  -0.156502
  C216     1.0000 0.90230  0.34780  0.20120  Biso   1.000  C  -0.017851
  C217     1.0000 0.82150  0.42120  0.14820  Biso   1.000  C  -0.150236
  C218     1.0000 0.90570  0.35440  0.14850  Biso   1.000  C  -0.093779
  C219     1.0000 0.85960  0.38650  0.12520  Biso   1.000  C  -0.027455
  C220     1.0000 0.86370  0.39120  0.06560  Biso   1.000  C  0.548145
  C221     1.0000 0.63090  0.60960  0.42710  Biso   1.000  C  0.571949
  C222     1.0000 0.59770  0.43680  0.11040  Biso   1.000  C  -0.017554
  C223     1.0000 0.89650  0.63140  0.32890  Biso   1.000  C  -0.008667
  C224     1.0000 0.92600  0.61550  0.37140  Biso   1.000  C  -0.121149
  C225     1.0000 0.90500  0.56620  0.38680  Biso   1.000  C  -0.017797
  C226     1.0000 0.82510  0.56070  0.32010  Biso   1.000  C  0.094826
  C227     1.0000 0.85530  0.53910  0.35850  Biso   1.000  C  -0.142704
  C228     1.0000 0.84200  0.60530  0.30430  Biso   1.000  C  -0.123281
  C229     1.0000 0.42970  0.82160  0.18760  Biso   1.000  C  0.576322
  C230     1.0000 0.07740  0.18050  0.30700  Biso   1.000  C  0.608233
  C231     1.0000 0.10420  0.13470  0.32830  Biso   1.000  C  -0.001850
  C232     1.0000 0.05860  0.03720  0.43200  Biso   1.000  C  0.643859
  C233     1.0000 0.43190  0.95490  0.06640  Biso   1.000  C  0.604002
  C234     1.0000 0.05930  0.81520  0.22570  Biso   1.000  C  0.583294
  C235     1.0000 0.10390  0.85490  0.20150  Biso   1.000  C  0.000096
  C236     1.0000 0.10130  0.85160  0.14760  Biso   1.000  C  -0.105128
  C237     1.0000 0.13430  0.88830  0.12140  Biso   1.000  C  -0.030143
  C238     1.0000 0.18320  0.91860  0.14860  Biso   1.000  C  -0.126211
  C239     1.0000 0.18390  0.91780  0.20030  Biso   1.000  C  0.077894
  C240     1.0000 0.14390  0.88490  0.22530  Biso   1.000  C  -0.124950
  C241     1.0000 0.21920  0.95990  0.22700  Biso   1.000  C  0.032388
  C242     1.0000 0.28690  0.97070  0.21610  Biso   1.000  C  0.029720
  C243     1.0000 0.31230  0.01150  0.23660  Biso   1.000  C  -0.182576
  C244     1.0000 0.28220  0.04150  0.27570  Biso   1.000  C  0.030334
  C245     1.0000 0.21670  0.02720  0.28570  Biso   1.000  C  0.026132
  C246     1.0000 0.18350  0.98710  0.25990  Biso   1.000  C  -0.199185
  C247     1.0000 0.16610  0.05580  0.31730  Biso   1.000  C  0.053033
  C248     1.0000 0.14640  0.10760  0.30280  Biso   1.000  C  -0.148159
  C249     1.0000 0.08010  0.10780  0.37370  Biso   1.000  C  -0.115162
  C250     1.0000 0.14420  0.03340  0.36380  Biso   1.000  C  -0.169432
  C251     1.0000 0.43960  0.18590  0.27130  Biso   1.000  C  0.615440
  C252     1.0000 0.32010  0.07910  0.30060  Biso   1.000  C  0.091676
  C253     1.0000 0.35860  0.11600  0.27530  Biso   1.000  C  -0.155131
  C254     1.0000 0.40230  0.15220  0.29880  Biso   1.000  C  -0.020444
  C255     1.0000 0.32150  0.07880  0.35180  Biso   1.000  C  -0.148690
  C256     1.0000 0.40570  0.14560  0.35150  Biso   1.000  C  -0.092887
  C257     1.0000 0.35960  0.11350  0.37480  Biso   1.000  C  -0.027216
  C258     1.0000 0.36370  0.10880  0.43440  Biso   1.000  C  0.548214
  C259     1.0000 0.13090  0.89040  0.07290  Biso   1.000  C  0.572121
  C260     1.0000 0.09770  0.06320  0.38960  Biso   1.000  C  -0.017501
  C261     1.0000 0.39650  0.86860  0.17110  Biso   1.000  C  -0.006440
  C262     1.0000 0.42600  0.88450  0.12860  Biso   1.000  C  -0.121008
  C263     1.0000 0.40500  0.93380  0.11320  Biso   1.000  C  -0.017390
  C264     1.0000 0.32510  0.93930  0.17990  Biso   1.000  C  0.095631
  C265     1.0000 0.35530  0.96090  0.14150  Biso   1.000  C  -0.141504
  C266     1.0000 0.34200  0.89470  0.19570  Biso   1.000  C  -0.123351
  C267     1.0000 0.07030  0.17840  0.68760  Biso   1.000  C  0.576349
  C268     1.0000 0.42260  0.81950  0.80700  Biso   1.000  C  0.608209
  C269     1.0000 0.39580  0.86530  0.82830  Biso   1.000  C  -0.001647
  C270     1.0000 0.44140  0.96280  0.93200  Biso   1.000  C  0.643709
  C271     1.0000 0.06810  0.04510  0.56640  Biso   1.000  C  0.603796
  C272     1.0000 0.44070  0.18480  0.72570  Biso   1.000  C  0.582978
  C273     1.0000 0.39610  0.14510  0.70150  Biso   1.000  C  0.002386
  C274     1.0000 0.39870  0.14840  0.64760  Biso   1.000  C  -0.106072
  C275     1.0000 0.36570  0.11170  0.62140  Biso   1.000  C  -0.029585
  C276     1.0000 0.31680  0.08140  0.64860  Biso   1.000  C  -0.125602
  C277     1.0000 0.31610  0.08220  0.70030  Biso   1.000  C  0.078868
  C278     1.0000 0.35610  0.11510  0.72530  Biso   1.000  C  -0.125528
  C279     1.0000 0.28080  0.04010  0.72700  Biso   1.000  C  0.031417
  C280     1.0000 0.21310  0.02930  0.71610  Biso   1.000  C  0.029606
  C281     1.0000 0.18770  0.98850  0.73660  Biso   1.000  C  -0.182299
  C282     1.0000 0.21780  0.95850  0.77570  Biso   1.000  C  0.031526
  C283     1.0000 0.28330  0.97280  0.78570  Biso   1.000  C  0.025906
  C284     1.0000 0.31650  0.01290  0.75990  Biso   1.000  C  -0.199464
  C285     1.0000 0.33390  0.94420  0.81730  Biso   1.000  C  0.053337
  C286     1.0000 0.35360  0.89240  0.80280  Biso   1.000  C  -0.147807
  C287     1.0000 0.41990  0.89220  0.87370  Biso   1.000  C  -0.115185
  C288     1.0000 0.35580  0.96660  0.86380  Biso   1.000  C  -0.169742
  C289     1.0000 0.06040  0.81410  0.77130  Biso   1.000  C  0.614395
  C290     1.0000 0.17990  0.92090  0.80060  Biso   1.000  C  0.090915
  C291     1.0000 0.14140  0.88400  0.77530  Biso   1.000  C  -0.156416
  C292     1.0000 0.09770  0.84780  0.79880  Biso   1.000  C  -0.017726
  C293     1.0000 0.17850  0.92120  0.85180  Biso   1.000  C  -0.150284
  C294     1.0000 0.09430  0.85440  0.85150  Biso   1.000  C  -0.093633
  C295     1.0000 0.14040  0.88650  0.87480  Biso   1.000  C  -0.027301
  C296     1.0000 0.13630  0.89120  0.93440  Biso   1.000  C  0.548089
  C297     1.0000 0.36910  0.10960  0.57290  Biso   1.000  C  0.572043
  C298     1.0000 0.40230  0.93680  0.88960  Biso   1.000  C  -0.017498
  C299     1.0000 0.10350  0.13140  0.67110  Biso   1.000  C  -0.006583
  C300     1.0000 0.07400  0.11550  0.62860  Biso   1.000  C  -0.121122
  C301     1.0000 0.09500  0.06620  0.61320  Biso   1.000  C  -0.017157
  C302     1.0000 0.17490  0.06070  0.67990  Biso   1.000  C  0.095454
  C303     1.0000 0.14470  0.03910  0.64150  Biso   1.000  C  -0.141416
  C304     1.0000 0.15800  0.10530  0.69570  Biso   1.000  C  -0.123772
  Cu1      1.0000 0.95601  0.46324  0.49986  Biso   1.000  Cu  0.843749
  Cu2      1.0000 0.54399  0.53676  0.99986  Biso   1.000  Cu  0.843996
  Cu3      1.0000 0.04399  0.96324  0.50014  Biso   1.000  Cu  0.843901
  Cu4      1.0000 0.45601  0.03676  0.00014  Biso   1.000  Cu  0.843684
  Cu5      1.0000 0.04399  0.53676  0.50014  Biso   1.000  Cu  0.843800
  Cu6      1.0000 0.45601  0.46324  0.00014  Biso   1.000  Cu  0.843719
  Cu7      1.0000 0.95601  0.03676  0.49986  Biso   1.000  Cu  0.843471
  Cu8      1.0000 0.54399  0.96324  0.99986  Biso   1.000  Cu  0.843938
  Cu9      1.0000 0.05379  0.25000  0.23276  Biso   1.000  Cu  0.864372
  Cu10     1.0000 0.96872  0.25000  0.30865  Biso   1.000  Cu  0.904331
  Cu11     1.0000 0.44621  0.75000  0.73276  Biso   1.000  Cu  0.864570
  Cu12     1.0000 0.53128  0.75000  0.80865  Biso   1.000  Cu  0.904439
  Cu13     1.0000 0.94621  0.75000  0.76724  Biso   1.000  Cu  0.864556
  Cu14     1.0000 0.03128  0.75000  0.69135  Biso   1.000  Cu  0.904483
  Cu15     1.0000 0.55379  0.25000  0.26724  Biso   1.000  Cu  0.876363
  Cu16     1.0000 0.46872  0.25000  0.19135  Biso   1.000  Cu  0.907602
  Cu17     1.0000 0.44676  0.75000  0.26736  Biso   1.000  Cu  0.865397
  Cu18     1.0000 0.53301  0.75000  0.19366  Biso   1.000  Cu  0.844430
  Cu19     1.0000 0.05324  0.25000  0.76736  Biso   1.000  Cu  0.865247
  Cu20     1.0000 0.96699  0.25000  0.69366  Biso   1.000  Cu  0.844371
  Cu21     1.0000 0.55324  0.25000  0.73264  Biso   1.000  Cu  0.865256
  Cu22     1.0000 0.46699  0.25000  0.80634  Biso   1.000  Cu  0.844347
  Cu23     1.0000 0.94676  0.75000  0.23264  Biso   1.000  Cu  0.866109
  Cu24     1.0000 0.03301  0.75000  0.30634  Biso   1.000  Cu  0.847861
  H1       1.0000 0.32820  0.42270  0.48420  Biso   1.000  H  0.407072
  H2       1.0000 0.08710  0.62880  0.01870  Biso   1.000  H  0.395036
  H3       1.0000 0.07810  0.67450  0.13130  Biso   1.000  H  0.140165
  H4       1.0000 0.21420  0.56130  0.13100  Biso   1.000  H  0.126032
  H5       1.0000 0.14540  0.61610  0.26040  Biso   1.000  H  0.134956
  H6       1.0000 0.35450  0.47770  0.22450  Biso   1.000  H  0.115579
  H7       1.0000 0.13770  0.52010  0.26600  Biso   1.000  H  0.131027
  H8       1.0000 0.16530  0.37860  0.27360  Biso   1.000  H  0.126856
  H9       1.0000 0.04830  0.37500  0.39350  Biso   1.000  H  0.121651
  H10      1.0000 0.15950  0.49800  0.37530  Biso   1.000  H  0.144430
  H11      1.0000 0.35530  0.38300  0.24020  Biso   1.000  H  0.121185
  H12      1.0000 0.29650  0.44490  0.37020  Biso   1.000  H  0.128619
  H13      1.0000 0.43840  0.33730  0.37050  Biso   1.000  H  0.136698
  H14      1.0000 0.45740  0.63480  0.11070  Biso   1.000  H  0.151799
  H15      1.0000 0.34430  0.50600  0.13260  Biso   1.000  H  0.134793
  H16      1.0000 0.31920  0.62010  0.22280  Biso   1.000  H  0.133825
  H17      1.0000 0.17180  0.57730  0.98420  Biso   1.000  H  0.406965
  H18      1.0000 0.41290  0.37120  0.51870  Biso   1.000  H  0.395069
  H19      1.0000 0.42190  0.32550  0.63130  Biso   1.000  H  0.140285
  H20      1.0000 0.28580  0.43870  0.63100  Biso   1.000  H  0.126408
  H21      1.0000 0.35460  0.38390  0.76040  Biso   1.000  H  0.135393
  H22      1.0000 0.14550  0.52230  0.72450  Biso   1.000  H  0.115881
  H23      1.0000 0.36230  0.47990  0.76600  Biso   1.000  H  0.130679
  H24      1.0000 0.33470  0.62140  0.77360  Biso   1.000  H  0.127047
  H25      1.0000 0.45170  0.62500  0.89350  Biso   1.000  H  0.121664
  H26      1.0000 0.34050  0.50200  0.87530  Biso   1.000  H  0.144306
  H27      1.0000 0.14470  0.61700  0.74020  Biso   1.000  H  0.121090
  H28      1.0000 0.20350  0.55510  0.87020  Biso   1.000  H  0.128220
  H29      1.0000 0.06160  0.66270  0.87050  Biso   1.000  H  0.136950
  H30      1.0000 0.04260  0.36520  0.61070  Biso   1.000  H  0.151780
  H31      1.0000 0.15570  0.49400  0.63260  Biso   1.000  H  0.134954
  H32      1.0000 0.18080  0.37990  0.72280  Biso   1.000  H  0.133653
  H33      1.0000 0.67180  0.92270  0.51580  Biso   1.000  H  0.406946
  H34      1.0000 0.91290  0.12880  0.98130  Biso   1.000  H  0.395113
  H35      1.0000 0.92190  0.17450  0.86870  Biso   1.000  H  0.140330
  H36      1.0000 0.78580  0.06130  0.86900  Biso   1.000  H  0.126372
  H37      1.0000 0.85460  0.11610  0.73960  Biso   1.000  H  0.135378
  H38      1.0000 0.64550  0.97770  0.77550  Biso   1.000  H  0.115819
  H39      1.0000 0.86230  0.02010  0.73400  Biso   1.000  H  0.130728
  H40      1.0000 0.83470  0.87860  0.72640  Biso   1.000  H  0.127001
  H41      1.0000 0.95170  0.87500  0.60650  Biso   1.000  H  0.121707
  H42      1.0000 0.84050  0.99800  0.62470  Biso   1.000  H  0.144285
  H43      1.0000 0.64470  0.88300  0.75980  Biso   1.000  H  0.121093
  H44      1.0000 0.70350  0.94490  0.62980  Biso   1.000  H  0.128252
  H45      1.0000 0.56160  0.83730  0.62950  Biso   1.000  H  0.136915
  H46      1.0000 0.54260  0.13480  0.88930  Biso   1.000  H  0.151732
  H47      1.0000 0.65570  0.00600  0.86740  Biso   1.000  H  0.134961
  H48      1.0000 0.68080  0.12010  0.77720  Biso   1.000  H  0.133679
  H49      1.0000 0.82820  0.07730  0.01580  Biso   1.000  H  0.406934
  H50      1.0000 0.58710  0.87120  0.48130  Biso   1.000  H  0.395102
  H51      1.0000 0.57810  0.82550  0.36870  Biso   1.000  H  0.140335
  H52      1.0000 0.71420  0.93870  0.36900  Biso   1.000  H  0.126413
  H53      1.0000 0.64540  0.88390  0.23960  Biso   1.000  H  0.135372
  H54      1.0000 0.85450  0.02230  0.27550  Biso   1.000  H  0.115913
  H55      1.0000 0.63770  0.97990  0.23400  Biso   1.000  H  0.130539
  H56      1.0000 0.66530  0.12140  0.22640  Biso   1.000  H  0.126718
  H57      1.0000 0.54830  0.12500  0.10650  Biso   1.000  H  0.121414
  H58      1.0000 0.65950  0.00200  0.12470  Biso   1.000  H  0.144534
  H59      1.0000 0.85530  0.11700  0.25980  Biso   1.000  H  0.121079
  H60      1.0000 0.79650  0.05510  0.12980  Biso   1.000  H  0.128283
  H61      1.0000 0.93840  0.16270  0.12950  Biso   1.000  H  0.136892
  H62      1.0000 0.95740  0.86520  0.38930  Biso   1.000  H  0.151519
  H63      1.0000 0.84430  0.99400  0.36740  Biso   1.000  H  0.134479
  H64      1.0000 0.81920  0.87990  0.27720  Biso   1.000  H  0.133362
  H65      1.0000 0.67180  0.57730  0.51580  Biso   1.000  H  0.406946
  H66      1.0000 0.91290  0.37120  0.98130  Biso   1.000  H  0.395115
  H67      1.0000 0.92190  0.32550  0.86870  Biso   1.000  H  0.140336
  H68      1.0000 0.78580  0.43870  0.86900  Biso   1.000  H  0.126366
  H69      1.0000 0.85460  0.38390  0.73960  Biso   1.000  H  0.135377
  H70      1.0000 0.64550  0.52230  0.77550  Biso   1.000  H  0.115817
  H71      1.0000 0.86230  0.47990  0.73400  Biso   1.000  H  0.130728
  H72      1.0000 0.83470  0.62140  0.72640  Biso   1.000  H  0.127001
  H73      1.0000 0.95170  0.62500  0.60650  Biso   1.000  H  0.121713
  H74      1.0000 0.84050  0.50200  0.62470  Biso   1.000  H  0.144283
  H75      1.0000 0.64470  0.61700  0.75980  Biso   1.000  H  0.121089
  H76      1.0000 0.70350  0.55510  0.62980  Biso   1.000  H  0.128250
  H77      1.0000 0.56160  0.66270  0.62950  Biso   1.000  H  0.136918
  H78      1.0000 0.54260  0.36520  0.88930  Biso   1.000  H  0.151739
  H79      1.0000 0.65570  0.49400  0.86740  Biso   1.000  H  0.134969
  H80      1.0000 0.68080  0.37990  0.77720  Biso   1.000  H  0.133694
  H81      1.0000 0.82820  0.42270  0.01580  Biso   1.000  H  0.406932
  H82      1.0000 0.58710  0.62880  0.48130  Biso   1.000  H  0.395101
  H83      1.0000 0.57810  0.67450  0.36870  Biso   1.000  H  0.140335
  H84      1.0000 0.71420  0.56130  0.36900  Biso   1.000  H  0.126415
  H85      1.0000 0.64540  0.61610  0.23960  Biso   1.000  H  0.135370
  H86      1.0000 0.85450  0.47770  0.27550  Biso   1.000  H  0.115913
  H87      1.0000 0.63770  0.52010  0.23400  Biso   1.000  H  0.130534
  H88      1.0000 0.66530  0.37860  0.22640  Biso   1.000  H  0.126718
  H89      1.0000 0.54830  0.37500  0.10650  Biso   1.000  H  0.121414
  H90      1.0000 0.65950  0.49800  0.12470  Biso   1.000  H  0.144530
  H91      1.0000 0.85530  0.38300  0.25980  Biso   1.000  H  0.121079
  H92      1.0000 0.79650  0.44490  0.12980  Biso   1.000  H  0.128280
  H93      1.0000 0.93840  0.33730  0.12950  Biso   1.000  H  0.136892
  H94      1.0000 0.95740  0.63480  0.38930  Biso   1.000  H  0.151509
  H95      1.0000 0.84430  0.50600  0.36740  Biso   1.000  H  0.134468
  H96      1.0000 0.81920  0.62010  0.27720  Biso   1.000  H  0.133354
  H97      1.0000 0.32820  0.07730  0.48420  Biso   1.000  H  0.407074
  H98      1.0000 0.08710  0.87120  0.01870  Biso   1.000  H  0.395036
  H99      1.0000 0.07810  0.82550  0.13130  Biso   1.000  H  0.140163
  H100     1.0000 0.21420  0.93870  0.13100  Biso   1.000  H  0.126041
  H101     1.0000 0.14540  0.88390  0.26040  Biso   1.000  H  0.134956
  H102     1.0000 0.35450  0.02230  0.22450  Biso   1.000  H  0.115583
  H103     1.0000 0.13770  0.97990  0.26600  Biso   1.000  H  0.131022
  H104     1.0000 0.16530  0.12140  0.27360  Biso   1.000  H  0.126856
  H105     1.0000 0.04830  0.12500  0.39350  Biso   1.000  H  0.121649
  H106     1.0000 0.15950  0.00200  0.37530  Biso   1.000  H  0.144430
  H107     1.0000 0.35530  0.11700  0.24020  Biso   1.000  H  0.121189
  H108     1.0000 0.29650  0.05510  0.37020  Biso   1.000  H  0.128622
  H109     1.0000 0.43840  0.16270  0.37050  Biso   1.000  H  0.136697
  H110     1.0000 0.45740  0.86520  0.11070  Biso   1.000  H  0.151794
  H111     1.0000 0.34430  0.99400  0.13260  Biso   1.000  H  0.134785
  H112     1.0000 0.31920  0.87990  0.22280  Biso   1.000  H  0.133811
  H113     1.0000 0.17180  0.92270  0.98420  Biso   1.000  H  0.406965
  H114     1.0000 0.41290  0.12880  0.51870  Biso   1.000  H  0.395066
  H115     1.0000 0.42190  0.17450  0.63130  Biso   1.000  H  0.140277
  H116     1.0000 0.28580  0.06130  0.63100  Biso   1.000  H  0.126415
  H117     1.0000 0.35460  0.11610  0.76040  Biso   1.000  H  0.135394
  H118     1.0000 0.14550  0.97770  0.72450  Biso   1.000  H  0.115882
  H119     1.0000 0.36230  0.02010  0.76600  Biso   1.000  H  0.130678
  H120     1.0000 0.33470  0.87860  0.77360  Biso   1.000  H  0.127047
  H121     1.0000 0.45170  0.87500  0.89350  Biso   1.000  H  0.121662
  H122     1.0000 0.34050  0.99800  0.87530  Biso   1.000  H  0.144309
  H123     1.0000 0.14470  0.88300  0.74020  Biso   1.000  H  0.121093
  H124     1.0000 0.20350  0.94490  0.87020  Biso   1.000  H  0.128223
  H125     1.0000 0.06160  0.83730  0.87050  Biso   1.000  H  0.136946
  H126     1.0000 0.04260  0.13480  0.61070  Biso   1.000  H  0.151770
  H127     1.0000 0.15570  0.00600  0.63260  Biso   1.000  H  0.134942
  H128     1.0000 0.18080  0.12010  0.72280  Biso   1.000  H  0.133637
  O1       1.0000 0.40150  0.69650  0.22950  Biso   1.000  O  -0.556857
  O2       1.0000 0.47560  0.69810  0.16440  Biso   1.000  O  -0.482714
  O3       1.0000 0.00720  0.69920  0.20680  Biso   1.000  O  -0.512149
  O4       1.0000 0.08150  0.69740  0.26960  Biso   1.000  O  -0.547045
  O5       1.0000 0.02690  0.30080  0.33240  Biso   1.000  O  -0.560856
  O6       1.0000 0.10140  0.30220  0.26940  Biso   1.000  O  -0.498526
  O7       1.0000 0.42300  0.30020  0.22950  Biso   1.000  O  -0.528271
  O8       1.0000 0.49240  0.29870  0.29370  Biso   1.000  O  -0.542781
  O9       1.0000 0.01600  0.43420  0.44940  Biso   1.000  O  -0.534474
  O10      1.0000 0.48740  0.56280  0.05110  Biso   1.000  O  -0.552982
  O11      1.0000 0.41280  0.50310  0.05180  Biso   1.000  O  -0.547036
  O12      1.0000 0.33410  0.42810  0.45380  Biso   1.000  O  -0.441573
  O13      1.0000 0.39750  0.35430  0.45290  Biso   1.000  O  -0.517466
  O14      1.0000 0.18440  0.59050  0.04560  Biso   1.000  O  -0.575085
  O15      1.0000 0.07710  0.62320  0.04840  Biso   1.000  O  -0.473992
  O16      1.0000 0.08590  0.49580  0.44750  Biso   1.000  O  -0.474175
  O17      1.0000 0.09850  0.30350  0.72950  Biso   1.000  O  -0.557043
  O18      1.0000 0.02440  0.30190  0.66440  Biso   1.000  O  -0.482662
  O19      1.0000 0.49280  0.30080  0.70680  Biso   1.000  O  -0.510206
  O20      1.0000 0.41850  0.30260  0.76960  Biso   1.000  O  -0.545642
  O21      1.0000 0.47310  0.69920  0.83240  Biso   1.000  O  -0.560910
  O22      1.0000 0.39860  0.69780  0.76940  Biso   1.000  O  -0.498203
  O23      1.0000 0.07700  0.69980  0.72950  Biso   1.000  O  -0.529285
  O24      1.0000 0.00760  0.70130  0.79370  Biso   1.000  O  -0.546334
  O25      1.0000 0.48400  0.56580  0.94940  Biso   1.000  O  -0.534085
  O26      1.0000 0.01260  0.43720  0.55110  Biso   1.000  O  -0.553232
  O27      1.0000 0.08720  0.49690  0.55180  Biso   1.000  O  -0.547137
  O28      1.0000 0.16590  0.57190  0.95380  Biso   1.000  O  -0.442131
  O29      1.0000 0.10250  0.64570  0.95290  Biso   1.000  O  -0.517220
  O30      1.0000 0.31560  0.40950  0.54560  Biso   1.000  O  -0.574235
  O31      1.0000 0.42290  0.37680  0.54840  Biso   1.000  O  -0.473976
  O32      1.0000 0.41410  0.50420  0.94750  Biso   1.000  O  -0.473982
  O33      1.0000 0.59850  0.19650  0.77050  Biso   1.000  O  -0.557091
  O34      1.0000 0.52440  0.19810  0.83560  Biso   1.000  O  -0.482744
  O35      1.0000 0.99280  0.19920  0.79320  Biso   1.000  O  -0.510190
  O36      1.0000 0.91850  0.19740  0.73040  Biso   1.000  O  -0.545648
  O37      1.0000 0.97310  0.80080  0.66760  Biso   1.000  O  -0.560766
  O38      1.0000 0.89860  0.80220  0.73060  Biso   1.000  O  -0.498175
  O39      1.0000 0.57700  0.80020  0.77050  Biso   1.000  O  -0.529264
  O40      1.0000 0.50760  0.79870  0.70630  Biso   1.000  O  -0.546323
  O41      1.0000 0.98400  0.93420  0.55060  Biso   1.000  O  -0.534217
  O42      1.0000 0.51260  0.06280  0.94890  Biso   1.000  O  -0.553184
  O43      1.0000 0.58720  0.00310  0.94820  Biso   1.000  O  -0.547058
  O44      1.0000 0.66590  0.92810  0.54620  Biso   1.000  O  -0.442067
  O45      1.0000 0.60250  0.85430  0.54710  Biso   1.000  O  -0.517363
  O46      1.0000 0.81560  0.09050  0.95440  Biso   1.000  O  -0.574202
  O47      1.0000 0.92290  0.12320  0.95160  Biso   1.000  O  -0.473847
  O48      1.0000 0.91410  0.99580  0.55250  Biso   1.000  O  -0.474032
  O49      1.0000 0.90150  0.80350  0.27050  Biso   1.000  O  -0.559298
  O50      1.0000 0.97560  0.80190  0.33560  Biso   1.000  O  -0.485033
  O51      1.0000 0.50720  0.80080  0.29320  Biso   1.000  O  -0.510281
  O52      1.0000 0.58150  0.80260  0.23040  Biso   1.000  O  -0.545454
  O53      1.0000 0.52690  0.19920  0.16760  Biso   1.000  O  -0.560299
  O54      1.0000 0.60140  0.19780  0.23060  Biso   1.000  O  -0.498889
  O55      1.0000 0.92300  0.19980  0.27050  Biso   1.000  O  -0.529434
  O56      1.0000 0.99240  0.20130  0.20630  Biso   1.000  O  -0.546296
  O57      1.0000 0.51600  0.06580  0.05060  Biso   1.000  O  -0.534740
  O58      1.0000 0.98740  0.93720  0.44890  Biso   1.000  O  -0.552838
  O59      1.0000 0.91280  0.99690  0.44820  Biso   1.000  O  -0.547247
  O60      1.0000 0.83410  0.07190  0.04620  Biso   1.000  O  -0.441935
  O61      1.0000 0.89750  0.14570  0.04710  Biso   1.000  O  -0.517543
  O62      1.0000 0.68440  0.90950  0.45440  Biso   1.000  O  -0.574011
  O63      1.0000 0.57710  0.87680  0.45160  Biso   1.000  O  -0.474090
  O64      1.0000 0.58590  0.00420  0.05250  Biso   1.000  O  -0.473904
  O65      1.0000 0.59850  0.30350  0.77050  Biso   1.000  O  -0.556969
  O66      1.0000 0.52440  0.30190  0.83560  Biso   1.000  O  -0.482719
  O67      1.0000 0.99280  0.30080  0.79320  Biso   1.000  O  -0.510162
  O68      1.0000 0.91850  0.30260  0.73040  Biso   1.000  O  -0.545677
  O69      1.0000 0.97310  0.69920  0.66760  Biso   1.000  O  -0.560791
  O70      1.0000 0.89860  0.69780  0.73060  Biso   1.000  O  -0.498250
  O71      1.0000 0.57700  0.69980  0.77050  Biso   1.000  O  -0.529274
  O72      1.0000 0.50760  0.70130  0.70630  Biso   1.000  O  -0.546358
  O73      1.0000 0.98400  0.56580  0.55060  Biso   1.000  O  -0.534102
  O74      1.0000 0.51260  0.43720  0.94890  Biso   1.000  O  -0.553153
  O75      1.0000 0.58720  0.49690  0.94820  Biso   1.000  O  -0.546891
  O76      1.0000 0.66590  0.57190  0.54620  Biso   1.000  O  -0.442070
  O77      1.0000 0.60250  0.64570  0.54710  Biso   1.000  O  -0.517357
  O78      1.0000 0.81560  0.40950  0.95440  Biso   1.000  O  -0.574210
  O79      1.0000 0.92290  0.37680  0.95160  Biso   1.000  O  -0.473839
  O80      1.0000 0.91410  0.50420  0.55250  Biso   1.000  O  -0.474120
  O81      1.0000 0.90150  0.69650  0.27050  Biso   1.000  O  -0.559436
  O82      1.0000 0.97560  0.69810  0.33560  Biso   1.000  O  -0.485065
  O83      1.0000 0.50720  0.69920  0.29320  Biso   1.000  O  -0.510253
  O84      1.0000 0.58150  0.69740  0.23040  Biso   1.000  O  -0.545477
  O85      1.0000 0.52690  0.30080  0.16760  Biso   1.000  O  -0.560327
  O86      1.0000 0.60140  0.30220  0.23060  Biso   1.000  O  -0.498974
  O87      1.0000 0.92300  0.30020  0.27050  Biso   1.000  O  -0.529440
  O88      1.0000 0.99240  0.29870  0.20630  Biso   1.000  O  -0.546330
  O89      1.0000 0.51600  0.43420  0.05060  Biso   1.000  O  -0.534649
  O90      1.0000 0.98740  0.56280  0.44890  Biso   1.000  O  -0.552886
  O91      1.0000 0.91280  0.50310  0.44820  Biso   1.000  O  -0.547417
  O92      1.0000 0.83410  0.42810  0.04620  Biso   1.000  O  -0.441941
  O93      1.0000 0.89750  0.35430  0.04710  Biso   1.000  O  -0.517542
  O94      1.0000 0.68440  0.59050  0.45440  Biso   1.000  O  -0.574010
  O95      1.0000 0.57710  0.62320  0.45160  Biso   1.000  O  -0.474093
  O96      1.0000 0.58590  0.49580  0.05250  Biso   1.000  O  -0.473976
  O97      1.0000 0.40150  0.80350  0.22950  Biso   1.000  O  -0.556985
  O98      1.0000 0.47560  0.80190  0.16440  Biso   1.000  O  -0.482741
  O99      1.0000 0.00720  0.80080  0.20680  Biso   1.000  O  -0.512111
  O100     1.0000 0.08150  0.80260  0.26960  Biso   1.000  O  -0.547042
  O101     1.0000 0.02690  0.19920  0.33240  Biso   1.000  O  -0.560831
  O102     1.0000 0.10140  0.19780  0.26940  Biso   1.000  O  -0.498453
  O103     1.0000 0.42300  0.19980  0.22950  Biso   1.000  O  -0.528263
  O104     1.0000 0.49240  0.20130  0.29370  Biso   1.000  O  -0.542742
  O105     1.0000 0.01600  0.06580  0.44940  Biso   1.000  O  -0.534551
  O106     1.0000 0.48740  0.93720  0.05110  Biso   1.000  O  -0.553011
  O107     1.0000 0.41280  0.99690  0.05180  Biso   1.000  O  -0.547206
  O108     1.0000 0.33410  0.07190  0.45380  Biso   1.000  O  -0.441567
  O109     1.0000 0.39750  0.14570  0.45290  Biso   1.000  O  -0.517470
  O110     1.0000 0.18440  0.90950  0.04560  Biso   1.000  O  -0.575062
  O111     1.0000 0.07710  0.87680  0.04840  Biso   1.000  O  -0.473996
  O112     1.0000 0.08590  0.00420  0.44750  Biso   1.000  O  -0.474136
  O113     1.0000 0.09850  0.19650  0.72950  Biso   1.000  O  -0.557165
  O114     1.0000 0.02440  0.19810  0.66440  Biso   1.000  O  -0.482687
  O115     1.0000 0.49280  0.19920  0.70680  Biso   1.000  O  -0.510235
  O116     1.0000 0.41850  0.19740  0.76960  Biso   1.000  O  -0.545614
  O117     1.0000 0.47310  0.80080  0.83240  Biso   1.000  O  -0.560883
  O118     1.0000 0.39860  0.80220  0.76940  Biso   1.000  O  -0.498128
  O119     1.0000 0.07700  0.80020  0.72950  Biso   1.000  O  -0.529277
  O120     1.0000 0.00760  0.79870  0.79370  Biso   1.000  O  -0.546299
  O121     1.0000 0.48400  0.93420  0.94940  Biso   1.000  O  -0.534183
  O122     1.0000 0.01260  0.06280  0.55110  Biso   1.000  O  -0.553337
  O123     1.0000 0.08720  0.00310  0.55180  Biso   1.000  O  -0.547307
  O124     1.0000 0.16590  0.92810  0.95380  Biso   1.000  O  -0.442124
  O125     1.0000 0.10250  0.85430  0.95290  Biso   1.000  O  -0.517232
  O126     1.0000 0.31560  0.09050  0.54560  Biso   1.000  O  -0.574228
  O127     1.0000 0.42290  0.12320  0.54840  Biso   1.000  O  -0.473984
  O128     1.0000 0.41410  0.99580  0.94750  Biso   1.000  O  -0.473922
