data_image0
_cell_length_a       33.5256
_cell_length_b       33.5256
_cell_length_c       33.5256
_cell_angle_alpha    109.471
_cell_angle_beta     109.471
_cell_angle_gamma    109.471

_symmetry_space_group_name_H-M    "P 1"
_symmetry_int_tables_number       1

loop_
  _symmetry_equiv_pos_as_xyz
  'x, y, z'

loop_
  _atom_site_label
  _atom_site_occupancy
  _atom_site_fract_x
  _atom_site_fract_y
  _atom_site_fract_z
  _atom_site_thermal_displace_type
  _atom_site_B_iso_or_equiv
  _atom_site_type_symbol
  _atom_site_charge
  C1       1.0000 0.34923  0.21256  0.76181  Biso   1.000  C  -0.120085
  C2       1.0000 0.28058  0.71945  0.40797  Biso   1.000  C  0.629609
  C3       1.0000 0.35621  0.19846  0.82911  Biso   1.000  C  -0.051416
  C4       1.0000 0.37850  0.21092  0.80218  Biso   1.000  C  0.296538
  C5       1.0000 0.28258  0.18597  0.77629  Biso   1.000  C  0.022467
  C6       1.0000 0.36884  0.22832  0.73224  Biso   1.000  C  0.620398
  C7       1.0000 0.30141  0.19833  0.74886  Biso   1.000  C  -0.123684
  C8       1.0000 0.40748  0.14609  0.61251  Biso   1.000  C  0.610953
  C9       1.0000 0.39653  0.09402  0.59149  Biso   1.000  C  -0.024401
  C10      1.0000 0.29647  0.77232  0.42957  Biso   1.000  C  -0.040488
  C11      1.0000 0.41228  0.07633  0.62181  Biso   1.000  C  -0.105091
  C12      1.0000 0.35260  0.85590  0.49650  Biso   1.000  C  -0.159936
  C13      1.0000 0.32650  0.87180  0.47370  Biso   1.000  C  0.188776
  C14      1.0000 0.36977  0.06300  0.54357  Biso   1.000  C  -0.102634
  C15      1.0000 0.26810  0.78892  0.40642  Biso   1.000  C  -0.108486
  C16      1.0000 0.28270  0.83860  0.42850  Biso   1.000  C  -0.162222
  C17      1.0000 0.37588  0.99775  0.55483  Biso   1.000  C  0.198713
  C18      1.0000 0.33937  0.80604  0.47481  Biso   1.000  C  -0.092888
  C19      1.0000 0.40010  0.02690  0.60040  Biso   1.000  C  -0.161160
  C20      1.0000 0.36080  0.01463  0.52443  Biso   1.000  C  -0.165523
  C21      1.0000 0.95075  0.58742  0.73819  Biso   1.000  C  -0.120081
  C22      1.0000 0.81148  0.87261  0.09203  Biso   1.000  C  0.629561
  C23      1.0000 0.86935  0.52710  0.67089  Biso   1.000  C  -0.051475
  C24      1.0000 0.90874  0.57632  0.69782  Biso   1.000  C  0.296544
  C25      1.0000 0.90968  0.50629  0.72371  Biso   1.000  C  0.022476
  C26      1.0000 0.99608  0.63660  0.76776  Biso   1.000  C  0.620397
  C27      1.0000 0.94947  0.55255  0.75114  Biso   1.000  C  -0.123684
  C28      1.0000 0.03358  0.79497  0.88749  Biso   1.000  C  0.610920
  C29      1.0000 0.00253  0.80504  0.90851  Biso   1.000  C  -0.024282
  C30      1.0000 0.84275  0.86690  0.07043  Biso   1.000  C  -0.040486
  C31      1.0000 0.95452  0.79047  0.87819  Biso   1.000  C  -0.105082
  C32      1.0000 0.85940  0.85610  0.00350  Biso   1.000  C  -0.159874
  C33      1.0000 0.89810  0.85280  0.02630  Biso   1.000  C  0.188709
  C34      1.0000 0.01943  0.82620  0.95643  Biso   1.000  C  -0.102656
  C35      1.0000 0.88250  0.86168  0.09358  Biso   1.000  C  -0.108527
  C36      1.0000 0.91010  0.85420  0.07150  Biso   1.000  C  -0.162252
  C37      1.0000 0.94292  0.82105  0.94517  Biso   1.000  C  0.198753
  C38      1.0000 0.83123  0.86456  0.02519  Biso   1.000  C  -0.092894
  C39      1.0000 0.92650  0.79970  0.89960  Biso   1.000  C  -0.161190
  C40      1.0000 0.99020  0.83637  0.97557  Biso   1.000  C  -0.165491
  C41      1.0000 0.54925  0.28744  0.63667  Biso   1.000  C  -0.120050
  C42      1.0000 0.68852  0.78055  0.06113  Biso   1.000  C  0.629553
  C43      1.0000 0.63065  0.30154  0.65775  Biso   1.000  C  -0.051383
  C44      1.0000 0.59126  0.28908  0.66758  Biso   1.000  C  0.296533
  C45      1.0000 0.59032  0.31403  0.59661  Biso   1.000  C  0.022425
  C46      1.0000 0.50392  0.27168  0.64052  Biso   1.000  C  0.620406
  C47      1.0000 0.55053  0.30167  0.60308  Biso   1.000  C  -0.123695
  C48      1.0000 0.46642  0.35391  0.76139  Biso   1.000  C  0.610908
  C49      1.0000 0.49747  0.40598  0.80251  Biso   1.000  C  -0.024276
  C50      1.0000 0.65725  0.72768  0.02415  Biso   1.000  C  -0.040419
  C51      1.0000 0.54548  0.42367  0.83595  Biso   1.000  C  -0.105111
  C52      1.0000 0.64060  0.64410  0.99670  Biso   1.000  C  -0.159845
  C53      1.0000 0.60190  0.62820  0.95470  Biso   1.000  C  0.188617
  C54      1.0000 0.48057  0.43700  0.80677  Biso   1.000  C  -0.102776
  C55      1.0000 0.61750  0.71108  0.97918  Biso   1.000  C  -0.108480
  C56      1.0000 0.58990  0.66140  0.94410  Biso   1.000  C  -0.162192
  C57      1.0000 0.55708  0.50225  0.87813  Biso   1.000  C  0.198749
  C58      1.0000 0.66877  0.69396  0.03333  Biso   1.000  C  -0.092902
  C59      1.0000 0.57350  0.47310  0.87320  Biso   1.000  C  -0.161187
  C60      1.0000 0.50980  0.48537  0.84617  Biso   1.000  C  -0.165493
  C61      1.0000 0.15077  0.91258  0.86333  Biso   1.000  C  -0.120086
  C62      1.0000 0.21942  0.62739  0.43887  Biso   1.000  C  0.629593
  C63      1.0000 0.14379  0.97290  0.84225  Biso   1.000  C  -0.051449
  C64      1.0000 0.12150  0.92368  0.83242  Biso   1.000  C  0.296524
  C65      1.0000 0.21742  0.99371  0.90339  Biso   1.000  C  0.022377
  C66      1.0000 0.13116  0.86340  0.85948  Biso   1.000  C  0.620366
  C67      1.0000 0.19859  0.94745  0.89692  Biso   1.000  C  -0.123675
  C68      1.0000 0.09252  0.70503  0.73861  Biso   1.000  C  0.610932
  C69      1.0000 0.10347  0.69496  0.69749  Biso   1.000  C  -0.024241
  C70      1.0000 0.20353  0.63310  0.47585  Biso   1.000  C  -0.040525
  C71      1.0000 0.08772  0.70953  0.66405  Biso   1.000  C  -0.105156
  C72      1.0000 0.14740  0.64390  0.50330  Biso   1.000  C  -0.159880
  C73      1.0000 0.17350  0.64720  0.54530  Biso   1.000  C  0.188696
  C74      1.0000 0.13023  0.67380  0.69323  Biso   1.000  C  -0.102688
  C75      1.0000 0.23190  0.63832  0.52082  Biso   1.000  C  -0.108531
  C76      1.0000 0.21730  0.64580  0.55590  Biso   1.000  C  -0.162203
  C77      1.0000 0.12412  0.67895  0.62187  Biso   1.000  C  0.198662
  C78      1.0000 0.16063  0.63544  0.46667  Biso   1.000  C  -0.092877
  C79      1.0000 0.09990  0.70030  0.62680  Biso   1.000  C  -0.161136
  C80      1.0000 0.13920  0.66363  0.65383  Biso   1.000  C  -0.165489
  C81      1.0000 0.13667  0.54925  0.78744  Biso   1.000  C  -0.120053
  C82      1.0000 0.56113  0.68852  0.28055  Biso   1.000  C  0.629538
  C83      1.0000 0.15775  0.63065  0.80154  Biso   1.000  C  -0.051384
  C84      1.0000 0.16758  0.59126  0.78908  Biso   1.000  C  0.296534
  C85      1.0000 0.09661  0.59032  0.81403  Biso   1.000  C  0.022428
  C86      1.0000 0.14052  0.50392  0.77168  Biso   1.000  C  0.620407
  C87      1.0000 0.10308  0.55053  0.80167  Biso   1.000  C  -0.123697
  C88      1.0000 0.26139  0.46642  0.85391  Biso   1.000  C  0.610884
  C89      1.0000 0.30251  0.49747  0.90598  Biso   1.000  C  -0.024292
  C90      1.0000 0.52415  0.65725  0.22768  Biso   1.000  C  -0.040426
  C91      1.0000 0.33595  0.54548  0.92367  Biso   1.000  C  -0.105107
  C92      1.0000 0.49670  0.64060  0.14410  Biso   1.000  C  -0.159849
  C93      1.0000 0.45470  0.60190  0.12820  Biso   1.000  C  0.188618
  C94      1.0000 0.30677  0.48057  0.93700  Biso   1.000  C  -0.102780
  C95      1.0000 0.47918  0.61750  0.21108  Biso   1.000  C  -0.108491
  C96      1.0000 0.44410  0.58990  0.16140  Biso   1.000  C  -0.162191
  C97      1.0000 0.37813  0.55708  0.00225  Biso   1.000  C  0.198754
  C98      1.0000 0.53333  0.66877  0.19396  Biso   1.000  C  -0.092893
  C99      1.0000 0.37320  0.57350  0.97310  Biso   1.000  C  -0.161185
  C100     1.0000 0.34617  0.50980  0.98537  Biso   1.000  C  -0.165490
  C101     1.0000 0.36333  0.15077  0.41258  Biso   1.000  C  -0.120067
  C102     1.0000 0.93887  0.21942  0.12739  Biso   1.000  C  0.629584
  C103     1.0000 0.34225  0.14379  0.47290  Biso   1.000  C  -0.051466
  C104     1.0000 0.33242  0.12150  0.42368  Biso   1.000  C  0.296524
  C105     1.0000 0.40339  0.21742  0.49371  Biso   1.000  C  0.022401
  C106     1.0000 0.35948  0.13116  0.36340  Biso   1.000  C  0.620386
  C107     1.0000 0.39692  0.19859  0.44745  Biso   1.000  C  -0.123670
  C108     1.0000 0.23861  0.09252  0.20503  Biso   1.000  C  0.610929
  C109     1.0000 0.19749  0.10347  0.19496  Biso   1.000  C  -0.024246
  C110     1.0000 0.97585  0.20353  0.13310  Biso   1.000  C  -0.040523
  C111     1.0000 0.16405  0.08772  0.20953  Biso   1.000  C  -0.105153
  C112     1.0000 0.00330  0.14740  0.14390  Biso   1.000  C  -0.159882
  C113     1.0000 0.04530  0.17350  0.14720  Biso   1.000  C  0.188693
  C114     1.0000 0.19323  0.13023  0.17380  Biso   1.000  C  -0.102688
  C115     1.0000 0.02082  0.23190  0.13832  Biso   1.000  C  -0.108532
  C116     1.0000 0.05590  0.21730  0.14580  Biso   1.000  C  -0.162204
  C117     1.0000 0.12187  0.12412  0.17895  Biso   1.000  C  0.198663
  C118     1.0000 0.96667  0.16063  0.13544  Biso   1.000  C  -0.092880
  C119     1.0000 0.12680  0.09990  0.20030  Biso   1.000  C  -0.161136
  C120     1.0000 0.15383  0.13920  0.16363  Biso   1.000  C  -0.165488
  C121     1.0000 0.26181  0.34923  0.71256  Biso   1.000  C  -0.120083
  C122     1.0000 0.90797  0.28058  0.21945  Biso   1.000  C  0.629623
  C123     1.0000 0.32911  0.35621  0.69846  Biso   1.000  C  -0.051415
  C124     1.0000 0.30218  0.37850  0.71092  Biso   1.000  C  0.296536
  C125     1.0000 0.27629  0.28258  0.68597  Biso   1.000  C  0.022464
  C126     1.0000 0.23224  0.36884  0.72832  Biso   1.000  C  0.620401
  C127     1.0000 0.24886  0.30141  0.69833  Biso   1.000  C  -0.123681
  C128     1.0000 0.11251  0.40748  0.64609  Biso   1.000  C  0.610970
  C129     1.0000 0.09149  0.39653  0.59402  Biso   1.000  C  -0.024385
  C130     1.0000 0.92957  0.29647  0.27232  Biso   1.000  C  -0.040482
  C131     1.0000 0.12181  0.41228  0.57633  Biso   1.000  C  -0.105096
  C132     1.0000 0.99650  0.35260  0.35590  Biso   1.000  C  -0.159933
  C133     1.0000 0.97370  0.32650  0.37180  Biso   1.000  C  0.188775
  C134     1.0000 0.04357  0.36977  0.56300  Biso   1.000  C  -0.102631
  C135     1.0000 0.90642  0.26810  0.28892  Biso   1.000  C  -0.108475
  C136     1.0000 0.92850  0.28270  0.33860  Biso   1.000  C  -0.162223
  C137     1.0000 0.05483  0.37588  0.49775  Biso   1.000  C  0.198708
  C138     1.0000 0.97481  0.33937  0.30604  Biso   1.000  C  -0.092896
  C139     1.0000 0.10040  0.40010  0.52690  Biso   1.000  C  -0.161161
  C140     1.0000 0.02443  0.36080  0.51463  Biso   1.000  C  -0.165526
  C141     1.0000 0.23819  0.95075  0.08742  Biso   1.000  C  -0.120099
  C142     1.0000 0.59203  0.81148  0.37261  Biso   1.000  C  0.629567
  C143     1.0000 0.17089  0.86935  0.02710  Biso   1.000  C  -0.051451
  C144     1.0000 0.19782  0.90874  0.07632  Biso   1.000  C  0.296543
  C145     1.0000 0.22371  0.90968  0.00629  Biso   1.000  C  0.022454
  C146     1.0000 0.26776  0.99608  0.13660  Biso   1.000  C  0.620377
  C147     1.0000 0.25114  0.94947  0.05255  Biso   1.000  C  -0.123689
  C148     1.0000 0.38749  0.03358  0.29497  Biso   1.000  C  0.610923
  C149     1.0000 0.40851  0.00253  0.30504  Biso   1.000  C  -0.024278
  C150     1.0000 0.57043  0.84275  0.36690  Biso   1.000  C  -0.040488
  C151     1.0000 0.37819  0.95452  0.29047  Biso   1.000  C  -0.105084
  C152     1.0000 0.50350  0.85940  0.35610  Biso   1.000  C  -0.159874
  C153     1.0000 0.52630  0.89810  0.35280  Biso   1.000  C  0.188712
  C154     1.0000 0.45643  0.01943  0.32620  Biso   1.000  C  -0.102656
  C155     1.0000 0.59358  0.88250  0.36168  Biso   1.000  C  -0.108526
  C156     1.0000 0.57150  0.91010  0.35420  Biso   1.000  C  -0.162252
  C157     1.0000 0.44517  0.94292  0.32105  Biso   1.000  C  0.198751
  C158     1.0000 0.52519  0.83123  0.36456  Biso   1.000  C  -0.092891
  C159     1.0000 0.39960  0.92650  0.29970  Biso   1.000  C  -0.161191
  C160     1.0000 0.47557  0.99020  0.33637  Biso   1.000  C  -0.165492
  C161     1.0000 0.58742  0.23819  0.45075  Biso   1.000  C  -0.120083
  C162     1.0000 0.87261  0.59203  0.31148  Biso   1.000  C  0.629588
  C163     1.0000 0.52710  0.17089  0.36935  Biso   1.000  C  -0.051457
  C164     1.0000 0.57632  0.19782  0.40874  Biso   1.000  C  0.296541
  C165     1.0000 0.50629  0.22371  0.40968  Biso   1.000  C  0.022460
  C166     1.0000 0.63660  0.26776  0.49608  Biso   1.000  C  0.620397
  C167     1.0000 0.55255  0.25114  0.44947  Biso   1.000  C  -0.123684
  C168     1.0000 0.79497  0.38749  0.53358  Biso   1.000  C  0.610906
  C169     1.0000 0.80504  0.40851  0.50253  Biso   1.000  C  -0.024292
  C170     1.0000 0.86690  0.57043  0.34275  Biso   1.000  C  -0.040474
  C171     1.0000 0.79047  0.37819  0.45452  Biso   1.000  C  -0.105078
  C172     1.0000 0.85610  0.50350  0.35940  Biso   1.000  C  -0.159877
  C173     1.0000 0.85280  0.52630  0.39810  Biso   1.000  C  0.188707
  C174     1.0000 0.82620  0.45643  0.51943  Biso   1.000  C  -0.102659
  C175     1.0000 0.86168  0.59358  0.38250  Biso   1.000  C  -0.108531
  C176     1.0000 0.85420  0.57150  0.41010  Biso   1.000  C  -0.162253
  C177     1.0000 0.82105  0.44517  0.44292  Biso   1.000  C  0.198755
  C178     1.0000 0.86456  0.52519  0.33123  Biso   1.000  C  -0.092890
  C179     1.0000 0.79970  0.39960  0.42650  Biso   1.000  C  -0.161188
  C180     1.0000 0.83637  0.47557  0.49020  Biso   1.000  C  -0.165488
  C181     1.0000 0.21256  0.26181  0.84923  Biso   1.000  C  -0.120084
  C182     1.0000 0.71945  0.90797  0.78058  Biso   1.000  C  0.629588
  C183     1.0000 0.19846  0.32911  0.85621  Biso   1.000  C  -0.051437
  C184     1.0000 0.21092  0.30218  0.87850  Biso   1.000  C  0.296541
  C185     1.0000 0.18597  0.27629  0.78258  Biso   1.000  C  0.022480
  C186     1.0000 0.22832  0.23224  0.86884  Biso   1.000  C  0.620398
  C187     1.0000 0.19833  0.24886  0.80141  Biso   1.000  C  -0.123685
  C188     1.0000 0.14609  0.11251  0.90748  Biso   1.000  C  0.610971
  C189     1.0000 0.09402  0.09149  0.89653  Biso   1.000  C  -0.024391
  C190     1.0000 0.77232  0.92957  0.79647  Biso   1.000  C  -0.040500
  C191     1.0000 0.07633  0.12181  0.91228  Biso   1.000  C  -0.105096
  C192     1.0000 0.85590  0.99650  0.85260  Biso   1.000  C  -0.159935
  C193     1.0000 0.87180  0.97370  0.82650  Biso   1.000  C  0.188779
  C194     1.0000 0.06300  0.04357  0.86977  Biso   1.000  C  -0.102632
  C195     1.0000 0.78892  0.90642  0.76810  Biso   1.000  C  -0.108482
  C196     1.0000 0.83860  0.92850  0.78270  Biso   1.000  C  -0.162221
  C197     1.0000 0.99775  0.05483  0.87588  Biso   1.000  C  0.198711
  C198     1.0000 0.80604  0.97481  0.83937  Biso   1.000  C  -0.092891
  C199     1.0000 0.02690  0.10040  0.90010  Biso   1.000  C  -0.161161
  C200     1.0000 0.01463  0.02443  0.86080  Biso   1.000  C  -0.165527
  C201     1.0000 0.91258  0.36333  0.65077  Biso   1.000  C  -0.120066
  C202     1.0000 0.62739  0.93887  0.71942  Biso   1.000  C  0.629625
  C203     1.0000 0.97290  0.34225  0.64379  Biso   1.000  C  -0.051445
  C204     1.0000 0.92368  0.33242  0.62150  Biso   1.000  C  0.296519
  C205     1.0000 0.99371  0.40339  0.71742  Biso   1.000  C  0.022386
  C206     1.0000 0.86340  0.35948  0.63116  Biso   1.000  C  0.620388
  C207     1.0000 0.94745  0.39692  0.69859  Biso   1.000  C  -0.123667
  C208     1.0000 0.70503  0.23861  0.59252  Biso   1.000  C  0.610933
  C209     1.0000 0.69496  0.19749  0.60347  Biso   1.000  C  -0.024239
  C210     1.0000 0.63310  0.97585  0.70353  Biso   1.000  C  -0.040504
  C211     1.0000 0.70953  0.16405  0.58772  Biso   1.000  C  -0.105154
  C212     1.0000 0.64390  0.00330  0.64740  Biso   1.000  C  -0.159881
  C213     1.0000 0.64720  0.04530  0.67350  Biso   1.000  C  0.188690
  C214     1.0000 0.67380  0.19323  0.63023  Biso   1.000  C  -0.102687
  C215     1.0000 0.63832  0.02082  0.73190  Biso   1.000  C  -0.108525
  C216     1.0000 0.64580  0.05590  0.71730  Biso   1.000  C  -0.162205
  C217     1.0000 0.67895  0.12187  0.62412  Biso   1.000  C  0.198661
  C218     1.0000 0.63544  0.96667  0.66063  Biso   1.000  C  -0.092885
  C219     1.0000 0.70030  0.12680  0.59990  Biso   1.000  C  -0.161136
  C220     1.0000 0.66363  0.15383  0.63920  Biso   1.000  C  -0.165488
  C221     1.0000 0.28744  0.13667  0.04925  Biso   1.000  C  -0.120070
  C222     1.0000 0.78055  0.56113  0.18852  Biso   1.000  C  0.629524
  C223     1.0000 0.30154  0.15775  0.13065  Biso   1.000  C  -0.051386
  C224     1.0000 0.28908  0.16758  0.09126  Biso   1.000  C  0.296538
  C225     1.0000 0.31403  0.09661  0.09032  Biso   1.000  C  0.022418
  C226     1.0000 0.27168  0.14052  0.00392  Biso   1.000  C  0.620390
  C227     1.0000 0.30167  0.10308  0.05053  Biso   1.000  C  -0.123702
  C228     1.0000 0.35391  0.26139  0.96642  Biso   1.000  C  0.610907
  C229     1.0000 0.40598  0.30251  0.99747  Biso   1.000  C  -0.024278
  C230     1.0000 0.72768  0.52415  0.15725  Biso   1.000  C  -0.040440
  C231     1.0000 0.42367  0.33595  0.04548  Biso   1.000  C  -0.105113
  C232     1.0000 0.64410  0.49670  0.14060  Biso   1.000  C  -0.159847
  C233     1.0000 0.62820  0.45470  0.10190  Biso   1.000  C  0.188623
  C234     1.0000 0.43700  0.30677  0.98057  Biso   1.000  C  -0.102777
  C235     1.0000 0.71108  0.47918  0.11750  Biso   1.000  C  -0.108486
  C236     1.0000 0.66140  0.44410  0.08990  Biso   1.000  C  -0.162190
  C237     1.0000 0.50225  0.37813  0.05708  Biso   1.000  C  0.198750
  C238     1.0000 0.69396  0.53333  0.16877  Biso   1.000  C  -0.092894
  C239     1.0000 0.47310  0.37320  0.07350  Biso   1.000  C  -0.161187
  C240     1.0000 0.48537  0.34617  0.00980  Biso   1.000  C  -0.165494
  C241     1.0000 0.08742  0.45075  0.23819  Biso   1.000  C  -0.120083
  C242     1.0000 0.37261  0.31148  0.59203  Biso   1.000  C  0.629588
  C243     1.0000 0.02710  0.36935  0.17089  Biso   1.000  C  -0.051457
  C244     1.0000 0.07632  0.40874  0.19782  Biso   1.000  C  0.296541
  C245     1.0000 0.00629  0.40968  0.22371  Biso   1.000  C  0.022460
  C246     1.0000 0.13660  0.49608  0.26776  Biso   1.000  C  0.620397
  C247     1.0000 0.05255  0.44947  0.25114  Biso   1.000  C  -0.123684
  C248     1.0000 0.29497  0.53358  0.38749  Biso   1.000  C  0.610906
  C249     1.0000 0.30504  0.50253  0.40851  Biso   1.000  C  -0.024292
  C250     1.0000 0.36690  0.34275  0.57043  Biso   1.000  C  -0.040474
  C251     1.0000 0.29047  0.45452  0.37819  Biso   1.000  C  -0.105078
  C252     1.0000 0.35610  0.35940  0.50350  Biso   1.000  C  -0.159876
  C253     1.0000 0.35280  0.39810  0.52630  Biso   1.000  C  0.188707
  C254     1.0000 0.32620  0.51943  0.45643  Biso   1.000  C  -0.102659
  C255     1.0000 0.36168  0.38250  0.59358  Biso   1.000  C  -0.108531
  C256     1.0000 0.35420  0.41010  0.57150  Biso   1.000  C  -0.162253
  C257     1.0000 0.32105  0.44292  0.44517  Biso   1.000  C  0.198755
  C258     1.0000 0.36456  0.33123  0.52519  Biso   1.000  C  -0.092890
  C259     1.0000 0.29970  0.42650  0.39960  Biso   1.000  C  -0.161188
  C260     1.0000 0.33637  0.49020  0.47557  Biso   1.000  C  -0.165488
  C261     1.0000 0.71256  0.84923  0.26181  Biso   1.000  C  -0.120083
  C262     1.0000 0.21945  0.78058  0.90797  Biso   1.000  C  0.629588
  C263     1.0000 0.69846  0.85621  0.32911  Biso   1.000  C  -0.051437
  C264     1.0000 0.71092  0.87850  0.30218  Biso   1.000  C  0.296541
  C265     1.0000 0.68597  0.78258  0.27629  Biso   1.000  C  0.022480
  C266     1.0000 0.72832  0.86884  0.23224  Biso   1.000  C  0.620398
  C267     1.0000 0.69833  0.80141  0.24886  Biso   1.000  C  -0.123685
  C268     1.0000 0.64609  0.90748  0.11251  Biso   1.000  C  0.610971
  C269     1.0000 0.59402  0.89653  0.09149  Biso   1.000  C  -0.024391
  C270     1.0000 0.27232  0.79647  0.92957  Biso   1.000  C  -0.040500
  C271     1.0000 0.57633  0.91228  0.12181  Biso   1.000  C  -0.105096
  C272     1.0000 0.35590  0.85260  0.99650  Biso   1.000  C  -0.159934
  C273     1.0000 0.37180  0.82650  0.97370  Biso   1.000  C  0.188779
  C274     1.0000 0.56300  0.86977  0.04357  Biso   1.000  C  -0.102631
  C275     1.0000 0.28892  0.76810  0.90642  Biso   1.000  C  -0.108482
  C276     1.0000 0.33860  0.78270  0.92850  Biso   1.000  C  -0.162221
  C277     1.0000 0.49775  0.87588  0.05483  Biso   1.000  C  0.198711
  C278     1.0000 0.30604  0.83937  0.97481  Biso   1.000  C  -0.092891
  C279     1.0000 0.52690  0.90010  0.10040  Biso   1.000  C  -0.161162
  C280     1.0000 0.51463  0.86080  0.02443  Biso   1.000  C  -0.165527
  C281     1.0000 0.41258  0.65077  0.36333  Biso   1.000  C  -0.120066
  C282     1.0000 0.12739  0.71942  0.93887  Biso   1.000  C  0.629625
  C283     1.0000 0.47290  0.64379  0.34225  Biso   1.000  C  -0.051445
  C284     1.0000 0.42368  0.62150  0.33242  Biso   1.000  C  0.296519
  C285     1.0000 0.49371  0.71742  0.40339  Biso   1.000  C  0.022386
  C286     1.0000 0.36340  0.63116  0.35948  Biso   1.000  C  0.620388
  C287     1.0000 0.44745  0.69859  0.39692  Biso   1.000  C  -0.123667
  C288     1.0000 0.20503  0.59252  0.23861  Biso   1.000  C  0.610933
  C289     1.0000 0.19496  0.60347  0.19749  Biso   1.000  C  -0.024239
  C290     1.0000 0.13310  0.70353  0.97585  Biso   1.000  C  -0.040504
  C291     1.0000 0.20953  0.58772  0.16405  Biso   1.000  C  -0.105154
  C292     1.0000 0.14390  0.64740  0.00330  Biso   1.000  C  -0.159880
  C293     1.0000 0.14720  0.67350  0.04530  Biso   1.000  C  0.188690
  C294     1.0000 0.17380  0.63023  0.19323  Biso   1.000  C  -0.102687
  C295     1.0000 0.13832  0.73190  0.02082  Biso   1.000  C  -0.108525
  C296     1.0000 0.14580  0.71730  0.05590  Biso   1.000  C  -0.162205
  C297     1.0000 0.17895  0.62412  0.12187  Biso   1.000  C  0.198661
  C298     1.0000 0.13544  0.66063  0.96667  Biso   1.000  C  -0.092885
  C299     1.0000 0.20030  0.59990  0.12680  Biso   1.000  C  -0.161136
  C300     1.0000 0.16363  0.63920  0.15383  Biso   1.000  C  -0.165488
  C301     1.0000 0.78744  0.04925  0.13667  Biso   1.000  C  -0.120070
  C302     1.0000 0.28055  0.18852  0.56113  Biso   1.000  C  0.629524
  C303     1.0000 0.80154  0.13065  0.15775  Biso   1.000  C  -0.051386
  C304     1.0000 0.78908  0.09126  0.16758  Biso   1.000  C  0.296538
  C305     1.0000 0.81403  0.09032  0.09661  Biso   1.000  C  0.022418
  C306     1.0000 0.77168  0.00392  0.14052  Biso   1.000  C  0.620390
  C307     1.0000 0.80167  0.05053  0.10308  Biso   1.000  C  -0.123702
  C308     1.0000 0.85391  0.96642  0.26139  Biso   1.000  C  0.610907
  C309     1.0000 0.90598  0.99747  0.30251  Biso   1.000  C  -0.024278
  C310     1.0000 0.22768  0.15725  0.52415  Biso   1.000  C  -0.040440
  C311     1.0000 0.92367  0.04548  0.33595  Biso   1.000  C  -0.105114
  C312     1.0000 0.14410  0.14060  0.49670  Biso   1.000  C  -0.159845
  C313     1.0000 0.12820  0.10190  0.45470  Biso   1.000  C  0.188622
  C314     1.0000 0.93700  0.98057  0.30677  Biso   1.000  C  -0.102777
  C315     1.0000 0.21108  0.11750  0.47918  Biso   1.000  C  -0.108486
  C316     1.0000 0.16140  0.08990  0.44410  Biso   1.000  C  -0.162189
  C317     1.0000 0.00225  0.05708  0.37813  Biso   1.000  C  0.198750
  C318     1.0000 0.19396  0.16877  0.53333  Biso   1.000  C  -0.092894
  C319     1.0000 0.97310  0.07350  0.37320  Biso   1.000  C  -0.161187
  C320     1.0000 0.98537  0.00980  0.34617  Biso   1.000  C  -0.165494
  C321     1.0000 0.84923  0.76181  0.21256  Biso   1.000  C  -0.120085
  C322     1.0000 0.78058  0.40797  0.71945  Biso   1.000  C  0.629608
  C323     1.0000 0.85621  0.82911  0.19846  Biso   1.000  C  -0.051416
  C324     1.0000 0.87850  0.80218  0.21092  Biso   1.000  C  0.296537
  C325     1.0000 0.78258  0.77629  0.18597  Biso   1.000  C  0.022467
  C326     1.0000 0.86884  0.73224  0.22832  Biso   1.000  C  0.620398
  C327     1.0000 0.80141  0.74886  0.19833  Biso   1.000  C  -0.123684
  C328     1.0000 0.90748  0.61251  0.14609  Biso   1.000  C  0.610953
  C329     1.0000 0.89653  0.59149  0.09402  Biso   1.000  C  -0.024401
  C330     1.0000 0.79647  0.42957  0.77232  Biso   1.000  C  -0.040488
  C331     1.0000 0.91228  0.62181  0.07633  Biso   1.000  C  -0.105091
  C332     1.0000 0.85260  0.49650  0.85590  Biso   1.000  C  -0.159937
  C333     1.0000 0.82650  0.47370  0.87180  Biso   1.000  C  0.188776
  C334     1.0000 0.86977  0.54357  0.06300  Biso   1.000  C  -0.102634
  C335     1.0000 0.76810  0.40642  0.78892  Biso   1.000  C  -0.108486
  C336     1.0000 0.78270  0.42850  0.83860  Biso   1.000  C  -0.162222
  C337     1.0000 0.87588  0.55483  0.99775  Biso   1.000  C  0.198713
  C338     1.0000 0.83937  0.47481  0.80604  Biso   1.000  C  -0.092888
  C339     1.0000 0.90010  0.60040  0.02690  Biso   1.000  C  -0.161160
  C340     1.0000 0.86080  0.52443  0.01463  Biso   1.000  C  -0.165523
  C341     1.0000 0.45075  0.73819  0.58742  Biso   1.000  C  -0.120081
  C342     1.0000 0.31148  0.09203  0.87261  Biso   1.000  C  0.629561
  C343     1.0000 0.36935  0.67089  0.52710  Biso   1.000  C  -0.051474
  C344     1.0000 0.40874  0.69782  0.57632  Biso   1.000  C  0.296544
  C345     1.0000 0.40968  0.72371  0.50629  Biso   1.000  C  0.022476
  C346     1.0000 0.49608  0.76776  0.63660  Biso   1.000  C  0.620397
  C347     1.0000 0.44947  0.75114  0.55255  Biso   1.000  C  -0.123684
  C348     1.0000 0.53358  0.88749  0.79497  Biso   1.000  C  0.610920
  C349     1.0000 0.50253  0.90851  0.80504  Biso   1.000  C  -0.024282
  C350     1.0000 0.34275  0.07043  0.86690  Biso   1.000  C  -0.040486
  C351     1.0000 0.45452  0.87819  0.79047  Biso   1.000  C  -0.105082
  C352     1.0000 0.35940  0.00350  0.85610  Biso   1.000  C  -0.159875
  C353     1.0000 0.39810  0.02630  0.85280  Biso   1.000  C  0.188709
  C354     1.0000 0.51943  0.95643  0.82620  Biso   1.000  C  -0.102656
  C355     1.0000 0.38250  0.09358  0.86168  Biso   1.000  C  -0.108527
  C356     1.0000 0.41010  0.07150  0.85420  Biso   1.000  C  -0.162252
  C357     1.0000 0.44292  0.94517  0.82105  Biso   1.000  C  0.198752
  C358     1.0000 0.33123  0.02519  0.86456  Biso   1.000  C  -0.092894
  C359     1.0000 0.42650  0.89960  0.79970  Biso   1.000  C  -0.161190
  C360     1.0000 0.49020  0.97557  0.83637  Biso   1.000  C  -0.165491
  C361     1.0000 0.04925  0.63667  0.28744  Biso   1.000  C  -0.120050
  C362     1.0000 0.18852  0.06113  0.78055  Biso   1.000  C  0.629552
  C363     1.0000 0.13065  0.65775  0.30154  Biso   1.000  C  -0.051383
  C364     1.0000 0.09126  0.66758  0.28908  Biso   1.000  C  0.296533
  C365     1.0000 0.09032  0.59661  0.31403  Biso   1.000  C  0.022425
  C366     1.0000 0.00392  0.64052  0.27168  Biso   1.000  C  0.620406
  C367     1.0000 0.05053  0.60308  0.30167  Biso   1.000  C  -0.123695
  C368     1.0000 0.96642  0.76139  0.35391  Biso   1.000  C  0.610908
  C369     1.0000 0.99747  0.80251  0.40598  Biso   1.000  C  -0.024276
  C370     1.0000 0.15725  0.02415  0.72768  Biso   1.000  C  -0.040419
  C371     1.0000 0.04548  0.83595  0.42367  Biso   1.000  C  -0.105111
  C372     1.0000 0.14060  0.99670  0.64410  Biso   1.000  C  -0.159846
  C373     1.0000 0.10190  0.95470  0.62820  Biso   1.000  C  0.188617
  C374     1.0000 0.98057  0.80677  0.43700  Biso   1.000  C  -0.102776
  C375     1.0000 0.11750  0.97918  0.71108  Biso   1.000  C  -0.108480
  C376     1.0000 0.08990  0.94410  0.66140  Biso   1.000  C  -0.162192
  C377     1.0000 0.05708  0.87813  0.50225  Biso   1.000  C  0.198749
  C378     1.0000 0.16877  0.03333  0.69396  Biso   1.000  C  -0.092902
  C379     1.0000 0.07350  0.87320  0.47310  Biso   1.000  C  -0.161187
  C380     1.0000 0.00980  0.84617  0.48537  Biso   1.000  C  -0.165493
  C381     1.0000 0.65077  0.86333  0.91258  Biso   1.000  C  -0.120086
  C382     1.0000 0.71942  0.43887  0.62739  Biso   1.000  C  0.629593
  C383     1.0000 0.64379  0.84225  0.97290  Biso   1.000  C  -0.051449
  C384     1.0000 0.62150  0.83242  0.92368  Biso   1.000  C  0.296524
  C385     1.0000 0.71742  0.90339  0.99371  Biso   1.000  C  0.022377
  C386     1.0000 0.63116  0.85948  0.86340  Biso   1.000  C  0.620366
  C387     1.0000 0.69859  0.89692  0.94745  Biso   1.000  C  -0.123676
  C388     1.0000 0.59252  0.73861  0.70503  Biso   1.000  C  0.610932
  C389     1.0000 0.60347  0.69749  0.69496  Biso   1.000  C  -0.024241
  C390     1.0000 0.70353  0.47585  0.63310  Biso   1.000  C  -0.040525
  C391     1.0000 0.58772  0.66405  0.70953  Biso   1.000  C  -0.105155
  C392     1.0000 0.64740  0.50330  0.64390  Biso   1.000  C  -0.159881
  C393     1.0000 0.67350  0.54530  0.64720  Biso   1.000  C  0.188696
  C394     1.0000 0.63023  0.69323  0.67380  Biso   1.000  C  -0.102688
  C395     1.0000 0.73190  0.52082  0.63832  Biso   1.000  C  -0.108531
  C396     1.0000 0.71730  0.55590  0.64580  Biso   1.000  C  -0.162203
  C397     1.0000 0.62412  0.62187  0.67895  Biso   1.000  C  0.198662
  C398     1.0000 0.66063  0.46667  0.63544  Biso   1.000  C  -0.092877
  C399     1.0000 0.59990  0.62680  0.70030  Biso   1.000  C  -0.161136
  C400     1.0000 0.63920  0.65383  0.66363  Biso   1.000  C  -0.165489
  C401     1.0000 0.63667  0.78744  0.54925  Biso   1.000  C  -0.120053
  C402     1.0000 0.06113  0.28055  0.68852  Biso   1.000  C  0.629538
  C403     1.0000 0.65775  0.80154  0.63065  Biso   1.000  C  -0.051384
  C404     1.0000 0.66758  0.78908  0.59126  Biso   1.000  C  0.296534
  C405     1.0000 0.59661  0.81403  0.59032  Biso   1.000  C  0.022428
  C406     1.0000 0.64052  0.77168  0.50392  Biso   1.000  C  0.620407
  C407     1.0000 0.60308  0.80167  0.55053  Biso   1.000  C  -0.123697
  C408     1.0000 0.76139  0.85391  0.46642  Biso   1.000  C  0.610884
  C409     1.0000 0.80251  0.90598  0.49747  Biso   1.000  C  -0.024292
  C410     1.0000 0.02415  0.22768  0.65725  Biso   1.000  C  -0.040426
  C411     1.0000 0.83595  0.92367  0.54548  Biso   1.000  C  -0.105107
  C412     1.0000 0.99670  0.14410  0.64060  Biso   1.000  C  -0.159850
  C413     1.0000 0.95470  0.12820  0.60190  Biso   1.000  C  0.188617
  C414     1.0000 0.80677  0.93700  0.48057  Biso   1.000  C  -0.102780
  C415     1.0000 0.97918  0.21108  0.61750  Biso   1.000  C  -0.108491
  C416     1.0000 0.94410  0.16140  0.58990  Biso   1.000  C  -0.162190
  C417     1.0000 0.87813  0.00225  0.55708  Biso   1.000  C  0.198754
  C418     1.0000 0.03333  0.19396  0.66877  Biso   1.000  C  -0.092893
  C419     1.0000 0.87320  0.97310  0.57350  Biso   1.000  C  -0.161185
  C420     1.0000 0.84617  0.98537  0.50980  Biso   1.000  C  -0.165490
  C421     1.0000 0.86333  0.41258  0.15077  Biso   1.000  C  -0.120067
  C422     1.0000 0.43887  0.12739  0.21942  Biso   1.000  C  0.629584
  C423     1.0000 0.84225  0.47290  0.14379  Biso   1.000  C  -0.051466
  C424     1.0000 0.83242  0.42368  0.12150  Biso   1.000  C  0.296524
  C425     1.0000 0.90339  0.49371  0.21742  Biso   1.000  C  0.022401
  C426     1.0000 0.85948  0.36340  0.13116  Biso   1.000  C  0.620386
  C427     1.0000 0.89692  0.44745  0.19859  Biso   1.000  C  -0.123670
  C428     1.0000 0.73861  0.20503  0.09252  Biso   1.000  C  0.610929
  C429     1.0000 0.69749  0.19496  0.10347  Biso   1.000  C  -0.024246
  C430     1.0000 0.47585  0.13310  0.20353  Biso   1.000  C  -0.040523
  C431     1.0000 0.66405  0.20953  0.08772  Biso   1.000  C  -0.105153
  C432     1.0000 0.50330  0.14390  0.14740  Biso   1.000  C  -0.159882
  C433     1.0000 0.54530  0.14720  0.17350  Biso   1.000  C  0.188693
  C434     1.0000 0.69323  0.17380  0.13023  Biso   1.000  C  -0.102688
  C435     1.0000 0.52082  0.13832  0.23190  Biso   1.000  C  -0.108532
  C436     1.0000 0.55590  0.14580  0.21730  Biso   1.000  C  -0.162203
  C437     1.0000 0.62187  0.17895  0.12412  Biso   1.000  C  0.198663
  C438     1.0000 0.46667  0.13544  0.16063  Biso   1.000  C  -0.092880
  C439     1.0000 0.62680  0.20030  0.09990  Biso   1.000  C  -0.161136
  C440     1.0000 0.65383  0.16363  0.13920  Biso   1.000  C  -0.165488
  C441     1.0000 0.76181  0.71256  0.34923  Biso   1.000  C  -0.120083
  C442     1.0000 0.40797  0.21945  0.28058  Biso   1.000  C  0.629623
  C443     1.0000 0.82911  0.69846  0.35621  Biso   1.000  C  -0.051415
  C444     1.0000 0.80218  0.71092  0.37850  Biso   1.000  C  0.296536
  C445     1.0000 0.77629  0.68597  0.28258  Biso   1.000  C  0.022464
  C446     1.0000 0.73224  0.72832  0.36884  Biso   1.000  C  0.620401
  C447     1.0000 0.74886  0.69833  0.30141  Biso   1.000  C  -0.123681
  C448     1.0000 0.61251  0.64609  0.40748  Biso   1.000  C  0.610970
  C449     1.0000 0.59149  0.59402  0.39653  Biso   1.000  C  -0.024385
  C450     1.0000 0.42957  0.27232  0.29647  Biso   1.000  C  -0.040482
  C451     1.0000 0.62181  0.57633  0.41228  Biso   1.000  C  -0.105096
  C452     1.0000 0.49650  0.35590  0.35260  Biso   1.000  C  -0.159934
  C453     1.0000 0.47370  0.37180  0.32650  Biso   1.000  C  0.188775
  C454     1.0000 0.54357  0.56300  0.36977  Biso   1.000  C  -0.102631
  C455     1.0000 0.40642  0.28892  0.26810  Biso   1.000  C  -0.108475
  C456     1.0000 0.42850  0.33860  0.28270  Biso   1.000  C  -0.162223
  C457     1.0000 0.55483  0.49775  0.37588  Biso   1.000  C  0.198708
  C458     1.0000 0.47481  0.30604  0.33937  Biso   1.000  C  -0.092896
  C459     1.0000 0.60040  0.52690  0.40010  Biso   1.000  C  -0.161162
  C460     1.0000 0.52443  0.51463  0.36080  Biso   1.000  C  -0.165526
  C461     1.0000 0.73819  0.08742  0.95075  Biso   1.000  C  -0.120099
  C462     1.0000 0.09203  0.37261  0.81148  Biso   1.000  C  0.629567
  C463     1.0000 0.67089  0.02710  0.86935  Biso   1.000  C  -0.051451
  C464     1.0000 0.69782  0.07632  0.90874  Biso   1.000  C  0.296543
  C465     1.0000 0.72371  0.00629  0.90968  Biso   1.000  C  0.022454
  C466     1.0000 0.76776  0.13660  0.99608  Biso   1.000  C  0.620377
  C467     1.0000 0.75114  0.05255  0.94947  Biso   1.000  C  -0.123689
  C468     1.0000 0.88749  0.29497  0.03358  Biso   1.000  C  0.610923
  C469     1.0000 0.90851  0.30504  0.00253  Biso   1.000  C  -0.024278
  C470     1.0000 0.07043  0.36690  0.84275  Biso   1.000  C  -0.040488
  C471     1.0000 0.87819  0.29047  0.95452  Biso   1.000  C  -0.105084
  C472     1.0000 0.00350  0.35610  0.85940  Biso   1.000  C  -0.159874
  C473     1.0000 0.02630  0.35280  0.89810  Biso   1.000  C  0.188712
  C474     1.0000 0.95643  0.32620  0.01943  Biso   1.000  C  -0.102656
  C475     1.0000 0.09358  0.36168  0.88250  Biso   1.000  C  -0.108526
  C476     1.0000 0.07150  0.35420  0.91010  Biso   1.000  C  -0.162251
  C477     1.0000 0.94517  0.32105  0.94292  Biso   1.000  C  0.198751
  C478     1.0000 0.02519  0.36456  0.83123  Biso   1.000  C  -0.092891
  C479     1.0000 0.89960  0.29970  0.92650  Biso   1.000  C  -0.161191
  C480     1.0000 0.97557  0.33637  0.99020  Biso   1.000  C  -0.165492
  H1       1.0000 0.37510  0.19930  0.85720  Biso   1.000  H  0.112865
  H2       1.0000 0.25030  0.17760  0.76730  Biso   1.000  H  0.102150
  H3       1.0000 0.44000  0.23010  0.80330  Biso   1.000  H  0.342851
  H4       1.0000 0.44030  0.21940  0.84310  Biso   1.000  H  0.351163
  H5       1.0000 0.28130  0.19700  0.72090  Biso   1.000  H  0.133707
  H6       1.0000 0.43050  0.09660  0.65550  Biso   1.000  H  0.117956
  H7       1.0000 0.38020  0.87810  0.52730  Biso   1.000  H  0.117873
  H8       1.0000 0.35690  0.07340  0.52250  Biso   1.000  H  0.109808
  H9       1.0000 0.23960  0.76690  0.37630  Biso   1.000  H  0.113274
  H10      1.0000 0.26370  0.84980  0.41350  Biso   1.000  H  0.120218
  H11      1.0000 0.35900  0.79580  0.49040  Biso   1.000  H  0.116482
  H12      1.0000 0.41060  0.01510  0.62090  Biso   1.000  H  0.117594
  H13      1.0000 0.34450  0.99410  0.49080  Biso   1.000  H  0.108928
  H14      1.0000 0.84210  0.51790  0.64280  Biso   1.000  H  0.112870
  H15      1.0000 0.91030  0.48300  0.73270  Biso   1.000  H  0.102149
  H16      1.0000 0.92680  0.63670  0.69670  Biso   1.000  H  0.342846
  H17      1.0000 0.87630  0.59720  0.65690  Biso   1.000  H  0.351181
  H18      1.0000 0.97610  0.56040  0.77910  Biso   1.000  H  0.133697
  H19      1.0000 0.94110  0.77500  0.84450  Biso   1.000  H  0.117936
  H20      1.0000 0.85080  0.85290  0.97270  Biso   1.000  H  0.117875
  H21      1.0000 0.05090  0.83440  0.97750  Biso   1.000  H  0.109779
  H22      1.0000 0.89060  0.86330  0.12370  Biso   1.000  H  0.113328
  H23      1.0000 0.93630  0.85020  0.08650  Biso   1.000  H  0.120250
  H24      1.0000 0.80540  0.86860  0.00960  Biso   1.000  H  0.116478
  H25      1.0000 0.89420  0.78970  0.87910  Biso   1.000  H  0.117593
  H26      1.0000 0.00330  0.85370  0.00920  Biso   1.000  H  0.108845
  H27      1.0000 0.65790  0.30070  0.67580  Biso   1.000  H  0.112855
  H28      1.0000 0.58970  0.32240  0.57270  Biso   1.000  H  0.102169
  H29      1.0000 0.57320  0.26990  0.70990  Biso   1.000  H  0.342857
  H30      1.0000 0.62370  0.28060  0.72090  Biso   1.000  H  0.351169
  H31      1.0000 0.52390  0.30300  0.58430  Biso   1.000  H  0.133697
  H32      1.0000 0.55890  0.40340  0.83390  Biso   1.000  H  0.117936
  H33      1.0000 0.64920  0.62190  0.00210  Biso   1.000  H  0.117863
  H34      1.0000 0.44910  0.42660  0.78350  Biso   1.000  H  0.109827
  H35      1.0000 0.60940  0.73310  0.97270  Biso   1.000  H  0.113274
  H36      1.0000 0.56370  0.65020  0.91390  Biso   1.000  H  0.120215
  H37      1.0000 0.69460  0.70420  0.06320  Biso   1.000  H  0.116477
  H38      1.0000 0.60580  0.48490  0.89550  Biso   1.000  H  0.117606
  H39      1.0000 0.49670  0.50590  0.85040  Biso   1.000  H  0.108915
  H40      1.0000 0.12490  0.98210  0.82420  Biso   1.000  H  0.112868
  H41      1.0000 0.24970  0.01700  0.92730  Biso   1.000  H  0.102199
  H42      1.0000 0.06000  0.86330  0.79010  Biso   1.000  H  0.342857
  H43      1.0000 0.05970  0.90280  0.77910  Biso   1.000  H  0.351154
  H44      1.0000 0.21870  0.93960  0.91570  Biso   1.000  H  0.133688
  H45      1.0000 0.06950  0.72500  0.66610  Biso   1.000  H  0.117947
  H46      1.0000 0.11980  0.64710  0.49790  Biso   1.000  H  0.117858
  H47      1.0000 0.14310  0.66560  0.71650  Biso   1.000  H  0.109804
  H48      1.0000 0.26040  0.63670  0.52730  Biso   1.000  H  0.113338
  H49      1.0000 0.23630  0.64980  0.58610  Biso   1.000  H  0.120229
  H50      1.0000 0.14100  0.63140  0.43680  Biso   1.000  H  0.116489
  H51      1.0000 0.08940  0.71030  0.60450  Biso   1.000  H  0.117595
  H52      1.0000 0.15550  0.64630  0.64960  Biso   1.000  H  0.108884
  H53      1.0000 0.17580  0.65790  0.80070  Biso   1.000  H  0.112854
  H54      1.0000 0.07270  0.58970  0.82240  Biso   1.000  H  0.102169
  H55      1.0000 0.20990  0.57320  0.76990  Biso   1.000  H  0.342858
  H56      1.0000 0.22090  0.62370  0.78060  Biso   1.000  H  0.351167
  H57      1.0000 0.08430  0.52390  0.80300  Biso   1.000  H  0.133694
  H58      1.0000 0.33390  0.55890  0.90340  Biso   1.000  H  0.117936
  H59      1.0000 0.50210  0.64920  0.12190  Biso   1.000  H  0.117863
  H60      1.0000 0.28350  0.44910  0.92660  Biso   1.000  H  0.109824
  H61      1.0000 0.47270  0.60940  0.23310  Biso   1.000  H  0.113270
  H62      1.0000 0.41390  0.56370  0.15020  Biso   1.000  H  0.120215
  H63      1.0000 0.56320  0.69460  0.20420  Biso   1.000  H  0.116479
  H64      1.0000 0.39550  0.60580  0.98490  Biso   1.000  H  0.117608
  H65      1.0000 0.35040  0.49670  0.00590  Biso   1.000  H  0.108916
  H66      1.0000 0.32420  0.12490  0.48210  Biso   1.000  H  0.112862
  H67      1.0000 0.42730  0.24970  0.51700  Biso   1.000  H  0.102207
  H68      1.0000 0.29010  0.06000  0.36330  Biso   1.000  H  0.342858
  H69      1.0000 0.27910  0.05970  0.40280  Biso   1.000  H  0.351151
  H70      1.0000 0.41570  0.21870  0.43960  Biso   1.000  H  0.133691
  H71      1.0000 0.16610  0.06950  0.22500  Biso   1.000  H  0.117947
  H72      1.0000 0.99790  0.11980  0.14710  Biso   1.000  H  0.117856
  H73      1.0000 0.21650  0.14310  0.16560  Biso   1.000  H  0.109803
  H74      1.0000 0.02730  0.26040  0.13670  Biso   1.000  H  0.113338
  H75      1.0000 0.08610  0.23630  0.14980  Biso   1.000  H  0.120228
  H76      1.0000 0.93680  0.14100  0.13140  Biso   1.000  H  0.116488
  H77      1.0000 0.10450  0.08940  0.21030  Biso   1.000  H  0.117596
  H78      1.0000 0.14960  0.15550  0.14630  Biso   1.000  H  0.108884
  H79      1.0000 0.35720  0.37510  0.69930  Biso   1.000  H  0.112865
  H80      1.0000 0.26730  0.25030  0.67760  Biso   1.000  H  0.102149
  H81      1.0000 0.30330  0.44000  0.73010  Biso   1.000  H  0.342851
  H82      1.0000 0.34310  0.44030  0.71940  Biso   1.000  H  0.351163
  H83      1.0000 0.22090  0.28130  0.69700  Biso   1.000  H  0.133710
  H84      1.0000 0.15550  0.43050  0.59660  Biso   1.000  H  0.117955
  H85      1.0000 0.02730  0.38020  0.37810  Biso   1.000  H  0.117873
  H86      1.0000 0.02250  0.35690  0.57340  Biso   1.000  H  0.109811
  H87      1.0000 0.87630  0.23960  0.26690  Biso   1.000  H  0.113278
  H88      1.0000 0.91350  0.26370  0.34980  Biso   1.000  H  0.120218
  H89      1.0000 0.99040  0.35900  0.29580  Biso   1.000  H  0.116479
  H90      1.0000 0.12090  0.41060  0.51510  Biso   1.000  H  0.117592
  H91      1.0000 0.99080  0.34450  0.49410  Biso   1.000  H  0.108927
  H92      1.0000 0.14280  0.84210  0.01790  Biso   1.000  H  0.112876
  H93      1.0000 0.23270  0.91030  0.98300  Biso   1.000  H  0.102140
  H94      1.0000 0.19670  0.92680  0.13670  Biso   1.000  H  0.342845
  H95      1.0000 0.15690  0.87630  0.09720  Biso   1.000  H  0.351182
  H96      1.0000 0.27910  0.97610  0.06040  Biso   1.000  H  0.133694
  H97      1.0000 0.34450  0.94110  0.27500  Biso   1.000  H  0.117935
  H98      1.0000 0.47270  0.85080  0.35290  Biso   1.000  H  0.117876
  H99      1.0000 0.47750  0.05090  0.33440  Biso   1.000  H  0.109778
  H100     1.0000 0.62370  0.89060  0.36330  Biso   1.000  H  0.113326
  H101     1.0000 0.58650  0.93630  0.35020  Biso   1.000  H  0.120251
  H102     1.0000 0.50960  0.80540  0.36860  Biso   1.000  H  0.116480
  H103     1.0000 0.37910  0.89420  0.28970  Biso   1.000  H  0.117592
  H104     1.0000 0.50920  0.00330  0.35370  Biso   1.000  H  0.108845
  H105     1.0000 0.51790  0.14280  0.34210  Biso   1.000  H  0.112874
  H106     1.0000 0.48300  0.23270  0.41030  Biso   1.000  H  0.102143
  H107     1.0000 0.63670  0.19670  0.42680  Biso   1.000  H  0.342845
  H108     1.0000 0.59720  0.15690  0.37630  Biso   1.000  H  0.351181
  H109     1.0000 0.56040  0.27910  0.47610  Biso   1.000  H  0.133696
  H110     1.0000 0.77500  0.34450  0.44110  Biso   1.000  H  0.117936
  H111     1.0000 0.85290  0.47270  0.35080  Biso   1.000  H  0.117874
  H112     1.0000 0.83440  0.47750  0.55090  Biso   1.000  H  0.109776
  H113     1.0000 0.86330  0.62370  0.39060  Biso   1.000  H  0.113327
  H114     1.0000 0.85020  0.58650  0.43630  Biso   1.000  H  0.120249
  H115     1.0000 0.86860  0.50960  0.30540  Biso   1.000  H  0.116481
  H116     1.0000 0.78970  0.37910  0.39420  Biso   1.000  H  0.117594
  H117     1.0000 0.85370  0.50920  0.50330  Biso   1.000  H  0.108846
  H118     1.0000 0.19930  0.35720  0.87510  Biso   1.000  H  0.112862
  H119     1.0000 0.17760  0.26730  0.75030  Biso   1.000  H  0.102155
  H120     1.0000 0.23010  0.30330  0.94000  Biso   1.000  H  0.342852
  H121     1.0000 0.21940  0.34310  0.94030  Biso   1.000  H  0.351162
  H122     1.0000 0.19700  0.22090  0.78130  Biso   1.000  H  0.133708
  H123     1.0000 0.09660  0.15550  0.93050  Biso   1.000  H  0.117955
  H124     1.0000 0.87810  0.02730  0.88020  Biso   1.000  H  0.117873
  H125     1.0000 0.07340  0.02250  0.85690  Biso   1.000  H  0.109811
  H126     1.0000 0.76690  0.87630  0.73960  Biso   1.000  H  0.113275
  H127     1.0000 0.84980  0.91350  0.76370  Biso   1.000  H  0.120218
  H128     1.0000 0.79580  0.99040  0.85900  Biso   1.000  H  0.116479
  H129     1.0000 0.01510  0.12090  0.91060  Biso   1.000  H  0.117592
  H130     1.0000 0.99410  0.99080  0.84450  Biso   1.000  H  0.108927
  H131     1.0000 0.98210  0.32420  0.62490  Biso   1.000  H  0.112865
  H132     1.0000 0.01700  0.42730  0.74970  Biso   1.000  H  0.102200
  H133     1.0000 0.86330  0.29010  0.56000  Biso   1.000  H  0.342856
  H134     1.0000 0.90280  0.27910  0.55970  Biso   1.000  H  0.351152
  H135     1.0000 0.93960  0.41570  0.71870  Biso   1.000  H  0.133692
  H136     1.0000 0.72500  0.16610  0.56950  Biso   1.000  H  0.117947
  H137     1.0000 0.64710  0.99790  0.61980  Biso   1.000  H  0.117856
  H138     1.0000 0.66560  0.21650  0.64310  Biso   1.000  H  0.109804
  H139     1.0000 0.63670  0.02730  0.76040  Biso   1.000  H  0.113341
  H140     1.0000 0.64980  0.08610  0.73630  Biso   1.000  H  0.120226
  H141     1.0000 0.63140  0.93680  0.64100  Biso   1.000  H  0.116489
  H142     1.0000 0.71030  0.10450  0.58940  Biso   1.000  H  0.117595
  H143     1.0000 0.64630  0.14960  0.65550  Biso   1.000  H  0.108884
  H144     1.0000 0.30070  0.17580  0.15790  Biso   1.000  H  0.112858
  H145     1.0000 0.32240  0.07270  0.08970  Biso   1.000  H  0.102167
  H146     1.0000 0.26990  0.20990  0.07320  Biso   1.000  H  0.342858
  H147     1.0000 0.28060  0.22090  0.12370  Biso   1.000  H  0.351169
  H148     1.0000 0.30300  0.08430  0.02390  Biso   1.000  H  0.133692
  H149     1.0000 0.40340  0.33390  0.05890  Biso   1.000  H  0.117935
  H150     1.0000 0.62190  0.50210  0.14920  Biso   1.000  H  0.117865
  H151     1.0000 0.42660  0.28350  0.94910  Biso   1.000  H  0.109826
  H152     1.0000 0.73310  0.47270  0.10940  Biso   1.000  H  0.113270
  H153     1.0000 0.65020  0.41390  0.06370  Biso   1.000  H  0.120216
  H154     1.0000 0.70420  0.56320  0.19460  Biso   1.000  H  0.116477
  H155     1.0000 0.48490  0.39550  0.10580  Biso   1.000  H  0.117606
  H156     1.0000 0.50590  0.35040  0.99670  Biso   1.000  H  0.108914
  H157     1.0000 0.01790  0.34210  0.14280  Biso   1.000  H  0.112874
  H158     1.0000 0.98300  0.41030  0.23270  Biso   1.000  H  0.102143
  H159     1.0000 0.13670  0.42680  0.19670  Biso   1.000  H  0.342845
  H160     1.0000 0.09720  0.37630  0.15690  Biso   1.000  H  0.351180
  H161     1.0000 0.06040  0.47610  0.27910  Biso   1.000  H  0.133696
  H162     1.0000 0.27500  0.44110  0.34450  Biso   1.000  H  0.117936
  H163     1.0000 0.35290  0.35080  0.47270  Biso   1.000  H  0.117874
  H164     1.0000 0.33440  0.55090  0.47750  Biso   1.000  H  0.109776
  H165     1.0000 0.36330  0.39060  0.62370  Biso   1.000  H  0.113327
  H166     1.0000 0.35020  0.43630  0.58650  Biso   1.000  H  0.120248
  H167     1.0000 0.36860  0.30540  0.50960  Biso   1.000  H  0.116481
  H168     1.0000 0.28970  0.39420  0.37910  Biso   1.000  H  0.117594
  H169     1.0000 0.35370  0.50330  0.50920  Biso   1.000  H  0.108846
  H170     1.0000 0.69930  0.87510  0.35720  Biso   1.000  H  0.112862
  H171     1.0000 0.67760  0.75030  0.26730  Biso   1.000  H  0.102156
  H172     1.0000 0.73010  0.94000  0.30330  Biso   1.000  H  0.342852
  H173     1.0000 0.71940  0.94030  0.34310  Biso   1.000  H  0.351162
  H174     1.0000 0.69700  0.78130  0.22090  Biso   1.000  H  0.133708
  H175     1.0000 0.59660  0.93050  0.15550  Biso   1.000  H  0.117955
  H176     1.0000 0.37810  0.88020  0.02730  Biso   1.000  H  0.117873
  H177     1.0000 0.57340  0.85690  0.02250  Biso   1.000  H  0.109811
  H178     1.0000 0.26690  0.73960  0.87630  Biso   1.000  H  0.113275
  H179     1.0000 0.34980  0.76370  0.91350  Biso   1.000  H  0.120218
  H180     1.0000 0.29580  0.85900  0.99040  Biso   1.000  H  0.116479
  H181     1.0000 0.51510  0.91060  0.12090  Biso   1.000  H  0.117592
  H182     1.0000 0.49410  0.84450  0.99080  Biso   1.000  H  0.108927
  H183     1.0000 0.48210  0.62490  0.32420  Biso   1.000  H  0.112865
  H184     1.0000 0.51700  0.74970  0.42730  Biso   1.000  H  0.102200
  H185     1.0000 0.36330  0.56000  0.29010  Biso   1.000  H  0.342856
  H186     1.0000 0.40280  0.55970  0.27910  Biso   1.000  H  0.351152
  H187     1.0000 0.43960  0.71870  0.41570  Biso   1.000  H  0.133692
  H188     1.0000 0.22500  0.56950  0.16610  Biso   1.000  H  0.117947
  H189     1.0000 0.14710  0.61980  0.99790  Biso   1.000  H  0.117856
  H190     1.0000 0.16560  0.64310  0.21650  Biso   1.000  H  0.109804
  H191     1.0000 0.13670  0.76040  0.02730  Biso   1.000  H  0.113341
  H192     1.0000 0.14980  0.73630  0.08610  Biso   1.000  H  0.120226
  H193     1.0000 0.13140  0.64100  0.93680  Biso   1.000  H  0.116489
  H194     1.0000 0.21030  0.58940  0.10450  Biso   1.000  H  0.117595
  H195     1.0000 0.14630  0.65550  0.14960  Biso   1.000  H  0.108884
  H196     1.0000 0.80070  0.15790  0.17580  Biso   1.000  H  0.112858
  H197     1.0000 0.82240  0.08970  0.07270  Biso   1.000  H  0.102167
  H198     1.0000 0.76990  0.07320  0.20990  Biso   1.000  H  0.342858
  H199     1.0000 0.78060  0.12370  0.22090  Biso   1.000  H  0.351169
  H200     1.0000 0.80300  0.02390  0.08430  Biso   1.000  H  0.133693
  H201     1.0000 0.90340  0.05890  0.33390  Biso   1.000  H  0.117935
  H202     1.0000 0.12190  0.14920  0.50210  Biso   1.000  H  0.117864
  H203     1.0000 0.92660  0.94910  0.28350  Biso   1.000  H  0.109826
  H204     1.0000 0.23310  0.10940  0.47270  Biso   1.000  H  0.113270
  H205     1.0000 0.15020  0.06370  0.41390  Biso   1.000  H  0.120215
  H206     1.0000 0.20420  0.19460  0.56320  Biso   1.000  H  0.116477
  H207     1.0000 0.98490  0.10580  0.39550  Biso   1.000  H  0.117606
  H208     1.0000 0.00590  0.99670  0.35040  Biso   1.000  H  0.108915
  H209     1.0000 0.87510  0.85720  0.19930  Biso   1.000  H  0.112865
  H210     1.0000 0.75030  0.76730  0.17760  Biso   1.000  H  0.102150
  H211     1.0000 0.94000  0.80330  0.23010  Biso   1.000  H  0.342851
  H212     1.0000 0.94030  0.84310  0.21940  Biso   1.000  H  0.351162
  H213     1.0000 0.78130  0.72090  0.19700  Biso   1.000  H  0.133707
  H214     1.0000 0.93050  0.65550  0.09660  Biso   1.000  H  0.117956
  H215     1.0000 0.88020  0.52730  0.87810  Biso   1.000  H  0.117873
  H216     1.0000 0.85690  0.52250  0.07340  Biso   1.000  H  0.109808
  H217     1.0000 0.73960  0.37630  0.76690  Biso   1.000  H  0.113274
  H218     1.0000 0.76370  0.41350  0.84980  Biso   1.000  H  0.120217
  H219     1.0000 0.85900  0.49040  0.79580  Biso   1.000  H  0.116482
  H220     1.0000 0.91060  0.62090  0.01510  Biso   1.000  H  0.117593
  H221     1.0000 0.84450  0.49080  0.99410  Biso   1.000  H  0.108928
  H222     1.0000 0.34210  0.64280  0.51790  Biso   1.000  H  0.112870
  H223     1.0000 0.41030  0.73270  0.48300  Biso   1.000  H  0.102149
  H224     1.0000 0.42680  0.69670  0.63670  Biso   1.000  H  0.342846
  H225     1.0000 0.37630  0.65690  0.59720  Biso   1.000  H  0.351179
  H226     1.0000 0.47610  0.77910  0.56040  Biso   1.000  H  0.133697
  H227     1.0000 0.44110  0.84450  0.77500  Biso   1.000  H  0.117935
  H228     1.0000 0.35080  0.97270  0.85290  Biso   1.000  H  0.117875
  H229     1.0000 0.55090  0.97750  0.83440  Biso   1.000  H  0.109779
  H230     1.0000 0.39060  0.12370  0.86330  Biso   1.000  H  0.113328
  H231     1.0000 0.43630  0.08650  0.85020  Biso   1.000  H  0.120249
  H232     1.0000 0.30540  0.00960  0.86860  Biso   1.000  H  0.116478
  H233     1.0000 0.39420  0.87910  0.78970  Biso   1.000  H  0.117593
  H234     1.0000 0.50330  0.00920  0.85370  Biso   1.000  H  0.108845
  H235     1.0000 0.15790  0.67580  0.30070  Biso   1.000  H  0.112855
  H236     1.0000 0.08970  0.57270  0.32240  Biso   1.000  H  0.102168
  H237     1.0000 0.07320  0.70990  0.26990  Biso   1.000  H  0.342857
  H238     1.0000 0.12370  0.72090  0.28060  Biso   1.000  H  0.351167
  H239     1.0000 0.02390  0.58430  0.30300  Biso   1.000  H  0.133697
  H240     1.0000 0.05890  0.83390  0.40340  Biso   1.000  H  0.117935
  H241     1.0000 0.14920  0.00210  0.62190  Biso   1.000  H  0.117863
  H242     1.0000 0.94910  0.78350  0.42660  Biso   1.000  H  0.109827
  H243     1.0000 0.10940  0.97270  0.73310  Biso   1.000  H  0.113274
  H244     1.0000 0.06370  0.91390  0.65020  Biso   1.000  H  0.120214
  H245     1.0000 0.19460  0.06320  0.70420  Biso   1.000  H  0.116477
  H246     1.0000 0.10580  0.89550  0.48490  Biso   1.000  H  0.117606
  H247     1.0000 0.99670  0.85040  0.50590  Biso   1.000  H  0.108915
  H248     1.0000 0.62490  0.82420  0.98210  Biso   1.000  H  0.112868
  H249     1.0000 0.74970  0.92730  0.01700  Biso   1.000  H  0.102199
  H250     1.0000 0.56000  0.79010  0.86330  Biso   1.000  H  0.342857
  H251     1.0000 0.55970  0.77910  0.90280  Biso   1.000  H  0.351152
  H252     1.0000 0.71870  0.91570  0.93960  Biso   1.000  H  0.133688
  H253     1.0000 0.56950  0.66610  0.72500  Biso   1.000  H  0.117946
  H254     1.0000 0.61980  0.49790  0.64710  Biso   1.000  H  0.117858
  H255     1.0000 0.64310  0.71650  0.66560  Biso   1.000  H  0.109804
  H256     1.0000 0.76040  0.52730  0.63670  Biso   1.000  H  0.113338
  H257     1.0000 0.73630  0.58610  0.64980  Biso   1.000  H  0.120227
  H258     1.0000 0.64100  0.43680  0.63140  Biso   1.000  H  0.116489
  H259     1.0000 0.58940  0.60450  0.71030  Biso   1.000  H  0.117595
  H260     1.0000 0.65550  0.64960  0.64630  Biso   1.000  H  0.108884
  H261     1.0000 0.67580  0.80070  0.65790  Biso   1.000  H  0.112854
  H262     1.0000 0.57270  0.82240  0.58970  Biso   1.000  H  0.102169
  H263     1.0000 0.70990  0.76990  0.57320  Biso   1.000  H  0.342858
  H264     1.0000 0.72090  0.78060  0.62370  Biso   1.000  H  0.351167
  H265     1.0000 0.58430  0.80300  0.52390  Biso   1.000  H  0.133694
  H266     1.0000 0.83390  0.90340  0.55890  Biso   1.000  H  0.117936
  H267     1.0000 0.00210  0.12190  0.64920  Biso   1.000  H  0.117863
  H268     1.0000 0.78350  0.92660  0.44910  Biso   1.000  H  0.109824
  H269     1.0000 0.97270  0.23310  0.60940  Biso   1.000  H  0.113270
  H270     1.0000 0.91390  0.15020  0.56370  Biso   1.000  H  0.120212
  H271     1.0000 0.06320  0.20420  0.69460  Biso   1.000  H  0.116479
  H272     1.0000 0.89550  0.98490  0.60580  Biso   1.000  H  0.117608
  H273     1.0000 0.85040  0.00590  0.49670  Biso   1.000  H  0.108916
  H274     1.0000 0.82420  0.48210  0.12490  Biso   1.000  H  0.112862
  H275     1.0000 0.92730  0.51700  0.24970  Biso   1.000  H  0.102207
  H276     1.0000 0.79010  0.36330  0.06000  Biso   1.000  H  0.342858
  H277     1.0000 0.77910  0.40280  0.05970  Biso   1.000  H  0.351150
  H278     1.0000 0.91570  0.43960  0.21870  Biso   1.000  H  0.133690
  H279     1.0000 0.66610  0.22500  0.06950  Biso   1.000  H  0.117946
  H280     1.0000 0.49790  0.14710  0.11980  Biso   1.000  H  0.117856
  H281     1.0000 0.71650  0.16560  0.14310  Biso   1.000  H  0.109803
  H282     1.0000 0.52730  0.13670  0.26040  Biso   1.000  H  0.113338
  H283     1.0000 0.58610  0.14980  0.23630  Biso   1.000  H  0.120225
  H284     1.0000 0.43680  0.13140  0.14100  Biso   1.000  H  0.116488
  H285     1.0000 0.60450  0.21030  0.08940  Biso   1.000  H  0.117596
  H286     1.0000 0.64960  0.14630  0.15550  Biso   1.000  H  0.108884
  H287     1.0000 0.85720  0.69930  0.37510  Biso   1.000  H  0.112865
  H288     1.0000 0.76730  0.67760  0.25030  Biso   1.000  H  0.102149
  H289     1.0000 0.80330  0.73010  0.44000  Biso   1.000  H  0.342850
  H290     1.0000 0.84310  0.71940  0.44030  Biso   1.000  H  0.351162
  H291     1.0000 0.72090  0.69700  0.28130  Biso   1.000  H  0.133709
  H292     1.0000 0.65550  0.59660  0.43050  Biso   1.000  H  0.117955
  H293     1.0000 0.52730  0.37810  0.38020  Biso   1.000  H  0.117873
  H294     1.0000 0.52250  0.57340  0.35690  Biso   1.000  H  0.109811
  H295     1.0000 0.37630  0.26690  0.23960  Biso   1.000  H  0.113278
  H296     1.0000 0.41350  0.34980  0.26370  Biso   1.000  H  0.120217
  H297     1.0000 0.49040  0.29580  0.35900  Biso   1.000  H  0.116479
  H298     1.0000 0.62090  0.51510  0.41060  Biso   1.000  H  0.117591
  H299     1.0000 0.49080  0.49410  0.34450  Biso   1.000  H  0.108926
  H300     1.0000 0.64280  0.01790  0.84210  Biso   1.000  H  0.112876
  H301     1.0000 0.73270  0.98300  0.91030  Biso   1.000  H  0.102140
  H302     1.0000 0.69670  0.13670  0.92680  Biso   1.000  H  0.342845
  H303     1.0000 0.65690  0.09720  0.87630  Biso   1.000  H  0.351181
  H304     1.0000 0.77910  0.06040  0.97610  Biso   1.000  H  0.133694
  H305     1.0000 0.84450  0.27500  0.94110  Biso   1.000  H  0.117934
  H306     1.0000 0.97270  0.35290  0.85080  Biso   1.000  H  0.117876
  H307     1.0000 0.97750  0.33440  0.05090  Biso   1.000  H  0.109778
  H308     1.0000 0.12370  0.36330  0.89060  Biso   1.000  H  0.113326
  H309     1.0000 0.08650  0.35020  0.93630  Biso   1.000  H  0.120249
  H310     1.0000 0.00960  0.36860  0.80540  Biso   1.000  H  0.116480
  H311     1.0000 0.87910  0.28970  0.89420  Biso   1.000  H  0.117592
  H312     1.0000 0.00920  0.35370  0.00330  Biso   1.000  H  0.108844
  In1      1.0000 0.36091  0.27884  0.66767  Biso   1.000  In  1.448207
  In2      1.0000 0.11117  0.69324  0.83233  Biso   1.000  In  1.448221
  In3      1.0000 0.38883  0.22115  0.58207  Biso   1.000  In  1.448235
  In4      1.0000 0.13909  0.80677  0.91793  Biso   1.000  In  1.448273
  In5      1.0000 0.08207  0.38883  0.72116  Biso   1.000  In  1.448197
  In6      1.0000 0.41793  0.13909  0.30676  Biso   1.000  In  1.448237
  In7      1.0000 0.16768  0.36092  0.77885  Biso   1.000  In  1.448235
  In8      1.0000 0.33232  0.11116  0.19323  Biso   1.000  In  1.448240
  In9      1.0000 0.69324  0.33233  0.61117  Biso   1.000  In  1.448213
  In10     1.0000 0.27884  0.16767  0.86091  Biso   1.000  In  1.448212
  In11     1.0000 0.80676  0.41793  0.63908  Biso   1.000  In  1.448269
  In12     1.0000 0.22116  0.08207  0.88884  Biso   1.000  In  1.448221
  In13     1.0000 0.19324  0.61117  0.33233  Biso   1.000  In  1.448213
  In14     1.0000 0.77884  0.86091  0.16767  Biso   1.000  In  1.448212
  In15     1.0000 0.30676  0.63908  0.41793  Biso   1.000  In  1.448269
  In16     1.0000 0.72116  0.88884  0.08207  Biso   1.000  In  1.448221
  In17     1.0000 0.86091  0.66767  0.27884  Biso   1.000  In  1.448207
  In18     1.0000 0.61117  0.83233  0.69324  Biso   1.000  In  1.448221
  In19     1.0000 0.88883  0.58207  0.22115  Biso   1.000  In  1.448235
  In20     1.0000 0.63909  0.91793  0.80677  Biso   1.000  In  1.448273
  In21     1.0000 0.58207  0.72116  0.38883  Biso   1.000  In  1.448197
  In22     1.0000 0.91793  0.30676  0.13909  Biso   1.000  In  1.448237
  In23     1.0000 0.66768  0.77885  0.36092  Biso   1.000  In  1.448235
  In24     1.0000 0.83232  0.19323  0.11116  Biso   1.000  In  1.448240
  In25     1.0000 0.45510  0.25000  0.70510  Biso   1.000  In  1.209956
  In26     1.0000 0.04490  0.75000  0.79490  Biso   1.000  In  1.209961
  In27     1.0000 0.20510  0.45510  0.75000  Biso   1.000  In  1.209958
  In28     1.0000 0.29490  0.04490  0.25000  Biso   1.000  In  1.209957
  In29     1.0000 0.75000  0.29490  0.54490  Biso   1.000  In  1.209935
  In30     1.0000 0.25000  0.20510  0.95510  Biso   1.000  In  1.209975
  In31     1.0000 0.25000  0.54490  0.29490  Biso   1.000  In  1.209935
  In32     1.0000 0.75000  0.95510  0.20510  Biso   1.000  In  1.209975
  In33     1.0000 0.95510  0.70510  0.25000  Biso   1.000  In  1.209954
  In34     1.0000 0.54490  0.79490  0.75000  Biso   1.000  In  1.209961
  In35     1.0000 0.70510  0.75000  0.45510  Biso   1.000  In  1.209956
  In36     1.0000 0.79490  0.25000  0.04490  Biso   1.000  In  1.209959
  N1       1.0000 0.31019  0.18581  0.81624  Biso   1.000  N  -0.198087
  N2       1.0000 0.42524  0.22138  0.81810  Biso   1.000  N  -0.674659
  N3       1.0000 0.36670  0.94803  0.53693  Biso   1.000  N  -0.153666
  N4       1.0000 0.33379  0.92033  0.49312  Biso   1.000  N  -0.155430
  N5       1.0000 0.86957  0.49395  0.68376  Biso   1.000  N  -0.198063
  N6       1.0000 0.90328  0.60714  0.68190  Biso   1.000  N  -0.674706
  N7       1.0000 0.91110  0.82977  0.96307  Biso   1.000  N  -0.153656
  N8       1.0000 0.92721  0.84067  0.00688  Biso   1.000  N  -0.155401
  N9       1.0000 0.63043  0.31419  0.62438  Biso   1.000  N  -0.198086
  N10      1.0000 0.59672  0.27862  0.70386  Biso   1.000  N  -0.674686
  N11      1.0000 0.58890  0.55197  0.91867  Biso   1.000  N  -0.153666
  N12      1.0000 0.57279  0.57967  0.91346  Biso   1.000  N  -0.155359
  N13      1.0000 0.18981  0.00605  0.87562  Biso   1.000  N  -0.198061
  N14      1.0000 0.07476  0.89286  0.79614  Biso   1.000  N  -0.674629
  N15      1.0000 0.13330  0.67023  0.58133  Biso   1.000  N  -0.153610
  N16      1.0000 0.16621  0.65933  0.58654  Biso   1.000  N  -0.155406
  N17      1.0000 0.12438  0.63043  0.81419  Biso   1.000  N  -0.198084
  N18      1.0000 0.20386  0.59672  0.77862  Biso   1.000  N  -0.674686
  N19      1.0000 0.41867  0.58890  0.05197  Biso   1.000  N  -0.153676
  N20      1.0000 0.41346  0.57279  0.07967  Biso   1.000  N  -0.155365
  N21      1.0000 0.37562  0.18981  0.50605  Biso   1.000  N  -0.198051
  N22      1.0000 0.29614  0.07476  0.39286  Biso   1.000  N  -0.674632
  N23      1.0000 0.08133  0.13330  0.17023  Biso   1.000  N  -0.153612
  N24      1.0000 0.08654  0.16621  0.15933  Biso   1.000  N  -0.155404
  N25      1.0000 0.31624  0.31019  0.68581  Biso   1.000  N  -0.198089
  N26      1.0000 0.31810  0.42524  0.72138  Biso   1.000  N  -0.674658
  N27      1.0000 0.03693  0.36670  0.44803  Biso   1.000  N  -0.153656
  N28      1.0000 0.99312  0.33379  0.42033  Biso   1.000  N  -0.155424
  N29      1.0000 0.18376  0.86957  0.99395  Biso   1.000  N  -0.198095
  N30      1.0000 0.18190  0.90328  0.10714  Biso   1.000  N  -0.674703
  N31      1.0000 0.46307  0.91110  0.32977  Biso   1.000  N  -0.153654
  N32      1.0000 0.50688  0.92721  0.34067  Biso   1.000  N  -0.155404
  N33      1.0000 0.49395  0.18376  0.36957  Biso   1.000  N  -0.198052
  N34      1.0000 0.60714  0.18190  0.40328  Biso   1.000  N  -0.674705
  N35      1.0000 0.82977  0.46307  0.41110  Biso   1.000  N  -0.153658
  N36      1.0000 0.84067  0.50688  0.42721  Biso   1.000  N  -0.155399
  N37      1.0000 0.18581  0.31624  0.81019  Biso   1.000  N  -0.198087
  N38      1.0000 0.22138  0.31810  0.92524  Biso   1.000  N  -0.674659
  N39      1.0000 0.94803  0.03693  0.86670  Biso   1.000  N  -0.153664
  N40      1.0000 0.92033  0.99312  0.83379  Biso   1.000  N  -0.155432
  N41      1.0000 0.00605  0.37562  0.68981  Biso   1.000  N  -0.198053
  N42      1.0000 0.89286  0.29614  0.57476  Biso   1.000  N  -0.674631
  N43      1.0000 0.67023  0.08133  0.63330  Biso   1.000  N  -0.153604
  N44      1.0000 0.65933  0.08654  0.66621  Biso   1.000  N  -0.155396
  N45      1.0000 0.31419  0.12438  0.13043  Biso   1.000  N  -0.198106
  N46      1.0000 0.27862  0.20386  0.09672  Biso   1.000  N  -0.674684
  N47      1.0000 0.55197  0.41867  0.08890  Biso   1.000  N  -0.153672
  N48      1.0000 0.57967  0.41346  0.07279  Biso   1.000  N  -0.155369
  N49      1.0000 0.99395  0.36957  0.18376  Biso   1.000  N  -0.198052
  N50      1.0000 0.10714  0.40328  0.18190  Biso   1.000  N  -0.674705
  N51      1.0000 0.32977  0.41110  0.46307  Biso   1.000  N  -0.153658
  N52      1.0000 0.34067  0.42721  0.50688  Biso   1.000  N  -0.155399
  N53      1.0000 0.68581  0.81019  0.31624  Biso   1.000  N  -0.198087
  N54      1.0000 0.72138  0.92524  0.31810  Biso   1.000  N  -0.674659
  N55      1.0000 0.44803  0.86670  0.03693  Biso   1.000  N  -0.153664
  N56      1.0000 0.42033  0.83379  0.99312  Biso   1.000  N  -0.155432
  N57      1.0000 0.50605  0.68981  0.37562  Biso   1.000  N  -0.198053
  N58      1.0000 0.39286  0.57476  0.29614  Biso   1.000  N  -0.674631
  N59      1.0000 0.17023  0.63330  0.08133  Biso   1.000  N  -0.153604
  N60      1.0000 0.15933  0.66621  0.08654  Biso   1.000  N  -0.155396
  N61      1.0000 0.81419  0.13043  0.12438  Biso   1.000  N  -0.198106
  N62      1.0000 0.77862  0.09672  0.20386  Biso   1.000  N  -0.674684
  N63      1.0000 0.05197  0.08890  0.41867  Biso   1.000  N  -0.153672
  N64      1.0000 0.07967  0.07279  0.41346  Biso   1.000  N  -0.155369
  N65      1.0000 0.81019  0.81624  0.18581  Biso   1.000  N  -0.198087
  N66      1.0000 0.92524  0.81810  0.22138  Biso   1.000  N  -0.674658
  N67      1.0000 0.86670  0.53693  0.94803  Biso   1.000  N  -0.153666
  N68      1.0000 0.83379  0.49312  0.92033  Biso   1.000  N  -0.155430
  N69      1.0000 0.36957  0.68376  0.49395  Biso   1.000  N  -0.198063
  N70      1.0000 0.40328  0.68190  0.60714  Biso   1.000  N  -0.674705
  N71      1.0000 0.41110  0.96307  0.82977  Biso   1.000  N  -0.153656
  N72      1.0000 0.42721  0.00688  0.84067  Biso   1.000  N  -0.155401
  N73      1.0000 0.13043  0.62438  0.31419  Biso   1.000  N  -0.198086
  N74      1.0000 0.09672  0.70386  0.27862  Biso   1.000  N  -0.674686
  N75      1.0000 0.08890  0.91867  0.55197  Biso   1.000  N  -0.153666
  N76      1.0000 0.07279  0.91346  0.57967  Biso   1.000  N  -0.155359
  N77      1.0000 0.68981  0.87562  0.00605  Biso   1.000  N  -0.198061
  N78      1.0000 0.57476  0.79614  0.89286  Biso   1.000  N  -0.674629
  N79      1.0000 0.63330  0.58133  0.67023  Biso   1.000  N  -0.153610
  N80      1.0000 0.66621  0.58654  0.65933  Biso   1.000  N  -0.155407
  N81      1.0000 0.62438  0.81419  0.63043  Biso   1.000  N  -0.198084
  N82      1.0000 0.70386  0.77862  0.59672  Biso   1.000  N  -0.674685
  N83      1.0000 0.91867  0.05197  0.58890  Biso   1.000  N  -0.153676
  N84      1.0000 0.91346  0.07967  0.57279  Biso   1.000  N  -0.155365
  N85      1.0000 0.87562  0.50605  0.18981  Biso   1.000  N  -0.198051
  N86      1.0000 0.79614  0.39286  0.07476  Biso   1.000  N  -0.674632
  N87      1.0000 0.58133  0.17023  0.13330  Biso   1.000  N  -0.153611
  N88      1.0000 0.58654  0.15933  0.16621  Biso   1.000  N  -0.155404
  N89      1.0000 0.81624  0.68581  0.31019  Biso   1.000  N  -0.198089
  N90      1.0000 0.81810  0.72138  0.42524  Biso   1.000  N  -0.674658
  N91      1.0000 0.53693  0.44803  0.36670  Biso   1.000  N  -0.153656
  N92      1.0000 0.49312  0.42033  0.33379  Biso   1.000  N  -0.155424
  N93      1.0000 0.68376  0.99395  0.86957  Biso   1.000  N  -0.198095
  N94      1.0000 0.68190  0.10714  0.90328  Biso   1.000  N  -0.674703
  N95      1.0000 0.96307  0.32977  0.91110  Biso   1.000  N  -0.153654
  N96      1.0000 0.00688  0.34067  0.92721  Biso   1.000  N  -0.155404
  O1       1.0000 0.40957  0.23108  0.73775  Biso   1.000  O  -0.575824
  O2       1.0000 0.42821  0.17230  0.65899  Biso   1.000  O  -0.581534
  O3       1.0000 0.23987  0.69062  0.36951  Biso   1.000  O  -0.593075
  O4       1.0000 0.30882  0.70733  0.42857  Biso   1.000  O  -0.586213
  O5       1.0000 0.34332  0.23821  0.70399  Biso   1.000  O  -0.563406
  O6       1.0000 0.39521  0.15912  0.58109  Biso   1.000  O  -0.577827
  O7       1.0000 0.99333  0.67182  0.76225  Biso   1.000  O  -0.575857
  O8       1.0000 0.01331  0.76922  0.84101  Biso   1.000  O  -0.581527
  O9       1.0000 0.82111  0.87036  0.13049  Biso   1.000  O  -0.593034
  O10      1.0000 0.77876  0.88025  0.07143  Biso   1.000  O  -0.586092
  O11      1.0000 0.03422  0.63933  0.79601  Biso   1.000  O  -0.563404
  O12      1.0000 0.07803  0.81412  0.91891  Biso   1.000  O  -0.577854
  O13      1.0000 0.50667  0.26892  0.67849  Biso   1.000  O  -0.575835
  O14      1.0000 0.48669  0.32770  0.75591  Biso   1.000  O  -0.581504
  O15      1.0000 0.67889  0.80938  0.04925  Biso   1.000  O  -0.593169
  O16      1.0000 0.72124  0.79267  0.10149  Biso   1.000  O  -0.586110
  O17      1.0000 0.46578  0.26179  0.60511  Biso   1.000  O  -0.563440
  O18      1.0000 0.42197  0.34088  0.73609  Biso   1.000  O  -0.577881
  O19      1.0000 0.09043  0.82818  0.82151  Biso   1.000  O  -0.575851
  O20      1.0000 0.07179  0.73078  0.74409  Biso   1.000  O  -0.581514
  O21      1.0000 0.26013  0.62964  0.45075  Biso   1.000  O  -0.593061
  O22      1.0000 0.19118  0.61975  0.39851  Biso   1.000  O  -0.586104
  O23      1.0000 0.15668  0.86067  0.89489  Biso   1.000  O  -0.563372
  O24      1.0000 0.10479  0.68588  0.76391  Biso   1.000  O  -0.577878
  O25      1.0000 0.17849  0.50667  0.76892  Biso   1.000  O  -0.575831
  O26      1.0000 0.25591  0.48669  0.82770  Biso   1.000  O  -0.581493
  O27      1.0000 0.54925  0.67889  0.30938  Biso   1.000  O  -0.593044
  O28      1.0000 0.60149  0.72124  0.29267  Biso   1.000  O  -0.586208
  O29      1.0000 0.10511  0.46578  0.76179  Biso   1.000  O  -0.563434
  O30      1.0000 0.23609  0.42197  0.84088  Biso   1.000  O  -0.577807
  O31      1.0000 0.32151  0.09043  0.32818  Biso   1.000  O  -0.575854
  O32      1.0000 0.24409  0.07179  0.23078  Biso   1.000  O  -0.581507
  O33      1.0000 0.95075  0.26013  0.12964  Biso   1.000  O  -0.593045
  O34      1.0000 0.89851  0.19118  0.11975  Biso   1.000  O  -0.586119
  O35      1.0000 0.39489  0.15668  0.36067  Biso   1.000  O  -0.563401
  O36      1.0000 0.26391  0.10479  0.18588  Biso   1.000  O  -0.577864
  O37      1.0000 0.23775  0.40957  0.73108  Biso   1.000  O  -0.575828
  O38      1.0000 0.15899  0.42821  0.67230  Biso   1.000  O  -0.581544
  O39      1.0000 0.86951  0.23987  0.19062  Biso   1.000  O  -0.593194
  O40      1.0000 0.92857  0.30882  0.20733  Biso   1.000  O  -0.586114
  O41      1.0000 0.20399  0.34332  0.73821  Biso   1.000  O  -0.563424
  O42      1.0000 0.08109  0.39521  0.65912  Biso   1.000  O  -0.577882
  O43      1.0000 0.26225  0.99333  0.17182  Biso   1.000  O  -0.575852
  O44      1.0000 0.34101  0.01331  0.26922  Biso   1.000  O  -0.581533
  O45      1.0000 0.63049  0.82111  0.37036  Biso   1.000  O  -0.593041
  O46      1.0000 0.57143  0.77876  0.38025  Biso   1.000  O  -0.586084
  O47      1.0000 0.29601  0.03422  0.13933  Biso   1.000  O  -0.563380
  O48      1.0000 0.41891  0.07803  0.31412  Biso   1.000  O  -0.577871
  O49      1.0000 0.67182  0.26225  0.49333  Biso   1.000  O  -0.575856
  O50      1.0000 0.76922  0.34101  0.51331  Biso   1.000  O  -0.581517
  O51      1.0000 0.87036  0.63049  0.32111  Biso   1.000  O  -0.593044
  O52      1.0000 0.88025  0.57143  0.27876  Biso   1.000  O  -0.586191
  O53      1.0000 0.63933  0.29601  0.53422  Biso   1.000  O  -0.563408
  O54      1.0000 0.81412  0.41891  0.57803  Biso   1.000  O  -0.577810
  O55      1.0000 0.23108  0.23775  0.90957  Biso   1.000  O  -0.575824
  O56      1.0000 0.17230  0.15899  0.92821  Biso   1.000  O  -0.581543
  O57      1.0000 0.69062  0.86951  0.73987  Biso   1.000  O  -0.593066
  O58      1.0000 0.70733  0.92857  0.80882  Biso   1.000  O  -0.586130
  O59      1.0000 0.23821  0.20399  0.84332  Biso   1.000  O  -0.563402
  O60      1.0000 0.15912  0.08109  0.89521  Biso   1.000  O  -0.577884
  O61      1.0000 0.82818  0.32151  0.59043  Biso   1.000  O  -0.575858
  O62      1.0000 0.73078  0.24409  0.57179  Biso   1.000  O  -0.581508
  O63      1.0000 0.62964  0.95075  0.76013  Biso   1.000  O  -0.593177
  O64      1.0000 0.61975  0.89851  0.69118  Biso   1.000  O  -0.586116
  O65      1.0000 0.86067  0.39489  0.65668  Biso   1.000  O  -0.563422
  O66      1.0000 0.68588  0.26391  0.60479  Biso   1.000  O  -0.577874
  O67      1.0000 0.26892  0.17849  0.00667  Biso   1.000  O  -0.575827
  O68      1.0000 0.32770  0.25591  0.98669  Biso   1.000  O  -0.581510
  O69      1.0000 0.80938  0.54925  0.17889  Biso   1.000  O  -0.593065
  O70      1.0000 0.79267  0.60149  0.22124  Biso   1.000  O  -0.586097
  O71      1.0000 0.26179  0.10511  0.96578  Biso   1.000  O  -0.563406
  O72      1.0000 0.34088  0.23609  0.92197  Biso   1.000  O  -0.577885
  O73      1.0000 0.17182  0.49333  0.26225  Biso   1.000  O  -0.575857
  O74      1.0000 0.26922  0.51331  0.34101  Biso   1.000  O  -0.581517
  O75      1.0000 0.37036  0.32111  0.63049  Biso   1.000  O  -0.593044
  O76      1.0000 0.38025  0.27876  0.57143  Biso   1.000  O  -0.586191
  O77      1.0000 0.13933  0.53422  0.29601  Biso   1.000  O  -0.563408
  O78      1.0000 0.31412  0.57803  0.41891  Biso   1.000  O  -0.577810
  O79      1.0000 0.73108  0.90957  0.23775  Biso   1.000  O  -0.575824
  O80      1.0000 0.67230  0.92821  0.15899  Biso   1.000  O  -0.581543
  O81      1.0000 0.19062  0.73987  0.86951  Biso   1.000  O  -0.593066
  O82      1.0000 0.20733  0.80882  0.92857  Biso   1.000  O  -0.586130
  O83      1.0000 0.73821  0.84332  0.20399  Biso   1.000  O  -0.563402
  O84      1.0000 0.65912  0.89521  0.08109  Biso   1.000  O  -0.577884
  O85      1.0000 0.32818  0.59043  0.32151  Biso   1.000  O  -0.575858
  O86      1.0000 0.23078  0.57179  0.24409  Biso   1.000  O  -0.581508
  O87      1.0000 0.12964  0.76013  0.95075  Biso   1.000  O  -0.593177
  O88      1.0000 0.11975  0.69118  0.89851  Biso   1.000  O  -0.586116
  O89      1.0000 0.36067  0.65668  0.39489  Biso   1.000  O  -0.563422
  O90      1.0000 0.18588  0.60479  0.26391  Biso   1.000  O  -0.577874
  O91      1.0000 0.76892  0.00667  0.17849  Biso   1.000  O  -0.575827
  O92      1.0000 0.82770  0.98669  0.25591  Biso   1.000  O  -0.581510
  O93      1.0000 0.30938  0.17889  0.54925  Biso   1.000  O  -0.593065
  O94      1.0000 0.29267  0.22124  0.60149  Biso   1.000  O  -0.586097
  O95      1.0000 0.76179  0.96578  0.10511  Biso   1.000  O  -0.563406
  O96      1.0000 0.84088  0.92197  0.23609  Biso   1.000  O  -0.577885
  O97      1.0000 0.90957  0.73775  0.23108  Biso   1.000  O  -0.575824
  O98      1.0000 0.92821  0.65899  0.17230  Biso   1.000  O  -0.581534
  O99      1.0000 0.73987  0.36951  0.69062  Biso   1.000  O  -0.593075
  O100     1.0000 0.80882  0.42857  0.70733  Biso   1.000  O  -0.586213
  O101     1.0000 0.84332  0.70399  0.23821  Biso   1.000  O  -0.563406
  O102     1.0000 0.89521  0.58109  0.15912  Biso   1.000  O  -0.577827
  O103     1.0000 0.49333  0.76225  0.67182  Biso   1.000  O  -0.575857
  O104     1.0000 0.51331  0.84101  0.76922  Biso   1.000  O  -0.581527
  O105     1.0000 0.32111  0.13049  0.87036  Biso   1.000  O  -0.593034
  O106     1.0000 0.27876  0.07143  0.88025  Biso   1.000  O  -0.586092
  O107     1.0000 0.53422  0.79601  0.63933  Biso   1.000  O  -0.563404
  O108     1.0000 0.57803  0.91891  0.81412  Biso   1.000  O  -0.577854
  O109     1.0000 0.00667  0.67849  0.26892  Biso   1.000  O  -0.575835
  O110     1.0000 0.98669  0.75591  0.32770  Biso   1.000  O  -0.581504
  O111     1.0000 0.17889  0.04925  0.80938  Biso   1.000  O  -0.593169
  O112     1.0000 0.22124  0.10149  0.79267  Biso   1.000  O  -0.586110
  O113     1.0000 0.96578  0.60511  0.26179  Biso   1.000  O  -0.563440
  O114     1.0000 0.92197  0.73609  0.34088  Biso   1.000  O  -0.577881
  O115     1.0000 0.59043  0.82151  0.82818  Biso   1.000  O  -0.575851
  O116     1.0000 0.57179  0.74409  0.73078  Biso   1.000  O  -0.581514
  O117     1.0000 0.76013  0.45075  0.62964  Biso   1.000  O  -0.593061
  O118     1.0000 0.69118  0.39851  0.61975  Biso   1.000  O  -0.586104
  O119     1.0000 0.65668  0.89489  0.86067  Biso   1.000  O  -0.563372
  O120     1.0000 0.60479  0.76391  0.68588  Biso   1.000  O  -0.577878
  O121     1.0000 0.67849  0.76892  0.50667  Biso   1.000  O  -0.575831
  O122     1.0000 0.75591  0.82770  0.48669  Biso   1.000  O  -0.581493
  O123     1.0000 0.04925  0.30938  0.67889  Biso   1.000  O  -0.593044
  O124     1.0000 0.10149  0.29267  0.72124  Biso   1.000  O  -0.586208
  O125     1.0000 0.60511  0.76179  0.46578  Biso   1.000  O  -0.563434
  O126     1.0000 0.73609  0.84088  0.42197  Biso   1.000  O  -0.577807
  O127     1.0000 0.82151  0.32818  0.09043  Biso   1.000  O  -0.575855
  O128     1.0000 0.74409  0.23078  0.07179  Biso   1.000  O  -0.581507
  O129     1.0000 0.45075  0.12964  0.26013  Biso   1.000  O  -0.593045
  O130     1.0000 0.39851  0.11975  0.19118  Biso   1.000  O  -0.586119
  O131     1.0000 0.89489  0.36067  0.15668  Biso   1.000  O  -0.563401
  O132     1.0000 0.76391  0.18588  0.10479  Biso   1.000  O  -0.577864
  O133     1.0000 0.73775  0.73108  0.40957  Biso   1.000  O  -0.575828
  O134     1.0000 0.65899  0.67230  0.42821  Biso   1.000  O  -0.581544
  O135     1.0000 0.36951  0.19062  0.23987  Biso   1.000  O  -0.593194
  O136     1.0000 0.42857  0.20733  0.30882  Biso   1.000  O  -0.586114
  O137     1.0000 0.70399  0.73821  0.34332  Biso   1.000  O  -0.563424
  O138     1.0000 0.58109  0.65912  0.39521  Biso   1.000  O  -0.577882
  O139     1.0000 0.76225  0.17182  0.99333  Biso   1.000  O  -0.575852
  O140     1.0000 0.84101  0.26922  0.01331  Biso   1.000  O  -0.581533
  O141     1.0000 0.13049  0.37036  0.82111  Biso   1.000  O  -0.593041
  O142     1.0000 0.07143  0.38025  0.77876  Biso   1.000  O  -0.586084
  O143     1.0000 0.79601  0.13933  0.03422  Biso   1.000  O  -0.563380
  O144     1.0000 0.91891  0.31412  0.07803  Biso   1.000  O  -0.577871
  O145     1.0000 0.40214  0.25000  0.65214  Biso   1.000  O  -1.015578
  O146     1.0000 0.09786  0.75000  0.84786  Biso   1.000  O  -1.015576
  O147     1.0000 0.15214  0.40214  0.75000  Biso   1.000  O  -1.015584
  O148     1.0000 0.34786  0.09786  0.25000  Biso   1.000  O  -1.015571
  O149     1.0000 0.75000  0.34786  0.59786  Biso   1.000  O  -1.015590
  O150     1.0000 0.25000  0.15214  0.90214  Biso   1.000  O  -1.015554
  O151     1.0000 0.25000  0.59786  0.34786  Biso   1.000  O  -1.015590
  O152     1.0000 0.75000  0.90214  0.15214  Biso   1.000  O  -1.015554
  O153     1.0000 0.90214  0.65214  0.25000  Biso   1.000  O  -1.015577
  O154     1.0000 0.59786  0.84786  0.75000  Biso   1.000  O  -1.015576
  O155     1.0000 0.65214  0.75000  0.40214  Biso   1.000  O  -1.015583
  O156     1.0000 0.84786  0.25000  0.09786  Biso   1.000  O  -1.015572
