data_image0
_cell_length_a       30.4787
_cell_length_b       30.4787
_cell_length_c       30.4787
_cell_angle_alpha    109.471
_cell_angle_beta     109.471
_cell_angle_gamma    109.471

_symmetry_space_group_name_H-M    "P 1"
_symmetry_int_tables_number       1

loop_
  _symmetry_equiv_pos_as_xyz
  'x, y, z'

loop_
  _atom_site_label
  _atom_site_occupancy
  _atom_site_fract_x
  _atom_site_fract_y
  _atom_site_fract_z
  _atom_site_thermal_displace_type
  _atom_site_B_iso_or_equiv
  _atom_site_type_symbol
  _atom_site_charge
  C1       1.0000 0.64670  0.33050  0.28040  Biso   1.000  C  0.010146
  C2       1.0000 0.78170  0.25180  0.32450  Biso   1.000  C  0.646750
  C3       1.0000 0.81810  0.27240  0.38410  Biso   1.000  C  -0.073414
  C4       1.0000 0.81542  0.31060  0.42382  Biso   1.000  C  0.059315
  C5       1.0000 0.78155  0.33290  0.41105  Biso   1.000  C  -0.141815
  C6       1.0000 0.70810  0.18416  0.09786  Biso   1.000  C  0.566745
  C7       1.0000 0.70697  0.18133  0.04902  Biso   1.000  C  -0.058633
  C8       1.0000 0.74580  0.22180  0.05022  Biso   1.000  C  0.051908
  C9       1.0000 0.79268  0.26879  0.09909  Biso   1.000  C  -0.129625
  C10      1.0000 0.05010  0.36630  0.71960  Biso   1.000  C  0.010099
  C11      1.0000 0.92730  0.45720  0.67550  Biso   1.000  C  0.646696
  C12      1.0000 0.88830  0.43400  0.61590  Biso   1.000  C  -0.073328
  C13      1.0000 0.88678  0.39160  0.57618  Biso   1.000  C  0.059288
  C14      1.0000 0.92185  0.37050  0.58895  Biso   1.000  C  -0.141901
  C15      1.0000 0.08630  0.61024  0.90214  Biso   1.000  C  0.566759
  C16      1.0000 0.13231  0.65795  0.95098  Biso   1.000  C  -0.058703
  C17      1.0000 0.17158  0.69558  0.94978  Biso   1.000  C  0.051976
  C18      1.0000 0.16970  0.69359  0.90091  Biso   1.000  C  -0.129633
  C19      1.0000 0.94990  0.66950  0.31620  Biso   1.000  C  0.010182
  C20      1.0000 0.07270  0.74820  0.52990  Biso   1.000  C  0.646751
  C21      1.0000 0.11170  0.72760  0.54570  Biso   1.000  C  -0.073392
  C22      1.0000 0.11322  0.68940  0.50482  Biso   1.000  C  0.059296
  C23      1.0000 0.07815  0.66710  0.44865  Biso   1.000  C  -0.141913
  C24      1.0000 0.91370  0.81584  0.52394  Biso   1.000  C  0.566773
  C25      1.0000 0.86769  0.81867  0.52564  Biso   1.000  C  -0.058679
  C26      1.0000 0.82842  0.77820  0.52400  Biso   1.000  C  0.051951
  C27      1.0000 0.83030  0.73121  0.52389  Biso   1.000  C  -0.129597
  C28      1.0000 0.35330  0.63370  0.68380  Biso   1.000  C  0.010114
  C29      1.0000 0.21830  0.54280  0.47010  Biso   1.000  C  0.646734
  C30      1.0000 0.18190  0.56600  0.45430  Biso   1.000  C  -0.073379
  C31      1.0000 0.18458  0.60840  0.49518  Biso   1.000  C  0.059319
  C32      1.0000 0.21845  0.62950  0.55135  Biso   1.000  C  -0.141995
  C33      1.0000 0.29190  0.38976  0.47606  Biso   1.000  C  0.566782
  C34      1.0000 0.29303  0.34205  0.47436  Biso   1.000  C  -0.058650
  C35      1.0000 0.25420  0.30442  0.47600  Biso   1.000  C  0.051892
  C36      1.0000 0.20732  0.30641  0.47611  Biso   1.000  C  -0.129612
  C37      1.0000 0.31620  0.94990  0.66950  Biso   1.000  C  0.010182
  C38      1.0000 0.52990  0.07270  0.74820  Biso   1.000  C  0.646751
  C39      1.0000 0.54570  0.11170  0.72760  Biso   1.000  C  -0.073392
  C40      1.0000 0.50482  0.11322  0.68940  Biso   1.000  C  0.059296
  C41      1.0000 0.44865  0.07815  0.66710  Biso   1.000  C  -0.141913
  C42      1.0000 0.52394  0.91370  0.81584  Biso   1.000  C  0.566773
  C43      1.0000 0.52564  0.86769  0.81867  Biso   1.000  C  -0.058679
  C44      1.0000 0.52400  0.82842  0.77820  Biso   1.000  C  0.051951
  C45      1.0000 0.52389  0.83030  0.73121  Biso   1.000  C  -0.129597
  C46      1.0000 0.68380  0.35330  0.63370  Biso   1.000  C  0.010114
  C47      1.0000 0.47010  0.21830  0.54280  Biso   1.000  C  0.646734
  C48      1.0000 0.45430  0.18190  0.56600  Biso   1.000  C  -0.073379
  C49      1.0000 0.49518  0.18458  0.60840  Biso   1.000  C  0.059319
  C50      1.0000 0.55135  0.21845  0.62950  Biso   1.000  C  -0.141995
  C51      1.0000 0.47606  0.29190  0.38976  Biso   1.000  C  0.566782
  C52      1.0000 0.47436  0.29303  0.34205  Biso   1.000  C  -0.058650
  C53      1.0000 0.47600  0.25420  0.30442  Biso   1.000  C  0.051892
  C54      1.0000 0.47611  0.20732  0.30641  Biso   1.000  C  -0.129612
  C55      1.0000 0.28040  0.64670  0.33050  Biso   1.000  C  0.010146
  C56      1.0000 0.32450  0.78170  0.25180  Biso   1.000  C  0.646749
  C57      1.0000 0.38410  0.81810  0.27240  Biso   1.000  C  -0.073413
  C58      1.0000 0.42382  0.81542  0.31060  Biso   1.000  C  0.059315
  C59      1.0000 0.41105  0.78155  0.33290  Biso   1.000  C  -0.141815
  C60      1.0000 0.09786  0.70810  0.18416  Biso   1.000  C  0.566745
  C61      1.0000 0.04902  0.70697  0.18133  Biso   1.000  C  -0.058633
  C62      1.0000 0.05022  0.74580  0.22180  Biso   1.000  C  0.051908
  C63      1.0000 0.09909  0.79268  0.26879  Biso   1.000  C  -0.129625
  C64      1.0000 0.71960  0.05010  0.36630  Biso   1.000  C  0.010099
  C65      1.0000 0.67550  0.92730  0.45720  Biso   1.000  C  0.646696
  C66      1.0000 0.61590  0.88830  0.43400  Biso   1.000  C  -0.073328
  C67      1.0000 0.57618  0.88678  0.39160  Biso   1.000  C  0.059288
  C68      1.0000 0.58895  0.92185  0.37050  Biso   1.000  C  -0.141901
  C69      1.0000 0.90214  0.08630  0.61024  Biso   1.000  C  0.566759
  C70      1.0000 0.95098  0.13231  0.65795  Biso   1.000  C  -0.058703
  C71      1.0000 0.94978  0.17158  0.69558  Biso   1.000  C  0.051976
  C72      1.0000 0.90091  0.16970  0.69359  Biso   1.000  C  -0.129633
  C73      1.0000 0.36630  0.71960  0.05010  Biso   1.000  C  0.010099
  C74      1.0000 0.45720  0.67550  0.92730  Biso   1.000  C  0.646696
  C75      1.0000 0.43400  0.61590  0.88830  Biso   1.000  C  -0.073328
  C76      1.0000 0.39160  0.57618  0.88678  Biso   1.000  C  0.059288
  C77      1.0000 0.37050  0.58895  0.92185  Biso   1.000  C  -0.141901
  C78      1.0000 0.61024  0.90214  0.08630  Biso   1.000  C  0.566759
  C79      1.0000 0.65795  0.95098  0.13231  Biso   1.000  C  -0.058703
  C80      1.0000 0.69558  0.94978  0.17158  Biso   1.000  C  0.051976
  C81      1.0000 0.69359  0.90091  0.16970  Biso   1.000  C  -0.129633
  C82      1.0000 0.33050  0.28040  0.64670  Biso   1.000  C  0.010146
  C83      1.0000 0.25180  0.32450  0.78170  Biso   1.000  C  0.646750
  C84      1.0000 0.27240  0.38410  0.81810  Biso   1.000  C  -0.073414
  C85      1.0000 0.31060  0.42382  0.81542  Biso   1.000  C  0.059314
  C86      1.0000 0.33290  0.41105  0.78155  Biso   1.000  C  -0.141815
  C87      1.0000 0.18416  0.09786  0.70810  Biso   1.000  C  0.566745
  C88      1.0000 0.18133  0.04902  0.70697  Biso   1.000  C  -0.058633
  C89      1.0000 0.22180  0.05022  0.74580  Biso   1.000  C  0.051908
  C90      1.0000 0.26879  0.09909  0.79268  Biso   1.000  C  -0.129625
  C91      1.0000 0.63370  0.68380  0.35330  Biso   1.000  C  0.010114
  C92      1.0000 0.54280  0.47010  0.21830  Biso   1.000  C  0.646734
  C93      1.0000 0.56600  0.45430  0.18190  Biso   1.000  C  -0.073379
  C94      1.0000 0.60840  0.49518  0.18458  Biso   1.000  C  0.059319
  C95      1.0000 0.62950  0.55135  0.21845  Biso   1.000  C  -0.141996
  C96      1.0000 0.38976  0.47606  0.29190  Biso   1.000  C  0.566782
  C97      1.0000 0.34205  0.47436  0.29303  Biso   1.000  C  -0.058650
  C98      1.0000 0.30442  0.47600  0.25420  Biso   1.000  C  0.051892
  C99      1.0000 0.30641  0.47611  0.20732  Biso   1.000  C  -0.129612
  C100     1.0000 0.66950  0.31620  0.94990  Biso   1.000  C  0.010182
  C101     1.0000 0.74820  0.52990  0.07270  Biso   1.000  C  0.646751
  C102     1.0000 0.72760  0.54570  0.11170  Biso   1.000  C  -0.073392
  C103     1.0000 0.68940  0.50482  0.11322  Biso   1.000  C  0.059295
  C104     1.0000 0.66710  0.44865  0.07815  Biso   1.000  C  -0.141913
  C105     1.0000 0.81584  0.52394  0.91370  Biso   1.000  C  0.566773
  C106     1.0000 0.81867  0.52564  0.86769  Biso   1.000  C  -0.058679
  C107     1.0000 0.77820  0.52400  0.82842  Biso   1.000  C  0.051951
  C108     1.0000 0.73121  0.52389  0.83030  Biso   1.000  C  -0.129597
  C109     1.0000 0.66950  0.35330  0.71960  Biso   1.000  C  0.010146
  C110     1.0000 0.74820  0.21830  0.67550  Biso   1.000  C  0.646749
  C111     1.0000 0.72760  0.18190  0.61590  Biso   1.000  C  -0.073413
  C112     1.0000 0.68940  0.18458  0.57618  Biso   1.000  C  0.059315
  C113     1.0000 0.66710  0.21845  0.58895  Biso   1.000  C  -0.141815
  C114     1.0000 0.81584  0.29190  0.90214  Biso   1.000  C  0.566745
  C115     1.0000 0.81867  0.29303  0.95098  Biso   1.000  C  -0.058633
  C116     1.0000 0.77820  0.25420  0.94978  Biso   1.000  C  0.051908
  C117     1.0000 0.73121  0.20732  0.90091  Biso   1.000  C  -0.129625
  C118     1.0000 0.63370  0.94990  0.28040  Biso   1.000  C  0.010099
  C119     1.0000 0.54280  0.07270  0.32450  Biso   1.000  C  0.646696
  C120     1.0000 0.56600  0.11170  0.38410  Biso   1.000  C  -0.073328
  C121     1.0000 0.60840  0.11322  0.42382  Biso   1.000  C  0.059288
  C122     1.0000 0.62950  0.07815  0.41105  Biso   1.000  C  -0.141901
  C123     1.0000 0.38976  0.91370  0.09786  Biso   1.000  C  0.566759
  C124     1.0000 0.34205  0.86769  0.04902  Biso   1.000  C  -0.058703
  C125     1.0000 0.30442  0.82842  0.05022  Biso   1.000  C  0.051976
  C126     1.0000 0.30641  0.83030  0.09909  Biso   1.000  C  -0.129633
  C127     1.0000 0.33050  0.05010  0.68380  Biso   1.000  C  0.010182
  C128     1.0000 0.25180  0.92730  0.47010  Biso   1.000  C  0.646751
  C129     1.0000 0.27240  0.88830  0.45430  Biso   1.000  C  -0.073392
  C130     1.0000 0.31060  0.88678  0.49518  Biso   1.000  C  0.059296
  C131     1.0000 0.33290  0.92185  0.55135  Biso   1.000  C  -0.141913
  C132     1.0000 0.18416  0.08630  0.47606  Biso   1.000  C  0.566773
  C133     1.0000 0.18133  0.13231  0.47436  Biso   1.000  C  -0.058679
  C134     1.0000 0.22180  0.17158  0.47600  Biso   1.000  C  0.051951
  C135     1.0000 0.26879  0.16970  0.47611  Biso   1.000  C  -0.129597
  C136     1.0000 0.36630  0.64670  0.31620  Biso   1.000  C  0.010114
  C137     1.0000 0.45720  0.78170  0.52990  Biso   1.000  C  0.646734
  C138     1.0000 0.43400  0.81810  0.54570  Biso   1.000  C  -0.073379
  C139     1.0000 0.39160  0.81542  0.50482  Biso   1.000  C  0.059319
  C140     1.0000 0.37050  0.78155  0.44865  Biso   1.000  C  -0.141996
  C141     1.0000 0.61024  0.70810  0.52394  Biso   1.000  C  0.566782
  C142     1.0000 0.65795  0.70697  0.52564  Biso   1.000  C  -0.058650
  C143     1.0000 0.69558  0.74580  0.52400  Biso   1.000  C  0.051892
  C144     1.0000 0.69359  0.79268  0.52389  Biso   1.000  C  -0.129612
  C145     1.0000 0.05010  0.68380  0.33050  Biso   1.000  C  0.010182
  C146     1.0000 0.92730  0.47010  0.25180  Biso   1.000  C  0.646751
  C147     1.0000 0.88830  0.45430  0.27240  Biso   1.000  C  -0.073392
  C148     1.0000 0.88678  0.49518  0.31060  Biso   1.000  C  0.059296
  C149     1.0000 0.92185  0.55135  0.33290  Biso   1.000  C  -0.141913
  C150     1.0000 0.08630  0.47606  0.18416  Biso   1.000  C  0.566773
  C151     1.0000 0.13231  0.47436  0.18133  Biso   1.000  C  -0.058679
  C152     1.0000 0.17158  0.47600  0.22180  Biso   1.000  C  0.051951
  C153     1.0000 0.16970  0.47611  0.26879  Biso   1.000  C  -0.129597
  C154     1.0000 0.64670  0.31620  0.36630  Biso   1.000  C  0.010114
  C155     1.0000 0.78170  0.52990  0.45720  Biso   1.000  C  0.646734
  C156     1.0000 0.81810  0.54570  0.43400  Biso   1.000  C  -0.073379
  C157     1.0000 0.81542  0.50482  0.39160  Biso   1.000  C  0.059319
  C158     1.0000 0.78155  0.44865  0.37050  Biso   1.000  C  -0.141996
  C159     1.0000 0.70810  0.52394  0.61024  Biso   1.000  C  0.566782
  C160     1.0000 0.70697  0.52564  0.65795  Biso   1.000  C  -0.058650
  C161     1.0000 0.74580  0.52400  0.69558  Biso   1.000  C  0.051892
  C162     1.0000 0.79268  0.52389  0.69359  Biso   1.000  C  -0.129612
  C163     1.0000 0.35330  0.71960  0.66950  Biso   1.000  C  0.010146
  C164     1.0000 0.21830  0.67550  0.74820  Biso   1.000  C  0.646750
  C165     1.0000 0.18190  0.61590  0.72760  Biso   1.000  C  -0.073414
  C166     1.0000 0.18458  0.57618  0.68940  Biso   1.000  C  0.059315
  C167     1.0000 0.21845  0.58895  0.66710  Biso   1.000  C  -0.141815
  C168     1.0000 0.29190  0.90214  0.81584  Biso   1.000  C  0.566745
  C169     1.0000 0.29303  0.95098  0.81867  Biso   1.000  C  -0.058633
  C170     1.0000 0.25420  0.94978  0.77820  Biso   1.000  C  0.051908
  C171     1.0000 0.20732  0.90091  0.73121  Biso   1.000  C  -0.129625
  C172     1.0000 0.94990  0.28040  0.63370  Biso   1.000  C  0.010099
  C173     1.0000 0.07270  0.32450  0.54280  Biso   1.000  C  0.646696
  C174     1.0000 0.11170  0.38410  0.56600  Biso   1.000  C  -0.073328
  C175     1.0000 0.11322  0.42382  0.60840  Biso   1.000  C  0.059288
  C176     1.0000 0.07815  0.41105  0.62950  Biso   1.000  C  -0.141901
  C177     1.0000 0.91370  0.09786  0.38976  Biso   1.000  C  0.566759
  C178     1.0000 0.86769  0.04902  0.34205  Biso   1.000  C  -0.058703
  C179     1.0000 0.82842  0.05022  0.30442  Biso   1.000  C  0.051976
  C180     1.0000 0.83030  0.09909  0.30641  Biso   1.000  C  -0.129633
  C181     1.0000 0.28040  0.63370  0.94990  Biso   1.000  C  0.010099
  C182     1.0000 0.32450  0.54280  0.07270  Biso   1.000  C  0.646696
  C183     1.0000 0.38410  0.56600  0.11170  Biso   1.000  C  -0.073328
  C184     1.0000 0.42382  0.60840  0.11322  Biso   1.000  C  0.059288
  C185     1.0000 0.41105  0.62950  0.07815  Biso   1.000  C  -0.141901
  C186     1.0000 0.09786  0.38976  0.91370  Biso   1.000  C  0.566759
  C187     1.0000 0.04902  0.34205  0.86769  Biso   1.000  C  -0.058703
  C188     1.0000 0.05022  0.30442  0.82842  Biso   1.000  C  0.051976
  C189     1.0000 0.09909  0.30641  0.83030  Biso   1.000  C  -0.129633
  C190     1.0000 0.71960  0.66950  0.35330  Biso   1.000  C  0.010146
  C191     1.0000 0.67550  0.74820  0.21830  Biso   1.000  C  0.646750
  C192     1.0000 0.61590  0.72760  0.18190  Biso   1.000  C  -0.073413
  C193     1.0000 0.57618  0.68940  0.18458  Biso   1.000  C  0.059314
  C194     1.0000 0.58895  0.66710  0.21845  Biso   1.000  C  -0.141815
  C195     1.0000 0.90214  0.81584  0.29190  Biso   1.000  C  0.566745
  C196     1.0000 0.95098  0.81867  0.29303  Biso   1.000  C  -0.058633
  C197     1.0000 0.94978  0.77820  0.25420  Biso   1.000  C  0.051908
  C198     1.0000 0.90091  0.73121  0.20732  Biso   1.000  C  -0.129625
  C199     1.0000 0.31620  0.36630  0.64670  Biso   1.000  C  0.010114
  C200     1.0000 0.52990  0.45720  0.78170  Biso   1.000  C  0.646734
  C201     1.0000 0.54570  0.43400  0.81810  Biso   1.000  C  -0.073379
  C202     1.0000 0.50482  0.39160  0.81542  Biso   1.000  C  0.059319
  C203     1.0000 0.44865  0.37050  0.78155  Biso   1.000  C  -0.141996
  C204     1.0000 0.52394  0.61024  0.70810  Biso   1.000  C  0.566782
  C205     1.0000 0.52564  0.65795  0.70697  Biso   1.000  C  -0.058650
  C206     1.0000 0.52400  0.69558  0.74580  Biso   1.000  C  0.051892
  C207     1.0000 0.52389  0.69359  0.79268  Biso   1.000  C  -0.129612
  C208     1.0000 0.68380  0.33050  0.05010  Biso   1.000  C  0.010182
  C209     1.0000 0.47010  0.25180  0.92730  Biso   1.000  C  0.646751
  C210     1.0000 0.45430  0.27240  0.88830  Biso   1.000  C  -0.073392
  C211     1.0000 0.49518  0.31060  0.88678  Biso   1.000  C  0.059295
  C212     1.0000 0.55135  0.33290  0.92185  Biso   1.000  C  -0.141913
  C213     1.0000 0.47606  0.18416  0.08630  Biso   1.000  C  0.566773
  C214     1.0000 0.47436  0.18133  0.13231  Biso   1.000  C  -0.058679
  C215     1.0000 0.47600  0.22180  0.17158  Biso   1.000  C  0.051951
  C216     1.0000 0.47611  0.26879  0.16970  Biso   1.000  C  -0.129597
  C217     1.0000 0.35330  0.66950  0.71960  Biso   1.000  C  0.010288
  C218     1.0000 0.21830  0.74820  0.67550  Biso   1.000  C  0.646749
  C219     1.0000 0.18190  0.72760  0.61590  Biso   1.000  C  -0.073414
  C220     1.0000 0.18458  0.68940  0.57618  Biso   1.000  C  0.059308
  C221     1.0000 0.21845  0.66710  0.58895  Biso   1.000  C  -0.141755
  C222     1.0000 0.29190  0.81584  0.90214  Biso   1.000  C  0.566744
  C223     1.0000 0.29303  0.81867  0.95098  Biso   1.000  C  -0.058633
  C224     1.0000 0.25420  0.77820  0.94978  Biso   1.000  C  0.051902
  C225     1.0000 0.20732  0.73121  0.90091  Biso   1.000  C  -0.129569
  C226     1.0000 0.94990  0.63370  0.28040  Biso   1.000  C  0.010242
  C227     1.0000 0.07270  0.54280  0.32450  Biso   1.000  C  0.646696
  C228     1.0000 0.11170  0.56600  0.38410  Biso   1.000  C  -0.073328
  C229     1.0000 0.11322  0.60840  0.42382  Biso   1.000  C  0.059281
  C230     1.0000 0.07815  0.62950  0.41105  Biso   1.000  C  -0.141841
  C231     1.0000 0.91370  0.38976  0.09786  Biso   1.000  C  0.566758
  C232     1.0000 0.86769  0.34205  0.04902  Biso   1.000  C  -0.058704
  C233     1.0000 0.82842  0.30442  0.05022  Biso   1.000  C  0.051970
  C234     1.0000 0.83030  0.30641  0.09909  Biso   1.000  C  -0.129577
  C235     1.0000 0.05010  0.33050  0.68380  Biso   1.000  C  0.010325
  C236     1.0000 0.92730  0.25180  0.47010  Biso   1.000  C  0.646751
  C237     1.0000 0.88830  0.27240  0.45430  Biso   1.000  C  -0.073393
  C238     1.0000 0.88678  0.31060  0.49518  Biso   1.000  C  0.059289
  C239     1.0000 0.92185  0.33290  0.55135  Biso   1.000  C  -0.141854
  C240     1.0000 0.08630  0.18416  0.47606  Biso   1.000  C  0.566772
  C241     1.0000 0.13231  0.18133  0.47436  Biso   1.000  C  -0.058679
  C242     1.0000 0.17158  0.22180  0.47600  Biso   1.000  C  0.051945
  C243     1.0000 0.16970  0.26879  0.47611  Biso   1.000  C  -0.129540
  C244     1.0000 0.64670  0.36630  0.31620  Biso   1.000  C  0.010257
  C245     1.0000 0.78170  0.45720  0.52990  Biso   1.000  C  0.646733
  C246     1.0000 0.81810  0.43400  0.54570  Biso   1.000  C  -0.073379
  C247     1.0000 0.81542  0.39160  0.50482  Biso   1.000  C  0.059312
  C248     1.0000 0.78155  0.37050  0.44865  Biso   1.000  C  -0.141936
  C249     1.0000 0.70810  0.61024  0.52394  Biso   1.000  C  0.566781
  C250     1.0000 0.70697  0.65795  0.52564  Biso   1.000  C  -0.058650
  C251     1.0000 0.74580  0.69558  0.52400  Biso   1.000  C  0.051886
  C252     1.0000 0.79268  0.69359  0.52389  Biso   1.000  C  -0.129556
  C253     1.0000 0.68380  0.05010  0.33050  Biso   1.000  C  0.010325
  C254     1.0000 0.47010  0.92730  0.25180  Biso   1.000  C  0.646751
  C255     1.0000 0.45430  0.88830  0.27240  Biso   1.000  C  -0.073393
  C256     1.0000 0.49518  0.88678  0.31060  Biso   1.000  C  0.059289
  C257     1.0000 0.55135  0.92185  0.33290  Biso   1.000  C  -0.141854
  C258     1.0000 0.47606  0.08630  0.18416  Biso   1.000  C  0.566772
  C259     1.0000 0.47436  0.13231  0.18133  Biso   1.000  C  -0.058679
  C260     1.0000 0.47600  0.17158  0.22180  Biso   1.000  C  0.051945
  C261     1.0000 0.47611  0.16970  0.26879  Biso   1.000  C  -0.129540
  C262     1.0000 0.31620  0.64670  0.36630  Biso   1.000  C  0.010257
  C263     1.0000 0.52990  0.78170  0.45720  Biso   1.000  C  0.646733
  C264     1.0000 0.54570  0.81810  0.43400  Biso   1.000  C  -0.073379
  C265     1.0000 0.50482  0.81542  0.39160  Biso   1.000  C  0.059312
  C266     1.0000 0.44865  0.78155  0.37050  Biso   1.000  C  -0.141936
  C267     1.0000 0.52394  0.70810  0.61024  Biso   1.000  C  0.566781
  C268     1.0000 0.52564  0.70697  0.65795  Biso   1.000  C  -0.058650
  C269     1.0000 0.52400  0.74580  0.69558  Biso   1.000  C  0.051886
  C270     1.0000 0.52389  0.79268  0.69359  Biso   1.000  C  -0.129556
  C271     1.0000 0.71960  0.35330  0.66950  Biso   1.000  C  0.010288
  C272     1.0000 0.67550  0.21830  0.74820  Biso   1.000  C  0.646748
  C273     1.0000 0.61590  0.18190  0.72760  Biso   1.000  C  -0.073413
  C274     1.0000 0.57618  0.18458  0.68940  Biso   1.000  C  0.059308
  C275     1.0000 0.58895  0.21845  0.66710  Biso   1.000  C  -0.141755
  C276     1.0000 0.90214  0.29190  0.81584  Biso   1.000  C  0.566745
  C277     1.0000 0.95098  0.29303  0.81867  Biso   1.000  C  -0.058634
  C278     1.0000 0.94978  0.25420  0.77820  Biso   1.000  C  0.051902
  C279     1.0000 0.90091  0.20732  0.73121  Biso   1.000  C  -0.129569
  C280     1.0000 0.28040  0.94990  0.63370  Biso   1.000  C  0.010242
  C281     1.0000 0.32450  0.07270  0.54280  Biso   1.000  C  0.646696
  C282     1.0000 0.38410  0.11170  0.56600  Biso   1.000  C  -0.073328
  C283     1.0000 0.42382  0.11322  0.60840  Biso   1.000  C  0.059282
  C284     1.0000 0.41105  0.07815  0.62950  Biso   1.000  C  -0.141841
  C285     1.0000 0.09786  0.91370  0.38976  Biso   1.000  C  0.566758
  C286     1.0000 0.04902  0.86769  0.34205  Biso   1.000  C  -0.058704
  C287     1.0000 0.05022  0.82842  0.30442  Biso   1.000  C  0.051970
  C288     1.0000 0.09909  0.83030  0.30641  Biso   1.000  C  -0.129577
  C289     1.0000 0.63370  0.28040  0.94990  Biso   1.000  C  0.010242
  C290     1.0000 0.54280  0.32450  0.07270  Biso   1.000  C  0.646696
  C291     1.0000 0.56600  0.38410  0.11170  Biso   1.000  C  -0.073328
  C292     1.0000 0.60840  0.42382  0.11322  Biso   1.000  C  0.059282
  C293     1.0000 0.62950  0.41105  0.07815  Biso   1.000  C  -0.141841
  C294     1.0000 0.38976  0.09786  0.91370  Biso   1.000  C  0.566759
  C295     1.0000 0.34205  0.04902  0.86769  Biso   1.000  C  -0.058704
  C296     1.0000 0.30442  0.05022  0.82842  Biso   1.000  C  0.051970
  C297     1.0000 0.30641  0.09909  0.83030  Biso   1.000  C  -0.129577
  C298     1.0000 0.66950  0.71960  0.35330  Biso   1.000  C  0.010288
  C299     1.0000 0.74820  0.67550  0.21830  Biso   1.000  C  0.646749
  C300     1.0000 0.72760  0.61590  0.18190  Biso   1.000  C  -0.073414
  C301     1.0000 0.68940  0.57618  0.18458  Biso   1.000  C  0.059307
  C302     1.0000 0.66710  0.58895  0.21845  Biso   1.000  C  -0.141755
  C303     1.0000 0.81584  0.90214  0.29190  Biso   1.000  C  0.566744
  C304     1.0000 0.81867  0.95098  0.29303  Biso   1.000  C  -0.058634
  C305     1.0000 0.77820  0.94978  0.25420  Biso   1.000  C  0.051902
  C306     1.0000 0.73121  0.90091  0.20732  Biso   1.000  C  -0.129569
  C307     1.0000 0.36630  0.31620  0.64670  Biso   1.000  C  0.010257
  C308     1.0000 0.45720  0.52990  0.78170  Biso   1.000  C  0.646733
  C309     1.0000 0.43400  0.54570  0.81810  Biso   1.000  C  -0.073379
  C310     1.0000 0.39160  0.50482  0.81542  Biso   1.000  C  0.059312
  C311     1.0000 0.37050  0.44865  0.78155  Biso   1.000  C  -0.141936
  C312     1.0000 0.61024  0.52394  0.70810  Biso   1.000  C  0.566781
  C313     1.0000 0.65795  0.52564  0.70697  Biso   1.000  C  -0.058650
  C314     1.0000 0.69558  0.52400  0.74580  Biso   1.000  C  0.051886
  C315     1.0000 0.69359  0.52389  0.79268  Biso   1.000  C  -0.129556
  C316     1.0000 0.33050  0.68380  0.05010  Biso   1.000  C  0.010325
  C317     1.0000 0.25180  0.47010  0.92730  Biso   1.000  C  0.646751
  C318     1.0000 0.27240  0.45430  0.88830  Biso   1.000  C  -0.073393
  C319     1.0000 0.31060  0.49518  0.88678  Biso   1.000  C  0.059289
  C320     1.0000 0.33290  0.55135  0.92185  Biso   1.000  C  -0.141854
  C321     1.0000 0.18416  0.47606  0.08630  Biso   1.000  C  0.566772
  C322     1.0000 0.18133  0.47436  0.13231  Biso   1.000  C  -0.058679
  C323     1.0000 0.22180  0.47600  0.17158  Biso   1.000  C  0.051945
  C324     1.0000 0.26879  0.47611  0.16970  Biso   1.000  C  -0.129540
  C325     1.0000 0.33050  0.64670  0.28040  Biso   1.000  C  0.010288
  C326     1.0000 0.25180  0.78170  0.32450  Biso   1.000  C  0.646748
  C327     1.0000 0.27240  0.81810  0.38410  Biso   1.000  C  -0.073413
  C328     1.0000 0.31060  0.81542  0.42382  Biso   1.000  C  0.059308
  C329     1.0000 0.33290  0.78155  0.41105  Biso   1.000  C  -0.141755
  C330     1.0000 0.18416  0.70810  0.09786  Biso   1.000  C  0.566745
  C331     1.0000 0.18133  0.70697  0.04902  Biso   1.000  C  -0.058633
  C332     1.0000 0.22180  0.74580  0.05022  Biso   1.000  C  0.051902
  C333     1.0000 0.26879  0.79268  0.09909  Biso   1.000  C  -0.129569
  C334     1.0000 0.36630  0.05010  0.71960  Biso   1.000  C  0.010242
  C335     1.0000 0.45720  0.92730  0.67550  Biso   1.000  C  0.646696
  C336     1.0000 0.43400  0.88830  0.61590  Biso   1.000  C  -0.073328
  C337     1.0000 0.39160  0.88678  0.57618  Biso   1.000  C  0.059282
  C338     1.0000 0.37050  0.92185  0.58895  Biso   1.000  C  -0.141841
  C339     1.0000 0.61024  0.08630  0.90214  Biso   1.000  C  0.566758
  C340     1.0000 0.65795  0.13231  0.95098  Biso   1.000  C  -0.058704
  C341     1.0000 0.69558  0.17158  0.94978  Biso   1.000  C  0.051970
  C342     1.0000 0.69359  0.16970  0.90091  Biso   1.000  C  -0.129577
  C343     1.0000 0.66950  0.94990  0.31620  Biso   1.000  C  0.010325
  C344     1.0000 0.74820  0.07270  0.52990  Biso   1.000  C  0.646751
  C345     1.0000 0.72760  0.11170  0.54570  Biso   1.000  C  -0.073392
  C346     1.0000 0.68940  0.11322  0.50482  Biso   1.000  C  0.059289
  C347     1.0000 0.66710  0.07815  0.44865  Biso   1.000  C  -0.141854
  C348     1.0000 0.81584  0.91370  0.52394  Biso   1.000  C  0.566772
  C349     1.0000 0.81867  0.86769  0.52564  Biso   1.000  C  -0.058679
  C350     1.0000 0.77820  0.82842  0.52400  Biso   1.000  C  0.051944
  C351     1.0000 0.73121  0.83030  0.52389  Biso   1.000  C  -0.129540
  C352     1.0000 0.63370  0.35330  0.68380  Biso   1.000  C  0.010257
  C353     1.0000 0.54280  0.21830  0.47010  Biso   1.000  C  0.646733
  C354     1.0000 0.56600  0.18190  0.45430  Biso   1.000  C  -0.073379
  C355     1.0000 0.60840  0.18458  0.49518  Biso   1.000  C  0.059312
  C356     1.0000 0.62950  0.21845  0.55135  Biso   1.000  C  -0.141936
  C357     1.0000 0.38976  0.29190  0.47606  Biso   1.000  C  0.566781
  C358     1.0000 0.34205  0.29303  0.47436  Biso   1.000  C  -0.058650
  C359     1.0000 0.30442  0.25420  0.47600  Biso   1.000  C  0.051886
  C360     1.0000 0.30641  0.20732  0.47611  Biso   1.000  C  -0.129556
  C361     1.0000 0.94990  0.31620  0.66950  Biso   1.000  C  0.010325
  C362     1.0000 0.07270  0.52990  0.74820  Biso   1.000  C  0.646751
  C363     1.0000 0.11170  0.54570  0.72760  Biso   1.000  C  -0.073392
  C364     1.0000 0.11322  0.50482  0.68940  Biso   1.000  C  0.059289
  C365     1.0000 0.07815  0.44865  0.66710  Biso   1.000  C  -0.141854
  C366     1.0000 0.91370  0.52394  0.81584  Biso   1.000  C  0.566772
  C367     1.0000 0.86769  0.52564  0.81867  Biso   1.000  C  -0.058679
  C368     1.0000 0.82842  0.52400  0.77820  Biso   1.000  C  0.051945
  C369     1.0000 0.83030  0.52389  0.73121  Biso   1.000  C  -0.129540
  C370     1.0000 0.35330  0.68380  0.63370  Biso   1.000  C  0.010257
  C371     1.0000 0.21830  0.47010  0.54280  Biso   1.000  C  0.646733
  C372     1.0000 0.18190  0.45430  0.56600  Biso   1.000  C  -0.073379
  C373     1.0000 0.18458  0.49518  0.60840  Biso   1.000  C  0.059312
  C374     1.0000 0.21845  0.55135  0.62950  Biso   1.000  C  -0.141936
  C375     1.0000 0.29190  0.47606  0.38976  Biso   1.000  C  0.566781
  C376     1.0000 0.29303  0.47436  0.34205  Biso   1.000  C  -0.058650
  C377     1.0000 0.25420  0.47600  0.30442  Biso   1.000  C  0.051886
  C378     1.0000 0.20732  0.47611  0.30641  Biso   1.000  C  -0.129556
  C379     1.0000 0.64670  0.28040  0.33050  Biso   1.000  C  0.010288
  C380     1.0000 0.78170  0.32450  0.25180  Biso   1.000  C  0.646749
  C381     1.0000 0.81810  0.38410  0.27240  Biso   1.000  C  -0.073414
  C382     1.0000 0.81542  0.42382  0.31060  Biso   1.000  C  0.059308
  C383     1.0000 0.78155  0.41105  0.33290  Biso   1.000  C  -0.141755
  C384     1.0000 0.70810  0.09786  0.18416  Biso   1.000  C  0.566744
  C385     1.0000 0.70697  0.04902  0.18133  Biso   1.000  C  -0.058633
  C386     1.0000 0.74580  0.05022  0.22180  Biso   1.000  C  0.051902
  C387     1.0000 0.79268  0.09909  0.26879  Biso   1.000  C  -0.129569
  C388     1.0000 0.05010  0.71960  0.36630  Biso   1.000  C  0.010242
  C389     1.0000 0.92730  0.67550  0.45720  Biso   1.000  C  0.646696
  C390     1.0000 0.88830  0.61590  0.43400  Biso   1.000  C  -0.073328
  C391     1.0000 0.88678  0.57618  0.39160  Biso   1.000  C  0.059282
  C392     1.0000 0.92185  0.58895  0.37050  Biso   1.000  C  -0.141841
  C393     1.0000 0.08630  0.90214  0.61024  Biso   1.000  C  0.566758
  C394     1.0000 0.13231  0.95098  0.65795  Biso   1.000  C  -0.058704
  C395     1.0000 0.17158  0.94978  0.69558  Biso   1.000  C  0.051970
  C396     1.0000 0.16970  0.90091  0.69359  Biso   1.000  C  -0.129577
  C397     1.0000 0.71960  0.36630  0.05010  Biso   1.000  C  0.010242
  C398     1.0000 0.67550  0.45720  0.92730  Biso   1.000  C  0.646696
  C399     1.0000 0.61590  0.43400  0.88830  Biso   1.000  C  -0.073328
  C400     1.0000 0.57618  0.39160  0.88678  Biso   1.000  C  0.059282
  C401     1.0000 0.58895  0.37050  0.92185  Biso   1.000  C  -0.141841
  C402     1.0000 0.90214  0.61024  0.08630  Biso   1.000  C  0.566758
  C403     1.0000 0.95098  0.65795  0.13231  Biso   1.000  C  -0.058704
  C404     1.0000 0.94978  0.69558  0.17158  Biso   1.000  C  0.051970
  C405     1.0000 0.90091  0.69359  0.16970  Biso   1.000  C  -0.129577
  C406     1.0000 0.28040  0.33050  0.64670  Biso   1.000  C  0.010288
  C407     1.0000 0.32450  0.25180  0.78170  Biso   1.000  C  0.646749
  C408     1.0000 0.38410  0.27240  0.81810  Biso   1.000  C  -0.073414
  C409     1.0000 0.42382  0.31060  0.81542  Biso   1.000  C  0.059307
  C410     1.0000 0.41105  0.33290  0.78155  Biso   1.000  C  -0.141755
  C411     1.0000 0.09786  0.18416  0.70810  Biso   1.000  C  0.566744
  C412     1.0000 0.04902  0.18133  0.70697  Biso   1.000  C  -0.058633
  C413     1.0000 0.05022  0.22180  0.74580  Biso   1.000  C  0.051902
  C414     1.0000 0.09909  0.26879  0.79268  Biso   1.000  C  -0.129569
  C415     1.0000 0.68380  0.63370  0.35330  Biso   1.000  C  0.010257
  C416     1.0000 0.47010  0.54280  0.21830  Biso   1.000  C  0.646733
  C417     1.0000 0.45430  0.56600  0.18190  Biso   1.000  C  -0.073379
  C418     1.0000 0.49518  0.60840  0.18458  Biso   1.000  C  0.059312
  C419     1.0000 0.55135  0.62950  0.21845  Biso   1.000  C  -0.141936
  C420     1.0000 0.47606  0.38976  0.29190  Biso   1.000  C  0.566781
  C421     1.0000 0.47436  0.34205  0.29303  Biso   1.000  C  -0.058650
  C422     1.0000 0.47600  0.30442  0.25420  Biso   1.000  C  0.051886
  C423     1.0000 0.47611  0.30641  0.20732  Biso   1.000  C  -0.129556
  C424     1.0000 0.31620  0.66950  0.94990  Biso   1.000  C  0.010325
  C425     1.0000 0.52990  0.74820  0.07270  Biso   1.000  C  0.646751
  C426     1.0000 0.54570  0.72760  0.11170  Biso   1.000  C  -0.073392
  C427     1.0000 0.50482  0.68940  0.11322  Biso   1.000  C  0.059289
  C428     1.0000 0.44865  0.66710  0.07815  Biso   1.000  C  -0.141854
  C429     1.0000 0.52394  0.81584  0.91370  Biso   1.000  C  0.566772
  C430     1.0000 0.52564  0.81867  0.86769  Biso   1.000  C  -0.058679
  C431     1.0000 0.52400  0.77820  0.82842  Biso   1.000  C  0.051945
  C432     1.0000 0.52389  0.73121  0.83030  Biso   1.000  C  -0.129540
  C433     1.0000 0.85440  0.25450  0.40010  Biso   1.000  C  -0.122836
  C434     1.0000 0.85140  0.33160  0.48020  Biso   1.000  C  -0.003818
  C435     1.0000 0.85440  0.45430  0.59990  Biso   1.000  C  -0.122820
  C436     1.0000 0.85140  0.37120  0.51980  Biso   1.000  C  -0.003812
  C437     1.0000 0.14560  0.74550  0.59990  Biso   1.000  C  -0.122836
  C438     1.0000 0.14860  0.66840  0.51980  Biso   1.000  C  -0.003818
  C439     1.0000 0.14560  0.54570  0.40010  Biso   1.000  C  -0.122820
  C440     1.0000 0.14860  0.62880  0.48020  Biso   1.000  C  -0.003812
  C441     1.0000 0.59990  0.14560  0.74550  Biso   1.000  C  -0.122836
  C442     1.0000 0.51980  0.14860  0.66840  Biso   1.000  C  -0.003818
  C443     1.0000 0.40010  0.14560  0.54570  Biso   1.000  C  -0.122820
  C444     1.0000 0.48020  0.14860  0.62880  Biso   1.000  C  -0.003812
  C445     1.0000 0.40010  0.85440  0.25450  Biso   1.000  C  -0.122836
  C446     1.0000 0.48020  0.85140  0.33160  Biso   1.000  C  -0.003818
  C447     1.0000 0.59990  0.85440  0.45430  Biso   1.000  C  -0.122820
  C448     1.0000 0.51980  0.85140  0.37120  Biso   1.000  C  -0.003812
  C449     1.0000 0.45430  0.59990  0.85440  Biso   1.000  C  -0.122820
  C450     1.0000 0.37120  0.51980  0.85140  Biso   1.000  C  -0.003815
  C451     1.0000 0.25450  0.40010  0.85440  Biso   1.000  C  -0.122836
  C452     1.0000 0.33160  0.48020  0.85140  Biso   1.000  C  -0.003814
  C453     1.0000 0.54570  0.40010  0.14560  Biso   1.000  C  -0.122820
  C454     1.0000 0.62880  0.48020  0.14860  Biso   1.000  C  -0.003815
  C455     1.0000 0.74550  0.59990  0.14560  Biso   1.000  C  -0.122836
  C456     1.0000 0.66840  0.51980  0.14860  Biso   1.000  C  -0.003814
  C457     1.0000 0.74550  0.14560  0.59990  Biso   1.000  C  -0.122836
  C458     1.0000 0.66840  0.14860  0.51980  Biso   1.000  C  -0.003818
  C459     1.0000 0.54570  0.14560  0.40010  Biso   1.000  C  -0.122820
  C460     1.0000 0.62880  0.14860  0.48020  Biso   1.000  C  -0.003812
  C461     1.0000 0.25450  0.85440  0.40010  Biso   1.000  C  -0.122836
  C462     1.0000 0.33160  0.85140  0.48020  Biso   1.000  C  -0.003818
  C463     1.0000 0.45430  0.85440  0.59990  Biso   1.000  C  -0.122820
  C464     1.0000 0.37120  0.85140  0.51980  Biso   1.000  C  -0.003812
  C465     1.0000 0.85440  0.40010  0.25450  Biso   1.000  C  -0.122837
  C466     1.0000 0.85140  0.48020  0.33160  Biso   1.000  C  -0.003818
  C467     1.0000 0.85440  0.59990  0.45430  Biso   1.000  C  -0.122820
  C468     1.0000 0.85140  0.51980  0.37120  Biso   1.000  C  -0.003812
  C469     1.0000 0.14560  0.59990  0.74550  Biso   1.000  C  -0.122837
  C470     1.0000 0.14860  0.51980  0.66840  Biso   1.000  C  -0.003818
  C471     1.0000 0.14560  0.40010  0.54570  Biso   1.000  C  -0.122820
  C472     1.0000 0.14860  0.48020  0.62880  Biso   1.000  C  -0.003812
  C473     1.0000 0.40010  0.54570  0.14560  Biso   1.000  C  -0.122820
  C474     1.0000 0.48020  0.62880  0.14860  Biso   1.000  C  -0.003816
  C475     1.0000 0.59990  0.74550  0.14560  Biso   1.000  C  -0.122836
  C476     1.0000 0.51980  0.66840  0.14860  Biso   1.000  C  -0.003815
  C477     1.0000 0.59990  0.45430  0.85440  Biso   1.000  C  -0.122820
  C478     1.0000 0.51980  0.37120  0.85140  Biso   1.000  C  -0.003816
  C479     1.0000 0.40010  0.25450  0.85440  Biso   1.000  C  -0.122836
  C480     1.0000 0.48020  0.33160  0.85140  Biso   1.000  C  -0.003815
  C481     1.0000 0.74256  0.21566  0.00000  Biso   1.000  C  -0.025823
  C482     1.0000 0.66160  0.13900  0.00000  Biso   1.000  C  -0.125190
  C483     1.0000 0.21566  0.74256  0.00000  Biso   1.000  C  -0.025823
  C484     1.0000 0.13900  0.66160  0.00000  Biso   1.000  C  -0.125190
  C485     1.0000 0.78434  0.78434  0.52690  Biso   1.000  C  -0.025856
  C486     1.0000 0.86100  0.86100  0.52260  Biso   1.000  C  -0.125179
  C487     1.0000 0.25744  0.25744  0.47310  Biso   1.000  C  -0.025781
  C488     1.0000 0.33840  0.33840  0.47740  Biso   1.000  C  -0.125187
  C489     1.0000 0.52690  0.78434  0.78434  Biso   1.000  C  -0.025856
  C490     1.0000 0.52260  0.86100  0.86100  Biso   1.000  C  -0.125179
  C491     1.0000 0.47310  0.25744  0.25744  Biso   1.000  C  -0.025781
  C492     1.0000 0.47740  0.33840  0.33840  Biso   1.000  C  -0.125187
  C493     1.0000 1.00000  0.74256  0.21566  Biso   1.000  C  -0.025823
  C494     1.0000 0.00000  0.66160  0.13900  Biso   1.000  C  -0.125190
  C495     1.0000 0.00000  0.21566  0.74256  Biso   1.000  C  -0.025823
  C496     1.0000 0.00000  0.13900  0.66160  Biso   1.000  C  -0.125190
  C497     1.0000 0.74256  1.00000  0.21566  Biso   1.000  C  -0.025823
  C498     1.0000 0.66160  1.00000  0.13900  Biso   1.000  C  -0.125190
  C499     1.0000 0.21566  1.00000  0.74256  Biso   1.000  C  -0.025823
  C500     1.0000 0.13900  0.00000  0.66160  Biso   1.000  C  -0.125190
  C501     1.0000 0.25744  0.47310  0.25744  Biso   1.000  C  -0.025781
  C502     1.0000 0.33840  0.47740  0.33840  Biso   1.000  C  -0.125187
  C503     1.0000 0.78434  0.52690  0.78434  Biso   1.000  C  -0.025856
  C504     1.0000 0.86100  0.52260  0.86100  Biso   1.000  C  -0.125179
  C505     1.0000 0.78434  0.25744  0.00000  Biso   1.000  C  -0.025824
  C506     1.0000 0.86100  0.33840  0.00000  Biso   1.000  C  -0.125189
  C507     1.0000 0.25744  0.78434  0.00000  Biso   1.000  C  -0.025824
  C508     1.0000 0.33840  0.86100  0.00000  Biso   1.000  C  -0.125189
  C509     1.0000 0.21566  0.21566  0.47310  Biso   1.000  C  -0.025857
  C510     1.0000 0.13900  0.13900  0.47740  Biso   1.000  C  -0.125179
  C511     1.0000 0.74256  0.74256  0.52690  Biso   1.000  C  -0.025781
  C512     1.0000 0.66160  0.66160  0.52260  Biso   1.000  C  -0.125187
  C513     1.0000 0.21566  0.47310  0.21566  Biso   1.000  C  -0.025857
  C514     1.0000 0.13900  0.47740  0.13900  Biso   1.000  C  -0.125179
  C515     1.0000 0.74256  0.52690  0.74256  Biso   1.000  C  -0.025781
  C516     1.0000 0.66160  0.52260  0.66160  Biso   1.000  C  -0.125187
  C517     1.0000 0.25744  0.00000  0.78434  Biso   1.000  C  -0.025824
  C518     1.0000 0.33840  0.00000  0.86100  Biso   1.000  C  -0.125190
  C519     1.0000 0.78434  0.00000  0.25744  Biso   1.000  C  -0.025824
  C520     1.0000 0.86100  1.00000  0.33840  Biso   1.000  C  -0.125189
  C521     1.0000 0.00000  0.25744  0.78434  Biso   1.000  C  -0.025824
  C522     1.0000 1.00000  0.33840  0.86100  Biso   1.000  C  -0.125190
  C523     1.0000 1.00000  0.78434  0.25744  Biso   1.000  C  -0.025824
  C524     1.0000 1.00000  0.86100  0.33840  Biso   1.000  C  -0.125190
  C525     1.0000 0.52690  0.74256  0.74256  Biso   1.000  C  -0.025781
  C526     1.0000 0.52260  0.66160  0.66160  Biso   1.000  C  -0.125187
  C527     1.0000 0.47310  0.21566  0.21566  Biso   1.000  C  -0.025857
  C528     1.0000 0.47740  0.13900  0.13900  Biso   1.000  C  -0.125179
  H1       1.0000 0.67390  0.34910  0.27240  Biso   1.000  H  0.110842
  H2       1.0000 0.61130  0.31140  0.24750  Biso   1.000  H  0.095502
  H3       1.0000 0.75830  0.32020  0.37430  Biso   1.000  H  0.097272
  H4       1.0000 0.79650  0.27270  0.13260  Biso   1.000  H  0.125195
  H5       1.0000 0.07670  0.40150  0.72760  Biso   1.000  H  0.110877
  H6       1.0000 0.06390  0.36380  0.75250  Biso   1.000  H  0.095496
  H7       1.0000 0.94590  0.38400  0.62570  Biso   1.000  H  0.097313
  H8       1.0000 0.14010  0.66390  0.86740  Biso   1.000  H  0.125195
  H9       1.0000 0.92330  0.65090  0.32480  Biso   1.000  H  0.110843
  H10      1.0000 0.93610  0.68860  0.29990  Biso   1.000  H  0.095499
  H11      1.0000 0.05410  0.67980  0.43810  Biso   1.000  H  0.097313
  H12      1.0000 0.85990  0.72730  0.52380  Biso   1.000  H  0.125180
  H13      1.0000 0.32610  0.59850  0.67520  Biso   1.000  H  0.110841
  H14      1.0000 0.38870  0.63620  0.70010  Biso   1.000  H  0.095514
  H15      1.0000 0.24170  0.61600  0.56190  Biso   1.000  H  0.097332
  H16      1.0000 0.20350  0.33610  0.47620  Biso   1.000  H  0.125194
  H17      1.0000 0.32480  0.92330  0.65090  Biso   1.000  H  0.110843
  H18      1.0000 0.29990  0.93610  0.68860  Biso   1.000  H  0.095499
  H19      1.0000 0.43810  0.05410  0.67980  Biso   1.000  H  0.097313
  H20      1.0000 0.52380  0.85990  0.72730  Biso   1.000  H  0.125180
  H21      1.0000 0.67520  0.32610  0.59850  Biso   1.000  H  0.110841
  H22      1.0000 0.70010  0.38870  0.63620  Biso   1.000  H  0.095514
  H23      1.0000 0.56190  0.24170  0.61600  Biso   1.000  H  0.097332
  H24      1.0000 0.47620  0.20350  0.33610  Biso   1.000  H  0.125194
  H25      1.0000 0.27240  0.67390  0.34910  Biso   1.000  H  0.110842
  H26      1.0000 0.24750  0.61130  0.31140  Biso   1.000  H  0.095502
  H27      1.0000 0.37430  0.75830  0.32020  Biso   1.000  H  0.097273
  H28      1.0000 0.13260  0.79650  0.27270  Biso   1.000  H  0.125195
  H29      1.0000 0.72760  0.07670  0.40150  Biso   1.000  H  0.110877
  H30      1.0000 0.75250  0.06390  0.36380  Biso   1.000  H  0.095496
  H31      1.0000 0.62570  0.94590  0.38400  Biso   1.000  H  0.097313
  H32      1.0000 0.86740  0.14010  0.66390  Biso   1.000  H  0.125195
  H33      1.0000 0.40150  0.72760  0.07670  Biso   1.000  H  0.110877
  H34      1.0000 0.36380  0.75250  0.06390  Biso   1.000  H  0.095496
  H35      1.0000 0.38400  0.62570  0.94590  Biso   1.000  H  0.097313
  H36      1.0000 0.66390  0.86740  0.14010  Biso   1.000  H  0.125195
  H37      1.0000 0.34910  0.27240  0.67390  Biso   1.000  H  0.110842
  H38      1.0000 0.31140  0.24750  0.61130  Biso   1.000  H  0.095502
  H39      1.0000 0.32020  0.37430  0.75830  Biso   1.000  H  0.097272
  H40      1.0000 0.27270  0.13260  0.79650  Biso   1.000  H  0.125195
  H41      1.0000 0.59850  0.67520  0.32610  Biso   1.000  H  0.110841
  H42      1.0000 0.63620  0.70010  0.38870  Biso   1.000  H  0.095514
  H43      1.0000 0.61600  0.56190  0.24170  Biso   1.000  H  0.097332
  H44      1.0000 0.33610  0.47620  0.20350  Biso   1.000  H  0.125194
  H45      1.0000 0.65090  0.32480  0.92330  Biso   1.000  H  0.110843
  H46      1.0000 0.68860  0.29990  0.93610  Biso   1.000  H  0.095499
  H47      1.0000 0.67980  0.43810  0.05410  Biso   1.000  H  0.097313
  H48      1.0000 0.72730  0.52380  0.85990  Biso   1.000  H  0.125180
  H49      1.0000 0.65090  0.32610  0.72760  Biso   1.000  H  0.110842
  H50      1.0000 0.68860  0.38870  0.75250  Biso   1.000  H  0.095502
  H51      1.0000 0.67980  0.24170  0.62570  Biso   1.000  H  0.097273
  H52      1.0000 0.72730  0.20350  0.86740  Biso   1.000  H  0.125195
  H53      1.0000 0.59850  0.92330  0.27240  Biso   1.000  H  0.110877
  H54      1.0000 0.63620  0.93610  0.24750  Biso   1.000  H  0.095496
  H55      1.0000 0.61600  0.05410  0.37430  Biso   1.000  H  0.097313
  H56      1.0000 0.33610  0.85990  0.13260  Biso   1.000  H  0.125195
  H57      1.0000 0.34910  0.07670  0.67520  Biso   1.000  H  0.110843
  H58      1.0000 0.31140  0.06390  0.70010  Biso   1.000  H  0.095499
  H59      1.0000 0.32020  0.94590  0.56190  Biso   1.000  H  0.097313
  H60      1.0000 0.27270  0.14010  0.47620  Biso   1.000  H  0.125180
  H61      1.0000 0.40150  0.67390  0.32480  Biso   1.000  H  0.110841
  H62      1.0000 0.36380  0.61130  0.29990  Biso   1.000  H  0.095514
  H63      1.0000 0.38400  0.75830  0.43810  Biso   1.000  H  0.097332
  H64      1.0000 0.66390  0.79650  0.52380  Biso   1.000  H  0.125194
  H65      1.0000 0.07670  0.67520  0.34910  Biso   1.000  H  0.110843
  H66      1.0000 0.06390  0.70010  0.31140  Biso   1.000  H  0.095499
  H67      1.0000 0.94590  0.56190  0.32020  Biso   1.000  H  0.097313
  H68      1.0000 0.14010  0.47620  0.27270  Biso   1.000  H  0.125180
  H69      1.0000 0.67390  0.32480  0.40150  Biso   1.000  H  0.110841
  H70      1.0000 0.61130  0.29990  0.36380  Biso   1.000  H  0.095514
  H71      1.0000 0.75830  0.43810  0.38400  Biso   1.000  H  0.097332
  H72      1.0000 0.79650  0.52380  0.66390  Biso   1.000  H  0.125194
  H73      1.0000 0.32610  0.72760  0.65090  Biso   1.000  H  0.110842
  H74      1.0000 0.38870  0.75250  0.68860  Biso   1.000  H  0.095502
  H75      1.0000 0.24170  0.62570  0.67980  Biso   1.000  H  0.097272
  H76      1.0000 0.20350  0.86740  0.72730  Biso   1.000  H  0.125195
  H77      1.0000 0.92330  0.27240  0.59850  Biso   1.000  H  0.110877
  H78      1.0000 0.93610  0.24750  0.63620  Biso   1.000  H  0.095496
  H79      1.0000 0.05410  0.37430  0.61600  Biso   1.000  H  0.097313
  H80      1.0000 0.85990  0.13260  0.33610  Biso   1.000  H  0.125195
  H81      1.0000 0.27240  0.59850  0.92330  Biso   1.000  H  0.110877
  H82      1.0000 0.24750  0.63620  0.93610  Biso   1.000  H  0.095496
  H83      1.0000 0.37430  0.61600  0.05410  Biso   1.000  H  0.097313
  H84      1.0000 0.13260  0.33610  0.85990  Biso   1.000  H  0.125195
  H85      1.0000 0.72760  0.65090  0.32610  Biso   1.000  H  0.110842
  H86      1.0000 0.75250  0.68860  0.38870  Biso   1.000  H  0.095502
  H87      1.0000 0.62570  0.67980  0.24170  Biso   1.000  H  0.097272
  H88      1.0000 0.86740  0.72730  0.20350  Biso   1.000  H  0.125195
  H89      1.0000 0.32480  0.40150  0.67390  Biso   1.000  H  0.110841
  H90      1.0000 0.29990  0.36380  0.61130  Biso   1.000  H  0.095514
  H91      1.0000 0.43810  0.38400  0.75830  Biso   1.000  H  0.097332
  H92      1.0000 0.52380  0.66390  0.79650  Biso   1.000  H  0.125194
  H93      1.0000 0.67520  0.34910  0.07670  Biso   1.000  H  0.110843
  H94      1.0000 0.70010  0.31140  0.06390  Biso   1.000  H  0.095499
  H95      1.0000 0.56190  0.32020  0.94590  Biso   1.000  H  0.097313
  H96      1.0000 0.47620  0.27270  0.14010  Biso   1.000  H  0.125180
  H97      1.0000 0.32610  0.65090  0.72760  Biso   1.000  H  0.110834
  H98      1.0000 0.38870  0.68860  0.75250  Biso   1.000  H  0.095493
  H99      1.0000 0.24170  0.67980  0.62570  Biso   1.000  H  0.097270
  H100     1.0000 0.20350  0.72730  0.86740  Biso   1.000  H  0.125192
  H101     1.0000 0.92330  0.59850  0.27240  Biso   1.000  H  0.110869
  H102     1.0000 0.93610  0.63620  0.24750  Biso   1.000  H  0.095487
  H103     1.0000 0.05410  0.61600  0.37430  Biso   1.000  H  0.097310
  H104     1.0000 0.85990  0.33610  0.13260  Biso   1.000  H  0.125192
  H105     1.0000 0.07670  0.34910  0.67520  Biso   1.000  H  0.110836
  H106     1.0000 0.06390  0.31140  0.70010  Biso   1.000  H  0.095490
  H107     1.0000 0.94590  0.32020  0.56190  Biso   1.000  H  0.097310
  H108     1.0000 0.14010  0.27270  0.47620  Biso   1.000  H  0.125176
  H109     1.0000 0.67390  0.40150  0.32480  Biso   1.000  H  0.110833
  H110     1.0000 0.61130  0.36380  0.29990  Biso   1.000  H  0.095506
  H111     1.0000 0.75830  0.38400  0.43810  Biso   1.000  H  0.097329
  H112     1.0000 0.79650  0.66390  0.52380  Biso   1.000  H  0.125190
  H113     1.0000 0.67520  0.07670  0.34910  Biso   1.000  H  0.110836
  H114     1.0000 0.70010  0.06390  0.31140  Biso   1.000  H  0.095490
  H115     1.0000 0.56190  0.94590  0.32020  Biso   1.000  H  0.097310
  H116     1.0000 0.47620  0.14010  0.27270  Biso   1.000  H  0.125176
  H117     1.0000 0.32480  0.67390  0.40150  Biso   1.000  H  0.110833
  H118     1.0000 0.29990  0.61130  0.36380  Biso   1.000  H  0.095506
  H119     1.0000 0.43810  0.75830  0.38400  Biso   1.000  H  0.097329
  H120     1.0000 0.52380  0.79650  0.66390  Biso   1.000  H  0.125190
  H121     1.0000 0.72760  0.32610  0.65090  Biso   1.000  H  0.110834
  H122     1.0000 0.75250  0.38870  0.68860  Biso   1.000  H  0.095493
  H123     1.0000 0.62570  0.24170  0.67980  Biso   1.000  H  0.097270
  H124     1.0000 0.86740  0.20350  0.72730  Biso   1.000  H  0.125192
  H125     1.0000 0.27240  0.92330  0.59850  Biso   1.000  H  0.110869
  H126     1.0000 0.24750  0.93610  0.63620  Biso   1.000  H  0.095487
  H127     1.0000 0.37430  0.05410  0.61600  Biso   1.000  H  0.097310
  H128     1.0000 0.13260  0.85990  0.33610  Biso   1.000  H  0.125192
  H129     1.0000 0.59850  0.27240  0.92330  Biso   1.000  H  0.110869
  H130     1.0000 0.63620  0.24750  0.93610  Biso   1.000  H  0.095487
  H131     1.0000 0.61600  0.37430  0.05410  Biso   1.000  H  0.097310
  H132     1.0000 0.33610  0.13260  0.85990  Biso   1.000  H  0.125192
  H133     1.0000 0.65090  0.72760  0.32610  Biso   1.000  H  0.110834
  H134     1.0000 0.68860  0.75250  0.38870  Biso   1.000  H  0.095493
  H135     1.0000 0.67980  0.62570  0.24170  Biso   1.000  H  0.097270
  H136     1.0000 0.72730  0.86740  0.20350  Biso   1.000  H  0.125192
  H137     1.0000 0.40150  0.32480  0.67390  Biso   1.000  H  0.110833
  H138     1.0000 0.36380  0.29990  0.61130  Biso   1.000  H  0.095506
  H139     1.0000 0.38400  0.43810  0.75830  Biso   1.000  H  0.097329
  H140     1.0000 0.66390  0.52380  0.79650  Biso   1.000  H  0.125190
  H141     1.0000 0.34910  0.67520  0.07670  Biso   1.000  H  0.110836
  H142     1.0000 0.31140  0.70010  0.06390  Biso   1.000  H  0.095490
  H143     1.0000 0.32020  0.56190  0.94590  Biso   1.000  H  0.097310
  H144     1.0000 0.27270  0.47620  0.14010  Biso   1.000  H  0.125176
  H145     1.0000 0.34910  0.67390  0.27240  Biso   1.000  H  0.110834
  H146     1.0000 0.31140  0.61130  0.24750  Biso   1.000  H  0.095493
  H147     1.0000 0.32020  0.75830  0.37430  Biso   1.000  H  0.097270
  H148     1.0000 0.27270  0.79650  0.13260  Biso   1.000  H  0.125192
  H149     1.0000 0.40150  0.07670  0.72760  Biso   1.000  H  0.110869
  H150     1.0000 0.36380  0.06390  0.75250  Biso   1.000  H  0.095487
  H151     1.0000 0.38400  0.94590  0.62570  Biso   1.000  H  0.097310
  H152     1.0000 0.66390  0.14010  0.86740  Biso   1.000  H  0.125192
  H153     1.0000 0.65090  0.92330  0.32480  Biso   1.000  H  0.110836
  H154     1.0000 0.68860  0.93610  0.29990  Biso   1.000  H  0.095490
  H155     1.0000 0.67980  0.05410  0.43810  Biso   1.000  H  0.097310
  H156     1.0000 0.72730  0.85990  0.52380  Biso   1.000  H  0.125176
  H157     1.0000 0.59850  0.32610  0.67520  Biso   1.000  H  0.110833
  H158     1.0000 0.63620  0.38870  0.70010  Biso   1.000  H  0.095506
  H159     1.0000 0.61600  0.24170  0.56190  Biso   1.000  H  0.097329
  H160     1.0000 0.33610  0.20350  0.47620  Biso   1.000  H  0.125190
  H161     1.0000 0.92330  0.32480  0.65090  Biso   1.000  H  0.110836
  H162     1.0000 0.93610  0.29990  0.68860  Biso   1.000  H  0.095490
  H163     1.0000 0.05410  0.43810  0.67980  Biso   1.000  H  0.097310
  H164     1.0000 0.85990  0.52380  0.72730  Biso   1.000  H  0.125176
  H165     1.0000 0.32610  0.67520  0.59850  Biso   1.000  H  0.110833
  H166     1.0000 0.38870  0.70010  0.63620  Biso   1.000  H  0.095506
  H167     1.0000 0.24170  0.56190  0.61600  Biso   1.000  H  0.097329
  H168     1.0000 0.20350  0.47620  0.33610  Biso   1.000  H  0.125190
  H169     1.0000 0.67390  0.27240  0.34910  Biso   1.000  H  0.110834
  H170     1.0000 0.61130  0.24750  0.31140  Biso   1.000  H  0.095493
  H171     1.0000 0.75830  0.37430  0.32020  Biso   1.000  H  0.097270
  H172     1.0000 0.79650  0.13260  0.27270  Biso   1.000  H  0.125192
  H173     1.0000 0.07670  0.72760  0.40150  Biso   1.000  H  0.110869
  H174     1.0000 0.06390  0.75250  0.36380  Biso   1.000  H  0.095487
  H175     1.0000 0.94590  0.62570  0.38400  Biso   1.000  H  0.097310
  H176     1.0000 0.14010  0.86740  0.66390  Biso   1.000  H  0.125192
  H177     1.0000 0.72760  0.40150  0.07670  Biso   1.000  H  0.110869
  H178     1.0000 0.75250  0.36380  0.06390  Biso   1.000  H  0.095487
  H179     1.0000 0.62570  0.38400  0.94590  Biso   1.000  H  0.097310
  H180     1.0000 0.86740  0.66390  0.14010  Biso   1.000  H  0.125192
  H181     1.0000 0.27240  0.34910  0.67390  Biso   1.000  H  0.110834
  H182     1.0000 0.24750  0.31140  0.61130  Biso   1.000  H  0.095493
  H183     1.0000 0.37430  0.32020  0.75830  Biso   1.000  H  0.097270
  H184     1.0000 0.13260  0.27270  0.79650  Biso   1.000  H  0.125192
  H185     1.0000 0.67520  0.59850  0.32610  Biso   1.000  H  0.110833
  H186     1.0000 0.70010  0.63620  0.38870  Biso   1.000  H  0.095506
  H187     1.0000 0.56190  0.61600  0.24170  Biso   1.000  H  0.097329
  H188     1.0000 0.47620  0.33610  0.20350  Biso   1.000  H  0.125190
  H189     1.0000 0.32480  0.65090  0.92330  Biso   1.000  H  0.110836
  H190     1.0000 0.29990  0.68860  0.93610  Biso   1.000  H  0.095490
  H191     1.0000 0.43810  0.67980  0.05410  Biso   1.000  H  0.097310
  H192     1.0000 0.52380  0.72730  0.85990  Biso   1.000  H  0.125176
  H193     1.0000 0.85610  0.22930  0.37320  Biso   1.000  H  0.131747
  H194     1.0000 0.85610  0.48290  0.62680  Biso   1.000  H  0.131669
  H195     1.0000 0.14390  0.77070  0.62680  Biso   1.000  H  0.131747
  H196     1.0000 0.14390  0.51710  0.37320  Biso   1.000  H  0.131669
  H197     1.0000 0.62680  0.14390  0.77070  Biso   1.000  H  0.131747
  H198     1.0000 0.37320  0.14390  0.51710  Biso   1.000  H  0.131669
  H199     1.0000 0.37320  0.85610  0.22930  Biso   1.000  H  0.131747
  H200     1.0000 0.62680  0.85610  0.48290  Biso   1.000  H  0.131669
  H201     1.0000 0.48290  0.62680  0.85610  Biso   1.000  H  0.131669
  H202     1.0000 0.22930  0.37320  0.85610  Biso   1.000  H  0.131747
  H203     1.0000 0.51710  0.37320  0.14390  Biso   1.000  H  0.131669
  H204     1.0000 0.77070  0.62680  0.14390  Biso   1.000  H  0.131747
  H205     1.0000 0.77070  0.14390  0.62680  Biso   1.000  H  0.131747
  H206     1.0000 0.51710  0.14390  0.37320  Biso   1.000  H  0.131668
  H207     1.0000 0.22930  0.85610  0.37320  Biso   1.000  H  0.131747
  H208     1.0000 0.48290  0.85610  0.62680  Biso   1.000  H  0.131668
  H209     1.0000 0.85610  0.37320  0.22930  Biso   1.000  H  0.131747
  H210     1.0000 0.85610  0.62680  0.48290  Biso   1.000  H  0.131668
  H211     1.0000 0.14390  0.62680  0.77070  Biso   1.000  H  0.131747
  H212     1.0000 0.14390  0.37320  0.51710  Biso   1.000  H  0.131668
  H213     1.0000 0.37320  0.51710  0.14390  Biso   1.000  H  0.131668
  H214     1.0000 0.62680  0.77070  0.14390  Biso   1.000  H  0.131747
  H215     1.0000 0.62680  0.48290  0.85610  Biso   1.000  H  0.131668
  H216     1.0000 0.37320  0.22930  0.85610  Biso   1.000  H  0.131747
  H217     1.0000 0.63260  0.11420  0.00000  Biso   1.000  H  0.143563
  H218     1.0000 0.11420  0.63260  0.00000  Biso   1.000  H  0.143563
  H219     1.0000 0.88580  0.88580  0.51840  Biso   1.000  H  0.143568
  H220     1.0000 0.36740  0.36740  0.48160  Biso   1.000  H  0.143577
  H221     1.0000 0.51840  0.88580  0.88580  Biso   1.000  H  0.143567
  H222     1.0000 0.48160  0.36740  0.36740  Biso   1.000  H  0.143576
  H223     1.0000 0.00000  0.63260  0.11420  Biso   1.000  H  0.143562
  H224     1.0000 0.00000  0.11420  0.63260  Biso   1.000  H  0.143562
  H225     1.0000 0.63260  0.00000  0.11420  Biso   1.000  H  0.143562
  H226     1.0000 0.11420  0.00000  0.63260  Biso   1.000  H  0.143562
  H227     1.0000 0.36740  0.48160  0.36740  Biso   1.000  H  0.143575
  H228     1.0000 0.88580  0.51840  0.88580  Biso   1.000  H  0.143567
  H229     1.0000 0.88580  0.36740  0.00000  Biso   1.000  H  0.143563
  H230     1.0000 0.36740  0.88580  0.00000  Biso   1.000  H  0.143563
  H231     1.0000 0.11420  0.11420  0.48160  Biso   1.000  H  0.143568
  H232     1.0000 0.63260  0.63260  0.51840  Biso   1.000  H  0.143576
  H233     1.0000 0.11420  0.48160  0.11420  Biso   1.000  H  0.143567
  H234     1.0000 0.63260  0.51840  0.63260  Biso   1.000  H  0.143576
  H235     1.0000 0.36740  1.00000  0.88580  Biso   1.000  H  0.143562
  H236     1.0000 0.88580  1.00000  0.36740  Biso   1.000  H  0.143562
  H237     1.0000 1.00000  0.36740  0.88580  Biso   1.000  H  0.143562
  H238     1.0000 1.00000  0.88580  0.36740  Biso   1.000  H  0.143562
  H239     1.0000 0.51840  0.63260  0.63260  Biso   1.000  H  0.143575
  H240     1.0000 0.48160  0.11420  0.11420  Biso   1.000  H  0.143567
  Mg1      1.0000 0.76940  0.21540  0.21540  Biso   1.000  Mg  1.418368
  Mg2      1.0000 0.67350  0.24300  0.24300  Biso   1.000  Mg  1.395427
  Mg3      1.0000 1.00000  0.55400  0.78460  Biso   1.000  Mg  1.418375
  Mg4      1.0000 1.00000  0.43050  0.75700  Biso   1.000  Mg  1.395604
  Mg5      1.0000 1.00000  0.78460  0.55400  Biso   1.000  Mg  1.418375
  Mg6      1.0000 1.00000  0.75700  0.43050  Biso   1.000  Mg  1.395604
  Mg7      1.0000 0.23060  0.44600  0.44600  Biso   1.000  Mg  1.418386
  Mg8      1.0000 0.32650  0.56950  0.56950  Biso   1.000  Mg  1.395591
  Mg9      1.0000 0.55400  1.00000  0.78460  Biso   1.000  Mg  1.418375
  Mg10     1.0000 0.43050  1.00000  0.75700  Biso   1.000  Mg  1.395604
  Mg11     1.0000 0.44600  0.23060  0.44600  Biso   1.000  Mg  1.418386
  Mg12     1.0000 0.56950  0.32650  0.56950  Biso   1.000  Mg  1.395591
  Mg13     1.0000 0.21540  0.76940  0.21540  Biso   1.000  Mg  1.418368
  Mg14     1.0000 0.24300  0.67350  0.24300  Biso   1.000  Mg  1.395427
  Mg15     1.0000 0.78460  0.00000  0.55400  Biso   1.000  Mg  1.418375
  Mg16     1.0000 0.75700  1.00000  0.43050  Biso   1.000  Mg  1.395604
  Mg17     1.0000 0.55400  0.78460  0.00000  Biso   1.000  Mg  1.418375
  Mg18     1.0000 0.43050  0.75700  0.00000  Biso   1.000  Mg  1.395604
  Mg19     1.0000 0.21540  0.21540  0.76940  Biso   1.000  Mg  1.418368
  Mg20     1.0000 0.24300  0.24300  0.67350  Biso   1.000  Mg  1.395427
  Mg21     1.0000 0.44600  0.44600  0.23060  Biso   1.000  Mg  1.418386
  Mg22     1.0000 0.56950  0.56950  0.32650  Biso   1.000  Mg  1.395591
  Mg23     1.0000 0.78460  0.55400  0.00000  Biso   1.000  Mg  1.418375
  Mg24     1.0000 0.75700  0.43050  0.00000  Biso   1.000  Mg  1.395604
  Mg25     1.0000 0.78460  0.23060  0.78460  Biso   1.000  Mg  1.418367
  Mg26     1.0000 0.75700  0.32650  0.75700  Biso   1.000  Mg  1.395427
  Mg27     1.0000 0.44600  0.00000  0.21540  Biso   1.000  Mg  1.418375
  Mg28     1.0000 0.56950  0.00000  0.24300  Biso   1.000  Mg  1.395604
  Mg29     1.0000 0.21540  1.00000  0.44600  Biso   1.000  Mg  1.418375
  Mg30     1.0000 0.24300  0.00000  0.56950  Biso   1.000  Mg  1.395604
  Mg31     1.0000 0.55400  0.76940  0.55400  Biso   1.000  Mg  1.418386
  Mg32     1.0000 0.43050  0.67350  0.43050  Biso   1.000  Mg  1.395591
  Mg33     1.0000 0.00000  0.44600  0.21540  Biso   1.000  Mg  1.418375
  Mg34     1.0000 0.00000  0.56950  0.24300  Biso   1.000  Mg  1.395605
  Mg35     1.0000 0.76940  0.55400  0.55400  Biso   1.000  Mg  1.418386
  Mg36     1.0000 0.67350  0.43050  0.43050  Biso   1.000  Mg  1.395591
  Mg37     1.0000 0.23060  0.78460  0.78460  Biso   1.000  Mg  1.418367
  Mg38     1.0000 0.32650  0.75700  0.75700  Biso   1.000  Mg  1.395427
  Mg39     1.0000 0.00000  0.21540  0.44600  Biso   1.000  Mg  1.418375
  Mg40     1.0000 0.00000  0.24300  0.56950  Biso   1.000  Mg  1.395604
  Mg41     1.0000 0.21540  0.44600  0.00000  Biso   1.000  Mg  1.418375
  Mg42     1.0000 0.24300  0.56950  0.00000  Biso   1.000  Mg  1.395604
  Mg43     1.0000 0.78460  0.78460  0.23060  Biso   1.000  Mg  1.418367
  Mg44     1.0000 0.75700  0.75700  0.32650  Biso   1.000  Mg  1.395427
  Mg45     1.0000 0.55400  0.55400  0.76940  Biso   1.000  Mg  1.418386
  Mg46     1.0000 0.43050  0.43050  0.67350  Biso   1.000  Mg  1.395591
  Mg47     1.0000 0.44600  0.21540  0.00000  Biso   1.000  Mg  1.418374
  Mg48     1.0000 0.56950  0.24300  0.00000  Biso   1.000  Mg  1.395604
  O1       1.0000 0.80243  0.23851  0.29564  Biso   1.000  O  -0.633557
  O2       1.0000 0.73468  0.24302  0.30870  Biso   1.000  O  -0.666176
  O3       1.0000 0.74960  0.19631  0.13735  Biso   1.000  O  -0.589223
  O4       1.0000 0.66087  0.17204  0.09779  Biso   1.000  O  -0.368653
  O5       1.0000 0.94287  0.50679  0.70436  Biso   1.000  O  -0.633551
  O6       1.0000 0.93432  0.42598  0.69130  Biso   1.000  O  -0.666198
  O7       1.0000 0.05896  0.61225  0.86265  Biso   1.000  O  -0.589241
  O8       1.0000 0.07425  0.56308  0.90221  Biso   1.000  O  -0.368660
  O9       1.0000 0.05713  0.76149  0.56392  Biso   1.000  O  -0.633571
  O10      1.0000 0.06568  0.75698  0.49166  Biso   1.000  O  -0.666219
  O11      1.0000 0.94104  0.80369  0.55329  Biso   1.000  O  -0.589244
  O12      1.0000 0.92575  0.82796  0.48883  Biso   1.000  O  -0.368667
  O13      1.0000 0.19757  0.49321  0.43608  Biso   1.000  O  -0.633564
  O14      1.0000 0.26532  0.57402  0.50834  Biso   1.000  O  -0.666206
  O15      1.0000 0.25040  0.38775  0.44671  Biso   1.000  O  -0.589245
  O16      1.0000 0.33913  0.43692  0.51117  Biso   1.000  O  -0.368676
  O17      1.0000 0.56392  0.05713  0.76149  Biso   1.000  O  -0.633571
  O18      1.0000 0.49166  0.06568  0.75698  Biso   1.000  O  -0.666219
  O19      1.0000 0.55329  0.94104  0.80369  Biso   1.000  O  -0.589245
  O20      1.0000 0.48883  0.92575  0.82796  Biso   1.000  O  -0.368667
  O21      1.0000 0.43608  0.19757  0.49321  Biso   1.000  O  -0.633564
  O22      1.0000 0.50834  0.26532  0.57402  Biso   1.000  O  -0.666206
  O23      1.0000 0.44671  0.25040  0.38775  Biso   1.000  O  -0.589245
  O24      1.0000 0.51117  0.33913  0.43692  Biso   1.000  O  -0.368676
  O25      1.0000 0.29564  0.80243  0.23851  Biso   1.000  O  -0.633557
  O26      1.0000 0.30870  0.73468  0.24302  Biso   1.000  O  -0.666176
  O27      1.0000 0.13735  0.74960  0.19631  Biso   1.000  O  -0.589223
  O28      1.0000 0.09779  0.66087  0.17204  Biso   1.000  O  -0.368653
  O29      1.0000 0.70436  0.94287  0.50679  Biso   1.000  O  -0.633551
  O30      1.0000 0.69130  0.93432  0.42598  Biso   1.000  O  -0.666198
  O31      1.0000 0.86265  0.05896  0.61225  Biso   1.000  O  -0.589241
  O32      1.0000 0.90221  0.07425  0.56308  Biso   1.000  O  -0.368659
  O33      1.0000 0.50679  0.70436  0.94287  Biso   1.000  O  -0.633551
  O34      1.0000 0.42598  0.69130  0.93432  Biso   1.000  O  -0.666198
  O35      1.0000 0.61225  0.86265  0.05896  Biso   1.000  O  -0.589241
  O36      1.0000 0.56308  0.90221  0.07425  Biso   1.000  O  -0.368659
  O37      1.0000 0.23851  0.29564  0.80243  Biso   1.000  O  -0.633557
  O38      1.0000 0.24302  0.30870  0.73468  Biso   1.000  O  -0.666176
  O39      1.0000 0.19631  0.13735  0.74960  Biso   1.000  O  -0.589223
  O40      1.0000 0.17204  0.09779  0.66087  Biso   1.000  O  -0.368653
  O41      1.0000 0.49321  0.43608  0.19757  Biso   1.000  O  -0.633564
  O42      1.0000 0.57402  0.50834  0.26532  Biso   1.000  O  -0.666206
  O43      1.0000 0.38775  0.44671  0.25040  Biso   1.000  O  -0.589245
  O44      1.0000 0.43692  0.51117  0.33913  Biso   1.000  O  -0.368676
  O45      1.0000 0.76149  0.56392  0.05713  Biso   1.000  O  -0.633571
  O46      1.0000 0.75698  0.49166  0.06568  Biso   1.000  O  -0.666219
  O47      1.0000 0.80369  0.55329  0.94104  Biso   1.000  O  -0.589245
  O48      1.0000 0.82796  0.48883  0.92575  Biso   1.000  O  -0.368667
  O49      1.0000 0.76149  0.19757  0.70436  Biso   1.000  O  -0.633557
  O50      1.0000 0.75698  0.26532  0.69130  Biso   1.000  O  -0.666176
  O51      1.0000 0.80369  0.25040  0.86265  Biso   1.000  O  -0.589223
  O52      1.0000 0.82796  0.33913  0.90221  Biso   1.000  O  -0.368654
  O53      1.0000 0.49321  0.05713  0.29564  Biso   1.000  O  -0.633551
  O54      1.0000 0.57402  0.06568  0.30870  Biso   1.000  O  -0.666198
  O55      1.0000 0.38775  0.94104  0.13735  Biso   1.000  O  -0.589241
  O56      1.0000 0.43692  0.92575  0.09779  Biso   1.000  O  -0.368660
  O57      1.0000 0.23851  0.94287  0.43608  Biso   1.000  O  -0.633570
  O58      1.0000 0.24302  0.93432  0.50834  Biso   1.000  O  -0.666219
  O59      1.0000 0.19631  0.05896  0.44671  Biso   1.000  O  -0.589244
  O60      1.0000 0.17204  0.07425  0.51117  Biso   1.000  O  -0.368667
  O61      1.0000 0.50679  0.80243  0.56392  Biso   1.000  O  -0.633564
  O62      1.0000 0.42598  0.73468  0.49166  Biso   1.000  O  -0.666206
  O63      1.0000 0.61225  0.74960  0.55329  Biso   1.000  O  -0.589245
  O64      1.0000 0.56308  0.66087  0.48883  Biso   1.000  O  -0.368676
  O65      1.0000 0.94287  0.43608  0.23851  Biso   1.000  O  -0.633570
  O66      1.0000 0.93432  0.50834  0.24302  Biso   1.000  O  -0.666219
  O67      1.0000 0.05896  0.44671  0.19631  Biso   1.000  O  -0.589244
  O68      1.0000 0.07425  0.51117  0.17204  Biso   1.000  O  -0.368667
  O69      1.0000 0.80243  0.56392  0.50679  Biso   1.000  O  -0.633564
  O70      1.0000 0.73468  0.49166  0.42598  Biso   1.000  O  -0.666206
  O71      1.0000 0.74960  0.55329  0.61225  Biso   1.000  O  -0.589245
  O72      1.0000 0.66087  0.48883  0.56308  Biso   1.000  O  -0.368676
  O73      1.0000 0.19757  0.70436  0.76149  Biso   1.000  O  -0.633557
  O74      1.0000 0.26532  0.69130  0.75698  Biso   1.000  O  -0.666176
  O75      1.0000 0.25040  0.86265  0.80369  Biso   1.000  O  -0.589223
  O76      1.0000 0.33913  0.90221  0.82796  Biso   1.000  O  -0.368653
  O77      1.0000 0.05713  0.29564  0.49321  Biso   1.000  O  -0.633551
  O78      1.0000 0.06568  0.30870  0.57402  Biso   1.000  O  -0.666198
  O79      1.0000 0.94104  0.13735  0.38775  Biso   1.000  O  -0.589241
  O80      1.0000 0.92575  0.09779  0.43692  Biso   1.000  O  -0.368660
  O81      1.0000 0.29564  0.49321  0.05713  Biso   1.000  O  -0.633551
  O82      1.0000 0.30870  0.57402  0.06568  Biso   1.000  O  -0.666198
  O83      1.0000 0.13735  0.38775  0.94104  Biso   1.000  O  -0.589241
  O84      1.0000 0.09779  0.43692  0.92575  Biso   1.000  O  -0.368659
  O85      1.0000 0.70436  0.76149  0.19757  Biso   1.000  O  -0.633557
  O86      1.0000 0.69130  0.75698  0.26532  Biso   1.000  O  -0.666176
  O87      1.0000 0.86265  0.80369  0.25040  Biso   1.000  O  -0.589223
  O88      1.0000 0.90221  0.82796  0.33913  Biso   1.000  O  -0.368653
  O89      1.0000 0.56392  0.50679  0.80243  Biso   1.000  O  -0.633564
  O90      1.0000 0.49166  0.42598  0.73468  Biso   1.000  O  -0.666206
  O91      1.0000 0.55329  0.61225  0.74960  Biso   1.000  O  -0.589245
  O92      1.0000 0.48883  0.56308  0.66087  Biso   1.000  O  -0.368676
  O93      1.0000 0.43608  0.23851  0.94287  Biso   1.000  O  -0.633570
  O94      1.0000 0.50834  0.24302  0.93432  Biso   1.000  O  -0.666219
  O95      1.0000 0.44671  0.19631  0.05896  Biso   1.000  O  -0.589244
  O96      1.0000 0.51117  0.17204  0.07425  Biso   1.000  O  -0.368667
  O97      1.0000 0.19757  0.76149  0.70436  Biso   1.000  O  -0.633557
  O98      1.0000 0.26532  0.75698  0.69130  Biso   1.000  O  -0.666176
  O99      1.0000 0.25040  0.80369  0.86265  Biso   1.000  O  -0.589224
  O100     1.0000 0.33913  0.82796  0.90221  Biso   1.000  O  -0.368653
  O101     1.0000 0.05713  0.49321  0.29564  Biso   1.000  O  -0.633551
  O102     1.0000 0.06568  0.57402  0.30870  Biso   1.000  O  -0.666198
  O103     1.0000 0.94104  0.38775  0.13735  Biso   1.000  O  -0.589242
  O104     1.0000 0.92575  0.43692  0.09779  Biso   1.000  O  -0.368659
  O105     1.0000 0.94287  0.23851  0.43608  Biso   1.000  O  -0.633570
  O106     1.0000 0.93432  0.24302  0.50834  Biso   1.000  O  -0.666218
  O107     1.0000 0.05896  0.19631  0.44671  Biso   1.000  O  -0.589245
  O108     1.0000 0.07425  0.17204  0.51117  Biso   1.000  O  -0.368667
  O109     1.0000 0.80243  0.50679  0.56392  Biso   1.000  O  -0.633563
  O110     1.0000 0.73468  0.42598  0.49166  Biso   1.000  O  -0.666205
  O111     1.0000 0.74960  0.61225  0.55329  Biso   1.000  O  -0.589246
  O112     1.0000 0.66087  0.56308  0.48883  Biso   1.000  O  -0.368676
  O113     1.0000 0.43608  0.94287  0.23851  Biso   1.000  O  -0.633570
  O114     1.0000 0.50834  0.93432  0.24302  Biso   1.000  O  -0.666218
  O115     1.0000 0.44671  0.05896  0.19631  Biso   1.000  O  -0.589245
  O116     1.0000 0.51117  0.07425  0.17204  Biso   1.000  O  -0.368667
  O117     1.0000 0.56392  0.80243  0.50679  Biso   1.000  O  -0.633563
  O118     1.0000 0.49166  0.73468  0.42598  Biso   1.000  O  -0.666205
  O119     1.0000 0.55329  0.74960  0.61225  Biso   1.000  O  -0.589246
  O120     1.0000 0.48883  0.66087  0.56308  Biso   1.000  O  -0.368676
  O121     1.0000 0.70436  0.19757  0.76149  Biso   1.000  O  -0.633557
  O122     1.0000 0.69130  0.26532  0.75698  Biso   1.000  O  -0.666175
  O123     1.0000 0.86265  0.25040  0.80369  Biso   1.000  O  -0.589224
  O124     1.0000 0.90221  0.33913  0.82796  Biso   1.000  O  -0.368653
  O125     1.0000 0.29564  0.05713  0.49321  Biso   1.000  O  -0.633551
  O126     1.0000 0.30870  0.06568  0.57402  Biso   1.000  O  -0.666198
  O127     1.0000 0.13735  0.94104  0.38775  Biso   1.000  O  -0.589242
  O128     1.0000 0.09779  0.92575  0.43692  Biso   1.000  O  -0.368659
  O129     1.0000 0.49321  0.29564  0.05713  Biso   1.000  O  -0.633551
  O130     1.0000 0.57402  0.30870  0.06568  Biso   1.000  O  -0.666198
  O131     1.0000 0.38775  0.13735  0.94104  Biso   1.000  O  -0.589242
  O132     1.0000 0.43692  0.09779  0.92575  Biso   1.000  O  -0.368659
  O133     1.0000 0.76149  0.70436  0.19757  Biso   1.000  O  -0.633557
  O134     1.0000 0.75698  0.69130  0.26532  Biso   1.000  O  -0.666176
  O135     1.0000 0.80369  0.86265  0.25040  Biso   1.000  O  -0.589224
  O136     1.0000 0.82796  0.90221  0.33913  Biso   1.000  O  -0.368653
  O137     1.0000 0.50679  0.56392  0.80243  Biso   1.000  O  -0.633563
  O138     1.0000 0.42598  0.49166  0.73468  Biso   1.000  O  -0.666205
  O139     1.0000 0.61225  0.55329  0.74960  Biso   1.000  O  -0.589246
  O140     1.0000 0.56308  0.48883  0.66087  Biso   1.000  O  -0.368676
  O141     1.0000 0.23851  0.43608  0.94287  Biso   1.000  O  -0.633570
  O142     1.0000 0.24302  0.50834  0.93432  Biso   1.000  O  -0.666218
  O143     1.0000 0.19631  0.44671  0.05896  Biso   1.000  O  -0.589245
  O144     1.0000 0.17204  0.51117  0.07425  Biso   1.000  O  -0.368667
  O145     1.0000 0.23851  0.80243  0.29564  Biso   1.000  O  -0.633557
  O146     1.0000 0.24302  0.73468  0.30870  Biso   1.000  O  -0.666175
  O147     1.0000 0.19631  0.74960  0.13735  Biso   1.000  O  -0.589224
  O148     1.0000 0.17204  0.66087  0.09779  Biso   1.000  O  -0.368653
  O149     1.0000 0.50679  0.94287  0.70436  Biso   1.000  O  -0.633551
  O150     1.0000 0.42598  0.93432  0.69130  Biso   1.000  O  -0.666198
  O151     1.0000 0.61225  0.05896  0.86265  Biso   1.000  O  -0.589242
  O152     1.0000 0.56308  0.07425  0.90221  Biso   1.000  O  -0.368659
  O153     1.0000 0.76149  0.05713  0.56392  Biso   1.000  O  -0.633570
  O154     1.0000 0.75698  0.06568  0.49166  Biso   1.000  O  -0.666218
  O155     1.0000 0.80369  0.94104  0.55329  Biso   1.000  O  -0.589246
  O156     1.0000 0.82796  0.92575  0.48883  Biso   1.000  O  -0.368667
  O157     1.0000 0.49321  0.19757  0.43608  Biso   1.000  O  -0.633563
  O158     1.0000 0.57402  0.26532  0.50834  Biso   1.000  O  -0.666205
  O159     1.0000 0.38775  0.25040  0.44671  Biso   1.000  O  -0.589246
  O160     1.0000 0.43692  0.33913  0.51117  Biso   1.000  O  -0.368676
  O161     1.0000 0.05713  0.56392  0.76149  Biso   1.000  O  -0.633570
  O162     1.0000 0.06568  0.49166  0.75698  Biso   1.000  O  -0.666218
  O163     1.0000 0.94104  0.55329  0.80369  Biso   1.000  O  -0.589246
  O164     1.0000 0.92575  0.48883  0.82796  Biso   1.000  O  -0.368667
  O165     1.0000 0.19757  0.43608  0.49321  Biso   1.000  O  -0.633563
  O166     1.0000 0.26532  0.50834  0.57402  Biso   1.000  O  -0.666205
  O167     1.0000 0.25040  0.44671  0.38775  Biso   1.000  O  -0.589246
  O168     1.0000 0.33913  0.51117  0.43692  Biso   1.000  O  -0.368676
  O169     1.0000 0.80243  0.29564  0.23851  Biso   1.000  O  -0.633557
  O170     1.0000 0.73468  0.30870  0.24302  Biso   1.000  O  -0.666176
  O171     1.0000 0.74960  0.13735  0.19631  Biso   1.000  O  -0.589224
  O172     1.0000 0.66087  0.09779  0.17204  Biso   1.000  O  -0.368653
  O173     1.0000 0.94287  0.70436  0.50679  Biso   1.000  O  -0.633551
  O174     1.0000 0.93432  0.69130  0.42598  Biso   1.000  O  -0.666198
  O175     1.0000 0.05896  0.86265  0.61225  Biso   1.000  O  -0.589242
  O176     1.0000 0.07425  0.90221  0.56308  Biso   1.000  O  -0.368659
  O177     1.0000 0.70436  0.50679  0.94287  Biso   1.000  O  -0.633551
  O178     1.0000 0.69130  0.42598  0.93432  Biso   1.000  O  -0.666198
  O179     1.0000 0.86265  0.61225  0.05896  Biso   1.000  O  -0.589242
  O180     1.0000 0.90221  0.56308  0.07425  Biso   1.000  O  -0.368659
  O181     1.0000 0.29564  0.23851  0.80243  Biso   1.000  O  -0.633557
  O182     1.0000 0.30870  0.24302  0.73468  Biso   1.000  O  -0.666176
  O183     1.0000 0.13735  0.19631  0.74960  Biso   1.000  O  -0.589224
  O184     1.0000 0.09779  0.17204  0.66087  Biso   1.000  O  -0.368653
  O185     1.0000 0.43608  0.49321  0.19757  Biso   1.000  O  -0.633563
  O186     1.0000 0.50834  0.57402  0.26532  Biso   1.000  O  -0.666205
  O187     1.0000 0.44671  0.38775  0.25040  Biso   1.000  O  -0.589246
  O188     1.0000 0.51117  0.43692  0.33913  Biso   1.000  O  -0.368676
  O189     1.0000 0.56392  0.76149  0.05713  Biso   1.000  O  -0.633570
  O190     1.0000 0.49166  0.75698  0.06568  Biso   1.000  O  -0.666218
  O191     1.0000 0.55329  0.80369  0.94104  Biso   1.000  O  -0.589246
  O192     1.0000 0.48883  0.82796  0.92575  Biso   1.000  O  -0.368667
  O193     1.0000 0.68900  0.19280  0.19280  Biso   1.000  O  -0.704024
  O194     1.0000 0.65702  0.28931  0.28931  Biso   1.000  O  -0.312667
  O195     1.0000 0.00000  0.49620  0.80720  Biso   1.000  O  -0.704043
  O196     1.0000 0.00000  0.36771  0.71069  Biso   1.000  O  -0.312749
  O197     1.0000 1.00000  0.80720  0.49620  Biso   1.000  O  -0.704043
  O198     1.0000 0.00000  0.71069  0.36771  Biso   1.000  O  -0.312749
  O199     1.0000 0.31100  0.50380  0.50380  Biso   1.000  O  -0.704053
  O200     1.0000 0.34298  0.63229  0.63229  Biso   1.000  O  -0.312710
  O201     1.0000 0.49620  0.00000  0.80720  Biso   1.000  O  -0.704044
  O202     1.0000 0.36771  1.00000  0.71069  Biso   1.000  O  -0.312749
  O203     1.0000 0.50380  0.31100  0.50380  Biso   1.000  O  -0.704053
  O204     1.0000 0.63229  0.34298  0.63229  Biso   1.000  O  -0.312710
  O205     1.0000 0.19280  0.68900  0.19280  Biso   1.000  O  -0.704024
  O206     1.0000 0.28931  0.65702  0.28931  Biso   1.000  O  -0.312667
  O207     1.0000 0.80720  1.00000  0.49620  Biso   1.000  O  -0.704043
  O208     1.0000 0.71069  1.00000  0.36771  Biso   1.000  O  -0.312749
  O209     1.0000 0.49620  0.80720  0.00000  Biso   1.000  O  -0.704044
  O210     1.0000 0.36771  0.71069  0.00000  Biso   1.000  O  -0.312749
  O211     1.0000 0.19280  0.19280  0.68900  Biso   1.000  O  -0.704024
  O212     1.0000 0.28931  0.28931  0.65702  Biso   1.000  O  -0.312667
  O213     1.0000 0.50380  0.50380  0.31100  Biso   1.000  O  -0.704053
  O214     1.0000 0.63229  0.63229  0.34298  Biso   1.000  O  -0.312710
  O215     1.0000 0.80720  0.49620  0.00000  Biso   1.000  O  -0.704044
  O216     1.0000 0.71069  0.36771  0.00000  Biso   1.000  O  -0.312749
  O217     1.0000 0.80720  0.31100  0.80720  Biso   1.000  O  -0.704024
  O218     1.0000 0.71069  0.34298  0.71069  Biso   1.000  O  -0.312667
  O219     1.0000 0.50380  1.00000  0.19280  Biso   1.000  O  -0.704044
  O220     1.0000 0.63229  0.00000  0.28931  Biso   1.000  O  -0.312749
  O221     1.0000 0.19280  0.00000  0.50380  Biso   1.000  O  -0.704044
  O222     1.0000 0.28931  0.00000  0.63229  Biso   1.000  O  -0.312749
  O223     1.0000 0.49620  0.68900  0.49620  Biso   1.000  O  -0.704053
  O224     1.0000 0.36771  0.65702  0.36771  Biso   1.000  O  -0.312710
  O225     1.0000 1.00000  0.50380  0.19280  Biso   1.000  O  -0.704044
  O226     1.0000 1.00000  0.63229  0.28931  Biso   1.000  O  -0.312749
  O227     1.0000 0.68900  0.49620  0.49620  Biso   1.000  O  -0.704053
  O228     1.0000 0.65702  0.36771  0.36771  Biso   1.000  O  -0.312710
  O229     1.0000 0.31100  0.80720  0.80720  Biso   1.000  O  -0.704024
  O230     1.0000 0.34298  0.71069  0.71069  Biso   1.000  O  -0.312667
  O231     1.0000 0.00000  0.19280  0.50380  Biso   1.000  O  -0.704044
  O232     1.0000 1.00000  0.28931  0.63229  Biso   1.000  O  -0.312749
  O233     1.0000 0.19280  0.50380  0.00000  Biso   1.000  O  -0.704043
  O234     1.0000 0.28931  0.63229  0.00000  Biso   1.000  O  -0.312749
  O235     1.0000 0.80720  0.80720  0.31100  Biso   1.000  O  -0.704024
  O236     1.0000 0.71069  0.71069  0.34298  Biso   1.000  O  -0.312667
  O237     1.0000 0.49620  0.49620  0.68900  Biso   1.000  O  -0.704053
  O238     1.0000 0.36771  0.36771  0.65702  Biso   1.000  O  -0.312710
  O239     1.0000 0.50380  0.19280  0.00000  Biso   1.000  O  -0.704043
  O240     1.0000 0.63229  0.28931  0.00000  Biso   1.000  O  -0.312749
