data_image0
_cell_length_a       26.055
_cell_length_b       26.055
_cell_length_c       35.842
_cell_angle_alpha    90
_cell_angle_beta     90
_cell_angle_gamma    120

_symmetry_space_group_name_H-M    "P 1"
_symmetry_int_tables_number       1

loop_
  _symmetry_equiv_pos_as_xyz
  'x, y, z'

loop_
  _atom_site_label
  _atom_site_occupancy
  _atom_site_fract_x
  _atom_site_fract_y
  _atom_site_fract_z
  _atom_site_thermal_displace_type
  _atom_site_B_iso_or_equiv
  _atom_site_type_symbol
  _atom_site_charge
  C1       1.0000 0.88420  0.21850  0.94865  Biso   1.000  C  0.608172
  C2       1.0000 0.86240  0.15340  0.95145  Biso   1.000  C  -0.033324
  C3       1.0000 0.80200  0.11260  0.95523  Biso   1.000  C  -0.100460
  C4       1.0000 0.90340  0.13380  0.94840  Biso   1.000  C  -0.079860
  C5       1.0000 0.78370  0.05250  0.95620  Biso   1.000  C  -0.059768
  C6       1.0000 0.88470  0.07270  0.94970  Biso   1.000  C  -0.147343
  C7       1.0000 0.82470  0.03360  0.95300  Biso   1.000  C  0.047400
  C8       1.0000 0.79660  0.34070  0.88570  Biso   1.000  C  0.580354
  C9       1.0000 0.79200  0.35200  0.84590  Biso   1.000  C  -0.019581
  C10      1.0000 0.81900  0.32960  0.82260  Biso   1.000  C  -0.101986
  C11      1.0000 0.81230  0.34030  0.78480  Biso   1.000  C  -0.049604
  C12      1.0000 0.78520  0.37030  0.77090  Biso   1.000  C  0.035261
  C13      1.0000 0.75960  0.39310  0.79740  Biso   1.000  C  -0.131028
  C14      1.0000 0.76320  0.38170  0.83540  Biso   1.000  C  -0.083554
  C15      1.0000 0.82660  0.33180  0.01766  Biso   1.000  C  0.049250
  C16      1.0000 0.79150  0.33350  0.04495  Biso   1.000  C  0.014640
  C17      1.0000 0.96930  0.42630  0.95950  Biso   1.000  C  0.047940
  C18      1.0000 0.33430  0.11580  0.94865  Biso   1.000  C  0.608172
  C19      1.0000 0.29100  0.13760  0.95145  Biso   1.000  C  -0.033324
  C20      1.0000 0.31060  0.19800  0.95523  Biso   1.000  C  -0.100460
  C21      1.0000 0.23040  0.09660  0.94840  Biso   1.000  C  -0.079861
  C22      1.0000 0.26880  0.21630  0.95620  Biso   1.000  C  -0.059768
  C23      1.0000 0.18800  0.11530  0.94970  Biso   1.000  C  -0.147345
  C24      1.0000 0.20890  0.17530  0.95300  Biso   1.000  C  0.047401
  C25      1.0000 0.54410  0.20340  0.88570  Biso   1.000  C  0.580355
  C26      1.0000 0.56000  0.20800  0.84590  Biso   1.000  C  -0.019581
  C27      1.0000 0.51060  0.18100  0.82260  Biso   1.000  C  -0.101986
  C28      1.0000 0.52800  0.18770  0.78480  Biso   1.000  C  -0.049604
  C29      1.0000 0.58510  0.21480  0.77090  Biso   1.000  C  0.035260
  C30      1.0000 0.63350  0.24040  0.79740  Biso   1.000  C  -0.131029
  C31      1.0000 0.61850  0.23680  0.83540  Biso   1.000  C  -0.083553
  C32      1.0000 0.50520  0.17340  0.01766  Biso   1.000  C  0.049250
  C33      1.0000 0.54200  0.20850  0.04495  Biso   1.000  C  0.014639
  C34      1.0000 0.45700  0.03070  0.95950  Biso   1.000  C  0.047942
  C35      1.0000 0.78150  0.66570  0.94865  Biso   1.000  C  0.608170
  C36      1.0000 0.84660  0.70900  0.95145  Biso   1.000  C  -0.033325
  C37      1.0000 0.88740  0.68940  0.95523  Biso   1.000  C  -0.100459
  C38      1.0000 0.86620  0.76960  0.94840  Biso   1.000  C  -0.079859
  C39      1.0000 0.94750  0.73120  0.95620  Biso   1.000  C  -0.059769
  C40      1.0000 0.92730  0.81200  0.94970  Biso   1.000  C  -0.147341
  C41      1.0000 0.96640  0.79110  0.95300  Biso   1.000  C  0.047399
  C42      1.0000 0.65930  0.45590  0.88570  Biso   1.000  C  0.580357
  C43      1.0000 0.64800  0.44000  0.84590  Biso   1.000  C  -0.019581
  C44      1.0000 0.67040  0.48940  0.82260  Biso   1.000  C  -0.101987
  C45      1.0000 0.65970  0.47200  0.78480  Biso   1.000  C  -0.049605
  C46      1.0000 0.62970  0.41490  0.77090  Biso   1.000  C  0.035260
  C47      1.0000 0.60690  0.36650  0.79740  Biso   1.000  C  -0.131030
  C48      1.0000 0.61830  0.38150  0.83540  Biso   1.000  C  -0.083553
  C49      1.0000 0.66820  0.49480  0.01766  Biso   1.000  C  0.049249
  C50      1.0000 0.66650  0.45800  0.04495  Biso   1.000  C  0.014640
  C51      1.0000 0.57370  0.54300  0.95950  Biso   1.000  C  0.047942
  C52      1.0000 0.11580  0.78150  0.44865  Biso   1.000  C  0.608172
  C53      1.0000 0.13760  0.84660  0.45145  Biso   1.000  C  -0.033324
  C54      1.0000 0.19800  0.88740  0.45523  Biso   1.000  C  -0.100460
  C55      1.0000 0.09660  0.86620  0.44840  Biso   1.000  C  -0.079860
  C56      1.0000 0.21630  0.94750  0.45620  Biso   1.000  C  -0.059768
  C57      1.0000 0.11530  0.92730  0.44970  Biso   1.000  C  -0.147343
  C58      1.0000 0.17530  0.96640  0.45300  Biso   1.000  C  0.047400
  C59      1.0000 0.20340  0.65930  0.38570  Biso   1.000  C  0.580354
  C60      1.0000 0.20800  0.64800  0.34590  Biso   1.000  C  -0.019581
  C61      1.0000 0.18100  0.67040  0.32260  Biso   1.000  C  -0.101986
  C62      1.0000 0.18770  0.65970  0.28480  Biso   1.000  C  -0.049604
  C63      1.0000 0.21480  0.62970  0.27090  Biso   1.000  C  0.035261
  C64      1.0000 0.24040  0.60690  0.29740  Biso   1.000  C  -0.131028
  C65      1.0000 0.23680  0.61830  0.33540  Biso   1.000  C  -0.083554
  C66      1.0000 0.17340  0.66820  0.51766  Biso   1.000  C  0.049250
  C67      1.0000 0.20850  0.66650  0.54495  Biso   1.000  C  0.014640
  C68      1.0000 0.03070  0.57370  0.45950  Biso   1.000  C  0.047940
  C69      1.0000 0.66570  0.88420  0.44865  Biso   1.000  C  0.608172
  C70      1.0000 0.70900  0.86240  0.45145  Biso   1.000  C  -0.033324
  C71      1.0000 0.68940  0.80200  0.45523  Biso   1.000  C  -0.100460
  C72      1.0000 0.76960  0.90340  0.44840  Biso   1.000  C  -0.079861
  C73      1.0000 0.73120  0.78370  0.45620  Biso   1.000  C  -0.059768
  C74      1.0000 0.81200  0.88470  0.44970  Biso   1.000  C  -0.147345
  C75      1.0000 0.79110  0.82470  0.45300  Biso   1.000  C  0.047401
  C76      1.0000 0.45590  0.79660  0.38570  Biso   1.000  C  0.580355
  C77      1.0000 0.44000  0.79200  0.34590  Biso   1.000  C  -0.019581
  C78      1.0000 0.48940  0.81900  0.32260  Biso   1.000  C  -0.101986
  C79      1.0000 0.47200  0.81230  0.28480  Biso   1.000  C  -0.049604
  C80      1.0000 0.41490  0.78520  0.27090  Biso   1.000  C  0.035260
  C81      1.0000 0.36650  0.75960  0.29740  Biso   1.000  C  -0.131029
  C82      1.0000 0.38150  0.76320  0.33540  Biso   1.000  C  -0.083553
  C83      1.0000 0.49480  0.82660  0.51766  Biso   1.000  C  0.049250
  C84      1.0000 0.45800  0.79150  0.54495  Biso   1.000  C  0.014639
  C85      1.0000 0.54300  0.96930  0.45950  Biso   1.000  C  0.047942
  C86      1.0000 0.21850  0.33430  0.44865  Biso   1.000  C  0.608170
  C87      1.0000 0.15340  0.29100  0.45145  Biso   1.000  C  -0.033325
  C88      1.0000 0.11260  0.31060  0.45523  Biso   1.000  C  -0.100459
  C89      1.0000 0.13380  0.23040  0.44840  Biso   1.000  C  -0.079859
  C90      1.0000 0.05250  0.26880  0.45620  Biso   1.000  C  -0.059769
  C91      1.0000 0.07270  0.18800  0.44970  Biso   1.000  C  -0.147341
  C92      1.0000 0.03360  0.20890  0.45300  Biso   1.000  C  0.047399
  C93      1.0000 0.34070  0.54410  0.38570  Biso   1.000  C  0.580357
  C94      1.0000 0.35200  0.56000  0.34590  Biso   1.000  C  -0.019581
  C95      1.0000 0.32960  0.51060  0.32260  Biso   1.000  C  -0.101987
  C96      1.0000 0.34030  0.52800  0.28480  Biso   1.000  C  -0.049605
  C97      1.0000 0.37030  0.58510  0.27090  Biso   1.000  C  0.035260
  C98      1.0000 0.39310  0.63350  0.29740  Biso   1.000  C  -0.131030
  C99      1.0000 0.38170  0.61850  0.33540  Biso   1.000  C  -0.083553
  C100     1.0000 0.33180  0.50520  0.51766  Biso   1.000  C  0.049249
  C101     1.0000 0.33350  0.54200  0.54495  Biso   1.000  C  0.014640
  C102     1.0000 0.42630  0.45700  0.45950  Biso   1.000  C  0.047942
  C103     1.0000 0.66570  0.78150  0.55135  Biso   1.000  C  0.608170
  C104     1.0000 0.70900  0.84660  0.54855  Biso   1.000  C  -0.033325
  C105     1.0000 0.68940  0.88740  0.54477  Biso   1.000  C  -0.100459
  C106     1.0000 0.76960  0.86620  0.55160  Biso   1.000  C  -0.079859
  C107     1.0000 0.73120  0.94750  0.54380  Biso   1.000  C  -0.059769
  C108     1.0000 0.81200  0.92730  0.55030  Biso   1.000  C  -0.147341
  C109     1.0000 0.79110  0.96640  0.54700  Biso   1.000  C  0.047399
  C110     1.0000 0.45590  0.65930  0.61430  Biso   1.000  C  0.580357
  C111     1.0000 0.44000  0.64800  0.65410  Biso   1.000  C  -0.019581
  C112     1.0000 0.48940  0.67040  0.67740  Biso   1.000  C  -0.101986
  C113     1.0000 0.47200  0.65970  0.71520  Biso   1.000  C  -0.049605
  C114     1.0000 0.41490  0.62970  0.72910  Biso   1.000  C  0.035260
  C115     1.0000 0.36650  0.60690  0.70260  Biso   1.000  C  -0.131029
  C116     1.0000 0.38150  0.61830  0.66460  Biso   1.000  C  -0.083553
  C117     1.0000 0.49480  0.66820  0.48234  Biso   1.000  C  0.049249
  C118     1.0000 0.45800  0.66650  0.45505  Biso   1.000  C  0.014640
  C119     1.0000 0.54300  0.57370  0.54050  Biso   1.000  C  0.047942
  C120     1.0000 0.21850  0.88420  0.55135  Biso   1.000  C  0.608172
  C121     1.0000 0.15340  0.86240  0.54855  Biso   1.000  C  -0.033324
  C122     1.0000 0.11260  0.80200  0.54477  Biso   1.000  C  -0.100460
  C123     1.0000 0.13380  0.90340  0.55160  Biso   1.000  C  -0.079860
  C124     1.0000 0.05250  0.78370  0.54380  Biso   1.000  C  -0.059768
  C125     1.0000 0.07270  0.88470  0.55030  Biso   1.000  C  -0.147343
  C126     1.0000 0.03360  0.82470  0.54700  Biso   1.000  C  0.047400
  C127     1.0000 0.34070  0.79660  0.61430  Biso   1.000  C  0.580354
  C128     1.0000 0.35200  0.79200  0.65410  Biso   1.000  C  -0.019581
  C129     1.0000 0.32960  0.81900  0.67740  Biso   1.000  C  -0.101986
  C130     1.0000 0.34030  0.81230  0.71520  Biso   1.000  C  -0.049604
  C131     1.0000 0.37030  0.78520  0.72910  Biso   1.000  C  0.035261
  C132     1.0000 0.39310  0.75960  0.70260  Biso   1.000  C  -0.131028
  C133     1.0000 0.38170  0.76320  0.66460  Biso   1.000  C  -0.083555
  C134     1.0000 0.33180  0.82660  0.48234  Biso   1.000  C  0.049250
  C135     1.0000 0.33350  0.79150  0.45505  Biso   1.000  C  0.014641
  C136     1.0000 0.42630  0.96930  0.54050  Biso   1.000  C  0.047940
  C137     1.0000 0.11580  0.33430  0.55135  Biso   1.000  C  0.608172
  C138     1.0000 0.13760  0.29100  0.54855  Biso   1.000  C  -0.033324
  C139     1.0000 0.19800  0.31060  0.54477  Biso   1.000  C  -0.100460
  C140     1.0000 0.09660  0.23040  0.55160  Biso   1.000  C  -0.079861
  C141     1.0000 0.21630  0.26880  0.54380  Biso   1.000  C  -0.059768
  C142     1.0000 0.11530  0.18800  0.55030  Biso   1.000  C  -0.147345
  C143     1.0000 0.17530  0.20890  0.54700  Biso   1.000  C  0.047401
  C144     1.0000 0.20340  0.54410  0.61430  Biso   1.000  C  0.580355
  C145     1.0000 0.20800  0.56000  0.65410  Biso   1.000  C  -0.019581
  C146     1.0000 0.18100  0.51060  0.67740  Biso   1.000  C  -0.101987
  C147     1.0000 0.18770  0.52800  0.71520  Biso   1.000  C  -0.049603
  C148     1.0000 0.21480  0.58510  0.72910  Biso   1.000  C  0.035260
  C149     1.0000 0.24040  0.63350  0.70260  Biso   1.000  C  -0.131029
  C150     1.0000 0.23680  0.61850  0.66460  Biso   1.000  C  -0.083553
  C151     1.0000 0.17340  0.50520  0.48234  Biso   1.000  C  0.049250
  C152     1.0000 0.20850  0.54200  0.45505  Biso   1.000  C  0.014639
  C153     1.0000 0.03070  0.45700  0.54050  Biso   1.000  C  0.047943
  C154     1.0000 0.33430  0.21850  0.05135  Biso   1.000  C  0.608170
  C155     1.0000 0.29100  0.15340  0.04855  Biso   1.000  C  -0.033325
  C156     1.0000 0.31060  0.11260  0.04477  Biso   1.000  C  -0.100459
  C157     1.0000 0.23040  0.13380  0.05160  Biso   1.000  C  -0.079859
  C158     1.0000 0.26880  0.05250  0.04380  Biso   1.000  C  -0.059769
  C159     1.0000 0.18800  0.07270  0.05030  Biso   1.000  C  -0.147341
  C160     1.0000 0.20890  0.03360  0.04700  Biso   1.000  C  0.047399
  C161     1.0000 0.54410  0.34070  0.11430  Biso   1.000  C  0.580357
  C162     1.0000 0.56000  0.35200  0.15410  Biso   1.000  C  -0.019581
  C163     1.0000 0.51060  0.32960  0.17740  Biso   1.000  C  -0.101986
  C164     1.0000 0.52800  0.34030  0.21520  Biso   1.000  C  -0.049605
  C165     1.0000 0.58510  0.37030  0.22910  Biso   1.000  C  0.035260
  C166     1.0000 0.63350  0.39310  0.20260  Biso   1.000  C  -0.131029
  C167     1.0000 0.61850  0.38170  0.16460  Biso   1.000  C  -0.083553
  C168     1.0000 0.50520  0.33180  0.98234  Biso   1.000  C  0.049249
  C169     1.0000 0.54200  0.33350  0.95505  Biso   1.000  C  0.014640
  C170     1.0000 0.45700  0.42630  0.04050  Biso   1.000  C  0.047942
  C171     1.0000 0.78150  0.11580  0.05135  Biso   1.000  C  0.608172
  C172     1.0000 0.84660  0.13760  0.04855  Biso   1.000  C  -0.033324
  C173     1.0000 0.88740  0.19800  0.04477  Biso   1.000  C  -0.100460
  C174     1.0000 0.86620  0.09660  0.05160  Biso   1.000  C  -0.079860
  C175     1.0000 0.94750  0.21630  0.04380  Biso   1.000  C  -0.059768
  C176     1.0000 0.92730  0.11530  0.05030  Biso   1.000  C  -0.147343
  C177     1.0000 0.96640  0.17530  0.04700  Biso   1.000  C  0.047400
  C178     1.0000 0.65930  0.20340  0.11430  Biso   1.000  C  0.580354
  C179     1.0000 0.64800  0.20800  0.15410  Biso   1.000  C  -0.019581
  C180     1.0000 0.67040  0.18100  0.17740  Biso   1.000  C  -0.101986
  C181     1.0000 0.65970  0.18770  0.21520  Biso   1.000  C  -0.049604
  C182     1.0000 0.62970  0.21480  0.22910  Biso   1.000  C  0.035261
  C183     1.0000 0.60690  0.24040  0.20260  Biso   1.000  C  -0.131028
  C184     1.0000 0.61830  0.23680  0.16460  Biso   1.000  C  -0.083555
  C185     1.0000 0.66820  0.17340  0.98234  Biso   1.000  C  0.049250
  C186     1.0000 0.66650  0.20850  0.95505  Biso   1.000  C  0.014641
  C187     1.0000 0.57370  0.03070  0.04050  Biso   1.000  C  0.047940
  C188     1.0000 0.88420  0.66570  0.05135  Biso   1.000  C  0.608172
  C189     1.0000 0.86240  0.70900  0.04855  Biso   1.000  C  -0.033324
  C190     1.0000 0.80200  0.68940  0.04477  Biso   1.000  C  -0.100460
  C191     1.0000 0.90340  0.76960  0.05160  Biso   1.000  C  -0.079861
  C192     1.0000 0.78370  0.73120  0.04380  Biso   1.000  C  -0.059768
  C193     1.0000 0.88470  0.81200  0.05030  Biso   1.000  C  -0.147345
  C194     1.0000 0.82470  0.79110  0.04700  Biso   1.000  C  0.047401
  C195     1.0000 0.79660  0.45590  0.11430  Biso   1.000  C  0.580355
  C196     1.0000 0.79200  0.44000  0.15410  Biso   1.000  C  -0.019581
  C197     1.0000 0.81900  0.48940  0.17740  Biso   1.000  C  -0.101987
  C198     1.0000 0.81230  0.47200  0.21520  Biso   1.000  C  -0.049603
  C199     1.0000 0.78520  0.41490  0.22910  Biso   1.000  C  0.035260
  C200     1.0000 0.75960  0.36650  0.20260  Biso   1.000  C  -0.131029
  C201     1.0000 0.76320  0.38150  0.16460  Biso   1.000  C  -0.083553
  C202     1.0000 0.82660  0.49480  0.98234  Biso   1.000  C  0.049250
  C203     1.0000 0.79150  0.45800  0.95505  Biso   1.000  C  0.014639
  C204     1.0000 0.96930  0.54300  0.04050  Biso   1.000  C  0.047943
  C205     1.0000 0.11580  0.78150  0.05135  Biso   1.000  C  0.608172
  C206     1.0000 0.13760  0.84660  0.04855  Biso   1.000  C  -0.033324
  C207     1.0000 0.19800  0.88740  0.04477  Biso   1.000  C  -0.100460
  C208     1.0000 0.09660  0.86620  0.05160  Biso   1.000  C  -0.079861
  C209     1.0000 0.21630  0.94750  0.04380  Biso   1.000  C  -0.059768
  C210     1.0000 0.11530  0.92730  0.05030  Biso   1.000  C  -0.147343
  C211     1.0000 0.17530  0.96640  0.04700  Biso   1.000  C  0.047400
  C212     1.0000 0.20340  0.65930  0.11430  Biso   1.000  C  0.580354
  C213     1.0000 0.20800  0.64800  0.15410  Biso   1.000  C  -0.019581
  C214     1.0000 0.18100  0.67040  0.17740  Biso   1.000  C  -0.101987
  C215     1.0000 0.18770  0.65970  0.21520  Biso   1.000  C  -0.049604
  C216     1.0000 0.21480  0.62970  0.22910  Biso   1.000  C  0.035260
  C217     1.0000 0.24040  0.60690  0.20260  Biso   1.000  C  -0.131028
  C218     1.0000 0.23680  0.61830  0.16460  Biso   1.000  C  -0.083554
  C219     1.0000 0.17340  0.66820  0.98234  Biso   1.000  C  0.049250
  C220     1.0000 0.20850  0.66650  0.95505  Biso   1.000  C  0.014640
  C221     1.0000 0.03070  0.57370  0.04050  Biso   1.000  C  0.047954
  C222     1.0000 0.66570  0.88420  0.05135  Biso   1.000  C  0.608172
  C223     1.0000 0.70900  0.86240  0.04855  Biso   1.000  C  -0.033324
  C224     1.0000 0.68940  0.80200  0.04477  Biso   1.000  C  -0.100460
  C225     1.0000 0.76960  0.90340  0.05160  Biso   1.000  C  -0.079861
  C226     1.0000 0.73120  0.78370  0.04380  Biso   1.000  C  -0.059768
  C227     1.0000 0.81200  0.88470  0.05030  Biso   1.000  C  -0.147345
  C228     1.0000 0.79110  0.82470  0.04700  Biso   1.000  C  0.047400
  C229     1.0000 0.45590  0.79660  0.11430  Biso   1.000  C  0.580355
  C230     1.0000 0.44000  0.79200  0.15410  Biso   1.000  C  -0.019581
  C231     1.0000 0.48940  0.81900  0.17740  Biso   1.000  C  -0.101986
  C232     1.0000 0.47200  0.81230  0.21520  Biso   1.000  C  -0.049604
  C233     1.0000 0.41490  0.78520  0.22910  Biso   1.000  C  0.035260
  C234     1.0000 0.36650  0.75960  0.20260  Biso   1.000  C  -0.131029
  C235     1.0000 0.38150  0.76320  0.16460  Biso   1.000  C  -0.083553
  C236     1.0000 0.49480  0.82660  0.98234  Biso   1.000  C  0.049250
  C237     1.0000 0.45800  0.79150  0.95505  Biso   1.000  C  0.014639
  C238     1.0000 0.54300  0.96930  0.04050  Biso   1.000  C  0.047956
  C239     1.0000 0.21850  0.33430  0.05135  Biso   1.000  C  0.608170
  C240     1.0000 0.15340  0.29100  0.04855  Biso   1.000  C  -0.033325
  C241     1.0000 0.11260  0.31060  0.04477  Biso   1.000  C  -0.100459
  C242     1.0000 0.13380  0.23040  0.05160  Biso   1.000  C  -0.079859
  C243     1.0000 0.05250  0.26880  0.04380  Biso   1.000  C  -0.059769
  C244     1.0000 0.07270  0.18800  0.05030  Biso   1.000  C  -0.147341
  C245     1.0000 0.03360  0.20890  0.04700  Biso   1.000  C  0.047399
  C246     1.0000 0.34070  0.54410  0.11430  Biso   1.000  C  0.580357
  C247     1.0000 0.35200  0.56000  0.15410  Biso   1.000  C  -0.019581
  C248     1.0000 0.32960  0.51060  0.17740  Biso   1.000  C  -0.101987
  C249     1.0000 0.34030  0.52800  0.21520  Biso   1.000  C  -0.049605
  C250     1.0000 0.37030  0.58510  0.22910  Biso   1.000  C  0.035259
  C251     1.0000 0.39310  0.63350  0.20260  Biso   1.000  C  -0.131030
  C252     1.0000 0.38170  0.61850  0.16460  Biso   1.000  C  -0.083553
  C253     1.0000 0.33180  0.50520  0.98234  Biso   1.000  C  0.049249
  C254     1.0000 0.33350  0.54200  0.95505  Biso   1.000  C  0.014640
  C255     1.0000 0.42630  0.45700  0.04050  Biso   1.000  C  0.047956
  C256     1.0000 0.88420  0.21850  0.55135  Biso   1.000  C  0.608172
  C257     1.0000 0.86240  0.15340  0.54855  Biso   1.000  C  -0.033324
  C258     1.0000 0.80200  0.11260  0.54477  Biso   1.000  C  -0.100460
  C259     1.0000 0.90340  0.13380  0.55160  Biso   1.000  C  -0.079861
  C260     1.0000 0.78370  0.05250  0.54380  Biso   1.000  C  -0.059768
  C261     1.0000 0.88470  0.07270  0.55030  Biso   1.000  C  -0.147343
  C262     1.0000 0.82470  0.03360  0.54700  Biso   1.000  C  0.047400
  C263     1.0000 0.79660  0.34070  0.61430  Biso   1.000  C  0.580354
  C264     1.0000 0.79200  0.35200  0.65410  Biso   1.000  C  -0.019581
  C265     1.0000 0.81900  0.32960  0.67740  Biso   1.000  C  -0.101987
  C266     1.0000 0.81230  0.34030  0.71520  Biso   1.000  C  -0.049604
  C267     1.0000 0.78520  0.37030  0.72910  Biso   1.000  C  0.035260
  C268     1.0000 0.75960  0.39310  0.70260  Biso   1.000  C  -0.131028
  C269     1.0000 0.76320  0.38170  0.66460  Biso   1.000  C  -0.083554
  C270     1.0000 0.82660  0.33180  0.48234  Biso   1.000  C  0.049250
  C271     1.0000 0.79150  0.33350  0.45505  Biso   1.000  C  0.014640
  C272     1.0000 0.96930  0.42630  0.54050  Biso   1.000  C  0.047954
  C273     1.0000 0.33430  0.11580  0.55135  Biso   1.000  C  0.608172
  C274     1.0000 0.29100  0.13760  0.54855  Biso   1.000  C  -0.033324
  C275     1.0000 0.31060  0.19800  0.54477  Biso   1.000  C  -0.100460
  C276     1.0000 0.23040  0.09660  0.55160  Biso   1.000  C  -0.079861
  C277     1.0000 0.26880  0.21630  0.54380  Biso   1.000  C  -0.059768
  C278     1.0000 0.18800  0.11530  0.55030  Biso   1.000  C  -0.147345
  C279     1.0000 0.20890  0.17530  0.54700  Biso   1.000  C  0.047400
  C280     1.0000 0.54410  0.20340  0.61430  Biso   1.000  C  0.580355
  C281     1.0000 0.56000  0.20800  0.65410  Biso   1.000  C  -0.019581
  C282     1.0000 0.51060  0.18100  0.67740  Biso   1.000  C  -0.101986
  C283     1.0000 0.52800  0.18770  0.71520  Biso   1.000  C  -0.049604
  C284     1.0000 0.58510  0.21480  0.72910  Biso   1.000  C  0.035260
  C285     1.0000 0.63350  0.24040  0.70260  Biso   1.000  C  -0.131029
  C286     1.0000 0.61850  0.23680  0.66460  Biso   1.000  C  -0.083553
  C287     1.0000 0.50520  0.17340  0.48234  Biso   1.000  C  0.049250
  C288     1.0000 0.54200  0.20850  0.45505  Biso   1.000  C  0.014639
  C289     1.0000 0.45700  0.03070  0.54050  Biso   1.000  C  0.047956
  C290     1.0000 0.78150  0.66570  0.55135  Biso   1.000  C  0.608170
  C291     1.0000 0.84660  0.70900  0.54855  Biso   1.000  C  -0.033325
  C292     1.0000 0.88740  0.68940  0.54477  Biso   1.000  C  -0.100459
  C293     1.0000 0.86620  0.76960  0.55160  Biso   1.000  C  -0.079859
  C294     1.0000 0.94750  0.73120  0.54380  Biso   1.000  C  -0.059769
  C295     1.0000 0.92730  0.81200  0.55030  Biso   1.000  C  -0.147341
  C296     1.0000 0.96640  0.79110  0.54700  Biso   1.000  C  0.047399
  C297     1.0000 0.65930  0.45590  0.61430  Biso   1.000  C  0.580357
  C298     1.0000 0.64800  0.44000  0.65410  Biso   1.000  C  -0.019581
  C299     1.0000 0.67040  0.48940  0.67740  Biso   1.000  C  -0.101987
  C300     1.0000 0.65970  0.47200  0.71520  Biso   1.000  C  -0.049605
  C301     1.0000 0.62970  0.41490  0.72910  Biso   1.000  C  0.035259
  C302     1.0000 0.60690  0.36650  0.70260  Biso   1.000  C  -0.131030
  C303     1.0000 0.61830  0.38150  0.66460  Biso   1.000  C  -0.083553
  C304     1.0000 0.66820  0.49480  0.48234  Biso   1.000  C  0.049249
  C305     1.0000 0.66650  0.45800  0.45505  Biso   1.000  C  0.014640
  C306     1.0000 0.57370  0.54300  0.54050  Biso   1.000  C  0.047956
  C307     1.0000 0.33430  0.21850  0.44865  Biso   1.000  C  0.608170
  C308     1.0000 0.29100  0.15340  0.45145  Biso   1.000  C  -0.033325
  C309     1.0000 0.31060  0.11260  0.45523  Biso   1.000  C  -0.100459
  C310     1.0000 0.23040  0.13380  0.44840  Biso   1.000  C  -0.079859
  C311     1.0000 0.26880  0.05250  0.45620  Biso   1.000  C  -0.059769
  C312     1.0000 0.18800  0.07270  0.44970  Biso   1.000  C  -0.147341
  C313     1.0000 0.20890  0.03360  0.45300  Biso   1.000  C  0.047399
  C314     1.0000 0.54410  0.34070  0.38570  Biso   1.000  C  0.580357
  C315     1.0000 0.56000  0.35200  0.34590  Biso   1.000  C  -0.019581
  C316     1.0000 0.51060  0.32960  0.32260  Biso   1.000  C  -0.101986
  C317     1.0000 0.52800  0.34030  0.28480  Biso   1.000  C  -0.049605
  C318     1.0000 0.58510  0.37030  0.27090  Biso   1.000  C  0.035259
  C319     1.0000 0.63350  0.39310  0.29740  Biso   1.000  C  -0.131030
  C320     1.0000 0.61850  0.38170  0.33540  Biso   1.000  C  -0.083553
  C321     1.0000 0.50520  0.33180  0.51766  Biso   1.000  C  0.049249
  C322     1.0000 0.54200  0.33350  0.54495  Biso   1.000  C  0.014640
  C323     1.0000 0.45700  0.42630  0.45950  Biso   1.000  C  0.047956
  C324     1.0000 0.78150  0.11580  0.44865  Biso   1.000  C  0.608172
  C325     1.0000 0.84660  0.13760  0.45145  Biso   1.000  C  -0.033324
  C326     1.0000 0.88740  0.19800  0.45523  Biso   1.000  C  -0.100460
  C327     1.0000 0.86620  0.09660  0.44840  Biso   1.000  C  -0.079861
  C328     1.0000 0.94750  0.21630  0.45620  Biso   1.000  C  -0.059768
  C329     1.0000 0.92730  0.11530  0.44970  Biso   1.000  C  -0.147343
  C330     1.0000 0.96640  0.17530  0.45300  Biso   1.000  C  0.047400
  C331     1.0000 0.65930  0.20340  0.38570  Biso   1.000  C  0.580354
  C332     1.0000 0.64800  0.20800  0.34590  Biso   1.000  C  -0.019581
  C333     1.0000 0.67040  0.18100  0.32260  Biso   1.000  C  -0.101987
  C334     1.0000 0.65970  0.18770  0.28480  Biso   1.000  C  -0.049604
  C335     1.0000 0.62970  0.21480  0.27090  Biso   1.000  C  0.035260
  C336     1.0000 0.60690  0.24040  0.29740  Biso   1.000  C  -0.131029
  C337     1.0000 0.61830  0.23680  0.33540  Biso   1.000  C  -0.083554
  C338     1.0000 0.66820  0.17340  0.51766  Biso   1.000  C  0.049250
  C339     1.0000 0.66650  0.20850  0.54495  Biso   1.000  C  0.014641
  C340     1.0000 0.57370  0.03070  0.45950  Biso   1.000  C  0.047954
  C341     1.0000 0.88420  0.66570  0.44865  Biso   1.000  C  0.608172
  C342     1.0000 0.86240  0.70900  0.45145  Biso   1.000  C  -0.033324
  C343     1.0000 0.80200  0.68940  0.45523  Biso   1.000  C  -0.100460
  C344     1.0000 0.90340  0.76960  0.44840  Biso   1.000  C  -0.079861
  C345     1.0000 0.78370  0.73120  0.45620  Biso   1.000  C  -0.059768
  C346     1.0000 0.88470  0.81200  0.44970  Biso   1.000  C  -0.147345
  C347     1.0000 0.82470  0.79110  0.45300  Biso   1.000  C  0.047400
  C348     1.0000 0.79660  0.45590  0.38570  Biso   1.000  C  0.580355
  C349     1.0000 0.79200  0.44000  0.34590  Biso   1.000  C  -0.019581
  C350     1.0000 0.81900  0.48940  0.32260  Biso   1.000  C  -0.101987
  C351     1.0000 0.81230  0.47200  0.28480  Biso   1.000  C  -0.049603
  C352     1.0000 0.78520  0.41490  0.27090  Biso   1.000  C  0.035260
  C353     1.0000 0.75960  0.36650  0.29740  Biso   1.000  C  -0.131029
  C354     1.0000 0.76320  0.38150  0.33540  Biso   1.000  C  -0.083553
  C355     1.0000 0.82660  0.49480  0.51766  Biso   1.000  C  0.049250
  C356     1.0000 0.79150  0.45800  0.54495  Biso   1.000  C  0.014639
  C357     1.0000 0.96930  0.54300  0.45950  Biso   1.000  C  0.047956
  C358     1.0000 0.66570  0.78150  0.94865  Biso   1.000  C  0.608170
  C359     1.0000 0.70900  0.84660  0.95145  Biso   1.000  C  -0.033325
  C360     1.0000 0.68940  0.88740  0.95523  Biso   1.000  C  -0.100459
  C361     1.0000 0.76960  0.86620  0.94840  Biso   1.000  C  -0.079859
  C362     1.0000 0.73120  0.94750  0.95620  Biso   1.000  C  -0.059769
  C363     1.0000 0.81200  0.92730  0.94970  Biso   1.000  C  -0.147341
  C364     1.0000 0.79110  0.96640  0.95300  Biso   1.000  C  0.047399
  C365     1.0000 0.45590  0.65930  0.88570  Biso   1.000  C  0.580357
  C366     1.0000 0.44000  0.64800  0.84590  Biso   1.000  C  -0.019581
  C367     1.0000 0.48940  0.67040  0.82260  Biso   1.000  C  -0.101986
  C368     1.0000 0.47200  0.65970  0.78480  Biso   1.000  C  -0.049605
  C369     1.0000 0.41490  0.62970  0.77090  Biso   1.000  C  0.035259
  C370     1.0000 0.36650  0.60690  0.79740  Biso   1.000  C  -0.131030
  C371     1.0000 0.38150  0.61830  0.83540  Biso   1.000  C  -0.083553
  C372     1.0000 0.49480  0.66820  0.01766  Biso   1.000  C  0.049249
  C373     1.0000 0.45800  0.66650  0.04495  Biso   1.000  C  0.014640
  C374     1.0000 0.54300  0.57370  0.95950  Biso   1.000  C  0.047956
  C375     1.0000 0.21850  0.88420  0.94865  Biso   1.000  C  0.608172
  C376     1.0000 0.15340  0.86240  0.95145  Biso   1.000  C  -0.033324
  C377     1.0000 0.11260  0.80200  0.95523  Biso   1.000  C  -0.100460
  C378     1.0000 0.13380  0.90340  0.94840  Biso   1.000  C  -0.079861
  C379     1.0000 0.05250  0.78370  0.95620  Biso   1.000  C  -0.059768
  C380     1.0000 0.07270  0.88470  0.94970  Biso   1.000  C  -0.147343
  C381     1.0000 0.03360  0.82470  0.95300  Biso   1.000  C  0.047400
  C382     1.0000 0.34070  0.79660  0.88570  Biso   1.000  C  0.580354
  C383     1.0000 0.35200  0.79200  0.84590  Biso   1.000  C  -0.019581
  C384     1.0000 0.32960  0.81900  0.82260  Biso   1.000  C  -0.101987
  C385     1.0000 0.34030  0.81230  0.78480  Biso   1.000  C  -0.049604
  C386     1.0000 0.37030  0.78520  0.77090  Biso   1.000  C  0.035260
  C387     1.0000 0.39310  0.75960  0.79740  Biso   1.000  C  -0.131029
  C388     1.0000 0.38170  0.76320  0.83540  Biso   1.000  C  -0.083554
  C389     1.0000 0.33180  0.82660  0.01766  Biso   1.000  C  0.049250
  C390     1.0000 0.33350  0.79150  0.04495  Biso   1.000  C  0.014641
  C391     1.0000 0.42630  0.96930  0.95950  Biso   1.000  C  0.047954
  C392     1.0000 0.11580  0.33430  0.94865  Biso   1.000  C  0.608172
  C393     1.0000 0.13760  0.29100  0.95145  Biso   1.000  C  -0.033324
  C394     1.0000 0.19800  0.31060  0.95523  Biso   1.000  C  -0.100460
  C395     1.0000 0.09660  0.23040  0.94840  Biso   1.000  C  -0.079861
  C396     1.0000 0.21630  0.26880  0.95620  Biso   1.000  C  -0.059768
  C397     1.0000 0.11530  0.18800  0.94970  Biso   1.000  C  -0.147345
  C398     1.0000 0.17530  0.20890  0.95300  Biso   1.000  C  0.047400
  C399     1.0000 0.20340  0.54410  0.88570  Biso   1.000  C  0.580355
  C400     1.0000 0.20800  0.56000  0.84590  Biso   1.000  C  -0.019581
  C401     1.0000 0.18100  0.51060  0.82260  Biso   1.000  C  -0.101987
  C402     1.0000 0.18770  0.52800  0.78480  Biso   1.000  C  -0.049603
  C403     1.0000 0.21480  0.58510  0.77090  Biso   1.000  C  0.035260
  C404     1.0000 0.24040  0.63350  0.79740  Biso   1.000  C  -0.131029
  C405     1.0000 0.23680  0.61850  0.83540  Biso   1.000  C  -0.083553
  C406     1.0000 0.17340  0.50520  0.01766  Biso   1.000  C  0.049250
  C407     1.0000 0.20850  0.54200  0.04495  Biso   1.000  C  0.014639
  C408     1.0000 0.03070  0.45700  0.95950  Biso   1.000  C  0.047956
  C409     1.0000 0.72230  0.00000  0.95830  Biso   1.000  C  0.377975
  C410     1.0000 0.27770  0.27770  0.95830  Biso   1.000  C  0.377976
  C411     1.0000 0.00000  0.72230  0.95830  Biso   1.000  C  0.377975
  C412     1.0000 0.27770  0.00000  0.45830  Biso   1.000  C  0.377975
  C413     1.0000 0.72230  0.72230  0.45830  Biso   1.000  C  0.377976
  C414     1.0000 1.00000  0.27770  0.45830  Biso   1.000  C  0.377975
  C415     1.0000 0.72230  0.00000  0.54170  Biso   1.000  C  0.377975
  C416     1.0000 0.00000  0.72230  0.54170  Biso   1.000  C  0.377975
  C417     1.0000 0.27770  0.27770  0.54170  Biso   1.000  C  0.377976
  C418     1.0000 0.27770  0.00000  0.04170  Biso   1.000  C  0.377975
  C419     1.0000 1.00000  0.27770  0.04170  Biso   1.000  C  0.377975
  C420     1.0000 0.72230  0.72230  0.04170  Biso   1.000  C  0.377976
  C421     1.0000 0.83640  0.32380  0.75000  Biso   1.000  C  0.313402
  C422     1.0000 0.48740  0.16360  0.75000  Biso   1.000  C  0.313404
  C423     1.0000 0.67620  0.51260  0.75000  Biso   1.000  C  0.313405
  C424     1.0000 0.16360  0.67620  0.25000  Biso   1.000  C  0.313402
  C425     1.0000 0.51260  0.83640  0.25000  Biso   1.000  C  0.313404
  C426     1.0000 0.32380  0.48740  0.25000  Biso   1.000  C  0.313405
  C427     1.0000 0.51260  0.67620  0.75000  Biso   1.000  C  0.313403
  C428     1.0000 0.32380  0.83640  0.75000  Biso   1.000  C  0.313402
  C429     1.0000 0.16360  0.48740  0.75000  Biso   1.000  C  0.313403
  C430     1.0000 0.48740  0.32380  0.25000  Biso   1.000  C  0.313403
  C431     1.0000 0.67620  0.16360  0.25000  Biso   1.000  C  0.313402
  C432     1.0000 0.83640  0.51260  0.25000  Biso   1.000  C  0.313403
  H1       1.0000 0.77460  0.12540  0.95700  Biso   1.000  H  0.128235
  H2       1.0000 0.94350  0.16140  0.94560  Biso   1.000  H  0.117957
  H3       1.0000 0.91180  0.05940  0.94840  Biso   1.000  H  0.119460
  H4       1.0000 0.83870  0.31020  0.83080  Biso   1.000  H  0.152428
  H5       1.0000 0.74150  0.41420  0.78960  Biso   1.000  H  0.119132
  H6       1.0000 0.74620  0.39440  0.85330  Biso   1.000  H  0.128036
  H7       1.0000 0.82920  0.29640  0.02230  Biso   1.000  H  0.060371
  H8       1.0000 0.86590  0.36520  0.02210  Biso   1.000  H  0.058012
  H9       1.0000 0.81460  0.36890  0.05980  Biso   1.000  H  0.080346
  H10      1.0000 0.77920  0.29950  0.06110  Biso   1.000  H  0.078634
  H11      1.0000 0.95570  0.42870  0.98430  Biso   1.000  H  0.062407
  H12      1.0000 0.95570  0.44590  0.94250  Biso   1.000  H  0.061924
  H13      1.0000 0.35080  0.22540  0.95700  Biso   1.000  H  0.128236
  H14      1.0000 0.21790  0.05650  0.94560  Biso   1.000  H  0.117957
  H15      1.0000 0.14760  0.08820  0.94840  Biso   1.000  H  0.119460
  H16      1.0000 0.47150  0.16130  0.83080  Biso   1.000  H  0.152427
  H17      1.0000 0.67270  0.25850  0.78960  Biso   1.000  H  0.119133
  H18      1.0000 0.64820  0.25380  0.85330  Biso   1.000  H  0.128037
  H19      1.0000 0.46720  0.17080  0.02230  Biso   1.000  H  0.060370
  H20      1.0000 0.49930  0.13410  0.02210  Biso   1.000  H  0.058013
  H21      1.0000 0.55430  0.18540  0.05980  Biso   1.000  H  0.080346
  H22      1.0000 0.52030  0.22080  0.06110  Biso   1.000  H  0.078635
  H23      1.0000 0.47300  0.04430  0.98430  Biso   1.000  H  0.062407
  H24      1.0000 0.49020  0.04430  0.94250  Biso   1.000  H  0.061922
  H25      1.0000 0.87460  0.64920  0.95700  Biso   1.000  H  0.128236
  H26      1.0000 0.83860  0.78210  0.94560  Biso   1.000  H  0.117956
  H27      1.0000 0.94060  0.85240  0.94840  Biso   1.000  H  0.119460
  H28      1.0000 0.68980  0.52850  0.83080  Biso   1.000  H  0.152428
  H29      1.0000 0.58580  0.32730  0.78960  Biso   1.000  H  0.119132
  H30      1.0000 0.60560  0.35180  0.85330  Biso   1.000  H  0.128036
  H31      1.0000 0.70360  0.53280  0.02230  Biso   1.000  H  0.060369
  H32      1.0000 0.63480  0.50070  0.02210  Biso   1.000  H  0.058011
  H33      1.0000 0.63110  0.44570  0.05980  Biso   1.000  H  0.080347
  H34      1.0000 0.70050  0.47970  0.06110  Biso   1.000  H  0.078634
  H35      1.0000 0.57130  0.52700  0.98430  Biso   1.000  H  0.062407
  H36      1.0000 0.55410  0.50980  0.94250  Biso   1.000  H  0.061924
  H37      1.0000 0.22540  0.87460  0.45700  Biso   1.000  H  0.128235
  H38      1.0000 0.05650  0.83860  0.44560  Biso   1.000  H  0.117957
  H39      1.0000 0.08820  0.94060  0.44840  Biso   1.000  H  0.119460
  H40      1.0000 0.16130  0.68980  0.33080  Biso   1.000  H  0.152428
  H41      1.0000 0.25850  0.58580  0.28960  Biso   1.000  H  0.119132
  H42      1.0000 0.25380  0.60560  0.35330  Biso   1.000  H  0.128036
  H43      1.0000 0.17080  0.70360  0.52230  Biso   1.000  H  0.060371
  H44      1.0000 0.13410  0.63480  0.52210  Biso   1.000  H  0.058012
  H45      1.0000 0.18540  0.63110  0.55980  Biso   1.000  H  0.080346
  H46      1.0000 0.22080  0.70050  0.56110  Biso   1.000  H  0.078634
  H47      1.0000 0.04430  0.57130  0.48430  Biso   1.000  H  0.062407
  H48      1.0000 0.04430  0.55410  0.44250  Biso   1.000  H  0.061924
  H49      1.0000 0.64920  0.77460  0.45700  Biso   1.000  H  0.128236
  H50      1.0000 0.78210  0.94350  0.44560  Biso   1.000  H  0.117957
  H51      1.0000 0.85240  0.91180  0.44840  Biso   1.000  H  0.119460
  H52      1.0000 0.52850  0.83870  0.33080  Biso   1.000  H  0.152427
  H53      1.0000 0.32730  0.74150  0.28960  Biso   1.000  H  0.119133
  H54      1.0000 0.35180  0.74620  0.35330  Biso   1.000  H  0.128037
  H55      1.0000 0.53280  0.82920  0.52230  Biso   1.000  H  0.060370
  H56      1.0000 0.50070  0.86590  0.52210  Biso   1.000  H  0.058013
  H57      1.0000 0.44570  0.81460  0.55980  Biso   1.000  H  0.080346
  H58      1.0000 0.47970  0.77920  0.56110  Biso   1.000  H  0.078635
  H59      1.0000 0.52700  0.95570  0.48430  Biso   1.000  H  0.062407
  H60      1.0000 0.50980  0.95570  0.44250  Biso   1.000  H  0.061922
  H61      1.0000 0.12540  0.35080  0.45700  Biso   1.000  H  0.128236
  H62      1.0000 0.16140  0.21790  0.44560  Biso   1.000  H  0.117956
  H63      1.0000 0.05940  0.14760  0.44840  Biso   1.000  H  0.119460
  H64      1.0000 0.31020  0.47150  0.33080  Biso   1.000  H  0.152428
  H65      1.0000 0.41420  0.67270  0.28960  Biso   1.000  H  0.119132
  H66      1.0000 0.39440  0.64820  0.35330  Biso   1.000  H  0.128036
  H67      1.0000 0.29640  0.46720  0.52230  Biso   1.000  H  0.060369
  H68      1.0000 0.36520  0.49930  0.52210  Biso   1.000  H  0.058011
  H69      1.0000 0.36890  0.55430  0.55980  Biso   1.000  H  0.080347
  H70      1.0000 0.29950  0.52030  0.56110  Biso   1.000  H  0.078634
  H71      1.0000 0.42870  0.47300  0.48430  Biso   1.000  H  0.062407
  H72      1.0000 0.44590  0.49020  0.44250  Biso   1.000  H  0.061924
  H73      1.0000 0.64920  0.87460  0.54300  Biso   1.000  H  0.128235
  H74      1.0000 0.78210  0.83860  0.55440  Biso   1.000  H  0.117956
  H75      1.0000 0.85240  0.94060  0.55160  Biso   1.000  H  0.119460
  H76      1.0000 0.52850  0.68980  0.66920  Biso   1.000  H  0.152427
  H77      1.0000 0.32730  0.58580  0.71040  Biso   1.000  H  0.119132
  H78      1.0000 0.35180  0.60560  0.64670  Biso   1.000  H  0.128036
  H79      1.0000 0.53280  0.70360  0.47770  Biso   1.000  H  0.060369
  H80      1.0000 0.50070  0.63480  0.47790  Biso   1.000  H  0.058011
  H81      1.0000 0.44570  0.63110  0.44020  Biso   1.000  H  0.080346
  H82      1.0000 0.47970  0.70050  0.43890  Biso   1.000  H  0.078634
  H83      1.0000 0.52700  0.57130  0.51570  Biso   1.000  H  0.062407
  H84      1.0000 0.50980  0.55410  0.55750  Biso   1.000  H  0.061923
  H85      1.0000 0.12540  0.77460  0.54300  Biso   1.000  H  0.128235
  H86      1.0000 0.16140  0.94350  0.55440  Biso   1.000  H  0.117957
  H87      1.0000 0.05940  0.91180  0.55160  Biso   1.000  H  0.119460
  H88      1.0000 0.31020  0.83870  0.66920  Biso   1.000  H  0.152428
  H89      1.0000 0.41420  0.74150  0.71040  Biso   1.000  H  0.119132
  H90      1.0000 0.39440  0.74620  0.64670  Biso   1.000  H  0.128036
  H91      1.0000 0.29640  0.82920  0.47770  Biso   1.000  H  0.060371
  H92      1.0000 0.36520  0.86590  0.47790  Biso   1.000  H  0.058012
  H93      1.0000 0.36890  0.81460  0.44020  Biso   1.000  H  0.080346
  H94      1.0000 0.29950  0.77920  0.43890  Biso   1.000  H  0.078634
  H95      1.0000 0.42870  0.95570  0.51570  Biso   1.000  H  0.062407
  H96      1.0000 0.44590  0.95570  0.55750  Biso   1.000  H  0.061924
  H97      1.0000 0.22540  0.35080  0.54300  Biso   1.000  H  0.128236
  H98      1.0000 0.05650  0.21790  0.55440  Biso   1.000  H  0.117957
  H99      1.0000 0.08820  0.14760  0.55160  Biso   1.000  H  0.119460
  H100     1.0000 0.16130  0.47150  0.66920  Biso   1.000  H  0.152427
  H101     1.0000 0.25850  0.67270  0.71040  Biso   1.000  H  0.119133
  H102     1.0000 0.25380  0.64820  0.64670  Biso   1.000  H  0.128037
  H103     1.0000 0.17080  0.46720  0.47770  Biso   1.000  H  0.060370
  H104     1.0000 0.13410  0.49930  0.47790  Biso   1.000  H  0.058012
  H105     1.0000 0.18540  0.55430  0.44020  Biso   1.000  H  0.080345
  H106     1.0000 0.22080  0.52030  0.43890  Biso   1.000  H  0.078635
  H107     1.0000 0.04430  0.47300  0.51570  Biso   1.000  H  0.062407
  H108     1.0000 0.04430  0.49020  0.55750  Biso   1.000  H  0.061922
  H109     1.0000 0.35080  0.12540  0.04300  Biso   1.000  H  0.128235
  H110     1.0000 0.21790  0.16140  0.05440  Biso   1.000  H  0.117956
  H111     1.0000 0.14760  0.05940  0.05160  Biso   1.000  H  0.119460
  H112     1.0000 0.47150  0.31020  0.16920  Biso   1.000  H  0.152427
  H113     1.0000 0.67270  0.41420  0.21040  Biso   1.000  H  0.119132
  H114     1.0000 0.64820  0.39440  0.14670  Biso   1.000  H  0.128036
  H115     1.0000 0.46720  0.29640  0.97770  Biso   1.000  H  0.060369
  H116     1.0000 0.49930  0.36520  0.97790  Biso   1.000  H  0.058011
  H117     1.0000 0.55430  0.36890  0.94020  Biso   1.000  H  0.080346
  H118     1.0000 0.52030  0.29950  0.93890  Biso   1.000  H  0.078634
  H119     1.0000 0.47300  0.42870  0.01570  Biso   1.000  H  0.062407
  H120     1.0000 0.49020  0.44590  0.05750  Biso   1.000  H  0.061923
  H121     1.0000 0.87460  0.22540  0.04300  Biso   1.000  H  0.128235
  H122     1.0000 0.83860  0.05650  0.05440  Biso   1.000  H  0.117957
  H123     1.0000 0.94060  0.08820  0.05160  Biso   1.000  H  0.119460
  H124     1.0000 0.68980  0.16130  0.16920  Biso   1.000  H  0.152428
  H125     1.0000 0.58580  0.25850  0.21040  Biso   1.000  H  0.119132
  H126     1.0000 0.60560  0.25380  0.14670  Biso   1.000  H  0.128036
  H127     1.0000 0.70360  0.17080  0.97770  Biso   1.000  H  0.060371
  H128     1.0000 0.63480  0.13410  0.97790  Biso   1.000  H  0.058012
  H129     1.0000 0.63110  0.18540  0.94020  Biso   1.000  H  0.080346
  H130     1.0000 0.70050  0.22080  0.93890  Biso   1.000  H  0.078634
  H131     1.0000 0.57130  0.04430  0.01570  Biso   1.000  H  0.062407
  H132     1.0000 0.55410  0.04430  0.05750  Biso   1.000  H  0.061924
  H133     1.0000 0.77460  0.64920  0.04300  Biso   1.000  H  0.128236
  H134     1.0000 0.94350  0.78210  0.05440  Biso   1.000  H  0.117957
  H135     1.0000 0.91180  0.85240  0.05160  Biso   1.000  H  0.119460
  H136     1.0000 0.83870  0.52850  0.16920  Biso   1.000  H  0.152427
  H137     1.0000 0.74150  0.32730  0.21040  Biso   1.000  H  0.119133
  H138     1.0000 0.74620  0.35180  0.14670  Biso   1.000  H  0.128037
  H139     1.0000 0.82920  0.53280  0.97770  Biso   1.000  H  0.060370
  H140     1.0000 0.86590  0.50070  0.97790  Biso   1.000  H  0.058012
  H141     1.0000 0.81460  0.44570  0.94020  Biso   1.000  H  0.080345
  H142     1.0000 0.77920  0.47970  0.93890  Biso   1.000  H  0.078635
  H143     1.0000 0.95570  0.52700  0.01570  Biso   1.000  H  0.062407
  H144     1.0000 0.95570  0.50980  0.05750  Biso   1.000  H  0.061922
  H145     1.0000 0.22540  0.87460  0.04300  Biso   1.000  H  0.128235
  H146     1.0000 0.05650  0.83860  0.05440  Biso   1.000  H  0.117956
  H147     1.0000 0.08820  0.94060  0.05160  Biso   1.000  H  0.119460
  H148     1.0000 0.16130  0.68980  0.16920  Biso   1.000  H  0.152428
  H149     1.0000 0.25850  0.58580  0.21040  Biso   1.000  H  0.119132
  H150     1.0000 0.25380  0.60560  0.14670  Biso   1.000  H  0.128036
  H151     1.0000 0.17080  0.70360  0.97770  Biso   1.000  H  0.060371
  H152     1.0000 0.13410  0.63480  0.97790  Biso   1.000  H  0.058012
  H153     1.0000 0.18540  0.63110  0.94020  Biso   1.000  H  0.080346
  H154     1.0000 0.22080  0.70050  0.93890  Biso   1.000  H  0.078634
  H155     1.0000 0.04430  0.57130  0.01570  Biso   1.000  H  0.062406
  H156     1.0000 0.04430  0.55410  0.05750  Biso   1.000  H  0.061923
  H157     1.0000 0.64920  0.77460  0.04300  Biso   1.000  H  0.128236
  H158     1.0000 0.78210  0.94350  0.05440  Biso   1.000  H  0.117957
  H159     1.0000 0.85240  0.91180  0.05160  Biso   1.000  H  0.119460
  H160     1.0000 0.52850  0.83870  0.16920  Biso   1.000  H  0.152427
  H161     1.0000 0.32730  0.74150  0.21040  Biso   1.000  H  0.119132
  H162     1.0000 0.35180  0.74620  0.14670  Biso   1.000  H  0.128037
  H163     1.0000 0.53280  0.82920  0.97770  Biso   1.000  H  0.060370
  H164     1.0000 0.50070  0.86590  0.97790  Biso   1.000  H  0.058013
  H165     1.0000 0.44570  0.81460  0.94020  Biso   1.000  H  0.080346
  H166     1.0000 0.47970  0.77920  0.93890  Biso   1.000  H  0.078635
  H167     1.0000 0.52700  0.95570  0.01570  Biso   1.000  H  0.062406
  H168     1.0000 0.50980  0.95570  0.05750  Biso   1.000  H  0.061921
  H169     1.0000 0.12540  0.35080  0.04300  Biso   1.000  H  0.128236
  H170     1.0000 0.16140  0.21790  0.05440  Biso   1.000  H  0.117956
  H171     1.0000 0.05940  0.14760  0.05160  Biso   1.000  H  0.119460
  H172     1.0000 0.31020  0.47150  0.16920  Biso   1.000  H  0.152428
  H173     1.0000 0.41420  0.67270  0.21040  Biso   1.000  H  0.119132
  H174     1.0000 0.39440  0.64820  0.14670  Biso   1.000  H  0.128036
  H175     1.0000 0.29640  0.46720  0.97770  Biso   1.000  H  0.060369
  H176     1.0000 0.36520  0.49930  0.97790  Biso   1.000  H  0.058011
  H177     1.0000 0.36890  0.55430  0.94020  Biso   1.000  H  0.080347
  H178     1.0000 0.29950  0.52030  0.93890  Biso   1.000  H  0.078634
  H179     1.0000 0.42870  0.47300  0.01570  Biso   1.000  H  0.062407
  H180     1.0000 0.44590  0.49020  0.05750  Biso   1.000  H  0.061922
  H181     1.0000 0.77460  0.12540  0.54300  Biso   1.000  H  0.128235
  H182     1.0000 0.94350  0.16140  0.55440  Biso   1.000  H  0.117956
  H183     1.0000 0.91180  0.05940  0.55160  Biso   1.000  H  0.119460
  H184     1.0000 0.83870  0.31020  0.66920  Biso   1.000  H  0.152428
  H185     1.0000 0.74150  0.41420  0.71040  Biso   1.000  H  0.119132
  H186     1.0000 0.74620  0.39440  0.64670  Biso   1.000  H  0.128036
  H187     1.0000 0.82920  0.29640  0.47770  Biso   1.000  H  0.060371
  H188     1.0000 0.86590  0.36520  0.47790  Biso   1.000  H  0.058012
  H189     1.0000 0.81460  0.36890  0.44020  Biso   1.000  H  0.080346
  H190     1.0000 0.77920  0.29950  0.43890  Biso   1.000  H  0.078634
  H191     1.0000 0.95570  0.42870  0.51570  Biso   1.000  H  0.062406
  H192     1.0000 0.95570  0.44590  0.55750  Biso   1.000  H  0.061923
  H193     1.0000 0.35080  0.22540  0.54300  Biso   1.000  H  0.128236
  H194     1.0000 0.21790  0.05650  0.55440  Biso   1.000  H  0.117957
  H195     1.0000 0.14760  0.08820  0.55160  Biso   1.000  H  0.119460
  H196     1.0000 0.47150  0.16130  0.66920  Biso   1.000  H  0.152427
  H197     1.0000 0.67270  0.25850  0.71040  Biso   1.000  H  0.119132
  H198     1.0000 0.64820  0.25380  0.64670  Biso   1.000  H  0.128037
  H199     1.0000 0.46720  0.17080  0.47770  Biso   1.000  H  0.060370
  H200     1.0000 0.49930  0.13410  0.47790  Biso   1.000  H  0.058013
  H201     1.0000 0.55430  0.18540  0.44020  Biso   1.000  H  0.080346
  H202     1.0000 0.52030  0.22080  0.43890  Biso   1.000  H  0.078635
  H203     1.0000 0.47300  0.04430  0.51570  Biso   1.000  H  0.062406
  H204     1.0000 0.49020  0.04430  0.55750  Biso   1.000  H  0.061921
  H205     1.0000 0.87460  0.64920  0.54300  Biso   1.000  H  0.128236
  H206     1.0000 0.83860  0.78210  0.55440  Biso   1.000  H  0.117956
  H207     1.0000 0.94060  0.85240  0.55160  Biso   1.000  H  0.119460
  H208     1.0000 0.68980  0.52850  0.66920  Biso   1.000  H  0.152428
  H209     1.0000 0.58580  0.32730  0.71040  Biso   1.000  H  0.119132
  H210     1.0000 0.60560  0.35180  0.64670  Biso   1.000  H  0.128036
  H211     1.0000 0.70360  0.53280  0.47770  Biso   1.000  H  0.060369
  H212     1.0000 0.63480  0.50070  0.47790  Biso   1.000  H  0.058011
  H213     1.0000 0.63110  0.44570  0.44020  Biso   1.000  H  0.080347
  H214     1.0000 0.70050  0.47970  0.43890  Biso   1.000  H  0.078634
  H215     1.0000 0.57130  0.52700  0.51570  Biso   1.000  H  0.062407
  H216     1.0000 0.55410  0.50980  0.55750  Biso   1.000  H  0.061922
  H217     1.0000 0.35080  0.12540  0.45700  Biso   1.000  H  0.128235
  H218     1.0000 0.21790  0.16140  0.44560  Biso   1.000  H  0.117956
  H219     1.0000 0.14760  0.05940  0.44840  Biso   1.000  H  0.119460
  H220     1.0000 0.47150  0.31020  0.33080  Biso   1.000  H  0.152427
  H221     1.0000 0.67270  0.41420  0.28960  Biso   1.000  H  0.119132
  H222     1.0000 0.64820  0.39440  0.35330  Biso   1.000  H  0.128036
  H223     1.0000 0.46720  0.29640  0.52230  Biso   1.000  H  0.060369
  H224     1.0000 0.49930  0.36520  0.52210  Biso   1.000  H  0.058011
  H225     1.0000 0.55430  0.36890  0.55980  Biso   1.000  H  0.080346
  H226     1.0000 0.52030  0.29950  0.56110  Biso   1.000  H  0.078634
  H227     1.0000 0.47300  0.42870  0.48430  Biso   1.000  H  0.062407
  H228     1.0000 0.49020  0.44590  0.44250  Biso   1.000  H  0.061921
  H229     1.0000 0.87460  0.22540  0.45700  Biso   1.000  H  0.128235
  H230     1.0000 0.83860  0.05650  0.44560  Biso   1.000  H  0.117956
  H231     1.0000 0.94060  0.08820  0.44840  Biso   1.000  H  0.119460
  H232     1.0000 0.68980  0.16130  0.33080  Biso   1.000  H  0.152428
  H233     1.0000 0.58580  0.25850  0.28960  Biso   1.000  H  0.119132
  H234     1.0000 0.60560  0.25380  0.35330  Biso   1.000  H  0.128036
  H235     1.0000 0.70360  0.17080  0.52230  Biso   1.000  H  0.060371
  H236     1.0000 0.63480  0.13410  0.52210  Biso   1.000  H  0.058012
  H237     1.0000 0.63110  0.18540  0.55980  Biso   1.000  H  0.080346
  H238     1.0000 0.70050  0.22080  0.56110  Biso   1.000  H  0.078634
  H239     1.0000 0.57130  0.04430  0.48430  Biso   1.000  H  0.062406
  H240     1.0000 0.55410  0.04430  0.44250  Biso   1.000  H  0.061922
  H241     1.0000 0.77460  0.64920  0.45700  Biso   1.000  H  0.128236
  H242     1.0000 0.94350  0.78210  0.44560  Biso   1.000  H  0.117957
  H243     1.0000 0.91180  0.85240  0.44840  Biso   1.000  H  0.119460
  H244     1.0000 0.83870  0.52850  0.33080  Biso   1.000  H  0.152427
  H245     1.0000 0.74150  0.32730  0.28960  Biso   1.000  H  0.119133
  H246     1.0000 0.74620  0.35180  0.35330  Biso   1.000  H  0.128037
  H247     1.0000 0.82920  0.53280  0.52230  Biso   1.000  H  0.060370
  H248     1.0000 0.86590  0.50070  0.52210  Biso   1.000  H  0.058012
  H249     1.0000 0.81460  0.44570  0.55980  Biso   1.000  H  0.080345
  H250     1.0000 0.77920  0.47970  0.56110  Biso   1.000  H  0.078635
  H251     1.0000 0.95570  0.52700  0.48430  Biso   1.000  H  0.062406
  H252     1.0000 0.95570  0.50980  0.44250  Biso   1.000  H  0.061920
  H253     1.0000 0.64920  0.87460  0.95700  Biso   1.000  H  0.128235
  H254     1.0000 0.78210  0.83860  0.94560  Biso   1.000  H  0.117956
  H255     1.0000 0.85240  0.94060  0.94840  Biso   1.000  H  0.119460
  H256     1.0000 0.52850  0.68980  0.83080  Biso   1.000  H  0.152427
  H257     1.0000 0.32730  0.58580  0.78960  Biso   1.000  H  0.119132
  H258     1.0000 0.35180  0.60560  0.85330  Biso   1.000  H  0.128036
  H259     1.0000 0.53280  0.70360  0.02230  Biso   1.000  H  0.060369
  H260     1.0000 0.50070  0.63480  0.02210  Biso   1.000  H  0.058011
  H261     1.0000 0.44570  0.63110  0.05980  Biso   1.000  H  0.080346
  H262     1.0000 0.47970  0.70050  0.06110  Biso   1.000  H  0.078634
  H263     1.0000 0.52700  0.57130  0.98430  Biso   1.000  H  0.062407
  H264     1.0000 0.50980  0.55410  0.94250  Biso   1.000  H  0.061921
  H265     1.0000 0.12540  0.77460  0.95700  Biso   1.000  H  0.128235
  H266     1.0000 0.16140  0.94350  0.94560  Biso   1.000  H  0.117956
  H267     1.0000 0.05940  0.91180  0.94840  Biso   1.000  H  0.119460
  H268     1.0000 0.31020  0.83870  0.83080  Biso   1.000  H  0.152428
  H269     1.0000 0.41420  0.74150  0.78960  Biso   1.000  H  0.119132
  H270     1.0000 0.39440  0.74620  0.85330  Biso   1.000  H  0.128036
  H271     1.0000 0.29640  0.82920  0.02230  Biso   1.000  H  0.060371
  H272     1.0000 0.36520  0.86590  0.02210  Biso   1.000  H  0.058012
  H273     1.0000 0.36890  0.81460  0.05980  Biso   1.000  H  0.080346
  H274     1.0000 0.29950  0.77920  0.06110  Biso   1.000  H  0.078634
  H275     1.0000 0.42870  0.95570  0.98430  Biso   1.000  H  0.062406
  H276     1.0000 0.44590  0.95570  0.94250  Biso   1.000  H  0.061922
  H277     1.0000 0.22540  0.35080  0.95700  Biso   1.000  H  0.128236
  H278     1.0000 0.05650  0.21790  0.94560  Biso   1.000  H  0.117957
  H279     1.0000 0.08820  0.14760  0.94840  Biso   1.000  H  0.119460
  H280     1.0000 0.16130  0.47150  0.83080  Biso   1.000  H  0.152427
  H281     1.0000 0.25850  0.67270  0.78960  Biso   1.000  H  0.119132
  H282     1.0000 0.25380  0.64820  0.85330  Biso   1.000  H  0.128037
  H283     1.0000 0.17080  0.46720  0.02230  Biso   1.000  H  0.060370
  H284     1.0000 0.13410  0.49930  0.02210  Biso   1.000  H  0.058012
  H285     1.0000 0.18540  0.55430  0.05980  Biso   1.000  H  0.080345
  H286     1.0000 0.22080  0.52030  0.06110  Biso   1.000  H  0.078635
  H287     1.0000 0.04430  0.47300  0.98430  Biso   1.000  H  0.062406
  H288     1.0000 0.04430  0.49020  0.94250  Biso   1.000  H  0.061920
  O1       1.0000 0.93890  0.25300  0.94688  Biso   1.000  O  -0.560805
  O2       1.0000 0.84506  0.23367  0.94859  Biso   1.000  O  -0.546196
  O3       1.0000 0.76850  0.35340  0.90940  Biso   1.000  O  -0.547426
  O4       1.0000 0.83130  0.32050  0.89591  Biso   1.000  O  -0.586092
  O5       1.0000 0.81614  0.33196  0.98032  Biso   1.000  O  -0.588222
  O6       1.0000 0.73873  0.33363  0.03112  Biso   1.000  O  -0.587994
  O7       1.0000 0.94322  0.36746  0.94952  Biso   1.000  O  -0.605524
  O8       1.0000 0.31410  0.06110  0.94688  Biso   1.000  O  -0.560803
  O9       1.0000 0.38861  0.15494  0.94859  Biso   1.000  O  -0.546197
  O10      1.0000 0.58490  0.23150  0.90940  Biso   1.000  O  -0.547426
  O11      1.0000 0.48920  0.16870  0.89591  Biso   1.000  O  -0.586093
  O12      1.0000 0.51582  0.18386  0.98032  Biso   1.000  O  -0.588222
  O13      1.0000 0.59490  0.26127  0.03112  Biso   1.000  O  -0.587993
  O14      1.0000 0.42424  0.05678  0.94952  Biso   1.000  O  -0.605525
  O15      1.0000 0.74700  0.68590  0.94688  Biso   1.000  O  -0.560804
  O16      1.0000 0.76633  0.61139  0.94859  Biso   1.000  O  -0.546195
  O17      1.0000 0.64660  0.41510  0.90940  Biso   1.000  O  -0.547427
  O18      1.0000 0.67950  0.51080  0.89591  Biso   1.000  O  -0.586093
  O19      1.0000 0.66804  0.48418  0.98032  Biso   1.000  O  -0.588222
  O20      1.0000 0.66637  0.40510  0.03112  Biso   1.000  O  -0.587993
  O21      1.0000 0.63254  0.57576  0.94952  Biso   1.000  O  -0.605524
  O22      1.0000 0.06110  0.74700  0.44688  Biso   1.000  O  -0.560805
  O23      1.0000 0.15494  0.76633  0.44859  Biso   1.000  O  -0.546196
  O24      1.0000 0.23150  0.64660  0.40940  Biso   1.000  O  -0.547426
  O25      1.0000 0.16870  0.67950  0.39591  Biso   1.000  O  -0.586092
  O26      1.0000 0.18386  0.66804  0.48032  Biso   1.000  O  -0.588222
  O27      1.0000 0.26127  0.66637  0.53112  Biso   1.000  O  -0.587994
  O28      1.0000 0.05678  0.63254  0.44952  Biso   1.000  O  -0.605524
  O29      1.0000 0.68590  0.93890  0.44688  Biso   1.000  O  -0.560803
  O30      1.0000 0.61139  0.84506  0.44859  Biso   1.000  O  -0.546197
  O31      1.0000 0.41510  0.76850  0.40940  Biso   1.000  O  -0.547426
  O32      1.0000 0.51080  0.83130  0.39591  Biso   1.000  O  -0.586093
  O33      1.0000 0.48418  0.81614  0.48032  Biso   1.000  O  -0.588222
  O34      1.0000 0.40510  0.73873  0.53112  Biso   1.000  O  -0.587993
  O35      1.0000 0.57576  0.94322  0.44952  Biso   1.000  O  -0.605525
  O36      1.0000 0.25300  0.31410  0.44688  Biso   1.000  O  -0.560804
  O37      1.0000 0.23367  0.38861  0.44859  Biso   1.000  O  -0.546195
  O38      1.0000 0.35340  0.58490  0.40940  Biso   1.000  O  -0.547427
  O39      1.0000 0.32050  0.48920  0.39591  Biso   1.000  O  -0.586093
  O40      1.0000 0.33196  0.51582  0.48032  Biso   1.000  O  -0.588222
  O41      1.0000 0.33363  0.59490  0.53112  Biso   1.000  O  -0.587993
  O42      1.0000 0.36746  0.42424  0.44952  Biso   1.000  O  -0.605524
  O43      1.0000 0.68590  0.74700  0.55312  Biso   1.000  O  -0.560804
  O44      1.0000 0.61139  0.76633  0.55141  Biso   1.000  O  -0.546195
  O45      1.0000 0.41510  0.64660  0.59060  Biso   1.000  O  -0.547427
  O46      1.0000 0.51080  0.67950  0.60409  Biso   1.000  O  -0.586093
  O47      1.0000 0.48418  0.66804  0.51968  Biso   1.000  O  -0.588222
  O48      1.0000 0.40510  0.66637  0.46888  Biso   1.000  O  -0.587993
  O49      1.0000 0.57576  0.63254  0.55048  Biso   1.000  O  -0.605525
  O50      1.0000 0.25300  0.93890  0.55312  Biso   1.000  O  -0.560805
  O51      1.0000 0.23367  0.84506  0.55141  Biso   1.000  O  -0.546196
  O52      1.0000 0.35340  0.76850  0.59060  Biso   1.000  O  -0.547426
  O53      1.0000 0.32050  0.83130  0.60409  Biso   1.000  O  -0.586092
  O54      1.0000 0.33196  0.81614  0.51968  Biso   1.000  O  -0.588222
  O55      1.0000 0.33363  0.73873  0.46888  Biso   1.000  O  -0.587994
  O56      1.0000 0.36746  0.94322  0.55048  Biso   1.000  O  -0.605524
  O57      1.0000 0.06110  0.31410  0.55312  Biso   1.000  O  -0.560803
  O58      1.0000 0.15494  0.38861  0.55141  Biso   1.000  O  -0.546197
  O59      1.0000 0.23150  0.58490  0.59060  Biso   1.000  O  -0.547426
  O60      1.0000 0.16870  0.48920  0.60409  Biso   1.000  O  -0.586093
  O61      1.0000 0.18386  0.51582  0.51968  Biso   1.000  O  -0.588222
  O62      1.0000 0.26127  0.59490  0.46888  Biso   1.000  O  -0.587993
  O63      1.0000 0.05678  0.42424  0.55048  Biso   1.000  O  -0.605525
  O64      1.0000 0.31410  0.25300  0.05312  Biso   1.000  O  -0.560804
  O65      1.0000 0.38861  0.23367  0.05141  Biso   1.000  O  -0.546195
  O66      1.0000 0.58490  0.35340  0.09060  Biso   1.000  O  -0.547427
  O67      1.0000 0.48920  0.32050  0.10409  Biso   1.000  O  -0.586093
  O68      1.0000 0.51582  0.33196  0.01968  Biso   1.000  O  -0.588222
  O69      1.0000 0.59490  0.33363  0.96888  Biso   1.000  O  -0.587993
  O70      1.0000 0.42424  0.36746  0.05048  Biso   1.000  O  -0.605525
  O71      1.0000 0.74700  0.06110  0.05312  Biso   1.000  O  -0.560805
  O72      1.0000 0.76633  0.15494  0.05141  Biso   1.000  O  -0.546196
  O73      1.0000 0.64660  0.23150  0.09060  Biso   1.000  O  -0.547426
  O74      1.0000 0.67950  0.16870  0.10409  Biso   1.000  O  -0.586092
  O75      1.0000 0.66804  0.18386  0.01968  Biso   1.000  O  -0.588222
  O76      1.0000 0.66637  0.26127  0.96888  Biso   1.000  O  -0.587994
  O77      1.0000 0.63254  0.05678  0.05048  Biso   1.000  O  -0.605524
  O78      1.0000 0.93890  0.68590  0.05312  Biso   1.000  O  -0.560803
  O79      1.0000 0.84506  0.61139  0.05141  Biso   1.000  O  -0.546197
  O80      1.0000 0.76850  0.41510  0.09060  Biso   1.000  O  -0.547426
  O81      1.0000 0.83130  0.51080  0.10409  Biso   1.000  O  -0.586093
  O82      1.0000 0.81614  0.48418  0.01968  Biso   1.000  O  -0.588222
  O83      1.0000 0.73873  0.40510  0.96888  Biso   1.000  O  -0.587993
  O84      1.0000 0.94322  0.57576  0.05048  Biso   1.000  O  -0.605525
  O85      1.0000 0.06110  0.74700  0.05312  Biso   1.000  O  -0.560805
  O86      1.0000 0.15494  0.76633  0.05141  Biso   1.000  O  -0.546196
  O87      1.0000 0.23150  0.64660  0.09060  Biso   1.000  O  -0.547426
  O88      1.0000 0.16870  0.67950  0.10409  Biso   1.000  O  -0.586092
  O89      1.0000 0.18386  0.66804  0.01968  Biso   1.000  O  -0.588222
  O90      1.0000 0.26127  0.66637  0.96888  Biso   1.000  O  -0.587994
  O91      1.0000 0.05678  0.63254  0.05048  Biso   1.000  O  -0.605526
  O92      1.0000 0.68590  0.93890  0.05312  Biso   1.000  O  -0.560803
  O93      1.0000 0.61139  0.84506  0.05141  Biso   1.000  O  -0.546197
  O94      1.0000 0.41510  0.76850  0.09060  Biso   1.000  O  -0.547426
  O95      1.0000 0.51080  0.83130  0.10409  Biso   1.000  O  -0.586093
  O96      1.0000 0.48418  0.81614  0.01968  Biso   1.000  O  -0.588222
  O97      1.0000 0.40510  0.73873  0.96888  Biso   1.000  O  -0.587993
  O98      1.0000 0.57576  0.94322  0.05048  Biso   1.000  O  -0.605526
  O99      1.0000 0.25300  0.31410  0.05312  Biso   1.000  O  -0.560804
  O100     1.0000 0.23367  0.38861  0.05141  Biso   1.000  O  -0.546195
  O101     1.0000 0.35340  0.58490  0.09060  Biso   1.000  O  -0.547427
  O102     1.0000 0.32050  0.48920  0.10409  Biso   1.000  O  -0.586093
  O103     1.0000 0.33196  0.51582  0.01968  Biso   1.000  O  -0.588222
  O104     1.0000 0.33363  0.59490  0.96888  Biso   1.000  O  -0.587993
  O105     1.0000 0.36746  0.42424  0.05048  Biso   1.000  O  -0.605526
  O106     1.0000 0.93890  0.25300  0.55312  Biso   1.000  O  -0.560805
  O107     1.0000 0.84506  0.23367  0.55141  Biso   1.000  O  -0.546196
  O108     1.0000 0.76850  0.35340  0.59060  Biso   1.000  O  -0.547426
  O109     1.0000 0.83130  0.32050  0.60409  Biso   1.000  O  -0.586092
  O110     1.0000 0.81614  0.33196  0.51968  Biso   1.000  O  -0.588222
  O111     1.0000 0.73873  0.33363  0.46888  Biso   1.000  O  -0.587994
  O112     1.0000 0.94322  0.36746  0.55048  Biso   1.000  O  -0.605526
  O113     1.0000 0.31410  0.06110  0.55312  Biso   1.000  O  -0.560803
  O114     1.0000 0.38861  0.15494  0.55141  Biso   1.000  O  -0.546197
  O115     1.0000 0.58490  0.23150  0.59060  Biso   1.000  O  -0.547426
  O116     1.0000 0.48920  0.16870  0.60409  Biso   1.000  O  -0.586093
  O117     1.0000 0.51582  0.18386  0.51968  Biso   1.000  O  -0.588222
  O118     1.0000 0.59490  0.26127  0.46888  Biso   1.000  O  -0.587993
  O119     1.0000 0.42424  0.05678  0.55048  Biso   1.000  O  -0.605526
  O120     1.0000 0.74700  0.68590  0.55312  Biso   1.000  O  -0.560804
  O121     1.0000 0.76633  0.61139  0.55141  Biso   1.000  O  -0.546195
  O122     1.0000 0.64660  0.41510  0.59060  Biso   1.000  O  -0.547427
  O123     1.0000 0.67950  0.51080  0.60409  Biso   1.000  O  -0.586093
  O124     1.0000 0.66804  0.48418  0.51968  Biso   1.000  O  -0.588222
  O125     1.0000 0.66637  0.40510  0.46888  Biso   1.000  O  -0.587993
  O126     1.0000 0.63254  0.57576  0.55048  Biso   1.000  O  -0.605526
  O127     1.0000 0.31410  0.25300  0.44688  Biso   1.000  O  -0.560804
  O128     1.0000 0.38861  0.23367  0.44859  Biso   1.000  O  -0.546195
  O129     1.0000 0.58490  0.35340  0.40940  Biso   1.000  O  -0.547427
  O130     1.0000 0.48920  0.32050  0.39591  Biso   1.000  O  -0.586093
  O131     1.0000 0.51582  0.33196  0.48032  Biso   1.000  O  -0.588222
  O132     1.0000 0.59490  0.33363  0.53112  Biso   1.000  O  -0.587993
  O133     1.0000 0.42424  0.36746  0.44952  Biso   1.000  O  -0.605526
  O134     1.0000 0.74700  0.06110  0.44688  Biso   1.000  O  -0.560805
  O135     1.0000 0.76633  0.15494  0.44859  Biso   1.000  O  -0.546196
  O136     1.0000 0.64660  0.23150  0.40940  Biso   1.000  O  -0.547426
  O137     1.0000 0.67950  0.16870  0.39591  Biso   1.000  O  -0.586092
  O138     1.0000 0.66804  0.18386  0.48032  Biso   1.000  O  -0.588222
  O139     1.0000 0.66637  0.26127  0.53112  Biso   1.000  O  -0.587994
  O140     1.0000 0.63254  0.05678  0.44952  Biso   1.000  O  -0.605526
  O141     1.0000 0.93890  0.68590  0.44688  Biso   1.000  O  -0.560803
  O142     1.0000 0.84506  0.61139  0.44859  Biso   1.000  O  -0.546197
  O143     1.0000 0.76850  0.41510  0.40940  Biso   1.000  O  -0.547426
  O144     1.0000 0.83130  0.51080  0.39591  Biso   1.000  O  -0.586093
  O145     1.0000 0.81614  0.48418  0.48032  Biso   1.000  O  -0.588222
  O146     1.0000 0.73873  0.40510  0.53112  Biso   1.000  O  -0.587993
  O147     1.0000 0.94322  0.57576  0.44952  Biso   1.000  O  -0.605526
  O148     1.0000 0.68590  0.74700  0.94688  Biso   1.000  O  -0.560804
  O149     1.0000 0.61139  0.76633  0.94859  Biso   1.000  O  -0.546195
  O150     1.0000 0.41510  0.64660  0.90940  Biso   1.000  O  -0.547427
  O151     1.0000 0.51080  0.67950  0.89591  Biso   1.000  O  -0.586093
  O152     1.0000 0.48418  0.66804  0.98032  Biso   1.000  O  -0.588222
  O153     1.0000 0.40510  0.66637  0.03112  Biso   1.000  O  -0.587993
  O154     1.0000 0.57576  0.63254  0.94952  Biso   1.000  O  -0.605526
  O155     1.0000 0.25300  0.93890  0.94688  Biso   1.000  O  -0.560805
  O156     1.0000 0.23367  0.84506  0.94859  Biso   1.000  O  -0.546196
  O157     1.0000 0.35340  0.76850  0.90940  Biso   1.000  O  -0.547426
  O158     1.0000 0.32050  0.83130  0.89591  Biso   1.000  O  -0.586092
  O159     1.0000 0.33196  0.81614  0.98032  Biso   1.000  O  -0.588222
  O160     1.0000 0.33363  0.73873  0.03112  Biso   1.000  O  -0.587994
  O161     1.0000 0.36746  0.94322  0.94952  Biso   1.000  O  -0.605526
  O162     1.0000 0.06110  0.31410  0.94688  Biso   1.000  O  -0.560803
  O163     1.0000 0.15494  0.38861  0.94859  Biso   1.000  O  -0.546197
  O164     1.0000 0.23150  0.58490  0.90940  Biso   1.000  O  -0.547426
  O165     1.0000 0.16870  0.48920  0.89591  Biso   1.000  O  -0.586093
  O166     1.0000 0.18386  0.51582  0.98032  Biso   1.000  O  -0.588222
  O167     1.0000 0.26127  0.59490  0.03112  Biso   1.000  O  -0.587993
  O168     1.0000 0.05678  0.42424  0.94952  Biso   1.000  O  -0.605526
  O169     1.0000 0.67660  0.00000  0.96180  Biso   1.000  O  -0.380177
  O170     1.0000 0.32340  0.32340  0.96180  Biso   1.000  O  -0.380183
  O171     1.0000 0.00000  0.67660  0.96180  Biso   1.000  O  -0.380177
  O172     1.0000 0.32340  0.00000  0.46180  Biso   1.000  O  -0.380177
  O173     1.0000 0.67660  0.67660  0.46180  Biso   1.000  O  -0.380183
  O174     1.0000 0.00000  0.32340  0.46180  Biso   1.000  O  -0.380177
  O175     1.0000 0.67660  0.00000  0.53820  Biso   1.000  O  -0.380177
  O176     1.0000 0.00000  0.67660  0.53820  Biso   1.000  O  -0.380177
  O177     1.0000 0.32340  0.32340  0.53820  Biso   1.000  O  -0.380183
  O178     1.0000 0.32340  0.00000  0.03820  Biso   1.000  O  -0.380177
  O179     1.0000 0.00000  0.32340  0.03820  Biso   1.000  O  -0.380177
  O180     1.0000 0.67660  0.67660  0.03820  Biso   1.000  O  -0.380183
  O181     1.0000 0.86070  0.29170  0.75000  Biso   1.000  O  -0.383933
  O182     1.0000 0.43100  0.13930  0.75000  Biso   1.000  O  -0.383936
  O183     1.0000 0.70830  0.56900  0.75000  Biso   1.000  O  -0.383936
  O184     1.0000 0.13930  0.70830  0.25000  Biso   1.000  O  -0.383933
  O185     1.0000 0.56900  0.86070  0.25000  Biso   1.000  O  -0.383936
  O186     1.0000 0.29170  0.43100  0.25000  Biso   1.000  O  -0.383936
  O187     1.0000 0.56900  0.70830  0.75000  Biso   1.000  O  -0.383939
  O188     1.0000 0.29170  0.86070  0.75000  Biso   1.000  O  -0.383935
  O189     1.0000 0.13930  0.43100  0.75000  Biso   1.000  O  -0.383938
  O190     1.0000 0.43100  0.29170  0.25000  Biso   1.000  O  -0.383939
  O191     1.0000 0.70830  0.13930  0.25000  Biso   1.000  O  -0.383935
  O192     1.0000 0.86070  0.56900  0.25000  Biso   1.000  O  -0.383938
  Zn1      1.0000 0.86085  0.31515  0.94488  Biso   1.000  Zn  0.937395
  Zn2      1.0000 0.74485  0.33310  0.96486  Biso   1.000  Zn  0.895773
  Zn3      1.0000 0.45430  0.13915  0.94488  Biso   1.000  Zn  0.937394
  Zn4      1.0000 0.58825  0.25515  0.96486  Biso   1.000  Zn  0.895774
  Zn5      1.0000 0.68485  0.54570  0.94488  Biso   1.000  Zn  0.937399
  Zn6      1.0000 0.66690  0.41175  0.96486  Biso   1.000  Zn  0.895771
  Zn7      1.0000 0.13915  0.68485  0.44488  Biso   1.000  Zn  0.937395
  Zn8      1.0000 0.25515  0.66690  0.46486  Biso   1.000  Zn  0.895773
  Zn9      1.0000 0.54570  0.86085  0.44488  Biso   1.000  Zn  0.937394
  Zn10     1.0000 0.41175  0.74485  0.46486  Biso   1.000  Zn  0.895774
  Zn11     1.0000 0.31515  0.45430  0.44488  Biso   1.000  Zn  0.937399
  Zn12     1.0000 0.33310  0.58825  0.46486  Biso   1.000  Zn  0.895771
  Zn13     1.0000 0.54570  0.68485  0.55512  Biso   1.000  Zn  0.937399
  Zn14     1.0000 0.41175  0.66690  0.53514  Biso   1.000  Zn  0.895771
  Zn15     1.0000 0.31515  0.86085  0.55512  Biso   1.000  Zn  0.937395
  Zn16     1.0000 0.33310  0.74485  0.53514  Biso   1.000  Zn  0.895773
  Zn17     1.0000 0.13915  0.45430  0.55512  Biso   1.000  Zn  0.937394
  Zn18     1.0000 0.25515  0.58825  0.53514  Biso   1.000  Zn  0.895774
  Zn19     1.0000 0.45430  0.31515  0.05512  Biso   1.000  Zn  0.937399
  Zn20     1.0000 0.58825  0.33310  0.03514  Biso   1.000  Zn  0.895771
  Zn21     1.0000 0.68485  0.13915  0.05512  Biso   1.000  Zn  0.937395
  Zn22     1.0000 0.66690  0.25515  0.03514  Biso   1.000  Zn  0.895773
  Zn23     1.0000 0.86085  0.54570  0.05512  Biso   1.000  Zn  0.937394
  Zn24     1.0000 0.74485  0.41175  0.03514  Biso   1.000  Zn  0.895774
  Zn25     1.0000 0.13915  0.68485  0.05512  Biso   1.000  Zn  0.937395
  Zn26     1.0000 0.25515  0.66690  0.03514  Biso   1.000  Zn  0.895773
  Zn27     1.0000 0.54570  0.86085  0.05512  Biso   1.000  Zn  0.937394
  Zn28     1.0000 0.41175  0.74485  0.03514  Biso   1.000  Zn  0.895774
  Zn29     1.0000 0.31515  0.45430  0.05512  Biso   1.000  Zn  0.937399
  Zn30     1.0000 0.33310  0.58825  0.03514  Biso   1.000  Zn  0.895771
  Zn31     1.0000 0.86085  0.31515  0.55512  Biso   1.000  Zn  0.937395
  Zn32     1.0000 0.74485  0.33310  0.53514  Biso   1.000  Zn  0.895773
  Zn33     1.0000 0.45430  0.13915  0.55512  Biso   1.000  Zn  0.937394
  Zn34     1.0000 0.58825  0.25515  0.53514  Biso   1.000  Zn  0.895774
  Zn35     1.0000 0.68485  0.54570  0.55512  Biso   1.000  Zn  0.937399
  Zn36     1.0000 0.66690  0.41175  0.53514  Biso   1.000  Zn  0.895771
  Zn37     1.0000 0.45430  0.31515  0.44488  Biso   1.000  Zn  0.937399
  Zn38     1.0000 0.58825  0.33310  0.46486  Biso   1.000  Zn  0.895771
  Zn39     1.0000 0.68485  0.13915  0.44488  Biso   1.000  Zn  0.937395
  Zn40     1.0000 0.66690  0.25515  0.46486  Biso   1.000  Zn  0.895773
  Zn41     1.0000 0.86085  0.54570  0.44488  Biso   1.000  Zn  0.937394
  Zn42     1.0000 0.74485  0.41175  0.46486  Biso   1.000  Zn  0.895774
  Zn43     1.0000 0.54570  0.68485  0.94488  Biso   1.000  Zn  0.937399
  Zn44     1.0000 0.41175  0.66690  0.96486  Biso   1.000  Zn  0.895771
  Zn45     1.0000 0.31515  0.86085  0.94488  Biso   1.000  Zn  0.937395
  Zn46     1.0000 0.33310  0.74485  0.96486  Biso   1.000  Zn  0.895773
  Zn47     1.0000 0.13915  0.45430  0.94488  Biso   1.000  Zn  0.937394
  Zn48     1.0000 0.25515  0.58825  0.96486  Biso   1.000  Zn  0.895774
  Zn49     1.0000 0.00000  0.33990  0.93730  Biso   1.000  Zn  0.964010
  Zn50     1.0000 0.33990  0.00000  0.93730  Biso   1.000  Zn  0.964010
  Zn51     1.0000 0.66010  0.66010  0.93730  Biso   1.000  Zn  0.964007
  Zn52     1.0000 1.00000  0.66010  0.43730  Biso   1.000  Zn  0.964010
  Zn53     1.0000 0.66010  0.00000  0.43730  Biso   1.000  Zn  0.964010
  Zn54     1.0000 0.33990  0.33990  0.43730  Biso   1.000  Zn  0.964007
  Zn55     1.0000 0.66010  0.66010  0.56270  Biso   1.000  Zn  0.964007
  Zn56     1.0000 0.33990  0.00000  0.56270  Biso   1.000  Zn  0.964010
  Zn57     1.0000 0.00000  0.33990  0.56270  Biso   1.000  Zn  0.964010
  Zn58     1.0000 0.33990  0.33990  0.06270  Biso   1.000  Zn  0.964007
  Zn59     1.0000 0.66010  0.00000  0.06270  Biso   1.000  Zn  0.964010
  Zn60     1.0000 1.00000  0.66010  0.06270  Biso   1.000  Zn  0.964010
