data_image0
_cell_length_a       34.5726
_cell_length_b       34.5726
_cell_length_c       34.5726
_cell_angle_alpha    60
_cell_angle_beta     60
_cell_angle_gamma    60

_symmetry_space_group_name_H-M    "P 1"
_symmetry_int_tables_number       1

loop_
  _symmetry_equiv_pos_as_xyz
  'x, y, z'

loop_
  _atom_site_label
  _atom_site_occupancy
  _atom_site_fract_x
  _atom_site_fract_y
  _atom_site_fract_z
  _atom_site_thermal_displace_type
  _atom_site_B_iso_or_equiv
  _atom_site_type_symbol
  _atom_site_charge
  C1       1.0000 0.76916  0.91562  0.01112  Biso   1.000  C  0.589633
  C2       1.0000 0.79089  0.85993  0.02223  Biso   1.000  C  0.004711
  C3       1.0000 0.76622  0.83884  0.02660  Biso   1.000  C  -0.149453
  C4       1.0000 0.91562  0.76916  0.30410  Biso   1.000  C  0.589641
  C5       1.0000 0.85993  0.79089  0.32695  Biso   1.000  C  0.004671
  C6       1.0000 0.83884  0.76622  0.36834  Biso   1.000  C  -0.149460
  C7       1.0000 0.01112  0.30410  0.76916  Biso   1.000  C  0.589636
  C8       1.0000 0.02223  0.32695  0.79089  Biso   1.000  C  0.004672
  C9       1.0000 0.02660  0.36834  0.76622  Biso   1.000  C  -0.149462
  C10      1.0000 0.30410  0.01112  0.91562  Biso   1.000  C  0.589633
  C11      1.0000 0.32695  0.02223  0.85993  Biso   1.000  C  0.004708
  C12      1.0000 0.36834  0.02660  0.83884  Biso   1.000  C  -0.149448
  C13      1.0000 0.76916  0.01112  0.30410  Biso   1.000  C  0.589644
  C14      1.0000 0.79089  0.02223  0.32695  Biso   1.000  C  0.004670
  C15      1.0000 0.76622  0.02660  0.36834  Biso   1.000  C  -0.149459
  C16      1.0000 0.91562  0.30410  0.01112  Biso   1.000  C  0.589626
  C17      1.0000 0.85993  0.32695  0.02223  Biso   1.000  C  0.004697
  C18      1.0000 0.83884  0.36834  0.02660  Biso   1.000  C  -0.149439
  C19      1.0000 0.01112  0.76916  0.91562  Biso   1.000  C  0.589633
  C20      1.0000 0.02223  0.79089  0.85993  Biso   1.000  C  0.004707
  C21      1.0000 0.02660  0.76622  0.83884  Biso   1.000  C  -0.149453
  C22      1.0000 0.30410  0.91562  0.76916  Biso   1.000  C  0.589641
  C23      1.0000 0.32695  0.85993  0.79089  Biso   1.000  C  0.004675
  C24      1.0000 0.36834  0.83884  0.76622  Biso   1.000  C  -0.149459
  C25      1.0000 0.76916  0.30410  0.91562  Biso   1.000  C  0.589631
  C26      1.0000 0.79089  0.32695  0.85993  Biso   1.000  C  0.004694
  C27      1.0000 0.76622  0.36834  0.83884  Biso   1.000  C  -0.149466
  C28      1.0000 0.91562  0.01112  0.76916  Biso   1.000  C  0.589632
  C29      1.0000 0.85993  0.02223  0.79089  Biso   1.000  C  0.004710
  C30      1.0000 0.83884  0.02660  0.76622  Biso   1.000  C  -0.149453
  C31      1.0000 0.01112  0.91562  0.30410  Biso   1.000  C  0.589642
  C32      1.0000 0.02223  0.85993  0.32695  Biso   1.000  C  0.004674
  C33      1.0000 0.02660  0.83884  0.36834  Biso   1.000  C  -0.149436
  C34      1.0000 0.30410  0.76916  0.01112  Biso   1.000  C  0.589635
  C35      1.0000 0.32695  0.79089  0.02223  Biso   1.000  C  0.004705
  C36      1.0000 0.36834  0.76622  0.02660  Biso   1.000  C  -0.149468
  C37      1.0000 0.08438  0.23084  0.98888  Biso   1.000  C  0.589628
  C38      1.0000 0.14007  0.20911  0.97777  Biso   1.000  C  0.004693
  C39      1.0000 0.16116  0.23378  0.97340  Biso   1.000  C  -0.149441
  C40      1.0000 0.23084  0.08438  0.69590  Biso   1.000  C  0.589641
  C41      1.0000 0.20911  0.14007  0.67305  Biso   1.000  C  0.004671
  C42      1.0000 0.23378  0.16116  0.63166  Biso   1.000  C  -0.149459
  C43      1.0000 0.69590  0.98888  0.23084  Biso   1.000  C  0.589635
  C44      1.0000 0.67305  0.97777  0.20911  Biso   1.000  C  0.004706
  C45      1.0000 0.63166  0.97340  0.23378  Biso   1.000  C  -0.149468
  C46      1.0000 0.98888  0.69590  0.08438  Biso   1.000  C  0.589631
  C47      1.0000 0.97777  0.67305  0.14007  Biso   1.000  C  0.004712
  C48      1.0000 0.97340  0.63166  0.16116  Biso   1.000  C  -0.149451
  C49      1.0000 0.98888  0.23084  0.69590  Biso   1.000  C  0.589647
  C50      1.0000 0.97777  0.20911  0.67305  Biso   1.000  C  0.004664
  C51      1.0000 0.97340  0.23378  0.63166  Biso   1.000  C  -0.149453
  C52      1.0000 0.69590  0.08438  0.98888  Biso   1.000  C  0.589631
  C53      1.0000 0.67305  0.14007  0.97777  Biso   1.000  C  0.004715
  C54      1.0000 0.63166  0.16116  0.97340  Biso   1.000  C  -0.149451
  C55      1.0000 0.23084  0.98888  0.08438  Biso   1.000  C  0.589632
  C56      1.0000 0.20911  0.97777  0.14007  Biso   1.000  C  0.004701
  C57      1.0000 0.23378  0.97340  0.16116  Biso   1.000  C  -0.149451
  C58      1.0000 0.08438  0.69590  0.23084  Biso   1.000  C  0.589641
  C59      1.0000 0.14007  0.67305  0.20911  Biso   1.000  C  0.004675
  C60      1.0000 0.16116  0.63166  0.23378  Biso   1.000  C  -0.149459
  C61      1.0000 0.69590  0.23084  0.08438  Biso   1.000  C  0.589634
  C62      1.0000 0.67305  0.20911  0.14007  Biso   1.000  C  0.004696
  C63      1.0000 0.63166  0.23378  0.16116  Biso   1.000  C  -0.149466
  C64      1.0000 0.98888  0.08438  0.23084  Biso   1.000  C  0.589634
  C65      1.0000 0.97777  0.14007  0.20911  Biso   1.000  C  0.004677
  C66      1.0000 0.97340  0.16116  0.23378  Biso   1.000  C  -0.149448
  C67      1.0000 0.08438  0.98888  0.69590  Biso   1.000  C  0.589640
  C68      1.0000 0.14007  0.97777  0.67305  Biso   1.000  C  0.004680
  C69      1.0000 0.16116  0.97340  0.63166  Biso   1.000  C  -0.149442
  C70      1.0000 0.23084  0.69590  0.98888  Biso   1.000  C  0.589635
  C71      1.0000 0.20911  0.67305  0.97777  Biso   1.000  C  0.004706
  C72      1.0000 0.23378  0.63166  0.97340  Biso   1.000  C  -0.149467
  C73      1.0000 0.23084  0.08438  0.98888  Biso   1.000  C  0.589625
  C74      1.0000 0.20911  0.14007  0.97777  Biso   1.000  C  0.004709
  C75      1.0000 0.23378  0.16116  0.97340  Biso   1.000  C  -0.149458
  C76      1.0000 0.08438  0.23084  0.69590  Biso   1.000  C  0.589643
  C77      1.0000 0.14007  0.20911  0.67305  Biso   1.000  C  0.004663
  C78      1.0000 0.16116  0.23378  0.63166  Biso   1.000  C  -0.149458
  C79      1.0000 0.98888  0.69590  0.23084  Biso   1.000  C  0.589644
  C80      1.0000 0.97777  0.67305  0.20911  Biso   1.000  C  0.004673
  C81      1.0000 0.97340  0.63166  0.23378  Biso   1.000  C  -0.149459
  C82      1.0000 0.69590  0.98888  0.08438  Biso   1.000  C  0.589631
  C83      1.0000 0.67305  0.97777  0.14007  Biso   1.000  C  0.004715
  C84      1.0000 0.63166  0.97340  0.16116  Biso   1.000  C  -0.149451
  C85      1.0000 0.23084  0.98888  0.69590  Biso   1.000  C  0.589645
  C86      1.0000 0.20911  0.97777  0.67305  Biso   1.000  C  0.004669
  C87      1.0000 0.23378  0.97340  0.63166  Biso   1.000  C  -0.149460
  C88      1.0000 0.08438  0.69590  0.98888  Biso   1.000  C  0.589631
  C89      1.0000 0.14007  0.67305  0.97777  Biso   1.000  C  0.004715
  C90      1.0000 0.16116  0.63166  0.97340  Biso   1.000  C  -0.149450
  C91      1.0000 0.98888  0.23084  0.08438  Biso   1.000  C  0.589628
  C92      1.0000 0.97777  0.20911  0.14007  Biso   1.000  C  0.004689
  C93      1.0000 0.97340  0.23378  0.16116  Biso   1.000  C  -0.149443
  C94      1.0000 0.69590  0.08438  0.23084  Biso   1.000  C  0.589641
  C95      1.0000 0.67305  0.14007  0.20911  Biso   1.000  C  0.004674
  C96      1.0000 0.63166  0.16116  0.23378  Biso   1.000  C  -0.149460
  C97      1.0000 0.23084  0.69590  0.08438  Biso   1.000  C  0.589632
  C98      1.0000 0.20911  0.67305  0.14007  Biso   1.000  C  0.004703
  C99      1.0000 0.23378  0.63166  0.16116  Biso   1.000  C  -0.149469
  C100     1.0000 0.08438  0.98888  0.23084  Biso   1.000  C  0.589632
  C101     1.0000 0.14007  0.97777  0.20911  Biso   1.000  C  0.004701
  C102     1.0000 0.16116  0.97340  0.23378  Biso   1.000  C  -0.149452
  C103     1.0000 0.98888  0.08438  0.69590  Biso   1.000  C  0.589640
  C104     1.0000 0.97777  0.14007  0.67305  Biso   1.000  C  0.004679
  C105     1.0000 0.97340  0.16116  0.63166  Biso   1.000  C  -0.149443
  C106     1.0000 0.69590  0.23084  0.98888  Biso   1.000  C  0.589637
  C107     1.0000 0.67305  0.20911  0.97777  Biso   1.000  C  0.004699
  C108     1.0000 0.63166  0.23378  0.97340  Biso   1.000  C  -0.149461
  C109     1.0000 0.91562  0.76916  0.01112  Biso   1.000  C  0.589633
  C110     1.0000 0.85993  0.79089  0.02223  Biso   1.000  C  0.004710
  C111     1.0000 0.83884  0.76622  0.02660  Biso   1.000  C  -0.149454
  C112     1.0000 0.76916  0.91562  0.30410  Biso   1.000  C  0.589641
  C113     1.0000 0.79089  0.85993  0.32695  Biso   1.000  C  0.004671
  C114     1.0000 0.76622  0.83884  0.36834  Biso   1.000  C  -0.149461
  C115     1.0000 0.30410  0.01112  0.76916  Biso   1.000  C  0.589635
  C116     1.0000 0.32695  0.02223  0.79089  Biso   1.000  C  0.004705
  C117     1.0000 0.36834  0.02660  0.76622  Biso   1.000  C  -0.149467
  C118     1.0000 0.01112  0.30410  0.91562  Biso   1.000  C  0.589627
  C119     1.0000 0.02223  0.32695  0.85993  Biso   1.000  C  0.004693
  C120     1.0000 0.02660  0.36834  0.83884  Biso   1.000  C  -0.149439
  C121     1.0000 0.01112  0.76916  0.30410  Biso   1.000  C  0.589645
  C122     1.0000 0.02223  0.79089  0.32695  Biso   1.000  C  0.004668
  C123     1.0000 0.02660  0.76622  0.36834  Biso   1.000  C  -0.149460
  C124     1.0000 0.30410  0.91562  0.01112  Biso   1.000  C  0.589633
  C125     1.0000 0.32695  0.85993  0.02223  Biso   1.000  C  0.004709
  C126     1.0000 0.36834  0.83884  0.02660  Biso   1.000  C  -0.149444
  C127     1.0000 0.76916  0.01112  0.91562  Biso   1.000  C  0.589633
  C128     1.0000 0.79089  0.02223  0.85993  Biso   1.000  C  0.004710
  C129     1.0000 0.76622  0.02660  0.83884  Biso   1.000  C  -0.149454
  C130     1.0000 0.91562  0.30410  0.76916  Biso   1.000  C  0.589640
  C131     1.0000 0.85993  0.32695  0.79089  Biso   1.000  C  0.004665
  C132     1.0000 0.83884  0.36834  0.76622  Biso   1.000  C  -0.149458
  C133     1.0000 0.30410  0.76916  0.91562  Biso   1.000  C  0.589632
  C134     1.0000 0.32695  0.79089  0.85993  Biso   1.000  C  0.004703
  C135     1.0000 0.36834  0.76622  0.83884  Biso   1.000  C  -0.149469
  C136     1.0000 0.01112  0.91562  0.76916  Biso   1.000  C  0.589641
  C137     1.0000 0.02223  0.85993  0.79089  Biso   1.000  C  0.004678
  C138     1.0000 0.02660  0.83884  0.76622  Biso   1.000  C  -0.149445
  C139     1.0000 0.91562  0.01112  0.30410  Biso   1.000  C  0.589642
  C140     1.0000 0.85993  0.02223  0.32695  Biso   1.000  C  0.004672
  C141     1.0000 0.83884  0.02660  0.36834  Biso   1.000  C  -0.149440
  C142     1.0000 0.76916  0.30410  0.01112  Biso   1.000  C  0.589628
  C143     1.0000 0.79089  0.32695  0.02223  Biso   1.000  C  0.004704
  C144     1.0000 0.76622  0.36834  0.02660  Biso   1.000  C  -0.149471
  C145     1.0000 0.83908  0.83908  0.01704  Biso   1.000  C  -0.130343
  C146     1.0000 0.78790  0.78790  0.03510  Biso   1.000  C  0.132751
  C147     1.0000 0.76250  0.76250  0.03718  Biso   1.000  C  -0.096771
  C148     1.0000 0.74050  0.74050  0.04510  Biso   1.000  C  -0.018821
  C149     1.0000 0.71760  0.71760  0.04560  Biso   1.000  C  -0.032384
  C150     1.0000 0.69550  0.69550  0.05330  Biso   1.000  C  -0.087997
  C151     1.0000 0.67070  0.67070  0.05590  Biso   1.000  C  0.162986
  C152     1.0000 0.83908  0.83908  0.30480  Biso   1.000  C  -0.130328
  C153     1.0000 0.78790  0.78790  0.38910  Biso   1.000  C  0.132750
  C154     1.0000 0.76250  0.76250  0.43782  Biso   1.000  C  -0.096766
  C155     1.0000 0.74050  0.74050  0.47390  Biso   1.000  C  -0.018817
  C156     1.0000 0.71760  0.71760  0.51920  Biso   1.000  C  -0.032384
  C157     1.0000 0.69550  0.69550  0.55570  Biso   1.000  C  -0.087997
  C158     1.0000 0.67070  0.67070  0.60270  Biso   1.000  C  0.162978
  C159     1.0000 0.01704  0.30480  0.83908  Biso   1.000  C  -0.130330
  C160     1.0000 0.03510  0.38910  0.78790  Biso   1.000  C  0.132759
  C161     1.0000 0.03718  0.43782  0.76250  Biso   1.000  C  -0.096776
  C162     1.0000 0.04510  0.47390  0.74050  Biso   1.000  C  -0.018809
  C163     1.0000 0.04560  0.51920  0.71760  Biso   1.000  C  -0.032390
  C164     1.0000 0.05330  0.55570  0.69550  Biso   1.000  C  -0.087984
  C165     1.0000 0.05590  0.60270  0.67070  Biso   1.000  C  0.162980
  C166     1.0000 0.30480  0.01704  0.83908  Biso   1.000  C  -0.130355
  C167     1.0000 0.38910  0.03510  0.78790  Biso   1.000  C  0.132753
  C168     1.0000 0.43782  0.03718  0.76250  Biso   1.000  C  -0.096773
  C169     1.0000 0.47390  0.04510  0.74050  Biso   1.000  C  -0.018817
  C170     1.0000 0.51920  0.04560  0.71760  Biso   1.000  C  -0.032387
  C171     1.0000 0.55570  0.05330  0.69550  Biso   1.000  C  -0.087991
  C172     1.0000 0.60270  0.05590  0.67070  Biso   1.000  C  0.162982
  C173     1.0000 0.83908  0.01704  0.30480  Biso   1.000  C  -0.130321
  C174     1.0000 0.78790  0.03510  0.38910  Biso   1.000  C  0.132752
  C175     1.0000 0.76250  0.03718  0.43782  Biso   1.000  C  -0.096773
  C176     1.0000 0.74050  0.04510  0.47390  Biso   1.000  C  -0.018817
  C177     1.0000 0.71760  0.04560  0.51920  Biso   1.000  C  -0.032387
  C178     1.0000 0.69550  0.05330  0.55570  Biso   1.000  C  -0.087992
  C179     1.0000 0.67070  0.05590  0.60270  Biso   1.000  C  0.162982
  C180     1.0000 0.83908  0.30480  0.01704  Biso   1.000  C  -0.130347
  C181     1.0000 0.78790  0.38910  0.03510  Biso   1.000  C  0.132759
  C182     1.0000 0.76250  0.43782  0.03718  Biso   1.000  C  -0.096776
  C183     1.0000 0.74050  0.47390  0.04510  Biso   1.000  C  -0.018809
  C184     1.0000 0.71760  0.51920  0.04560  Biso   1.000  C  -0.032390
  C185     1.0000 0.69550  0.55570  0.05330  Biso   1.000  C  -0.087984
  C186     1.0000 0.67070  0.60270  0.05590  Biso   1.000  C  0.162980
  C187     1.0000 0.01704  0.83908  0.83908  Biso   1.000  C  -0.130326
  C188     1.0000 0.03510  0.78790  0.78790  Biso   1.000  C  0.132751
  C189     1.0000 0.03718  0.76250  0.76250  Biso   1.000  C  -0.096770
  C190     1.0000 0.04510  0.74050  0.74050  Biso   1.000  C  -0.018820
  C191     1.0000 0.04560  0.71760  0.71760  Biso   1.000  C  -0.032384
  C192     1.0000 0.05330  0.69550  0.69550  Biso   1.000  C  -0.087997
  C193     1.0000 0.05590  0.67070  0.67070  Biso   1.000  C  0.162986
  C194     1.0000 0.30480  0.83908  0.83908  Biso   1.000  C  -0.130345
  C195     1.0000 0.38910  0.78790  0.78790  Biso   1.000  C  0.132751
  C196     1.0000 0.43782  0.76250  0.76250  Biso   1.000  C  -0.096766
  C197     1.0000 0.47390  0.74050  0.74050  Biso   1.000  C  -0.018817
  C198     1.0000 0.51920  0.71760  0.71760  Biso   1.000  C  -0.032383
  C199     1.0000 0.55570  0.69550  0.69550  Biso   1.000  C  -0.087996
  C200     1.0000 0.60270  0.67070  0.67070  Biso   1.000  C  0.162978
  C201     1.0000 0.83908  0.30480  0.83908  Biso   1.000  C  -0.130349
  C202     1.0000 0.78790  0.38910  0.78790  Biso   1.000  C  0.132750
  C203     1.0000 0.76250  0.43782  0.76250  Biso   1.000  C  -0.096764
  C204     1.0000 0.74050  0.47390  0.74050  Biso   1.000  C  -0.018818
  C205     1.0000 0.71760  0.51920  0.71760  Biso   1.000  C  -0.032382
  C206     1.0000 0.69550  0.55570  0.69550  Biso   1.000  C  -0.087999
  C207     1.0000 0.67070  0.60270  0.67070  Biso   1.000  C  0.162979
  C208     1.0000 0.83908  0.01704  0.83908  Biso   1.000  C  -0.130344
  C209     1.0000 0.78790  0.03510  0.78790  Biso   1.000  C  0.132751
  C210     1.0000 0.76250  0.03718  0.76250  Biso   1.000  C  -0.096771
  C211     1.0000 0.74050  0.04510  0.74050  Biso   1.000  C  -0.018821
  C212     1.0000 0.71760  0.04560  0.71760  Biso   1.000  C  -0.032385
  C213     1.0000 0.69550  0.05330  0.69550  Biso   1.000  C  -0.087997
  C214     1.0000 0.67070  0.05590  0.67070  Biso   1.000  C  0.162986
  C215     1.0000 0.01704  0.83908  0.30480  Biso   1.000  C  -0.130322
  C216     1.0000 0.03510  0.78790  0.38910  Biso   1.000  C  0.132750
  C217     1.0000 0.03718  0.76250  0.43782  Biso   1.000  C  -0.096769
  C218     1.0000 0.04510  0.74050  0.47390  Biso   1.000  C  -0.018819
  C219     1.0000 0.04560  0.71760  0.51920  Biso   1.000  C  -0.032384
  C220     1.0000 0.05330  0.69550  0.55570  Biso   1.000  C  -0.087994
  C221     1.0000 0.05590  0.67070  0.60270  Biso   1.000  C  0.162983
  C222     1.0000 0.30480  0.83908  0.01704  Biso   1.000  C  -0.130357
  C223     1.0000 0.38910  0.78790  0.03510  Biso   1.000  C  0.132751
  C224     1.0000 0.43782  0.76250  0.03718  Biso   1.000  C  -0.096770
  C225     1.0000 0.47390  0.74050  0.04510  Biso   1.000  C  -0.018820
  C226     1.0000 0.51920  0.71760  0.04560  Biso   1.000  C  -0.032384
  C227     1.0000 0.55570  0.69550  0.05330  Biso   1.000  C  -0.087994
  C228     1.0000 0.60270  0.67070  0.05590  Biso   1.000  C  0.162983
  C229     1.0000 0.16092  0.16092  0.98296  Biso   1.000  C  -0.130337
  C230     1.0000 0.21210  0.21210  0.96490  Biso   1.000  C  0.132758
  C231     1.0000 0.23750  0.23750  0.96282  Biso   1.000  C  -0.096775
  C232     1.0000 0.25950  0.25950  0.95490  Biso   1.000  C  -0.018813
  C233     1.0000 0.28240  0.28240  0.95440  Biso   1.000  C  -0.032388
  C234     1.0000 0.30450  0.30450  0.94670  Biso   1.000  C  -0.087988
  C235     1.0000 0.32930  0.32930  0.94410  Biso   1.000  C  0.162984
  C236     1.0000 0.16092  0.16092  0.69520  Biso   1.000  C  -0.130328
  C237     1.0000 0.21210  0.21210  0.61090  Biso   1.000  C  0.132750
  C238     1.0000 0.23750  0.23750  0.56218  Biso   1.000  C  -0.096765
  C239     1.0000 0.25950  0.25950  0.52610  Biso   1.000  C  -0.018817
  C240     1.0000 0.28240  0.28240  0.48080  Biso   1.000  C  -0.032383
  C241     1.0000 0.30450  0.30450  0.44430  Biso   1.000  C  -0.087996
  C242     1.0000 0.32930  0.32930  0.39730  Biso   1.000  C  0.162978
  C243     1.0000 0.69520  0.98296  0.16092  Biso   1.000  C  -0.130355
  C244     1.0000 0.61090  0.96490  0.21210  Biso   1.000  C  0.132754
  C245     1.0000 0.56218  0.96282  0.23750  Biso   1.000  C  -0.096774
  C246     1.0000 0.52610  0.95490  0.25950  Biso   1.000  C  -0.018817
  C247     1.0000 0.48080  0.95440  0.28240  Biso   1.000  C  -0.032387
  C248     1.0000 0.44430  0.94670  0.30450  Biso   1.000  C  -0.087992
  C249     1.0000 0.39730  0.94410  0.32930  Biso   1.000  C  0.162982
  C250     1.0000 0.98296  0.69520  0.16092  Biso   1.000  C  -0.130337
  C251     1.0000 0.96490  0.61090  0.21210  Biso   1.000  C  0.132753
  C252     1.0000 0.96282  0.56218  0.23750  Biso   1.000  C  -0.096772
  C253     1.0000 0.95490  0.52610  0.25950  Biso   1.000  C  -0.018817
  C254     1.0000 0.95440  0.48080  0.28240  Biso   1.000  C  -0.032386
  C255     1.0000 0.94670  0.44430  0.30450  Biso   1.000  C  -0.087992
  C256     1.0000 0.94410  0.39730  0.32930  Biso   1.000  C  0.162983
  C257     1.0000 0.98296  0.16092  0.69520  Biso   1.000  C  -0.130323
  C258     1.0000 0.96490  0.21210  0.61090  Biso   1.000  C  0.132750
  C259     1.0000 0.96282  0.23750  0.56218  Biso   1.000  C  -0.096769
  C260     1.0000 0.95490  0.25950  0.52610  Biso   1.000  C  -0.018820
  C261     1.0000 0.95440  0.28240  0.48080  Biso   1.000  C  -0.032384
  C262     1.0000 0.94670  0.30450  0.44430  Biso   1.000  C  -0.087995
  C263     1.0000 0.94410  0.32930  0.39730  Biso   1.000  C  0.162983
  C264     1.0000 0.69520  0.16092  0.98296  Biso   1.000  C  -0.130357
  C265     1.0000 0.61090  0.21210  0.96490  Biso   1.000  C  0.132751
  C266     1.0000 0.56218  0.23750  0.96282  Biso   1.000  C  -0.096769
  C267     1.0000 0.52610  0.25950  0.95490  Biso   1.000  C  -0.018820
  C268     1.0000 0.48080  0.28240  0.95440  Biso   1.000  C  -0.032384
  C269     1.0000 0.44430  0.30450  0.94670  Biso   1.000  C  -0.087995
  C270     1.0000 0.39730  0.32930  0.94410  Biso   1.000  C  0.162983
  C271     1.0000 0.16092  0.98296  0.16092  Biso   1.000  C  -0.130349
  C272     1.0000 0.21210  0.96490  0.21210  Biso   1.000  C  0.132751
  C273     1.0000 0.23750  0.96282  0.23750  Biso   1.000  C  -0.096771
  C274     1.0000 0.25950  0.95490  0.25950  Biso   1.000  C  -0.018822
  C275     1.0000 0.28240  0.95440  0.28240  Biso   1.000  C  -0.032385
  C276     1.0000 0.30450  0.94670  0.30450  Biso   1.000  C  -0.087997
  C277     1.0000 0.32930  0.94410  0.32930  Biso   1.000  C  0.162986
  C278     1.0000 0.16092  0.69520  0.16092  Biso   1.000  C  -0.130345
  C279     1.0000 0.21210  0.61090  0.21210  Biso   1.000  C  0.132751
  C280     1.0000 0.23750  0.56218  0.23750  Biso   1.000  C  -0.096765
  C281     1.0000 0.25950  0.52610  0.25950  Biso   1.000  C  -0.018817
  C282     1.0000 0.28240  0.48080  0.28240  Biso   1.000  C  -0.032383
  C283     1.0000 0.30450  0.44430  0.30450  Biso   1.000  C  -0.087997
  C284     1.0000 0.32930  0.39730  0.32930  Biso   1.000  C  0.162978
  C285     1.0000 0.69520  0.16092  0.16092  Biso   1.000  C  -0.130346
  C286     1.0000 0.61090  0.21210  0.21210  Biso   1.000  C  0.132750
  C287     1.0000 0.56218  0.23750  0.23750  Biso   1.000  C  -0.096765
  C288     1.0000 0.52610  0.25950  0.25950  Biso   1.000  C  -0.018817
  C289     1.0000 0.48080  0.28240  0.28240  Biso   1.000  C  -0.032383
  C290     1.0000 0.44430  0.30450  0.30450  Biso   1.000  C  -0.087997
  C291     1.0000 0.39730  0.32930  0.32930  Biso   1.000  C  0.162978
  C292     1.0000 0.98296  0.16092  0.16092  Biso   1.000  C  -0.130319
  C293     1.0000 0.96490  0.21210  0.21210  Biso   1.000  C  0.132757
  C294     1.0000 0.96282  0.23750  0.23750  Biso   1.000  C  -0.096775
  C295     1.0000 0.95490  0.25950  0.25950  Biso   1.000  C  -0.018812
  C296     1.0000 0.95440  0.28240  0.28240  Biso   1.000  C  -0.032388
  C297     1.0000 0.94670  0.30450  0.30450  Biso   1.000  C  -0.087989
  C298     1.0000 0.94410  0.32930  0.32930  Biso   1.000  C  0.162984
  C299     1.0000 0.16092  0.98296  0.69520  Biso   1.000  C  -0.130320
  C300     1.0000 0.21210  0.96490  0.61090  Biso   1.000  C  0.132753
  C301     1.0000 0.23750  0.96282  0.56218  Biso   1.000  C  -0.096773
  C302     1.0000 0.25950  0.95490  0.52610  Biso   1.000  C  -0.018817
  C303     1.0000 0.28240  0.95440  0.48080  Biso   1.000  C  -0.032387
  C304     1.0000 0.30450  0.94670  0.44430  Biso   1.000  C  -0.087991
  C305     1.0000 0.32930  0.94410  0.39730  Biso   1.000  C  0.162982
  C306     1.0000 0.16092  0.69520  0.98296  Biso   1.000  C  -0.130354
  C307     1.0000 0.21210  0.61090  0.96490  Biso   1.000  C  0.132753
  C308     1.0000 0.23750  0.56218  0.96282  Biso   1.000  C  -0.096772
  C309     1.0000 0.25950  0.52610  0.95490  Biso   1.000  C  -0.018818
  C310     1.0000 0.28240  0.48080  0.95440  Biso   1.000  C  -0.032386
  C311     1.0000 0.30450  0.44430  0.94670  Biso   1.000  C  -0.087992
  C312     1.0000 0.32930  0.39730  0.94410  Biso   1.000  C  0.162983
  C313     1.0000 0.62590  0.69530  0.05290  Biso   1.000  C  -0.184887
  C314     1.0000 0.69530  0.62590  0.62590  Biso   1.000  C  -0.184889
  C315     1.0000 0.05290  0.62590  0.62590  Biso   1.000  C  -0.184885
  C316     1.0000 0.62590  0.05290  0.69530  Biso   1.000  C  -0.184889
  C317     1.0000 0.62590  0.05290  0.62590  Biso   1.000  C  -0.184886
  C318     1.0000 0.69530  0.62590  0.05290  Biso   1.000  C  -0.184889
  C319     1.0000 0.05290  0.62590  0.69530  Biso   1.000  C  -0.184889
  C320     1.0000 0.62590  0.69530  0.62590  Biso   1.000  C  -0.184891
  C321     1.0000 0.62590  0.62590  0.69530  Biso   1.000  C  -0.184891
  C322     1.0000 0.69530  0.05290  0.62590  Biso   1.000  C  -0.184889
  C323     1.0000 0.05290  0.69530  0.62590  Biso   1.000  C  -0.184887
  C324     1.0000 0.62590  0.62590  0.05290  Biso   1.000  C  -0.184885
  C325     1.0000 0.30470  0.37410  0.94710  Biso   1.000  C  -0.184888
  C326     1.0000 0.37410  0.30470  0.37410  Biso   1.000  C  -0.184890
  C327     1.0000 0.37410  0.94710  0.37410  Biso   1.000  C  -0.184886
  C328     1.0000 0.94710  0.37410  0.30470  Biso   1.000  C  -0.184889
  C329     1.0000 0.94710  0.37410  0.37410  Biso   1.000  C  -0.184884
  C330     1.0000 0.37410  0.30470  0.94710  Biso   1.000  C  -0.184889
  C331     1.0000 0.37410  0.94710  0.30470  Biso   1.000  C  -0.184889
  C332     1.0000 0.30470  0.37410  0.37410  Biso   1.000  C  -0.184890
  C333     1.0000 0.37410  0.37410  0.30470  Biso   1.000  C  -0.184890
  C334     1.0000 0.94710  0.30470  0.37410  Biso   1.000  C  -0.184889
  C335     1.0000 0.30470  0.94710  0.37410  Biso   1.000  C  -0.184889
  C336     1.0000 0.37410  0.37410  0.94710  Biso   1.000  C  -0.184884
  Cu1      1.0000 0.77050  0.00000  0.00000  Biso   1.000  Cu  0.818751
  Cu2      1.0000 0.69360  0.00000  0.00000  Biso   1.000  Cu  0.798297
  Cu3      1.0000 0.00000  0.77050  0.22950  Biso   1.000  Cu  0.818716
  Cu4      1.0000 1.00000  0.69360  0.30640  Biso   1.000  Cu  0.798258
  Cu5      1.0000 1.00000  0.22950  0.77050  Biso   1.000  Cu  0.818827
  Cu6      1.0000 0.00000  0.30640  0.69360  Biso   1.000  Cu  0.798153
  Cu7      1.0000 0.22950  0.00000  0.00000  Biso   1.000  Cu  0.818859
  Cu8      1.0000 0.30640  0.00000  0.00000  Biso   1.000  Cu  0.798190
  Cu9      1.0000 0.77050  1.00000  0.22950  Biso   1.000  Cu  0.818711
  Cu10     1.0000 0.69360  0.00000  0.30640  Biso   1.000  Cu  0.798257
  Cu11     1.0000 0.00000  0.22950  0.00000  Biso   1.000  Cu  0.819166
  Cu12     1.0000 1.00000  0.30640  0.00000  Biso   1.000  Cu  0.797842
  Cu13     1.0000 1.00000  0.77050  0.00000  Biso   1.000  Cu  0.818747
  Cu14     1.0000 0.00000  0.69360  0.00000  Biso   1.000  Cu  0.798297
  Cu15     1.0000 0.22950  0.00000  0.77050  Biso   1.000  Cu  0.818715
  Cu16     1.0000 0.30640  1.00000  0.69360  Biso   1.000  Cu  0.798260
  Cu17     1.0000 0.77050  0.22950  0.00000  Biso   1.000  Cu  0.818827
  Cu18     1.0000 0.69360  0.30640  0.00000  Biso   1.000  Cu  0.798155
  Cu19     1.0000 1.00000  0.00000  0.77050  Biso   1.000  Cu  0.818743
  Cu20     1.0000 0.00000  1.00000  0.69360  Biso   1.000  Cu  0.798296
  Cu21     1.0000 0.00000  1.00000  0.22950  Biso   1.000  Cu  0.818856
  Cu22     1.0000 1.00000  0.00000  0.30640  Biso   1.000  Cu  0.798189
  Cu23     1.0000 0.22950  0.77050  0.00000  Biso   1.000  Cu  0.818716
  Cu24     1.0000 0.30640  0.69360  0.00000  Biso   1.000  Cu  0.798262
  H1       1.0000 0.73560  0.85560  0.02440  Biso   1.000  H  0.146717
  H2       1.0000 0.85560  0.73560  0.38440  Biso   1.000  H  0.146727
  H3       1.0000 0.02440  0.38440  0.73560  Biso   1.000  H  0.146725
  H4       1.0000 0.38440  0.02440  0.85560  Biso   1.000  H  0.146719
  H5       1.0000 0.73560  0.02440  0.38440  Biso   1.000  H  0.146724
  H6       1.0000 0.85560  0.38440  0.02440  Biso   1.000  H  0.146720
  H7       1.0000 0.02440  0.73560  0.85560  Biso   1.000  H  0.146718
  H8       1.0000 0.38440  0.85560  0.73560  Biso   1.000  H  0.146727
  H9       1.0000 0.73560  0.38440  0.85560  Biso   1.000  H  0.146727
  H10      1.0000 0.85560  0.02440  0.73560  Biso   1.000  H  0.146717
  H11      1.0000 0.02440  0.85560  0.38440  Biso   1.000  H  0.146719
  H12      1.0000 0.38440  0.73560  0.02440  Biso   1.000  H  0.146723
  H13      1.0000 0.14440  0.26440  0.97560  Biso   1.000  H  0.146719
  H14      1.0000 0.26440  0.14440  0.61560  Biso   1.000  H  0.146727
  H15      1.0000 0.61560  0.97560  0.26440  Biso   1.000  H  0.146723
  H16      1.0000 0.97560  0.61560  0.14440  Biso   1.000  H  0.146719
  H17      1.0000 0.97560  0.26440  0.61560  Biso   1.000  H  0.146724
  H18      1.0000 0.61560  0.14440  0.97560  Biso   1.000  H  0.146718
  H19      1.0000 0.26440  0.97560  0.14440  Biso   1.000  H  0.146716
  H20      1.0000 0.14440  0.61560  0.26440  Biso   1.000  H  0.146727
  H21      1.0000 0.61560  0.26440  0.14440  Biso   1.000  H  0.146727
  H22      1.0000 0.97560  0.14440  0.26440  Biso   1.000  H  0.146719
  H23      1.0000 0.14440  0.97560  0.61560  Biso   1.000  H  0.146719
  H24      1.0000 0.26440  0.61560  0.97560  Biso   1.000  H  0.146724
  H25      1.0000 0.26440  0.14440  0.97560  Biso   1.000  H  0.146718
  H26      1.0000 0.14440  0.26440  0.61560  Biso   1.000  H  0.146727
  H27      1.0000 0.97560  0.61560  0.26440  Biso   1.000  H  0.146723
  H28      1.0000 0.61560  0.97560  0.14440  Biso   1.000  H  0.146718
  H29      1.0000 0.26440  0.97560  0.61560  Biso   1.000  H  0.146723
  H30      1.0000 0.14440  0.61560  0.97560  Biso   1.000  H  0.146719
  H31      1.0000 0.97560  0.26440  0.14440  Biso   1.000  H  0.146719
  H32      1.0000 0.61560  0.14440  0.26440  Biso   1.000  H  0.146727
  H33      1.0000 0.26440  0.61560  0.14440  Biso   1.000  H  0.146727
  H34      1.0000 0.14440  0.97560  0.26440  Biso   1.000  H  0.146716
  H35      1.0000 0.97560  0.14440  0.61560  Biso   1.000  H  0.146718
  H36      1.0000 0.61560  0.26440  0.97560  Biso   1.000  H  0.146724
  H37      1.0000 0.85560  0.73560  0.02440  Biso   1.000  H  0.146717
  H38      1.0000 0.73560  0.85560  0.38440  Biso   1.000  H  0.146727
  H39      1.0000 0.38440  0.02440  0.73560  Biso   1.000  H  0.146723
  H40      1.0000 0.02440  0.38440  0.85560  Biso   1.000  H  0.146721
  H41      1.0000 0.02440  0.73560  0.38440  Biso   1.000  H  0.146723
  H42      1.0000 0.38440  0.85560  0.02440  Biso   1.000  H  0.146718
  H43      1.0000 0.73560  0.02440  0.85560  Biso   1.000  H  0.146717
  H44      1.0000 0.85560  0.38440  0.73560  Biso   1.000  H  0.146726
  H45      1.0000 0.38440  0.73560  0.85560  Biso   1.000  H  0.146728
  H46      1.0000 0.02440  0.85560  0.73560  Biso   1.000  H  0.146717
  H47      1.0000 0.85560  0.02440  0.38440  Biso   1.000  H  0.146718
  H48      1.0000 0.73560  0.38440  0.02440  Biso   1.000  H  0.146725
  H49      1.0000 0.85670  0.85670  0.01030  Biso   1.000  H  0.132949
  H50      1.0000 0.85670  0.85670  0.27630  Biso   1.000  H  0.132958
  H51      1.0000 0.01030  0.27630  0.85670  Biso   1.000  H  0.132943
  H52      1.0000 0.27630  0.01030  0.85670  Biso   1.000  H  0.132948
  H53      1.0000 0.85670  0.01030  0.27630  Biso   1.000  H  0.132950
  H54      1.0000 0.85670  0.27630  0.01030  Biso   1.000  H  0.132942
  H55      1.0000 0.01030  0.85670  0.85670  Biso   1.000  H  0.132949
  H56      1.0000 0.27630  0.85670  0.85670  Biso   1.000  H  0.132958
  H57      1.0000 0.85670  0.27630  0.85670  Biso   1.000  H  0.132953
  H58      1.0000 0.85670  0.01030  0.85670  Biso   1.000  H  0.132948
  H59      1.0000 0.01030  0.85670  0.27630  Biso   1.000  H  0.132951
  H60      1.0000 0.27630  0.85670  0.01030  Biso   1.000  H  0.132948
  H61      1.0000 0.14330  0.14330  0.98970  Biso   1.000  H  0.132940
  H62      1.0000 0.14330  0.14330  0.72370  Biso   1.000  H  0.132957
  H63      1.0000 0.72370  0.98970  0.14330  Biso   1.000  H  0.132949
  H64      1.0000 0.98970  0.72370  0.14330  Biso   1.000  H  0.132951
  H65      1.0000 0.98970  0.14330  0.72370  Biso   1.000  H  0.132950
  H66      1.0000 0.72370  0.14330  0.98970  Biso   1.000  H  0.132948
  H67      1.0000 0.14330  0.98970  0.14330  Biso   1.000  H  0.132944
  H68      1.0000 0.14330  0.72370  0.14330  Biso   1.000  H  0.132957
  H69      1.0000 0.72370  0.14330  0.14330  Biso   1.000  H  0.132955
  H70      1.0000 0.98970  0.14330  0.14330  Biso   1.000  H  0.132942
  H71      1.0000 0.14330  0.98970  0.72370  Biso   1.000  H  0.132952
  H72      1.0000 0.14330  0.72370  0.98970  Biso   1.000  H  0.132950
  H73      1.0000 0.61160  0.72780  0.04900  Biso   1.000  H  0.141260
  H74      1.0000 0.72780  0.61160  0.61160  Biso   1.000  H  0.141269
  H75      1.0000 0.04900  0.61160  0.61160  Biso   1.000  H  0.141261
  H76      1.0000 0.61160  0.04900  0.72780  Biso   1.000  H  0.141260
  H77      1.0000 0.61160  0.04900  0.61160  Biso   1.000  H  0.141261
  H78      1.0000 0.72780  0.61160  0.04900  Biso   1.000  H  0.141260
  H79      1.0000 0.04900  0.61160  0.72780  Biso   1.000  H  0.141260
  H80      1.0000 0.61160  0.72780  0.61160  Biso   1.000  H  0.141269
  H81      1.0000 0.61160  0.61160  0.72780  Biso   1.000  H  0.141269
  H82      1.0000 0.72780  0.04900  0.61160  Biso   1.000  H  0.141259
  H83      1.0000 0.04900  0.72780  0.61160  Biso   1.000  H  0.141260
  H84      1.0000 0.61160  0.61160  0.04900  Biso   1.000  H  0.141260
  H85      1.0000 0.27220  0.38840  0.95100  Biso   1.000  H  0.141259
  H86      1.0000 0.38840  0.27220  0.38840  Biso   1.000  H  0.141269
  H87      1.0000 0.38840  0.95100  0.38840  Biso   1.000  H  0.141261
  H88      1.0000 0.95100  0.38840  0.27220  Biso   1.000  H  0.141260
  H89      1.0000 0.95100  0.38840  0.38840  Biso   1.000  H  0.141261
  H90      1.0000 0.38840  0.27220  0.95100  Biso   1.000  H  0.141259
  H91      1.0000 0.38840  0.95100  0.27220  Biso   1.000  H  0.141260
  H92      1.0000 0.27220  0.38840  0.38840  Biso   1.000  H  0.141268
  H93      1.0000 0.38840  0.38840  0.27220  Biso   1.000  H  0.141269
  H94      1.0000 0.95100  0.27220  0.38840  Biso   1.000  H  0.141259
  H95      1.0000 0.27220  0.95100  0.38840  Biso   1.000  H  0.141259
  H96      1.0000 0.38840  0.38840  0.95100  Biso   1.000  H  0.141261
  O1       1.0000 0.79238  0.93262  0.01122  Biso   1.000  O  -0.497798
  O2       1.0000 0.72792  0.93152  0.01086  Biso   1.000  O  -0.507442
  O3       1.0000 0.93262  0.79238  0.26378  Biso   1.000  O  -0.497784
  O4       1.0000 0.93152  0.72792  0.32970  Biso   1.000  O  -0.507422
  O5       1.0000 0.01122  0.26378  0.79238  Biso   1.000  O  -0.497801
  O6       1.0000 0.01086  0.32970  0.72792  Biso   1.000  O  -0.507344
  O7       1.0000 0.26378  0.01122  0.93262  Biso   1.000  O  -0.497809
  O8       1.0000 0.32970  0.01086  0.93152  Biso   1.000  O  -0.507433
  O9       1.0000 0.79238  0.01122  0.26378  Biso   1.000  O  -0.497796
  O10      1.0000 0.72792  0.01086  0.32970  Biso   1.000  O  -0.507430
  O11      1.0000 0.93262  0.26378  0.01122  Biso   1.000  O  -0.497827
  O12      1.0000 0.93152  0.32970  0.01086  Biso   1.000  O  -0.507390
  O13      1.0000 0.01122  0.79238  0.93262  Biso   1.000  O  -0.497798
  O14      1.0000 0.01086  0.72792  0.93152  Biso   1.000  O  -0.507441
  O15      1.0000 0.26378  0.93262  0.79238  Biso   1.000  O  -0.497783
  O16      1.0000 0.32970  0.93152  0.72792  Biso   1.000  O  -0.507422
  O17      1.0000 0.79238  0.26378  0.93262  Biso   1.000  O  -0.497795
  O18      1.0000 0.72792  0.32970  0.93152  Biso   1.000  O  -0.507425
  O19      1.0000 0.93262  0.01122  0.79238  Biso   1.000  O  -0.497797
  O20      1.0000 0.93152  0.01086  0.72792  Biso   1.000  O  -0.507441
  O21      1.0000 0.01122  0.93262  0.26378  Biso   1.000  O  -0.497795
  O22      1.0000 0.01086  0.93152  0.32970  Biso   1.000  O  -0.507471
  O23      1.0000 0.26378  0.79238  0.01122  Biso   1.000  O  -0.497794
  O24      1.0000 0.32970  0.72792  0.01086  Biso   1.000  O  -0.507431
  O25      1.0000 0.06738  0.20762  0.98878  Biso   1.000  O  -0.497826
  O26      1.0000 0.06848  0.27208  0.98914  Biso   1.000  O  -0.507392
  O27      1.0000 0.20762  0.06738  0.73622  Biso   1.000  O  -0.497785
  O28      1.0000 0.27208  0.06848  0.67030  Biso   1.000  O  -0.507421
  O29      1.0000 0.73622  0.98878  0.20762  Biso   1.000  O  -0.497793
  O30      1.0000 0.67030  0.98914  0.27208  Biso   1.000  O  -0.507431
  O31      1.0000 0.98878  0.73622  0.06738  Biso   1.000  O  -0.497798
  O32      1.0000 0.98914  0.67030  0.06848  Biso   1.000  O  -0.507439
  O33      1.0000 0.98878  0.20762  0.73622  Biso   1.000  O  -0.497790
  O34      1.0000 0.98914  0.27208  0.67030  Biso   1.000  O  -0.507463
  O35      1.0000 0.73622  0.06738  0.98878  Biso   1.000  O  -0.497799
  O36      1.0000 0.67030  0.06848  0.98914  Biso   1.000  O  -0.507439
  O37      1.0000 0.20762  0.98878  0.06738  Biso   1.000  O  -0.497809
  O38      1.0000 0.27208  0.98914  0.06848  Biso   1.000  O  -0.507443
  O39      1.0000 0.06738  0.73622  0.20762  Biso   1.000  O  -0.497783
  O40      1.0000 0.06848  0.67030  0.27208  Biso   1.000  O  -0.507422
  O41      1.0000 0.73622  0.20762  0.06738  Biso   1.000  O  -0.497794
  O42      1.0000 0.67030  0.27208  0.06848  Biso   1.000  O  -0.507417
  O43      1.0000 0.98878  0.06738  0.20762  Biso   1.000  O  -0.497804
  O44      1.0000 0.98914  0.06848  0.27208  Biso   1.000  O  -0.507354
  O45      1.0000 0.06738  0.98878  0.73622  Biso   1.000  O  -0.497799
  O46      1.0000 0.06848  0.98914  0.67030  Biso   1.000  O  -0.507438
  O47      1.0000 0.20762  0.73622  0.98878  Biso   1.000  O  -0.497793
  O48      1.0000 0.27208  0.67030  0.98914  Biso   1.000  O  -0.507432
  O49      1.0000 0.20762  0.06738  0.98878  Biso   1.000  O  -0.497804
  O50      1.0000 0.27208  0.06848  0.98914  Biso   1.000  O  -0.507354
  O51      1.0000 0.06738  0.20762  0.73622  Biso   1.000  O  -0.497795
  O52      1.0000 0.06848  0.27208  0.67030  Biso   1.000  O  -0.507417
  O53      1.0000 0.98878  0.73622  0.20762  Biso   1.000  O  -0.497794
  O54      1.0000 0.98914  0.67030  0.27208  Biso   1.000  O  -0.507431
  O55      1.0000 0.73622  0.98878  0.06738  Biso   1.000  O  -0.497798
  O56      1.0000 0.67030  0.98914  0.06848  Biso   1.000  O  -0.507439
  O57      1.0000 0.20762  0.98878  0.73622  Biso   1.000  O  -0.497794
  O58      1.0000 0.27208  0.98914  0.67030  Biso   1.000  O  -0.507430
  O59      1.0000 0.06738  0.73622  0.98878  Biso   1.000  O  -0.497798
  O60      1.0000 0.06848  0.67030  0.98914  Biso   1.000  O  -0.507439
  O61      1.0000 0.98878  0.20762  0.06738  Biso   1.000  O  -0.497827
  O62      1.0000 0.98914  0.27208  0.06848  Biso   1.000  O  -0.507392
  O63      1.0000 0.73622  0.06738  0.20762  Biso   1.000  O  -0.497784
  O64      1.0000 0.67030  0.06848  0.27208  Biso   1.000  O  -0.507422
  O65      1.0000 0.20762  0.73622  0.06738  Biso   1.000  O  -0.497783
  O66      1.0000 0.27208  0.67030  0.06848  Biso   1.000  O  -0.507422
  O67      1.0000 0.06738  0.98878  0.20762  Biso   1.000  O  -0.497809
  O68      1.0000 0.06848  0.98914  0.27208  Biso   1.000  O  -0.507444
  O69      1.0000 0.98878  0.06738  0.73622  Biso   1.000  O  -0.497799
  O70      1.0000 0.98914  0.06848  0.67030  Biso   1.000  O  -0.507438
  O71      1.0000 0.73622  0.20762  0.98878  Biso   1.000  O  -0.497789
  O72      1.0000 0.67030  0.27208  0.98914  Biso   1.000  O  -0.507464
  O73      1.0000 0.93262  0.79238  0.01122  Biso   1.000  O  -0.497797
  O74      1.0000 0.93152  0.72792  0.01086  Biso   1.000  O  -0.507441
  O75      1.0000 0.79238  0.93262  0.26378  Biso   1.000  O  -0.497783
  O76      1.0000 0.72792  0.93152  0.32970  Biso   1.000  O  -0.507422
  O77      1.0000 0.26378  0.01122  0.79238  Biso   1.000  O  -0.497795
  O78      1.0000 0.32970  0.01086  0.72792  Biso   1.000  O  -0.507431
  O79      1.0000 0.01122  0.26378  0.93262  Biso   1.000  O  -0.497828
  O80      1.0000 0.01086  0.32970  0.93152  Biso   1.000  O  -0.507389
  O81      1.0000 0.01122  0.79238  0.26378  Biso   1.000  O  -0.497795
  O82      1.0000 0.01086  0.72792  0.32970  Biso   1.000  O  -0.507430
  O83      1.0000 0.26378  0.93262  0.01122  Biso   1.000  O  -0.497794
  O84      1.0000 0.32970  0.93152  0.01086  Biso   1.000  O  -0.507472
  O85      1.0000 0.79238  0.01122  0.93262  Biso   1.000  O  -0.497798
  O86      1.0000 0.72792  0.01086  0.93152  Biso   1.000  O  -0.507442
  O87      1.0000 0.93262  0.26378  0.79238  Biso   1.000  O  -0.497795
  O88      1.0000 0.93152  0.32970  0.72792  Biso   1.000  O  -0.507425
  O89      1.0000 0.26378  0.79238  0.93262  Biso   1.000  O  -0.497783
  O90      1.0000 0.32970  0.72792  0.93152  Biso   1.000  O  -0.507423
  O91      1.0000 0.01122  0.93262  0.79238  Biso   1.000  O  -0.497797
  O92      1.0000 0.01086  0.93152  0.72792  Biso   1.000  O  -0.507442
  O93      1.0000 0.93262  0.01122  0.26378  Biso   1.000  O  -0.497810
  O94      1.0000 0.93152  0.01086  0.32970  Biso   1.000  O  -0.507433
  O95      1.0000 0.79238  0.26378  0.01122  Biso   1.000  O  -0.497800
  O96      1.0000 0.72792  0.32970  0.01086  Biso   1.000  O  -0.507345
