data_image0
_cell_length_a       32.1539
_cell_length_b       32.1539
_cell_length_c       32.1539
_cell_angle_alpha    60
_cell_angle_beta     60
_cell_angle_gamma    60

_symmetry_space_group_name_H-M    "P 1"
_symmetry_int_tables_number       1

loop_
  _symmetry_equiv_pos_as_xyz
  'x, y, z'

loop_
  _atom_site_label
  _atom_site_occupancy
  _atom_site_fract_x
  _atom_site_fract_y
  _atom_site_fract_z
  _atom_site_thermal_displace_type
  _atom_site_B_iso_or_equiv
  _atom_site_type_symbol
  _atom_site_charge
  C1       1.0000 0.43294  0.07790  0.01176  Biso   1.000  C  0.055037
  C2       1.0000 0.41050  0.11898  0.02896  Biso   1.000  C  0.055329
  C3       1.0000 0.11308  0.16574  0.01978  Biso   1.000  C  0.295491
  C4       1.0000 0.15713  0.16726  0.01839  Biso   1.000  C  0.049877
  C5       1.0000 0.24864  0.26326  0.00977  Biso   1.000  C  0.293263
  C6       1.0000 0.32261  0.25641  0.00704  Biso   1.000  C  0.229605
  C7       1.0000 0.93512  0.26369  0.01041  Biso   1.000  C  0.296234
  C8       1.0000 0.87172  0.25631  0.00644  Biso   1.000  C  0.225559
  C9       1.0000 0.93621  0.07956  0.00957  Biso   1.000  C  0.053623
  C10      1.0000 0.90035  0.12116  0.02596  Biso   1.000  C  0.049338
  C11      1.0000 0.33425  0.98801  0.02086  Biso   1.000  C  0.294125
  C12      1.0000 0.15936  0.94443  0.01968  Biso   1.000  C  0.295768
  C13      1.0000 0.24846  0.76562  0.01031  Biso   1.000  C  0.055881
  C14      1.0000 0.29003  0.72988  0.02677  Biso   1.000  C  0.051900
  C15      1.0000 0.11508  0.98835  0.01859  Biso   1.000  C  0.050064
  C16      1.0000 0.33607  0.94373  0.01936  Biso   1.000  C  0.051573
  C17      1.0000 0.43274  0.76612  0.00971  Biso   1.000  C  0.294071
  C18      1.0000 0.42617  0.70229  0.00569  Biso   1.000  C  0.226996
  C19      1.0000 0.04376  0.60946  0.02525  Biso   1.000  C  0.199713
  C20      1.0000 0.95105  0.52127  0.03158  Biso   1.000  C  0.184187
  C21      1.0000 0.95447  0.78346  0.03093  Biso   1.000  C  0.186865
  C22      1.0000 0.69026  0.78442  0.02954  Biso   1.000  C  0.185673
  C23      1.0000 0.77863  0.61158  0.02367  Biso   1.000  C  0.192913
  C24      1.0000 0.78143  0.87346  0.02369  Biso   1.000  C  0.199112
  C25      1.0000 0.11484  0.31666  0.69206  Biso   1.000  C  0.293453
  C26      1.0000 0.16056  0.24804  0.73990  Biso   1.000  C  0.226884
  C27      1.0000 0.15883  0.16507  0.64742  Biso   1.000  C  0.295536
  C28      1.0000 0.20711  0.13985  0.69282  Biso   1.000  C  0.226079
  C29      1.0000 0.10636  0.19023  0.50465  Biso   1.000  C  0.293195
  C30      1.0000 0.25679  0.13244  0.46307  Biso   1.000  C  0.302654
  C31      1.0000 0.24776  0.26363  0.46905  Biso   1.000  C  0.294085
  C32      1.0000 0.32236  0.25631  0.40547  Biso   1.000  C  0.225923
  C33      1.0000 0.09074  0.12158  0.52286  Biso   1.000  C  0.227274
  C34      1.0000 0.26891  0.14667  0.38282  Biso   1.000  C  0.227322
  C35      1.0000 0.30909  0.03628  0.95236  Biso   1.000  C  0.225999
  C36      1.0000 0.30111  0.08732  0.13797  Biso   1.000  C  0.290845
  C37      1.0000 0.31681  0.10039  0.19014  Biso   1.000  C  0.229395
  C38      1.0000 0.33472  0.31733  0.64759  Biso   1.000  C  0.293876
  C39      1.0000 0.30966  0.24879  0.69276  Biso   1.000  C  0.226350
  C40      1.0000 0.43159  0.30915  0.46916  Biso   1.000  C  0.295167
  C41      1.0000 0.42448  0.30682  0.40468  Biso   1.000  C  0.227900
  C42      1.0000 0.16029  0.03735  0.84239  Biso   1.000  C  0.226313
  C43      1.0000 0.48711  0.16548  0.69177  Biso   1.000  C  0.294746
  C44      1.0000 0.41865  0.14027  0.74035  Biso   1.000  C  0.228266
  C45      1.0000 0.47822  0.26408  0.78153  Biso   1.000  C  0.057072
  C46      1.0000 0.49540  0.24190  0.82258  Biso   1.000  C  0.056518
  C47      1.0000 0.41808  0.03758  0.69321  Biso   1.000  C  0.225569
  C48      1.0000 0.47640  0.07891  0.46991  Biso   1.000  C  0.296698
  C49      1.0000 0.47325  0.15325  0.40599  Biso   1.000  C  0.226542
  C50      1.0000 0.15858  0.14006  0.95161  Biso   1.000  C  0.227435
  C51      1.0000 0.15809  0.31878  0.86751  Biso   1.000  C  0.292072
  C52      1.0000 0.20651  0.25042  0.84213  Biso   1.000  C  0.227246
  C53      1.0000 0.24861  0.30784  0.96635  Biso   1.000  C  0.054477
  C54      1.0000 0.28975  0.32481  0.94455  Biso   1.000  C  0.055932
  C55      1.0000 0.07643  0.21939  0.22147  Biso   1.000  C  0.293916
  C56      1.0000 0.11694  0.27259  0.27813  Biso   1.000  C  0.299041
  C57      1.0000 0.05802  0.15324  0.28978  Biso   1.000  C  0.228023
  C58      1.0000 0.19732  0.21926  0.26281  Biso   1.000  C  0.229090
  C59      1.0000 0.38997  0.02766  0.30951  Biso   1.000  C  0.231036
  C60      1.0000 0.07754  0.22019  0.47137  Biso   1.000  C  0.048466
  C61      1.0000 0.05566  0.19599  0.46574  Biso   1.000  C  0.050669
  C62      1.0000 0.11720  0.27198  0.32229  Biso   1.000  C  0.044202
  C63      1.0000 0.16179  0.24202  0.33461  Biso   1.000  C  0.043084
  C64      1.0000 0.11377  0.31681  0.86995  Biso   1.000  C  0.050712
  C65      1.0000 0.12002  0.27769  0.85766  Biso   1.000  C  0.045423
  C66      1.0000 0.10910  0.18758  0.19112  Biso   1.000  C  0.048651
  C67      1.0000 0.11445  0.13595  0.21499  Biso   1.000  C  0.051853
  C68      1.0000 0.25706  0.13116  0.13801  Biso   1.000  C  0.053212
  C69      1.0000 0.24552  0.15932  0.16643  Biso   1.000  C  0.054849
  C70      1.0000 0.20247  0.15445  0.97963  Biso   1.000  C  0.042326
  C71      1.0000 0.30087  0.08849  0.46305  Biso   1.000  C  0.051679
  C72      1.0000 0.32803  0.07571  0.41876  Biso   1.000  C  0.040273
  C73      1.0000 0.43278  0.07912  0.46888  Biso   1.000  C  0.052044
  C74      1.0000 0.32367  0.03374  0.65403  Biso   1.000  C  0.043761
  C75      1.0000 0.41069  0.12053  0.43293  Biso   1.000  C  0.050832
  C76      1.0000 0.33640  0.31582  0.69161  Biso   1.000  C  0.047952
  C77      1.0000 0.43345  0.30732  0.78206  Biso   1.000  C  0.292913
  C78      1.0000 0.42673  0.30359  0.85643  Biso   1.000  C  0.227997
  C79      1.0000 0.32392  0.27679  0.73680  Biso   1.000  C  0.043017
  C80      1.0000 0.12111  0.03362  0.97950  Biso   1.000  C  0.043323
  C81      1.0000 0.48569  0.16678  0.64771  Biso   1.000  C  0.051204
  C82      1.0000 0.47487  0.26439  0.46922  Biso   1.000  C  0.053422
  C83      1.0000 0.44667  0.15423  0.65412  Biso   1.000  C  0.040891
  C84      1.0000 0.49091  0.24206  0.43366  Biso   1.000  C  0.047259
  C85      1.0000 0.47644  0.07844  0.96725  Biso   1.000  C  0.294305
  C86      1.0000 0.47250  0.15277  0.96074  Biso   1.000  C  0.227698
  C87      1.0000 0.44668  0.03466  0.85652  Biso   1.000  C  0.045494
  C88      1.0000 0.11464  0.16643  0.69147  Biso   1.000  C  0.049047
  C89      1.0000 0.12083  0.15377  0.73679  Biso   1.000  C  0.042877
  C90      1.0000 0.15865  0.31556  0.64767  Biso   1.000  C  0.050431
  C91      1.0000 0.24777  0.30813  0.46810  Biso   1.000  C  0.053630
  C92      1.0000 0.20405  0.27673  0.65354  Biso   1.000  C  0.045121
  C93      1.0000 0.28906  0.32493  0.43218  Biso   1.000  C  0.053488
  C94      1.0000 0.09378  0.18797  0.62724  Biso   1.000  C  0.185757
  C95      1.0000 0.09300  0.18895  0.08186  Biso   1.000  C  0.185122
  C96      1.0000 0.10780  0.26715  0.47136  Biso   1.000  C  0.185572
  C97      1.0000 0.10963  0.26470  0.14456  Biso   1.000  C  0.183748
  C98      1.0000 0.26781  0.09946  0.53593  Biso   1.000  C  0.203056
  C99      1.0000 0.26739  0.09729  0.08820  Biso   1.000  C  0.199800
  C100     1.0000 0.00402  0.09771  0.80119  Biso   1.000  C  0.196952
  C101     1.0000 0.00311  0.09844  0.08863  Biso   1.000  C  0.198305
  C102     1.0000 0.04389  0.32266  0.31209  Biso   1.000  C  0.197100
  C103     1.0000 0.18011  0.29091  0.52766  Biso   1.000  C  0.175345
  C104     1.0000 0.45845  0.01089  0.99338  Biso   1.000  C  0.175585
  C105     1.0000 0.45806  0.28954  0.52883  Biso   1.000  C  0.177157
  C106     1.0000 0.46019  0.28923  0.71443  Biso   1.000  C  0.175881
  C107     1.0000 0.45772  0.01155  0.52873  Biso   1.000  C  0.174832
  C108     1.0000 0.18158  0.28990  0.99082  Biso   1.000  C  0.175201
  C109     1.0000 0.93580  0.30773  0.78179  Biso   1.000  C  0.295200
  C110     1.0000 0.87124  0.30544  0.85564  Biso   1.000  C  0.228773
  C111     1.0000 0.93090  0.08707  0.83473  Biso   1.000  C  0.299301
  C112     1.0000 0.93671  0.07876  0.96567  Biso   1.000  C  0.296896
  C113     1.0000 0.87242  0.15280  0.95855  Biso   1.000  C  0.225905
  C114     1.0000 0.85046  0.09927  0.84959  Biso   1.000  C  0.227941
  C115     1.0000 0.65765  0.19079  0.63863  Biso   1.000  C  0.292727
  C116     1.0000 0.60538  0.13280  0.79031  Biso   1.000  C  0.289073
  C117     1.0000 0.72409  0.12251  0.62259  Biso   1.000  C  0.227801
  C118     1.0000 0.65824  0.14793  0.80300  Biso   1.000  C  0.231082
  C119     1.0000 0.60539  0.08700  0.46403  Biso   1.000  C  0.294569
  C120     1.0000 0.65867  0.09927  0.38356  Biso   1.000  C  0.230443
  C121     1.0000 0.97109  0.18967  0.19020  Biso   1.000  C  0.293220
  C122     1.0000 0.92975  0.13200  0.13859  Biso   1.000  C  0.300816
  C123     1.0000 0.98919  0.12124  0.25644  Biso   1.000  C  0.227484
  C124     1.0000 0.84922  0.14696  0.19163  Biso   1.000  C  0.229138
  C125     1.0000 0.77651  0.02873  0.26317  Biso   1.000  C  0.228976
  C126     1.0000 0.68872  0.21916  0.47317  Biso   1.000  C  0.294178
  C127     1.0000 0.74623  0.27253  0.32222  Biso   1.000  C  0.292495
  C128     1.0000 0.75660  0.15264  0.49009  Biso   1.000  C  0.231180
  C129     1.0000 0.73002  0.22034  0.30967  Biso   1.000  C  0.228805
  C130     1.0000 0.73083  0.02809  0.92261  Biso   1.000  C  0.226814
  C131     1.0000 0.94051  0.21891  0.60932  Biso   1.000  C  0.294698
  C132     1.0000 0.78928  0.27343  0.64964  Biso   1.000  C  0.291533
  C133     1.0000 0.95662  0.15273  0.59104  Biso   1.000  C  0.228705
  C134     1.0000 0.77677  0.22047  0.73030  Biso   1.000  C  0.228241
  C135     1.0000 0.57386  0.00536  0.15348  Biso   1.000  C  0.229102
  C136     1.0000 0.72539  0.00544  0.10576  Biso   1.000  C  0.228523
  C137     1.0000 0.68934  0.22125  0.60932  Biso   1.000  C  0.048915
  C138     1.0000 0.74106  0.19745  0.58720  Biso   1.000  C  0.052188
  C139     1.0000 0.74562  0.27307  0.64944  Biso   1.000  C  0.053329
  C140     1.0000 0.71804  0.24382  0.69411  Biso   1.000  C  0.055639
  C141     1.0000 0.62237  0.00558  0.25820  Biso   1.000  C  0.228907
  C142     1.0000 0.93871  0.22006  0.22197  Biso   1.000  C  0.048127
  C143     1.0000 0.93333  0.19620  0.27360  Biso   1.000  C  0.052553
  C144     1.0000 0.79057  0.27164  0.27870  Biso   1.000  C  0.052291
  C145     1.0000 0.80213  0.24273  0.25104  Biso   1.000  C  0.055957
  C146     1.0000 0.93429  0.30811  0.96679  Biso   1.000  C  0.052963
  C147     1.0000 0.89855  0.32486  0.94441  Biso   1.000  C  0.052871
  C148     1.0000 0.93005  0.08757  0.13917  Biso   1.000  C  0.045061
  C149     1.0000 0.88547  0.07520  0.16860  Biso   1.000  C  0.041211
  C150     1.0000 0.65804  0.18770  0.50241  Biso   1.000  C  0.047495
  C151     1.0000 0.68150  0.13604  0.52516  Biso   1.000  C  0.050815
  C152     1.0000 0.60473  0.13150  0.46366  Biso   1.000  C  0.043810
  C153     1.0000 0.63398  0.15909  0.41893  Biso   1.000  C  0.040679
  C154     1.0000 0.60565  0.08860  0.83399  Biso   1.000  C  0.054175
  C155     1.0000 0.63459  0.07658  0.86184  Biso   1.000  C  0.053263
  C156     1.0000 0.96996  0.18712  0.64201  Biso   1.000  C  0.048632
  C157     1.0000 0.99233  0.13546  0.64741  Biso   1.000  C  0.051799
  C158     1.0000 0.93089  0.13092  0.79058  Biso   1.000  C  0.046545
  C159     1.0000 0.88632  0.15825  0.77822  Biso   1.000  C  0.037606
  C160     1.0000 0.93541  0.26340  0.78278  Biso   1.000  C  0.054974
  C161     1.0000 0.89956  0.24130  0.82439  Biso   1.000  C  0.050479
  C162     1.0000 0.54947  0.18818  0.62640  Biso   1.000  C  0.184696
  C163     1.0000 0.95443  0.32873  0.22144  Biso   1.000  C  0.184465
  C164     1.0000 0.69013  0.32867  0.48553  Biso   1.000  C  0.185359
  C165     1.0000 0.95329  0.32802  0.48690  Biso   1.000  C  0.185590
  C166     1.0000 0.61209  0.26773  0.63995  Biso   1.000  C  0.184926
  C167     1.0000 0.93832  0.26672  0.14487  Biso   1.000  C  0.183968
  C168     1.0000 0.61205  0.26504  0.47102  Biso   1.000  C  0.183419
  C169     1.0000 0.93912  0.26432  0.64229  Biso   1.000  C  0.180462
  C170     1.0000 0.55522  0.09935  0.80057  Biso   1.000  C  0.196894
  C171     1.0000 0.55480  0.09784  0.53709  Biso   1.000  C  0.194657
  C172     1.0000 0.78097  0.32157  0.31193  Biso   1.000  C  0.198424
  C173     1.0000 0.77884  0.32351  0.57636  Biso   1.000  C  0.197606
  C174     1.0000 0.99552  0.28804  0.71522  Biso   1.000  C  0.175001
  C175     1.0000 0.99588  0.01176  0.99250  Biso   1.000  C  0.175605
  C176     1.0000 0.99353  0.29098  0.99258  Biso   1.000  C  0.175559
  C177     1.0000 0.48657  0.94530  0.86818  Biso   1.000  C  0.293444
  C178     1.0000 0.41832  0.99061  0.84267  Biso   1.000  C  0.227437
  C179     1.0000 0.47710  0.76570  0.96603  Biso   1.000  C  0.054675
  C180     1.0000 0.49408  0.73010  0.94338  Biso   1.000  C  0.053123
  C181     1.0000 0.36036  0.93559  0.19114  Biso   1.000  C  0.293493
  C182     1.0000 0.29249  0.91912  0.25801  Biso   1.000  C  0.228775
  C183     1.0000 0.20741  0.98980  0.95084  Biso   1.000  C  0.228763
  C184     1.0000 0.10726  0.80120  0.19071  Biso   1.000  C  0.289378
  C185     1.0000 0.25793  0.75956  0.13893  Biso   1.000  C  0.052214
  C186     1.0000 0.24571  0.71494  0.16836  Biso   1.000  C  0.043748
  C187     1.0000 0.09119  0.81877  0.25732  Biso   1.000  C  0.228174
  C188     1.0000 0.35893  0.48833  0.50379  Biso   1.000  C  0.289229
  C189     1.0000 0.30082  0.43630  0.46300  Biso   1.000  C  0.059576
  C190     1.0000 0.32834  0.46533  0.41807  Biso   1.000  C  0.058373
  C191     1.0000 0.29099  0.55516  0.52108  Biso   1.000  C  0.227054
  C192     1.0000 0.11480  0.98919  0.86754  Biso   1.000  C  0.294110
  C193     1.0000 0.48672  0.98960  0.64762  Biso   1.000  C  0.294353
  C194     1.0000 0.33391  0.94462  0.69211  Biso   1.000  C  0.295509
  C195     1.0000 0.30902  0.98989  0.74039  Biso   1.000  C  0.227373
  C196     1.0000 0.35930  0.80106  0.63998  Biso   1.000  C  0.050410
  C197     1.0000 0.30769  0.82359  0.64524  Biso   1.000  C  0.055710
  C198     1.0000 0.30182  0.76105  0.79017  Biso   1.000  C  0.284830
  C199     1.0000 0.43399  0.76606  0.78109  Biso   1.000  C  0.053123
  C200     1.0000 0.31741  0.68023  0.80288  Biso   1.000  C  0.231339
  C201     1.0000 0.41195  0.72987  0.82207  Biso   1.000  C  0.053949
  C202     1.0000 0.10650  0.48908  0.89180  Biso   1.000  C  0.051479
  C203     1.0000 0.11211  0.51276  0.84010  Biso   1.000  C  0.055860
  C204     1.0000 0.25678  0.43649  0.83433  Biso   1.000  C  0.284794
  C205     1.0000 0.27014  0.48855  0.84991  Biso   1.000  C  0.229056
  C206     1.0000 0.11118  0.40063  0.14646  Biso   1.000  C  0.296840
  C207     1.0000 0.17479  0.40481  0.15324  Biso   1.000  C  0.225272
  C208     1.0000 0.38822  0.90718  0.47263  Biso   1.000  C  0.053340
  C209     1.0000 0.36451  0.88448  0.46741  Biso   1.000  C  0.055428
  C210     1.0000 0.44277  0.94692  0.32218  Biso   1.000  C  0.285588
  C211     1.0000 0.07625  0.77107  0.92181  Biso   1.000  C  0.293468
  C212     1.0000 0.11671  0.62039  0.97456  Biso   1.000  C  0.299811
  C213     1.0000 0.11172  0.62854  0.10263  Biso   1.000  C  0.297125
  C214     1.0000 0.17565  0.55417  0.10649  Biso   1.000  C  0.226890
  C215     1.0000 0.05751  0.78768  0.85573  Biso   1.000  C  0.228395
  C216     1.0000 0.19707  0.60824  0.92101  Biso   1.000  C  0.228499
  C217     1.0000 0.38735  0.51958  0.60931  Biso   1.000  C  0.293083
  C218     1.0000 0.44157  0.57713  0.64972  Biso   1.000  C  0.293080
  C219     1.0000 0.32078  0.58727  0.59101  Biso   1.000  C  0.230343
  C220     1.0000 0.38915  0.56160  0.73061  Biso   1.000  C  0.227179
  C221     1.0000 0.38856  0.76989  0.22286  Biso   1.000  C  0.288756
  C222     1.0000 0.44199  0.61888  0.27937  Biso   1.000  C  0.050796
  C223     1.0000 0.41245  0.63111  0.25203  Biso   1.000  C  0.043894
  C224     1.0000 0.32206  0.78639  0.29086  Biso   1.000  C  0.227824
  C225     1.0000 0.07804  0.52062  0.47124  Biso   1.000  C  0.046487
  C226     1.0000 0.05568  0.57228  0.46572  Biso   1.000  C  0.051379
  C227     1.0000 0.11645  0.57757  0.32240  Biso   1.000  C  0.052718
  C228     1.0000 0.16147  0.54953  0.33402  Biso   1.000  C  0.055522
  C229     1.0000 0.11116  0.44565  0.33121  Biso   1.000  C  0.294625
  C230     1.0000 0.17573  0.45200  0.25734  Biso   1.000  C  0.228070
  C231     1.0000 0.11130  0.40176  0.33079  Biso   1.000  C  0.053112
  C232     1.0000 0.14704  0.38502  0.28939  Biso   1.000  C  0.054494
  C233     1.0000 0.39121  0.90636  0.22246  Biso   1.000  C  0.047552
  C234     1.0000 0.36779  0.88397  0.27426  Biso   1.000  C  0.050505
  C235     1.0000 0.44300  0.94695  0.27812  Biso   1.000  C  0.051780
  C236     1.0000 0.41411  0.99179  0.25026  Biso   1.000  C  0.058254
  C237     1.0000 0.07614  0.77013  0.22173  Biso   1.000  C  0.052206
  C238     1.0000 0.05332  0.76484  0.27335  Biso   1.000  C  0.057395
  C239     1.0000 0.11662  0.62107  0.27807  Biso   1.000  C  0.285581
  C240     1.0000 0.11221  0.62869  0.14636  Biso   1.000  C  0.052328
  C241     1.0000 0.19770  0.60788  0.26203  Biso   1.000  C  0.230351
  C242     1.0000 0.14810  0.58758  0.16873  Biso   1.000  C  0.052891
  C243     1.0000 0.39017  0.51926  0.47239  Biso   1.000  C  0.053537
  C244     1.0000 0.36685  0.57096  0.46680  Biso   1.000  C  0.057408
  C245     1.0000 0.44148  0.57539  0.32384  Biso   1.000  C  0.296511
  C246     1.0000 0.38824  0.56027  0.31173  Biso   1.000  C  0.227245
  C247     1.0000 0.39076  0.77033  0.60853  Biso   1.000  C  0.287642
  C248     1.0000 0.44204  0.62077  0.64984  Biso   1.000  C  0.056040
  C249     1.0000 0.41333  0.63257  0.69469  Biso   1.000  C  0.059094
  C250     1.0000 0.32446  0.78617  0.59057  Biso   1.000  C  0.225690
  C251     1.0000 0.07460  0.51990  0.92316  Biso   1.000  C  0.288882
  C252     1.0000 0.11683  0.57620  0.97483  Biso   1.000  C  0.051161
  C253     1.0000 0.16130  0.54888  0.94520  Biso   1.000  C  0.044260
  C254     1.0000 0.11108  0.44478  0.10254  Biso   1.000  C  0.051722
  C255     1.0000 0.05709  0.58814  0.85659  Biso   1.000  C  0.225903
  C256     1.0000 0.14632  0.46772  0.08591  Biso   1.000  C  0.051579
  C257     1.0000 0.48520  0.94520  0.69142  Biso   1.000  C  0.051679
  C258     1.0000 0.47755  0.76685  0.78125  Biso   1.000  C  0.294869
  C259     1.0000 0.47398  0.70281  0.85552  Biso   1.000  C  0.226916
  C260     1.0000 0.44614  0.95115  0.73671  Biso   1.000  C  0.043867
  C261     1.0000 0.33585  0.98856  0.64788  Biso   1.000  C  0.050197
  C262     1.0000 0.35732  0.93790  0.50409  Biso   1.000  C  0.287851
  C263     1.0000 0.28913  0.92158  0.52229  Biso   1.000  C  0.228534
  C264     1.0000 0.15882  0.94496  0.86883  Biso   1.000  C  0.049951
  C265     1.0000 0.10910  0.80036  0.88996  Biso   1.000  C  0.048429
  C266     1.0000 0.11435  0.82287  0.83836  Biso   1.000  C  0.050930
  C267     1.0000 0.25770  0.76116  0.83390  Biso   1.000  C  0.052967
  C268     1.0000 0.24579  0.71629  0.86166  Biso   1.000  C  0.055285
  C269     1.0000 0.24828  0.76651  0.96594  Biso   1.000  C  0.293672
  C270     1.0000 0.32264  0.70260  0.95867  Biso   1.000  C  0.227799
  C271     1.0000 0.20414  0.95105  0.85634  Biso   1.000  C  0.042386
  C272     1.0000 0.35596  0.48886  0.64251  Biso   1.000  C  0.046482
  C273     1.0000 0.30426  0.51224  0.64813  Biso   1.000  C  0.053163
  C274     1.0000 0.30092  0.43602  0.79061  Biso   1.000  C  0.051797
  C275     1.0000 0.32927  0.46433  0.77894  Biso   1.000  C  0.054860
  C276     1.0000 0.48550  0.98937  0.86933  Biso   1.000  C  0.048463
  C277     1.0000 0.35748  0.80076  0.19176  Biso   1.000  C  0.053934
  C278     1.0000 0.30588  0.82373  0.21521  Biso   1.000  C  0.055952
  C279     1.0000 0.30132  0.76012  0.13952  Biso   1.000  C  0.296359
  C280     1.0000 0.32393  0.94986  0.98021  Biso   1.000  C  0.041776
  C281     1.0000 0.31648  0.67956  0.19265  Biso   1.000  C  0.229151
  C282     1.0000 0.10665  0.48875  0.50474  Biso   1.000  C  0.295282
  C283     1.0000 0.25725  0.43538  0.46318  Biso   1.000  C  0.291337
  C284     1.0000 0.08992  0.55502  0.52329  Biso   1.000  C  0.228640
  C285     1.0000 0.26968  0.48771  0.38228  Biso   1.000  C  0.225795
  C286     1.0000 0.09460  0.37918  0.62693  Biso   1.000  C  0.185430
  C287     1.0000 0.35720  0.92269  0.08313  Biso   1.000  C  0.185164
  C288     1.0000 0.09436  0.92432  0.08252  Biso   1.000  C  0.184648
  C289     1.0000 0.35771  0.37956  0.62768  Biso   1.000  C  0.183720
  C290     1.0000 0.09461  0.92416  0.89030  Biso   1.000  C  0.184644
  C291     1.0000 0.35678  0.92473  0.62681  Biso   1.000  C  0.183308
  C292     1.0000 0.09262  0.38066  0.89105  Biso   1.000  C  0.185518
  C293     1.0000 0.49837  0.78431  0.48565  Biso   1.000  C  0.184311
  C294     1.0000 0.49711  0.52041  0.48679  Biso   1.000  C  0.183626
  C295     1.0000 0.49855  0.78292  0.22278  Biso   1.000  C  0.184557
  C296     1.0000 0.43703  0.93746  0.14493  Biso   1.000  C  0.184279
  C297     1.0000 0.10759  0.76956  0.14469  Biso   1.000  C  0.182225
  C298     1.0000 0.43599  0.44207  0.47214  Biso   1.000  C  0.184860
  C299     1.0000 0.43622  0.76985  0.64082  Biso   1.000  C  0.183705
  C300     1.0000 0.10677  0.44269  0.96889  Biso   1.000  C  0.180980
  C301     1.0000 0.43451  0.93876  0.47176  Biso   1.000  C  0.181863
  C302     1.0000 0.10970  0.76923  0.96705  Biso   1.000  C  0.183781
  C303     1.0000 0.43335  0.44302  0.64241  Biso   1.000  C  0.180227
  C304     1.0000 0.43444  0.76885  0.14573  Biso   1.000  C  0.182849
  C305     1.0000 0.10882  0.44340  0.47117  Biso   1.000  C  0.183948
  C306     1.0000 0.00417  0.38519  0.80023  Biso   1.000  C  0.197979
  C307     1.0000 0.26754  0.83310  0.08913  Biso   1.000  C  0.199142
  C308     1.0000 0.26797  0.38613  0.53649  Biso   1.000  C  0.200840
  C309     1.0000 0.26801  0.83448  0.80040  Biso   1.000  C  0.192395
  C310     1.0000 0.26672  0.38662  0.80067  Biso   1.000  C  0.193136
  C311     1.0000 0.49282  0.87355  0.31180  Biso   1.000  C  0.192580
  C312     1.0000 0.49164  0.61078  0.57646  Biso   1.000  C  0.198234
  C313     1.0000 0.49193  0.60895  0.31282  Biso   1.000  C  0.198233
  C314     1.0000 0.04292  0.61120  0.31250  Biso   1.000  C  0.193052
  C315     1.0000 0.45924  0.82520  0.99181  Biso   1.000  C  0.175432
  C316     1.0000 0.18102  0.82560  0.99287  Biso   1.000  C  0.176468
  C317     1.0000 0.45931  0.82595  0.71380  Biso   1.000  C  0.174523
  C318     1.0000 0.05208  0.41847  0.12009  Biso   1.000  C  0.175519
  C319     1.0000 0.05268  0.69616  0.12056  Biso   1.000  C  0.174788
  C320     1.0000 0.05131  0.41958  0.39808  Biso   1.000  C  0.176847
  C321     1.0000 0.97044  0.48790  0.64150  Biso   1.000  C  0.048904
  C322     1.0000 0.99240  0.51197  0.64716  Biso   1.000  C  0.053318
  C323     1.0000 0.93091  0.43569  0.79010  Biso   1.000  C  0.052665
  C324     1.0000 0.88608  0.46485  0.77822  Biso   1.000  C  0.055249
  C325     1.0000 0.65673  0.80158  0.89203  Biso   1.000  C  0.289187
  C326     1.0000 0.60498  0.76099  0.83424  Biso   1.000  C  0.050818
  C327     1.0000 0.63450  0.71631  0.86150  Biso   1.000  C  0.043010
  C328     1.0000 0.72320  0.81941  0.82382  Biso   1.000  C  0.226617
  C329     1.0000 0.97187  0.93717  0.89246  Biso   1.000  C  0.293811
  C330     1.0000 0.98964  0.92146  0.82403  Biso   1.000  C  0.227898
  C331     1.0000 0.65697  0.93786  0.50389  Biso   1.000  C  0.052731
  C332     1.0000 0.68053  0.94323  0.52659  Biso   1.000  C  0.057397
  C333     1.0000 0.93377  0.39204  0.24298  Biso   1.000  C  0.049687
  C334     1.0000 0.92783  0.43081  0.25558  Biso   1.000  C  0.044617
  C335     1.0000 0.56151  0.76383  0.42114  Biso   1.000  C  0.048685
  C336     1.0000 0.57099  0.94209  0.33156  Biso   1.000  C  0.054494
  C337     1.0000 0.60013  0.75791  0.37565  Biso   1.000  C  0.042526
  C338     1.0000 0.55446  0.97825  0.29011  Biso   1.000  C  0.053160
  C339     1.0000 0.88707  0.54226  0.09548  Biso   1.000  C  0.048991
  C340     1.0000 0.93770  0.52096  0.92192  Biso   1.000  C  0.047302
  C341     1.0000 0.93271  0.57253  0.89784  Biso   1.000  C  0.050492
  C342     1.0000 0.78875  0.57761  0.97406  Biso   1.000  C  0.046246
  C343     1.0000 0.80097  0.54976  0.94503  Biso   1.000  C  0.040323
  C344     1.0000 0.79679  0.44470  0.10402  Biso   1.000  C  0.052710
  C345     1.0000 0.84189  0.55449  0.13466  Biso   1.000  C  0.042768
  C346     1.0000 0.75509  0.46655  0.08790  Biso   1.000  C  0.051216
  C347     1.0000 0.71175  0.71869  0.46617  Biso   1.000  C  0.049469
  C348     1.0000 0.69025  0.76859  0.61081  Biso   1.000  C  0.046600
  C349     1.0000 0.74195  0.76299  0.58868  Biso   1.000  C  0.051339
  C350     1.0000 0.74693  0.61947  0.65024  Biso   1.000  C  0.046919
  C351     1.0000 0.71951  0.63169  0.69490  Biso   1.000  C  0.039773
  C352     1.0000 0.61431  0.62812  0.64476  Biso   1.000  C  0.053017
  C353     1.0000 0.72407  0.67333  0.46027  Biso   1.000  C  0.044310
  C354     1.0000 0.63638  0.58604  0.68043  Biso   1.000  C  0.052924
  C355     1.0000 0.88889  0.76372  0.24415  Biso   1.000  C  0.050390
  C356     1.0000 0.94100  0.90612  0.22248  Biso   1.000  C  0.293989
  C357     1.0000 0.78947  0.94779  0.27885  Biso   1.000  C  0.291790
  C358     1.0000 0.79926  0.94268  0.14665  Biso   1.000  C  0.053888
  C359     1.0000 0.84353  0.75781  0.25649  Biso   1.000  C  0.045238
  C360     1.0000 0.95713  0.88791  0.29078  Biso   1.000  C  0.227629
  C361     1.0000 0.75785  0.97886  0.16842  Biso   1.000  C  0.055792
  C362     1.0000 0.71147  0.39207  0.42119  Biso   1.000  C  0.050103
  C363     1.0000 0.61404  0.39987  0.33159  Biso   1.000  C  0.052978
  C364     1.0000 0.72398  0.43078  0.37571  Biso   1.000  C  0.044127
  C365     1.0000 0.63566  0.38278  0.29059  Biso   1.000  C  0.053222
  C366     1.0000 0.93377  0.71924  0.09423  Biso   1.000  C  0.050422
  C367     1.0000 0.92784  0.67380  0.13297  Biso   1.000  C  0.044050
  C368     1.0000 0.56056  0.54164  0.46651  Biso   1.000  C  0.050089
  C369     1.0000 0.56856  0.44490  0.64508  Biso   1.000  C  0.054230
  C370     1.0000 0.59940  0.55399  0.46078  Biso   1.000  C  0.044110
  C371     1.0000 0.55198  0.46665  0.68129  Biso   1.000  C  0.055313
  C372     1.0000 0.56206  0.71853  0.24408  Biso   1.000  C  0.049791
  C373     1.0000 0.56999  0.62871  0.14704  Biso   1.000  C  0.052476
  C374     1.0000 0.60087  0.67307  0.25660  Biso   1.000  C  0.044441
  C375     1.0000 0.55353  0.58719  0.16907  Biso   1.000  C  0.051470
  C376     1.0000 0.93331  0.54133  0.42237  Biso   1.000  C  0.049001
  C377     1.0000 0.92729  0.55385  0.37702  Biso   1.000  C  0.042331
  C378     1.0000 0.71134  0.76412  0.09308  Biso   1.000  C  0.050529
  C379     1.0000 0.68943  0.90717  0.92000  Biso   1.000  C  0.292657
  C380     1.0000 0.74704  0.94701  0.97450  Biso   1.000  C  0.290964
  C381     1.0000 0.61489  0.94270  0.10127  Biso   1.000  C  0.055127
  C382     1.0000 0.72354  0.75843  0.13200  Biso   1.000  C  0.044178
  C383     1.0000 0.75705  0.88898  0.85336  Biso   1.000  C  0.229315
  C384     1.0000 0.63630  0.97922  0.08462  Biso   1.000  C  0.055211
  C385     1.0000 0.88917  0.39165  0.46625  Biso   1.000  C  0.050140
  C386     1.0000 0.79905  0.40012  0.64546  Biso   1.000  C  0.054915
  C387     1.0000 0.84377  0.43047  0.46031  Biso   1.000  C  0.045754
  C388     1.0000 0.75776  0.38330  0.68141  Biso   1.000  C  0.050929
  C389     1.0000 0.93286  0.39036  0.42178  Biso   1.000  C  0.294808
  C390     1.0000 0.88714  0.45884  0.37387  Biso   1.000  C  0.227712
  C391     1.0000 0.56122  0.76230  0.24557  Biso   1.000  C  0.293346
  C392     1.0000 0.62988  0.71659  0.27040  Biso   1.000  C  0.227862
  C393     1.0000 0.57157  0.94116  0.14592  Biso   1.000  C  0.294767
  C394     1.0000 0.88912  0.54246  0.46641  Biso   1.000  C  0.295054
  C395     1.0000 0.84101  0.56772  0.42082  Biso   1.000  C  0.227107
  C396     1.0000 0.94100  0.51808  0.60880  Biso   1.000  C  0.292230
  C397     1.0000 0.79085  0.57540  0.65013  Biso   1.000  C  0.300015
  C398     1.0000 0.79899  0.44478  0.64427  Biso   1.000  C  0.295558
  C399     1.0000 0.72426  0.45222  0.70774  Biso   1.000  C  0.225577
  C400     1.0000 0.95655  0.58668  0.59081  Biso   1.000  C  0.227574
  C401     1.0000 0.77862  0.56029  0.73062  Biso   1.000  C  0.229761
  C402     1.0000 0.71303  0.71962  0.09215  Biso   1.000  C  0.294019
  C403     1.0000 0.73769  0.67204  0.16094  Biso   1.000  C  0.225298
  C404     1.0000 0.68795  0.77026  0.92298  Biso   1.000  C  0.053552
  C405     1.0000 0.73956  0.76503  0.89938  Biso   1.000  C  0.054029
  C406     1.0000 0.74510  0.62185  0.97351  Biso   1.000  C  0.294852
  C407     1.0000 0.61444  0.62900  0.10344  Biso   1.000  C  0.295970
  C408     1.0000 0.62172  0.55482  0.10622  Biso   1.000  C  0.225266
  C409     1.0000 0.73012  0.60900  0.92068  Biso   1.000  C  0.231717
  C410     1.0000 0.88931  0.76297  0.09297  Biso   1.000  C  0.297155
  C411     1.0000 0.84137  0.71713  0.16122  Biso   1.000  C  0.226876
  C412     1.0000 0.93907  0.90783  0.92278  Biso   1.000  C  0.048214
  C413     1.0000 0.93327  0.88582  0.89887  Biso   1.000  C  0.054266
  C414     1.0000 0.79113  0.94705  0.97411  Biso   1.000  C  0.053524
  C415     1.0000 0.80264  0.99211  0.94553  Biso   1.000  C  0.054740
  C416     1.0000 0.79962  0.94143  0.10310  Biso   1.000  C  0.294439
  C417     1.0000 0.71295  0.39129  0.46494  Biso   1.000  C  0.295155
  C418     1.0000 0.73780  0.45994  0.41908  Biso   1.000  C  0.227597
  C419     1.0000 0.61319  0.40155  0.64364  Biso   1.000  C  0.293157
  C420     1.0000 0.62077  0.40424  0.70761  Biso   1.000  C  0.230940
  C421     1.0000 0.93274  0.71935  0.24584  Biso   1.000  C  0.294596
  C422     1.0000 0.88700  0.67137  0.27113  Biso   1.000  C  0.228016
  C423     1.0000 0.55969  0.54322  0.42203  Biso   1.000  C  0.295251
  C424     1.0000 0.62838  0.56803  0.37440  Biso   1.000  C  0.226741
  C425     1.0000 0.57080  0.44465  0.33147  Biso   1.000  C  0.295937
  C426     1.0000 0.57390  0.45183  0.25719  Biso   1.000  C  0.225483
  C427     1.0000 0.56098  0.71950  0.46508  Biso   1.000  C  0.293606
  C428     1.0000 0.62945  0.67165  0.41931  Biso   1.000  C  0.226211
  C429     1.0000 0.56957  0.62980  0.64451  Biso   1.000  C  0.296681
  C430     1.0000 0.57153  0.55576  0.70877  Biso   1.000  C  0.226757
  C431     1.0000 0.93108  0.54363  0.09431  Biso   1.000  C  0.294429
  C432     1.0000 0.88598  0.56832  0.16303  Biso   1.000  C  0.230814
  C433     1.0000 0.71309  0.76260  0.42190  Biso   1.000  C  0.295111
  C434     1.0000 0.73786  0.71704  0.37397  Biso   1.000  C  0.227818
  C435     1.0000 0.68798  0.90655  0.47303  Biso   1.000  C  0.287492
  C436     1.0000 0.74578  0.94771  0.32300  Biso   1.000  C  0.058859
  C437     1.0000 0.71790  0.99253  0.33486  Biso   1.000  C  0.059694
  C438     1.0000 0.61517  0.94116  0.33218  Biso   1.000  C  0.294791
  C439     1.0000 0.75614  0.88883  0.48914  Biso   1.000  C  0.226307
  C440     1.0000 0.88929  0.39083  0.24496  Biso   1.000  C  0.294721
  C441     1.0000 0.84134  0.45909  0.27048  Biso   1.000  C  0.225498
  C442     1.0000 0.79822  0.40018  0.14750  Biso   1.000  C  0.294692
  C443     1.0000 0.72439  0.40205  0.15493  Biso   1.000  C  0.229279
  C444     1.0000 0.97039  0.48897  0.89175  Biso   1.000  C  0.292831
  C445     1.0000 0.93078  0.43465  0.83460  Biso   1.000  C  0.292782
  C446     1.0000 0.98911  0.55489  0.82322  Biso   1.000  C  0.229275
  C447     1.0000 0.84992  0.48702  0.85049  Biso   1.000  C  0.227117
  C448     1.0000 0.65825  0.80193  0.63956  Biso   1.000  C  0.295346
  C449     1.0000 0.60548  0.76163  0.78969  Biso   1.000  C  0.300668
  C450     1.0000 0.72435  0.82060  0.62305  Biso   1.000  C  0.229814
  C451     1.0000 0.65903  0.68126  0.80148  Biso   1.000  C  0.227423
  C452     1.0000 0.97044  0.93882  0.19208  Biso   1.000  C  0.047578
  C453     1.0000 0.99254  0.94453  0.21598  Biso   1.000  C  0.050227
  C454     1.0000 0.65860  0.94030  0.88871  Biso   1.000  C  0.050062
  C455     1.0000 0.68190  0.94598  0.83700  Biso   1.000  C  0.053567
  C456     1.0000 0.54885  0.92529  0.89118  Biso   1.000  C  0.185051
  C457     1.0000 0.54902  0.92439  0.62750  Biso   1.000  C  0.185170
  C458     1.0000 0.69055  0.78298  0.48676  Biso   1.000  C  0.184597
  C459     1.0000 0.95299  0.78447  0.22284  Biso   1.000  C  0.185684
  C460     1.0000 0.95412  0.51971  0.48662  Biso   1.000  C  0.184600
  C461     1.0000 0.94004  0.44098  0.64169  Biso   1.000  C  0.185864
  C462     1.0000 0.61098  0.76953  0.96926  Biso   1.000  C  0.184524
  C463     1.0000 0.93915  0.93824  0.96952  Biso   1.000  C  0.186436
  C464     1.0000 0.61083  0.93860  0.47230  Biso   1.000  C  0.185016
  C465     1.0000 0.93709  0.44390  0.96876  Biso   1.000  C  0.182590
  C466     1.0000 0.61303  0.76843  0.64146  Biso   1.000  C  0.183808
  C467     1.0000 0.93971  0.93892  0.14546  Biso   1.000  C  0.183185
  C468     1.0000 0.61287  0.94023  0.96610  Biso   1.000  C  0.180569
  C469     1.0000 0.55470  0.83432  0.80123  Biso   1.000  C  0.200244
  C470     1.0000 0.78035  0.60906  0.57693  Biso   1.000  C  0.199758
  C471     1.0000 0.77928  0.87433  0.31307  Biso   1.000  C  0.198417
  C472     1.0000 0.58830  0.88194  0.39906  Biso   1.000  C  0.178406
  C473     1.0000 0.86456  0.42035  0.12074  Biso   1.000  C  0.176229
  C474     1.0000 0.58946  0.69630  0.58515  Biso   1.000  C  0.176539
  C475     1.0000 0.86670  0.88245  0.12227  Biso   1.000  C  0.176339
  C476     1.0000 0.58943  0.41742  0.39885  Biso   1.000  C  0.175027
  C477     1.0000 0.58580  0.42060  0.58477  Biso   1.000  C  0.175577
  C478     1.0000 0.58714  0.69628  0.12230  Biso   1.000  C  0.176710
  C479     1.0000 0.59088  0.88215  0.11856  Biso   1.000  C  0.175891
  C480     1.0000 0.86689  0.41714  0.58607  Biso   1.000  C  0.173876
  H1       1.0000 0.44187  0.15452  0.62266  Biso   1.000  H  0.097565
  H2       1.0000 0.80807  0.43492  0.49212  Biso   1.000  H  0.097119
  H3       1.0000 0.95896  0.55362  0.34118  Biso   1.000  H  0.096155
  H4       1.0000 0.72374  0.63753  0.49199  Biso   1.000  H  0.097343
  H5       1.0000 0.80783  0.78963  0.25584  Biso   1.000  H  0.097432
  H6       1.0000 0.95965  0.63809  0.13742  Biso   1.000  H  0.096647
  H7       1.0000 0.35406  0.23583  0.02193  Biso   1.000  H  0.074656
  H8       1.0000 0.84629  0.23558  0.02077  Biso   1.000  H  0.074124
  H9       1.0000 0.14901  0.50222  0.05298  Biso   1.000  H  0.093722
  H10      1.0000 0.40581  0.67650  0.02008  Biso   1.000  H  0.074297
  H11      1.0000 0.00522  0.61486  0.05231  Biso   1.000  H  0.086583
  H12      1.0000 0.75003  0.50115  0.05519  Biso   1.000  H  0.094177
  H13      1.0000 0.66972  0.98353  0.05077  Biso   1.000  H  0.100180
  H14      1.0000 0.97347  0.51022  0.99773  Biso   1.000  H  0.084260
  H15      1.0000 0.97710  0.80599  0.99749  Biso   1.000  H  0.082789
  H16      1.0000 0.67894  0.80691  0.99585  Biso   1.000  H  0.082755
  H17      1.0000 0.78383  0.61792  0.05069  Biso   1.000  H  0.089000
  H18      1.0000 0.78797  0.83472  0.05021  Biso   1.000  H  0.087020
  H19      1.0000 0.16310  0.22034  0.77701  Biso   1.000  H  0.073968
  H20      1.0000 0.14985  0.35211  0.28495  Biso   1.000  H  0.095194
  H21      1.0000 0.24431  0.12791  0.69514  Biso   1.000  H  0.074098
  H22      1.0000 0.35416  0.23554  0.38004  Biso   1.000  H  0.073606
  H23      1.0000 0.29683  0.07351  0.92496  Biso   1.000  H  0.073766
  H24      1.0000 0.40438  0.32247  0.37829  Biso   1.000  H  0.076276
  H25      1.0000 0.16269  0.07454  0.83035  Biso   1.000  H  0.074385
  H26      1.0000 0.39053  0.07475  0.69568  Biso   1.000  H  0.073817
  H27      1.0000 0.48800  0.18478  0.38030  Biso   1.000  H  0.074446
  H28      1.0000 0.16097  0.12777  0.92425  Biso   1.000  H  0.072689
  H29      1.0000 0.24380  0.22317  0.82968  Biso   1.000  H  0.073892
  H30      1.0000 0.08930  0.15400  0.77272  Biso   1.000  H  0.096278
  H31      1.0000 0.44215  0.07064  0.85657  Biso   1.000  H  0.095799
  H32      1.0000 0.23976  0.27247  0.62171  Biso   1.000  H  0.097042
  H33      1.0000 0.37663  0.12472  0.42943  Biso   1.000  H  0.095011
  H34      1.0000 0.23837  0.15475  0.97501  Biso   1.000  H  0.096407
  H35      1.0000 0.08832  0.27265  0.85868  Biso   1.000  H  0.097298
  H36      1.0000 0.32434  0.06955  0.62239  Biso   1.000  H  0.097932
  H37      1.0000 0.08948  0.06947  0.97495  Biso   1.000  H  0.097831
  H38      1.0000 0.03287  0.21576  0.44088  Biso   1.000  H  0.099965
  H39      1.0000 0.16599  0.23836  0.36808  Biso   1.000  H  0.093350
  H40      1.0000 0.37683  0.12238  0.06272  Biso   1.000  H  0.099771
  H41      1.0000 0.36718  0.06119  0.32157  Biso   1.000  H  0.065199
  H42      1.0000 0.03728  0.13790  0.32992  Biso   1.000  H  0.079074
  H43      1.0000 0.23078  0.19684  0.23964  Biso   1.000  H  0.063559
  H44      1.0000 0.13899  0.10833  0.19491  Biso   1.000  H  0.099885
  H45      1.0000 0.21298  0.19424  0.16855  Biso   1.000  H  0.095443
  H46      1.0000 0.36227  0.04240  0.41477  Biso   1.000  H  0.092205
  H47      1.0000 0.00970  0.08102  0.27183  Biso   1.000  H  0.078624
  H48      1.0000 0.40611  0.31792  0.88827  Biso   1.000  H  0.074036
  H49      1.0000 0.48686  0.18456  0.94033  Biso   1.000  H  0.075188
  H50      1.0000 0.09496  0.08140  0.54367  Biso   1.000  H  0.078572
  H51      1.0000 0.01558  0.10785  0.67186  Biso   1.000  H  0.101198
  H52      1.0000 0.25691  0.16935  0.34928  Biso   1.000  H  0.062267
  H53      1.0000 0.33990  0.08863  0.21250  Biso   1.000  H  0.064256
  H54      1.0000 0.07119  0.19933  0.60480  Biso   1.000  H  0.083613
  H55      1.0000 0.07061  0.20043  0.11546  Biso   1.000  H  0.083555
  H56      1.0000 0.11703  0.29976  0.46171  Biso   1.000  H  0.084757
  H57      1.0000 0.11959  0.29682  0.11206  Biso   1.000  H  0.086082
  H58      1.0000 0.26181  0.09433  0.57436  Biso   1.000  H  0.085938
  H59      1.0000 0.26188  0.09070  0.06155  Biso   1.000  H  0.086559
  H60      1.0000 0.04257  0.09165  0.79578  Biso   1.000  H  0.087176
  H61      1.0000 0.04165  0.09311  0.06155  Biso   1.000  H  0.086945
  H62      1.0000 0.00535  0.34974  0.31845  Biso   1.000  H  0.087180
  H63      1.0000 0.02794  0.28881  0.68022  Biso   1.000  H  0.084787
  H64      1.0000 0.14471  0.29294  0.55962  Biso   1.000  H  0.081984
  H65      1.0000 0.46024  0.29041  0.56098  Biso   1.000  H  0.083091
  H66      1.0000 0.46175  0.29057  0.67928  Biso   1.000  H  0.083033
  H67      1.0000 0.02535  0.29314  0.99409  Biso   1.000  H  0.082683
  H68      1.0000 0.14664  0.29142  0.99177  Biso   1.000  H  0.084359
  H69      1.0000 0.39121  0.12824  0.77764  Biso   1.000  H  0.074244
  H70      1.0000 0.84505  0.32088  0.88663  Biso   1.000  H  0.076661
  H71      1.0000 0.84634  0.18392  0.93823  Biso   1.000  H  0.075076
  H72      1.0000 0.89711  0.12597  0.05886  Biso   1.000  H  0.095379
  H73      1.0000 0.52338  0.20717  0.43096  Biso   1.000  H  0.094631
  H74      1.0000 0.89647  0.20672  0.82926  Biso   1.000  H  0.096019
  H75      1.0000 0.78874  0.19798  0.76387  Biso   1.000  H  0.064407
  H76      1.0000 0.55888  0.03085  0.17435  Biso   1.000  H  0.075370
  H77      1.0000 0.95247  0.13741  0.57034  Biso   1.000  H  0.080327
  H78      1.0000 0.70750  0.06178  0.90046  Biso   1.000  H  0.064229
  H79      1.0000 0.69401  0.03100  0.09079  Biso   1.000  H  0.074644
  H80      1.0000 0.79669  0.13703  0.48638  Biso   1.000  H  0.079919
  H81      1.0000 0.76859  0.21761  0.56424  Biso   1.000  H  0.100192
  H82      1.0000 0.68353  0.24108  0.69835  Biso   1.000  H  0.094279
  H83      1.0000 0.70665  0.19819  0.32157  Biso   1.000  H  0.063853
  H84      1.0000 0.78830  0.06241  0.24003  Biso   1.000  H  0.061931
  H85      1.0000 0.52934  0.20844  0.82592  Biso   1.000  H  0.099777
  H86      1.0000 0.64286  0.03153  0.22708  Biso   1.000  H  0.074649
  H87      1.0000 0.90907  0.21637  0.30115  Biso   1.000  H  0.099269
  H88      1.0000 0.83509  0.23982  0.21653  Biso   1.000  H  0.095809
  H89      1.0000 0.68156  0.08707  0.35013  Biso   1.000  H  0.064640
  H90      1.0000 0.81557  0.16999  0.21406  Biso   1.000  H  0.063752
  H91      1.0000 0.81692  0.08727  0.87254  Biso   1.000  H  0.063492
  H92      1.0000 0.66896  0.34868  0.28719  Biso   1.000  H  0.098221
  H93      1.0000 0.88138  0.04186  0.17186  Biso   1.000  H  0.091229
  H94      1.0000 0.73960  0.08236  0.62660  Biso   1.000  H  0.079717
  H95      1.0000 0.66115  0.10864  0.54836  Biso   1.000  H  0.098398
  H96      1.0000 0.63658  0.19371  0.41461  Biso   1.000  H  0.092662
  H97      1.0000 0.68082  0.17089  0.79104  Biso   1.000  H  0.063538
  H98      1.0000 0.63700  0.04384  0.89659  Biso   1.000  H  0.094100
  H99      1.0000 0.88218  0.19251  0.74498  Biso   1.000  H  0.091824
  H100     1.0000 0.75420  0.34938  0.68544  Biso   1.000  H  0.098666
  H101     1.0000 0.58328  0.19930  0.60372  Biso   1.000  H  0.084434
  H102     1.0000 0.97699  0.29524  0.20979  Biso   1.000  H  0.083273
  H103     1.0000 0.67871  0.29506  0.50792  Biso   1.000  H  0.083257
  H104     1.0000 0.97574  0.29427  0.50942  Biso   1.000  H  0.083801
  H105     1.0000 0.57977  0.30029  0.64914  Biso   1.000  H  0.084292
  H106     1.0000 0.92863  0.29927  0.11265  Biso   1.000  H  0.084067
  H107     1.0000 0.57971  0.29739  0.46140  Biso   1.000  H  0.085792
  H108     1.0000 0.92960  0.29658  0.65201  Biso   1.000  H  0.085953
  H109     1.0000 0.52825  0.09405  0.79426  Biso   1.000  H  0.087408
  H110     1.0000 0.52759  0.09184  0.57559  Biso   1.000  H  0.087573
  H111     1.0000 0.78776  0.34802  0.31748  Biso   1.000  H  0.086564
  H112     1.0000 0.78439  0.35048  0.53779  Biso   1.000  H  0.086655
  H113     1.0000 0.01549  0.49194  0.67176  Biso   1.000  H  0.099441
  H114     1.0000 0.25782  0.50983  0.34866  Biso   1.000  H  0.063033
  H115     1.0000 0.39089  0.99290  0.83053  Biso   1.000  H  0.074206
  H116     1.0000 0.09336  0.57048  0.54438  Biso   1.000  H  0.079285
  H117     1.0000 0.33933  0.64609  0.21541  Biso   1.000  H  0.063375
  H118     1.0000 0.24454  0.99224  0.92307  Biso   1.000  H  0.075273
  H119     1.0000 0.21259  0.71077  0.17122  Biso   1.000  H  0.093560
  H120     1.0000 0.36281  0.46836  0.41357  Biso   1.000  H  0.095834
  H121     1.0000 0.15168  0.58394  0.20248  Biso   1.000  H  0.098602
  H122     1.0000 0.29689  0.99223  0.77765  Biso   1.000  H  0.074198
  H123     1.0000 0.28025  0.84749  0.66909  Biso   1.000  H  0.097475
  H124     1.0000 0.00994  0.57001  0.78306  Biso   1.000  H  0.080847
  H125     1.0000 0.13624  0.49237  0.81276  Biso   1.000  H  0.098346
  H126     1.0000 0.24889  0.92595  0.54266  Biso   1.000  H  0.079799
  H127     1.0000 0.20075  0.39024  0.17348  Biso   1.000  H  0.074283
  H128     1.0000 0.30900  0.78151  0.57038  Biso   1.000  H  0.079505
  H129     1.0000 0.38485  0.86066  0.44347  Biso   1.000  H  0.098886
  H130     1.0000 0.32470  0.91819  0.97535  Biso   1.000  H  0.097026
  H131     1.0000 0.03698  0.62844  0.84099  Biso   1.000  H  0.079651
  H132     1.0000 0.23143  0.61958  0.23878  Biso   1.000  H  0.064033
  H133     1.0000 0.44147  0.91936  0.77241  Biso   1.000  H  0.097571
  H134     1.0000 0.20138  0.52246  0.09202  Biso   1.000  H  0.074542
  H135     1.0000 0.36552  0.53739  0.32385  Biso   1.000  H  0.064022
  H136     1.0000 0.40942  0.66416  0.21756  Biso   1.000  H  0.093282
  H137     1.0000 0.03297  0.59982  0.44074  Biso   1.000  H  0.096806
  H138     1.0000 0.16578  0.51500  0.36697  Biso   1.000  H  0.095381
  H139     1.0000 0.20203  0.47202  0.22612  Biso   1.000  H  0.076068
  H140     1.0000 0.24004  0.91948  0.85661  Biso   1.000  H  0.097028
  H141     1.0000 0.29272  0.35869  0.42835  Biso   1.000  H  0.098597
  H142     1.0000 0.30636  0.78198  0.33112  Biso   1.000  H  0.080810
  H143     1.0000 0.38819  0.86099  0.30161  Biso   1.000  H  0.097522
  H144     1.0000 0.41189  0.99604  0.21548  Biso   1.000  H  0.095196
  H145     1.0000 0.23057  0.62032  0.89821  Biso   1.000  H  0.062699
  H146     1.0000 0.29437  0.72664  0.05993  Biso   1.000  H  0.093859
  H147     1.0000 0.03649  0.78391  0.84047  Biso   1.000  H  0.079105
  H148     1.0000 0.02910  0.74129  0.30050  Biso   1.000  H  0.098718
  H149     1.0000 0.30511  0.62725  0.57004  Biso   1.000  H  0.079275
  H150     1.0000 0.38755  0.59804  0.44299  Biso   1.000  H  0.099270
  H151     1.0000 0.36668  0.53857  0.76423  Biso   1.000  H  0.062815
  H152     1.0000 0.41115  0.66524  0.69905  Biso   1.000  H  0.094232
  H153     1.0000 0.16545  0.51450  0.94228  Biso   1.000  H  0.092362
  H154     1.0000 0.37845  0.72598  0.82556  Biso   1.000  H  0.098741
  H155     1.0000 0.29356  0.35857  0.91092  Biso   1.000  H  0.099893
  H156     1.0000 0.25830  0.51111  0.87286  Biso   1.000  H  0.065104
  H157     1.0000 0.48842  0.67722  0.88725  Biso   1.000  H  0.073648
  H158     1.0000 0.52104  0.98207  0.28581  Biso   1.000  H  0.099179
  H159     1.0000 0.34057  0.64661  0.79099  Biso   1.000  H  0.064371
  H160     1.0000 0.13893  0.84598  0.81077  Biso   1.000  H  0.098013
  H161     1.0000 0.21286  0.71193  0.89621  Biso   1.000  H  0.095661
  H162     1.0000 0.35415  0.67695  0.93800  Biso   1.000  H  0.076275
  H163     1.0000 0.25069  0.57103  0.54099  Biso   1.000  H  0.078074
  H164     1.0000 0.27695  0.49182  0.67299  Biso   1.000  H  0.097666
  H165     1.0000 0.36424  0.46631  0.74641  Biso   1.000  H  0.094959
  H166     1.0000 0.01021  0.92568  0.78384  Biso   1.000  H  0.078366
  H167     1.0000 0.01547  0.96930  0.19595  Biso   1.000  H  0.100377
  H168     1.0000 0.09589  0.83864  0.27309  Biso   1.000  H  0.080580
  H169     1.0000 0.51823  0.50023  0.68535  Biso   1.000  H  0.099413
  H170     1.0000 0.52038  0.58272  0.20330  Biso   1.000  H  0.094513
  H171     1.0000 0.27868  0.84769  0.19463  Biso   1.000  H  0.101162
  H172     1.0000 0.25236  0.92299  0.27376  Biso   1.000  H  0.079498
  H173     1.0000 0.07221  0.41290  0.60433  Biso   1.000  H  0.083422
  H174     1.0000 0.36841  0.90008  0.11688  Biso   1.000  H  0.082407
  H175     1.0000 0.07203  0.90180  0.11641  Biso   1.000  H  0.084508
  H176     1.0000 0.36921  0.41315  0.60523  Biso   1.000  H  0.084308
  H177     1.0000 0.07211  0.90165  0.90166  Biso   1.000  H  0.084132
  H178     1.0000 0.36801  0.90255  0.60403  Biso   1.000  H  0.083495
  H179     1.0000 0.06980  0.41435  0.90233  Biso   1.000  H  0.083166
  H180     1.0000 0.46487  0.80671  0.50836  Biso   1.000  H  0.083288
  H181     1.0000 0.46346  0.50905  0.50931  Biso   1.000  H  0.083166
  H182     1.0000 0.46489  0.80548  0.21140  Biso   1.000  H  0.084445
  H183     1.0000 0.46922  0.94708  0.11227  Biso   1.000  H  0.084270
  H184     1.0000 0.11687  0.76038  0.11216  Biso   1.000  H  0.084385
  H185     1.0000 0.46825  0.40949  0.46290  Biso   1.000  H  0.084738
  H186     1.0000 0.46849  0.76056  0.65038  Biso   1.000  H  0.084581
  H187     1.0000 0.11607  0.41022  0.00132  Biso   1.000  H  0.084144
  H188     1.0000 0.46683  0.94839  0.46220  Biso   1.000  H  0.085655
  H189     1.0000 0.11972  0.75948  0.99920  Biso   1.000  H  0.086014
  H190     1.0000 0.46583  0.41086  0.65199  Biso   1.000  H  0.086005
  H191     1.0000 0.46676  0.75909  0.11342  Biso   1.000  H  0.085045
  H192     1.0000 0.11854  0.41108  0.46144  Biso   1.000  H  0.085509
  H193     1.0000 0.04275  0.35825  0.79381  Biso   1.000  H  0.087062
  H194     1.0000 0.26122  0.87173  0.06225  Biso   1.000  H  0.087436
  H195     1.0000 0.26242  0.35961  0.57528  Biso   1.000  H  0.085983
  H196     1.0000 0.26263  0.87305  0.79422  Biso   1.000  H  0.087386
  H197     1.0000 0.26025  0.35978  0.79535  Biso   1.000  H  0.088076
  H198     1.0000 0.51974  0.83495  0.31739  Biso   1.000  H  0.087137
  H199     1.0000 0.51822  0.61714  0.53772  Biso   1.000  H  0.087611
  H200     1.0000 0.51894  0.61440  0.31892  Biso   1.000  H  0.086610
  H201     1.0000 0.00423  0.61756  0.31807  Biso   1.000  H  0.087719
  H202     1.0000 0.46090  0.85732  0.99328  Biso   1.000  H  0.083855
  H203     1.0000 0.46002  0.97578  0.99459  Biso   1.000  H  0.084175
  H204     1.0000 0.14589  0.85788  0.99463  Biso   1.000  H  0.084105
  H205     1.0000 0.02794  0.97645  0.99469  Biso   1.000  H  0.082875
  H206     1.0000 0.45874  0.97635  0.56091  Biso   1.000  H  0.083555
  H207     1.0000 0.46065  0.85813  0.67856  Biso   1.000  H  0.083147
  H208     1.0000 0.02018  0.41673  0.11827  Biso   1.000  H  0.082677
  H209     1.0000 0.02061  0.73146  0.11892  Biso   1.000  H  0.082576
  H210     1.0000 0.01892  0.41806  0.43312  Biso   1.000  H  0.084377
  H211     1.0000 0.88184  0.46799  0.74503  Biso   1.000  H  0.095942
  H212     1.0000 0.63722  0.71188  0.89613  Biso   1.000  H  0.093020
  H213     1.0000 0.65999  0.96704  0.55055  Biso   1.000  H  0.097022
  H214     1.0000 0.68196  0.64792  0.78915  Biso   1.000  H  0.061679
  H215     1.0000 0.73952  0.84186  0.62660  Biso   1.000  H  0.078983
  H216     1.0000 0.81625  0.50911  0.87383  Biso   1.000  H  0.063699
  H217     1.0000 0.89484  0.35860  0.91073  Biso   1.000  H  0.098248
  H218     1.0000 0.90854  0.60031  0.91775  Biso   1.000  H  0.098240
  H219     1.0000 0.83402  0.51526  0.94244  Biso   1.000  H  0.093495
  H220     1.0000 0.79646  0.86878  0.48453  Biso   1.000  H  0.078579
  H221     1.0000 0.76976  0.73791  0.56611  Biso   1.000  H  0.099348
  H222     1.0000 0.68520  0.66489  0.69916  Biso   1.000  H  0.093382
  H223     1.0000 0.95223  0.62689  0.57016  Biso   1.000  H  0.078635
  H224     1.0000 0.79065  0.53731  0.76414  Biso   1.000  H  0.062834
  H225     1.0000 0.70736  0.62091  0.89790  Biso   1.000  H  0.064890
  H226     1.0000 0.65760  0.71409  0.28227  Biso   1.000  H  0.075036
  H227     1.0000 0.52733  0.72717  0.90914  Biso   1.000  H  0.094334
  H228     1.0000 0.69244  0.47305  0.73310  Biso   1.000  H  0.073085
  H229     1.0000 0.79704  0.86815  0.83760  Biso   1.000  H  0.080325
  H230     1.0000 0.74946  0.63499  0.18878  Biso   1.000  H  0.074104
  H231     1.0000 0.76679  0.74136  0.91991  Biso   1.000  H  0.097871
  H232     1.0000 0.64222  0.52346  0.09124  Biso   1.000  H  0.074815
  H233     1.0000 0.90854  0.86285  0.91899  Biso   1.000  H  0.099072
  H234     1.0000 0.83543  0.99658  0.94298  Biso   1.000  H  0.095285
  H235     1.0000 0.74961  0.48779  0.41647  Biso   1.000  H  0.075141
  H236     1.0000 0.64175  0.38932  0.73300  Biso   1.000  H  0.074203
  H237     1.0000 0.65619  0.57983  0.33734  Biso   1.000  H  0.072743
  H238     1.0000 0.55937  0.47265  0.22550  Biso   1.000  H  0.074174
  H239     1.0000 0.95323  0.86706  0.33088  Biso   1.000  H  0.080497
  H240     1.0000 0.65718  0.63452  0.41688  Biso   1.000  H  0.074946
  H241     1.0000 0.55576  0.52498  0.73486  Biso   1.000  H  0.076283
  H242     1.0000 0.88376  0.58021  0.19060  Biso   1.000  H  0.074101
  H243     1.0000 0.68327  0.99677  0.36777  Biso   1.000  H  0.095327
  H244     1.0000 0.80417  0.48651  0.28284  Biso   1.000  H  0.074382
  H245     1.0000 0.69351  0.38643  0.17535  Biso   1.000  H  0.077496
  H246     1.0000 0.72307  0.79025  0.13635  Biso   1.000  H  0.097792
  H247     1.0000 0.60509  0.63726  0.25647  Biso   1.000  H  0.096954
  H248     1.0000 0.67122  0.58061  0.68345  Biso   1.000  H  0.094527
  H249     1.0000 0.60425  0.78960  0.33979  Biso   1.000  H  0.096802
  H250     1.0000 0.75386  0.98283  0.20210  Biso   1.000  H  0.099225
  H251     1.0000 0.80597  0.55413  0.13941  Biso   1.000  H  0.097171
  H252     1.0000 0.95969  0.43525  0.25495  Biso   1.000  H  0.096982
  H253     1.0000 0.66147  0.97085  0.80970  Biso   1.000  H  0.099830
  H254     1.0000 0.72375  0.43482  0.34002  Biso   1.000  H  0.097016
  H255     1.0000 0.73881  0.83949  0.78350  Biso   1.000  H  0.079605
  H256     1.0000 0.60369  0.55356  0.49262  Biso   1.000  H  0.096814
  H257     1.0000 0.58244  0.90284  0.90266  Biso   1.000  H  0.083690
  H258     1.0000 0.58270  0.90172  0.60515  Biso   1.000  H  0.083025
  H259     1.0000 0.67923  0.80548  0.50927  Biso   1.000  H  0.085448
  H260     1.0000 0.97536  0.80707  0.21152  Biso   1.000  H  0.082301
  H261     1.0000 0.97668  0.50823  0.50914  Biso   1.000  H  0.084155
  H262     1.0000 0.93075  0.40837  0.65140  Biso   1.000  H  0.084771
  H263     1.0000 0.57862  0.76010  0.00173  Biso   1.000  H  0.084090
  H264     1.0000 0.92957  0.94753  0.00208  Biso   1.000  H  0.084976
  H265     1.0000 0.57844  0.94806  0.46283  Biso   1.000  H  0.084908
  H266     1.0000 0.92725  0.41176  0.00133  Biso   1.000  H  0.085097
  H267     1.0000 0.58081  0.75864  0.65103  Biso   1.000  H  0.085868
  H268     1.0000 0.93026  0.94848  0.11301  Biso   1.000  H  0.085083
  H269     1.0000 0.58075  0.94980  0.99860  Biso   1.000  H  0.086345
  H270     1.0000 0.52767  0.87286  0.79597  Biso   1.000  H  0.086276
  H271     1.0000 0.78641  0.61444  0.53839  Biso   1.000  H  0.086204
  H272     1.0000 0.78494  0.83559  0.31961  Biso   1.000  H  0.087164
  H273     1.0000 0.58641  0.84967  0.43420  Biso   1.000  H  0.082839
  H274     1.0000 0.89956  0.41978  0.11872  Biso   1.000  H  0.084991
  H275     1.0000 0.58857  0.73162  0.55311  Biso   1.000  H  0.082787
  H276     1.0000 0.90180  0.85014  0.12152  Biso   1.000  H  0.083138
  H277     1.0000 0.58850  0.41552  0.43396  Biso   1.000  H  0.083011
  H278     1.0000 0.58377  0.41979  0.55248  Biso   1.000  H  0.083822
  H279     1.0000 0.58510  0.73149  0.12130  Biso   1.000  H  0.083404
  H280     1.0000 0.59010  0.84979  0.11659  Biso   1.000  H  0.083997
  H281     1.0000 0.90239  0.41495  0.55424  Biso   1.000  H  0.081970
  H282     1.0000 0.29756  0.22137  0.69500  Biso   1.000  H  0.074522
  H283     1.0000 0.32429  0.27203  0.77272  Biso   1.000  H  0.096783
  H284     1.0000 0.88460  0.48643  0.33673  Biso   1.000  H  0.074851
  H285     1.0000 0.80382  0.57984  0.41839  Biso   1.000  H  0.073457
  H286     1.0000 0.80418  0.71455  0.18861  Biso   1.000  H  0.073214
  H287     1.0000 0.88450  0.63416  0.28340  Biso   1.000  H  0.074461
  H288     1.0000 0.74974  0.71465  0.33680  Biso   1.000  H  0.074125
  N1       1.0000 0.43072  0.15637  0.00296  Biso   1.000  N  -0.299294
  N2       1.0000 0.42235  0.03416  0.02777  Biso   1.000  N  -0.340481
  N3       1.0000 0.28500  0.23658  0.03124  Biso   1.000  N  -0.360356
  N4       1.0000 0.20535  0.25270  0.02483  Biso   1.000  N  -0.378769
  N5       1.0000 0.90443  0.23667  0.03118  Biso   1.000  N  -0.355559
  N6       1.0000 0.97303  0.25375  0.02634  Biso   1.000  N  -0.377297
  N7       1.0000 0.86835  0.15763  0.00011  Biso   1.000  N  -0.297271
  N8       1.0000 0.97446  0.03613  0.02607  Biso   1.000  N  -0.351609
  N9       1.0000 0.32699  0.69831  0.00058  Biso   1.000  N  -0.295570
  N10      1.0000 0.20486  0.80368  0.02691  Biso   1.000  N  -0.345715
  N11      1.0000 0.06969  0.64089  0.00670  Biso   1.000  N  -0.367560
  N12      1.0000 0.06986  0.57007  0.00762  Biso   1.000  N  -0.338623
  N13      1.0000 0.40607  0.73511  0.03045  Biso   1.000  N  -0.357144
  N14      1.0000 0.42225  0.80427  0.02563  Biso   1.000  N  -0.380615
  N15      1.0000 0.90088  0.52797  0.05478  Biso   1.000  N  -0.351710
  N16      1.0000 0.80940  0.57200  0.00634  Biso   1.000  N  -0.349450
  N17      1.0000 0.97487  0.73341  0.05403  Biso   1.000  N  -0.348720
  N18      1.0000 0.69683  0.80503  0.05247  Biso   1.000  N  -0.348717
  N19      1.0000 0.74163  0.89980  0.00637  Biso   1.000  N  -0.375635
  N20      1.0000 0.69900  0.73361  0.05147  Biso   1.000  N  -0.390336
  N21      1.0000 0.73986  0.64286  0.00508  Biso   1.000  N  -0.373517
  N22      1.0000 0.90356  0.80363  0.05243  Biso   1.000  N  -0.388494
  N23      1.0000 0.81242  0.89957  0.00563  Biso   1.000  N  -0.341657
  N24      1.0000 0.97148  0.52965  0.05346  Biso   1.000  N  -0.373222
  N25      1.0000 0.11454  0.28359  0.73897  Biso   1.000  N  -0.383841
  N26      1.0000 0.11341  0.14072  0.53148  Biso   1.000  N  -0.367707
  N27      1.0000 0.23949  0.16231  0.42363  Biso   1.000  N  -0.364490
  N28      1.0000 0.20582  0.15155  0.64690  Biso   1.000  N  -0.381343
  N29      1.0000 0.28461  0.23661  0.43833  Biso   1.000  N  -0.354348
  N30      1.0000 0.14441  0.17937  0.60692  Biso   1.000  N  -0.377725
  N31      1.0000 0.12505  0.22104  0.50420  Biso   1.000  N  -0.386096
  N32      1.0000 0.23645  0.13824  0.50997  Biso   1.000  N  -0.366013
  N33      1.0000 0.20396  0.25364  0.50722  Biso   1.000  N  -0.378009
  N34      1.0000 0.33202  0.07067  0.16355  Biso   1.000  N  -0.376404
  N35      1.0000 0.32042  0.03507  0.98811  Biso   1.000  N  -0.383128
  N36      1.0000 0.30692  0.06665  0.10587  Biso   1.000  N  -0.371424
  N37      1.0000 0.32114  0.28451  0.64693  Biso   1.000  N  -0.382631
  N38      1.0000 0.40548  0.33148  0.43730  Biso   1.000  N  -0.356778
  N39      1.0000 0.42172  0.32451  0.50747  Biso   1.000  N  -0.375726
  N40      1.0000 0.11433  0.03615  0.85406  Biso   1.000  N  -0.382597
  N41      1.0000 0.46919  0.26211  0.85999  Biso   1.000  N  -0.298932
  N42      1.0000 0.45431  0.15196  0.73886  Biso   1.000  N  -0.384291
  N43      1.0000 0.49458  0.25344  0.73776  Biso   1.000  N  -0.340797
  N44      1.0000 0.45387  0.03659  0.64730  Biso   1.000  N  -0.385304
  N45      1.0000 0.49755  0.11556  0.43914  Biso   1.000  N  -0.356204
  N46      1.0000 0.49176  0.03521  0.50826  Biso   1.000  N  -0.373927
  N47      1.0000 0.11262  0.15187  0.98705  Biso   1.000  N  -0.385117
  N48      1.0000 0.07259  0.18015  0.06034  Biso   1.000  N  -0.380278
  N49      1.0000 0.32673  0.29860  0.96532  Biso   1.000  N  -0.299599
  N50      1.0000 0.20522  0.28631  0.85334  Biso   1.000  N  -0.385605
  N51      1.0000 0.20515  0.32419  0.95519  Biso   1.000  N  -0.338189
  N52      1.0000 0.04984  0.20356  0.27104  Biso   1.000  N  -0.369592
  N53      1.0000 0.15624  0.24640  0.24761  Biso   1.000  N  -0.362291
  N54      1.0000 0.07724  0.26837  0.19084  Biso   1.000  N  -0.382160
  N55      1.0000 0.06982  0.30488  0.27277  Biso   1.000  N  -0.366232
  N56      1.0000 0.06274  0.14622  0.49172  Biso   1.000  N  -0.308707
  N57      1.0000 0.20190  0.21596  0.30415  Biso   1.000  N  -0.285440
  N58      1.0000 0.07880  0.26940  0.45074  Biso   1.000  N  -0.356750
  N59      1.0000 0.07007  0.30432  0.34322  Biso   1.000  N  -0.350189
  N60      1.0000 0.38756  0.03199  0.26654  Biso   1.000  N  -0.286074
  N61      1.0000 0.16680  0.24449  0.84377  Biso   1.000  N  -0.294950
  N62      1.0000 0.20278  0.14087  0.94620  Biso   1.000  N  -0.297573
  N63      1.0000 0.08867  0.11901  0.26478  Biso   1.000  N  -0.306313
  N64      1.0000 0.27577  0.14332  0.19255  Biso   1.000  N  -0.288594
  N65      1.0000 0.14327  0.18210  0.05869  Biso   1.000  N  -0.355841
  N66      1.0000 0.12963  0.21760  0.14197  Biso   1.000  N  -0.351756
  N67      1.0000 0.23606  0.13645  0.10618  Biso   1.000  N  -0.347762
  N68      1.0000 0.31029  0.03397  0.70071  Biso   1.000  N  -0.293457
  N69      1.0000 0.43153  0.15745  0.40136  Biso   1.000  N  -0.296750
  N70      1.0000 0.31174  0.10545  0.37853  Biso   1.000  N  -0.291071
  N71      1.0000 0.30708  0.06826  0.51000  Biso   1.000  N  -0.345017
  N72      1.0000 0.42166  0.03551  0.50687  Biso   1.000  N  -0.351891
  N73      1.0000 0.31057  0.24327  0.73696  Biso   1.000  N  -0.295608
  N74      1.0000 0.40667  0.32818  0.81891  Biso   1.000  N  -0.364651
  N75      1.0000 0.42282  0.32287  0.73867  Biso   1.000  N  -0.381842
  N76      1.0000 0.16767  0.03390  0.94565  Biso   1.000  N  -0.292316
  N77      1.0000 0.41315  0.14101  0.70085  Biso   1.000  N  -0.292353
  N78      1.0000 0.46528  0.26378  0.40138  Biso   1.000  N  -0.294944
  N79      1.0000 0.49121  0.25274  0.50769  Biso   1.000  N  -0.349285
  N80      1.0000 0.41308  0.03486  0.84325  Biso   1.000  N  -0.297006
  N81      1.0000 0.49739  0.11521  0.94071  Biso   1.000  N  -0.365069
  N82      1.0000 0.49222  0.03516  0.95641  Biso   1.000  N  -0.383647
  N83      1.0000 0.16749  0.14048  0.73704  Biso   1.000  N  -0.295683
  N84      1.0000 0.07347  0.18112  0.67750  Biso   1.000  N  -0.352782
  N85      1.0000 0.20460  0.24293  0.70007  Biso   1.000  N  -0.294442
  N86      1.0000 0.32631  0.29861  0.40085  Biso   1.000  N  -0.302948
  N87      1.0000 0.20406  0.32485  0.50597  Biso   1.000  N  -0.351723
  N88      1.0000 0.90419  0.32986  0.81760  Biso   1.000  N  -0.358265
  N89      1.0000 0.97440  0.32277  0.73818  Biso   1.000  N  -0.372805
  N90      1.0000 0.89143  0.06987  0.86495  Biso   1.000  N  -0.359225
  N91      1.0000 0.90544  0.11495  0.93906  Biso   1.000  N  -0.353532
  N92      1.0000 0.97789  0.06670  0.84037  Biso   1.000  N  -0.363009
  N93      1.0000 0.97499  0.03499  0.95571  Biso   1.000  N  -0.374728
  N94      1.0000 0.67368  0.14119  0.64575  Biso   1.000  N  -0.372093
  N95      1.0000 0.63118  0.16351  0.77360  Biso   1.000  N  -0.374284
  N96      1.0000 0.52783  0.17980  0.67707  Biso   1.000  N  -0.378708
  N97      1.0000 0.60852  0.22129  0.65765  Biso   1.000  N  -0.388124
  N98      1.0000 0.57292  0.13882  0.76989  Biso   1.000  N  -0.368804
  N99      1.0000 0.63224  0.06952  0.42476  Biso   1.000  N  -0.360978
  N100     1.0000 0.57362  0.06617  0.51133  Biso   1.000  N  -0.373410
  N101     1.0000 0.99739  0.14000  0.20610  Biso   1.000  N  -0.370054
  N102     1.0000 0.89014  0.16239  0.16476  Biso   1.000  N  -0.361567
  N103     1.0000 0.97037  0.22035  0.14120  Biso   1.000  N  -0.384954
  N104     1.0000 0.97668  0.13777  0.10634  Biso   1.000  N  -0.361571
  N105     1.0000 0.97487  0.35179  0.22797  Biso   1.000  N  -0.347737
  N106     1.0000 0.58065  0.00991  0.25344  Biso   1.000  N  -0.301592
  N107     1.0000 0.72094  0.01016  0.14755  Biso   1.000  N  -0.301203
  N108     1.0000 0.73821  0.20298  0.46647  Biso   1.000  N  -0.369719
  N109     1.0000 0.71489  0.24741  0.33892  Biso   1.000  N  -0.378203
  N110     1.0000 0.69687  0.35152  0.43540  Biso   1.000  N  -0.346761
  N111     1.0000 0.65850  0.26832  0.45373  Biso   1.000  N  -0.382364
  N112     1.0000 0.74090  0.30471  0.34258  Biso   1.000  N  -0.373939
  N113     1.0000 0.61540  0.01043  0.11122  Biso   1.000  N  -0.299382
  N114     1.0000 0.93328  0.20307  0.58280  Biso   1.000  N  -0.369880
  N115     1.0000 0.80604  0.24768  0.68941  Biso   1.000  N  -0.376476
  N116     1.0000 0.90329  0.35130  0.50735  Biso   1.000  N  -0.345522
  N117     1.0000 0.92150  0.26796  0.60994  Biso   1.000  N  -0.381760
  N118     1.0000 0.80970  0.30587  0.60272  Biso   1.000  N  -0.374321
  N119     1.0000 0.97345  0.34961  0.43600  Biso   1.000  N  -0.384954
  N120     1.0000 0.77208  0.03246  0.91972  Biso   1.000  N  -0.284268
  N121     1.0000 0.75818  0.14763  0.59429  Biso   1.000  N  -0.308756
  N122     1.0000 0.73422  0.21750  0.73438  Biso   1.000  N  -0.286769
  N123     1.0000 0.69880  0.35066  0.50566  Biso   1.000  N  -0.385343
  N124     1.0000 0.65919  0.27042  0.61049  Biso   1.000  N  -0.355765
  N125     1.0000 0.74001  0.30517  0.60216  Biso   1.000  N  -0.342098
  N126     1.0000 0.73389  0.03289  0.30454  Biso   1.000  N  -0.290937
  N127     1.0000 0.95879  0.14631  0.29061  Biso   1.000  N  -0.308561
  N128     1.0000 0.77142  0.21706  0.26715  Biso   1.000  N  -0.286048
  N129     1.0000 0.90349  0.35029  0.23063  Biso   1.000  N  -0.388039
  N130     1.0000 0.91846  0.26931  0.19196  Biso   1.000  N  -0.353917
  N131     1.0000 0.81206  0.30306  0.27323  Biso   1.000  N  -0.340878
  N132     1.0000 0.86723  0.29854  0.96472  Biso   1.000  N  -0.301946
  N133     1.0000 0.97205  0.32487  0.95617  Biso   1.000  N  -0.351591
  N134     1.0000 0.84502  0.10558  0.19455  Biso   1.000  N  -0.285964
  N135     1.0000 0.97747  0.06677  0.10700  Biso   1.000  N  -0.355223
  N136     1.0000 0.73121  0.11876  0.51853  Biso   1.000  N  -0.305741
  N137     1.0000 0.66066  0.14264  0.37885  Biso   1.000  N  -0.285408
  N138     1.0000 0.52617  0.18127  0.60637  Biso   1.000  N  -0.351471
  N139     1.0000 0.60904  0.21804  0.50066  Biso   1.000  N  -0.352721
  N140     1.0000 0.57211  0.13754  0.51081  Biso   1.000  N  -0.351480
  N141     1.0000 0.66095  0.10664  0.84571  Biso   1.000  N  -0.288304
  N142     1.0000 0.57356  0.06786  0.83943  Biso   1.000  N  -0.345688
  N143     1.0000 0.86747  0.26285  0.86072  Biso   1.000  N  -0.296494
  N144     1.0000 0.98519  0.11851  0.62169  Biso   1.000  N  -0.305534
  N145     1.0000 0.84604  0.14208  0.80837  Biso   1.000  N  -0.288321
  N146     1.0000 0.96869  0.21719  0.66240  Biso   1.000  N  -0.350316
  N147     1.0000 0.97813  0.13684  0.76983  Biso   1.000  N  -0.355320
  N148     1.0000 0.97388  0.25176  0.73961  Biso   1.000  N  -0.346497
  N149     1.0000 0.07430  0.35744  0.67775  Biso   1.000  N  -0.385941
  N150     1.0000 0.46832  0.69822  0.96386  Biso   1.000  N  -0.297404
  N151     1.0000 0.45373  0.94466  0.85461  Biso   1.000  N  -0.381983
  N152     1.0000 0.49331  0.80384  0.95547  Biso   1.000  N  -0.344094
  N153     1.0000 0.31075  0.94248  0.20760  Biso   1.000  N  -0.369987
  N154     1.0000 0.34843  0.97346  0.06161  Biso   1.000  N  -0.380066
  N155     1.0000 0.39043  0.95486  0.14187  Biso   1.000  N  -0.387159
  N156     1.0000 0.11540  0.82658  0.20710  Biso   1.000  N  -0.375474
  N157     1.0000 0.20627  0.94390  0.98654  Biso   1.000  N  -0.383945
  N158     1.0000 0.27569  0.67485  0.19492  Biso   1.000  N  -0.285994
  N159     1.0000 0.14503  0.90398  0.06057  Biso   1.000  N  -0.377287
  N160     1.0000 0.12698  0.80026  0.14166  Biso   1.000  N  -0.391843
  N161     1.0000 0.23733  0.80646  0.10633  Biso   1.000  N  -0.337400
  N162     1.0000 0.30908  0.50489  0.52922  Biso   1.000  N  -0.372029
  N163     1.0000 0.31219  0.49105  0.37781  Biso   1.000  N  -0.289936
  N164     1.0000 0.34882  0.35811  0.60725  Biso   1.000  N  -0.375891
  N165     1.0000 0.38897  0.43920  0.50308  Biso   1.000  N  -0.391060
  N166     1.0000 0.30656  0.40472  0.51022  Biso   1.000  N  -0.330305
  N167     1.0000 0.07429  0.97480  0.88185  Biso   1.000  N  -0.378548
  N168     1.0000 0.33272  0.72128  0.77343  Biso   1.000  N  -0.376938
  N169     1.0000 0.43241  0.69824  0.85925  Biso   1.000  N  -0.302838
  N170     1.0000 0.32022  0.94408  0.73915  Biso   1.000  N  -0.384793
  N171     1.0000 0.29050  0.81575  0.62029  Biso   1.000  N  -0.306837
  N172     1.0000 0.34788  0.90425  0.67760  Biso   1.000  N  -0.385155
  N173     1.0000 0.38940  0.80052  0.65973  Biso   1.000  N  -0.349427
  N174     1.0000 0.30753  0.80814  0.76949  Biso   1.000  N  -0.378904
  N175     1.0000 0.42315  0.80427  0.73747  Biso   1.000  N  -0.341540
  N176     1.0000 0.24017  0.46225  0.86503  Biso   1.000  N  -0.376495
  N177     1.0000 0.08717  0.56272  0.82272  Biso   1.000  N  -0.306613
  N178     1.0000 0.14354  0.35960  0.88160  Biso   1.000  N  -0.387751
  N179     1.0000 0.12621  0.43985  0.92205  Biso   1.000  N  -0.349749
  N180     1.0000 0.23568  0.40483  0.83985  Biso   1.000  N  -0.378892
  N181     1.0000 0.14242  0.37969  0.17294  Biso   1.000  N  -0.355730
  N182     1.0000 0.07333  0.38445  0.15675  Biso   1.000  N  -0.383355
  N183     1.0000 0.41681  0.98663  0.33906  Biso   1.000  N  -0.377810
  N184     1.0000 0.31458  0.89206  0.49251  Biso   1.000  N  -0.304797
  N185     1.0000 0.52090  0.80481  0.43535  Biso   1.000  N  -0.353861
  N186     1.0000 0.43745  0.90799  0.45286  Biso   1.000  N  -0.346155
  N187     1.0000 0.47474  0.89972  0.34302  Biso   1.000  N  -0.383658
  N188     1.0000 0.04940  0.76422  0.90604  Biso   1.000  N  -0.366479
  N189     1.0000 0.15610  0.63775  0.94783  Biso   1.000  N  -0.363332
  N190     1.0000 0.14282  0.59170  0.08178  Biso   1.000  N  -0.354395
  N191     1.0000 0.07712  0.75185  0.97080  Biso   1.000  N  -0.381025
  N192     1.0000 0.07360  0.67219  0.08670  Biso   1.000  N  -0.382100
  N193     1.0000 0.37114  0.56899  0.58252  Biso   1.000  N  -0.365703
  N194     1.0000 0.41568  0.54643  0.68948  Biso   1.000  N  -0.380326
  N195     1.0000 0.51997  0.52707  0.50742  Biso   1.000  N  -0.347301
  N196     1.0000 0.43652  0.48940  0.60976  Biso   1.000  N  -0.378581
  N197     1.0000 0.47345  0.57154  0.60259  Biso   1.000  N  -0.376709
  N198     1.0000 0.37226  0.76210  0.27264  Biso   1.000  N  -0.372449
  N199     1.0000 0.38587  0.60112  0.26857  Biso   1.000  N  -0.286012
  N200     1.0000 0.52143  0.73277  0.22955  Biso   1.000  N  -0.343735
  N201     1.0000 0.43757  0.74992  0.19263  Biso   1.000  N  -0.388810
  N202     1.0000 0.47466  0.63941  0.27318  Biso   1.000  N  -0.340777
  N203     1.0000 0.06208  0.58927  0.49195  Biso   1.000  N  -0.306655
  N204     1.0000 0.20196  0.56526  0.30337  Biso   1.000  N  -0.283660
  N205     1.0000 0.14289  0.47177  0.29508  Biso   1.000  N  -0.362059
  N206     1.0000 0.07979  0.49063  0.45044  Biso   1.000  N  -0.351665
  N207     1.0000 0.06884  0.57238  0.34378  Biso   1.000  N  -0.343162
  N208     1.0000 0.07260  0.45621  0.37461  Biso   1.000  N  -0.381390
  N209     1.0000 0.17928  0.41055  0.25276  Biso   1.000  N  -0.296576
  N210     1.0000 0.07276  0.38572  0.37413  Biso   1.000  N  -0.340201
  N211     1.0000 0.31799  0.89076  0.29181  Biso   1.000  N  -0.307343
  N212     1.0000 0.52057  0.80303  0.23146  Biso   1.000  N  -0.386214
  N213     1.0000 0.44026  0.90789  0.19189  Biso   1.000  N  -0.356943
  N214     1.0000 0.47508  0.89960  0.27256  Biso   1.000  N  -0.338332
  N215     1.0000 0.15657  0.63750  0.24686  Biso   1.000  N  -0.378594
  N216     1.0000 0.17986  0.55039  0.14827  Biso   1.000  N  -0.301823
  N217     1.0000 0.06123  0.78942  0.29088  Biso   1.000  N  -0.307153
  N218     1.0000 0.07666  0.75078  0.19129  Biso   1.000  N  -0.348069
  N219     1.0000 0.06939  0.64181  0.27263  Biso   1.000  N  -0.378815
  N220     1.0000 0.07403  0.67245  0.15698  Biso   1.000  N  -0.341803
  N221     1.0000 0.41481  0.54529  0.34134  Biso   1.000  N  -0.363538
  N222     1.0000 0.31682  0.58868  0.49138  Biso   1.000  N  -0.310926
  N223     1.0000 0.51908  0.52912  0.43602  Biso   1.000  N  -0.388843
  N224     1.0000 0.43933  0.48862  0.45307  Biso   1.000  N  -0.351043
  N225     1.0000 0.47319  0.57028  0.34458  Biso   1.000  N  -0.376202
  N226     1.0000 0.37471  0.76236  0.58274  Biso   1.000  N  -0.369947
  N227     1.0000 0.38685  0.60257  0.73496  Biso   1.000  N  -0.291563
  N228     1.0000 0.52058  0.73367  0.50579  Biso   1.000  N  -0.375439
  N229     1.0000 0.43973  0.75077  0.60964  Biso   1.000  N  -0.389768
  N230     1.0000 0.47422  0.64141  0.60266  Biso   1.000  N  -0.328177
  N231     1.0000 0.04882  0.56968  0.90692  Biso   1.000  N  -0.370735
  N232     1.0000 0.17830  0.44715  0.11159  Biso   1.000  N  -0.297120
  N233     1.0000 0.20148  0.56524  0.91856  Biso   1.000  N  -0.291679
  N234     1.0000 0.07531  0.48948  0.97228  Biso   1.000  N  -0.391436
  N235     1.0000 0.07291  0.45534  0.08635  Biso   1.000  N  -0.345674
  N236     1.0000 0.07241  0.35695  0.88497  Biso   1.000  N  -0.346737
  N237     1.0000 0.41253  0.99776  0.73718  Biso   1.000  N  -0.296584
  N238     1.0000 0.49848  0.73582  0.81805  Biso   1.000  N  -0.354939
  N239     1.0000 0.49322  0.80519  0.73771  Biso   1.000  N  -0.383150
  N240     1.0000 0.30756  0.94568  0.52996  Biso   1.000  N  -0.370001
  N241     1.0000 0.35041  0.97477  0.60666  Biso   1.000  N  -0.342743
  N242     1.0000 0.38768  0.95769  0.50294  Biso   1.000  N  -0.386986
  N243     1.0000 0.20444  0.99766  0.84315  Biso   1.000  N  -0.296005
  N244     1.0000 0.08834  0.81606  0.82147  Biso   1.000  N  -0.305956
  N245     1.0000 0.27609  0.67600  0.84555  Biso   1.000  N  -0.284715
  N246     1.0000 0.28476  0.73552  0.93912  Biso   1.000  N  -0.360885
  N247     1.0000 0.14487  0.90386  0.88333  Biso   1.000  N  -0.354734
  N248     1.0000 0.12975  0.79885  0.91991  Biso   1.000  N  -0.351845
  N249     1.0000 0.23674  0.80861  0.83935  Biso   1.000  N  -0.344133
  N250     1.0000 0.20476  0.80502  0.95566  Biso   1.000  N  -0.379970
  N251     1.0000 0.28692  0.56187  0.62216  Biso   1.000  N  -0.307480
  N252     1.0000 0.31326  0.49063  0.80901  Biso   1.000  N  -0.282477
  N253     1.0000 0.35109  0.35620  0.67787  Biso   1.000  N  -0.353123
  N254     1.0000 0.38639  0.43996  0.66297  Biso   1.000  N  -0.349962
  N255     1.0000 0.30616  0.40411  0.76977  Biso   1.000  N  -0.342024
  N256     1.0000 0.07400  0.97446  0.05934  Biso   1.000  N  -0.350527
  N257     1.0000 0.31049  0.99654  0.94666  Biso   1.000  N  -0.296150
  N258     1.0000 0.33140  0.72082  0.16620  Biso   1.000  N  -0.366630
  N259     1.0000 0.28841  0.81614  0.26517  Biso   1.000  N  -0.306641
  N260     1.0000 0.35065  0.90246  0.05979  Biso   1.000  N  -0.356952
  N261     1.0000 0.38789  0.79981  0.14260  Biso   1.000  N  -0.344858
  N262     1.0000 0.30626  0.80759  0.10788  Biso   1.000  N  -0.381519
  N263     1.0000 0.11310  0.50462  0.53182  Biso   1.000  N  -0.368169
  N264     1.0000 0.24045  0.46061  0.42345  Biso   1.000  N  -0.378780
  N265     1.0000 0.14465  0.35602  0.60661  Biso   1.000  N  -0.344566
  N266     1.0000 0.12566  0.43964  0.50425  Biso   1.000  N  -0.383696
  N267     1.0000 0.23709  0.40304  0.51037  Biso   1.000  N  -0.377359
  N268     1.0000 0.98498  0.56185  0.62157  Biso   1.000  N  -0.308402
  N269     1.0000 0.84570  0.49049  0.80890  Biso   1.000  N  -0.284067
  N270     1.0000 0.96950  0.43863  0.66179  Biso   1.000  N  -0.355132
  N271     1.0000 0.97825  0.40403  0.76883  Biso   1.000  N  -0.340899
  N272     1.0000 0.67295  0.82725  0.84222  Biso   1.000  N  -0.370772
  N273     1.0000 0.66129  0.67637  0.84478  Biso   1.000  N  -0.288950
  N274     1.0000 0.52706  0.90482  0.88273  Biso   1.000  N  -0.375598
  N275     1.0000 0.60773  0.80053  0.92238  Biso   1.000  N  -0.392377
  N276     1.0000 0.57213  0.80778  0.84077  Biso   1.000  N  -0.339087
  N277     1.0000 0.99821  0.94452  0.84281  Biso   1.000  N  -0.371004
  N278     1.0000 0.97151  0.95592  0.92317  Biso   1.000  N  -0.387928
  N279     1.0000 0.73054  0.91848  0.51880  Biso   1.000  N  -0.308710
  N280     1.0000 0.52759  0.97524  0.60717  Biso   1.000  N  -0.389513
  N281     1.0000 0.60773  0.95746  0.50321  Biso   1.000  N  -0.350031
  N282     1.0000 0.88122  0.46435  0.26931  Biso   1.000  N  -0.296529
  N283     1.0000 0.63409  0.71141  0.37514  Biso   1.000  N  -0.295378
  N284     1.0000 0.55442  0.90387  0.37492  Biso   1.000  N  -0.350227
  N285     1.0000 0.84180  0.56751  0.16839  Biso   1.000  N  -0.294337
  N286     1.0000 0.71899  0.44471  0.11378  Biso   1.000  N  -0.294928
  N287     1.0000 0.95859  0.58925  0.84806  Biso   1.000  N  -0.303582
  N288     1.0000 0.77099  0.56579  0.91865  Biso   1.000  N  -0.284141
  N289     1.0000 0.91706  0.49111  0.97116  Biso   1.000  N  -0.353752
  N290     1.0000 0.83974  0.45669  0.08760  Biso   1.000  N  -0.345602
  N291     1.0000 0.73712  0.67293  0.41373  Biso   1.000  N  -0.295620
  N292     1.0000 0.61448  0.54996  0.71243  Biso   1.000  N  -0.295967
  N293     1.0000 0.75876  0.78926  0.59524  Biso   1.000  N  -0.308228
  N294     1.0000 0.73576  0.60143  0.73512  Biso   1.000  N  -0.286937
  N295     1.0000 0.69737  0.73276  0.50716  Biso   1.000  N  -0.349584
  N296     1.0000 0.66032  0.74787  0.61234  Biso   1.000  N  -0.352531
  N297     1.0000 0.74115  0.64031  0.60292  Biso   1.000  N  -0.355768
  N298     1.0000 0.62613  0.67130  0.60645  Biso   1.000  N  -0.349063
  N299     1.0000 0.84300  0.71121  0.26994  Biso   1.000  N  -0.297154
  N300     1.0000 0.93384  0.87958  0.27204  Biso   1.000  N  -0.365654
  N301     1.0000 0.80604  0.98769  0.24780  Biso   1.000  N  -0.381671
  N302     1.0000 0.90289  0.80483  0.22951  Biso   1.000  N  -0.347602
  N303     1.0000 0.92198  0.90671  0.19184  Biso   1.000  N  -0.381762
  N304     1.0000 0.81009  0.90068  0.27328  Biso   1.000  N  -0.376735
  N305     1.0000 0.84269  0.90466  0.15803  Biso   1.000  N  -0.349528
  N306     1.0000 0.73711  0.46475  0.37506  Biso   1.000  N  -0.296591
  N307     1.0000 0.61511  0.40915  0.25342  Biso   1.000  N  -0.302418
  N308     1.0000 0.62523  0.38318  0.37515  Biso   1.000  N  -0.351976
  N309     1.0000 0.88124  0.67315  0.16652  Biso   1.000  N  -0.296390
  N310     1.0000 0.63334  0.56717  0.41430  Biso   1.000  N  -0.298586
  N311     1.0000 0.57857  0.44589  0.71248  Biso   1.000  N  -0.301198
  N312     1.0000 0.55167  0.45620  0.60714  Biso   1.000  N  -0.348576
  N313     1.0000 0.63481  0.67255  0.26967  Biso   1.000  N  -0.294158
  N314     1.0000 0.57968  0.55043  0.14803  Biso   1.000  N  -0.295839
  N315     1.0000 0.55320  0.67228  0.15824  Biso   1.000  N  -0.350374
  N316     1.0000 0.88070  0.56702  0.37666  Biso   1.000  N  -0.296297
  N317     1.0000 0.97440  0.52686  0.43632  Biso   1.000  N  -0.354785
  N318     1.0000 0.73665  0.71197  0.16598  Biso   1.000  N  -0.296020
  N319     1.0000 0.73887  0.88045  0.90372  Biso   1.000  N  -0.369893
  N320     1.0000 0.71579  0.98687  0.94931  Biso   1.000  N  -0.377489
  N321     1.0000 0.65933  0.90762  0.96916  Biso   1.000  N  -0.380180
  N322     1.0000 0.62637  0.90464  0.08442  Biso   1.000  N  -0.347907
  N323     1.0000 0.84316  0.46409  0.41374  Biso   1.000  N  -0.295492
  N324     1.0000 0.72039  0.40978  0.71257  Biso   1.000  N  -0.300346
  N325     1.0000 0.84295  0.38315  0.60781  Biso   1.000  N  -0.352800
  N326     1.0000 0.93312  0.42323  0.37484  Biso   1.000  N  -0.384391
  N327     1.0000 0.59437  0.76261  0.25896  Biso   1.000  N  -0.382905
  N328     1.0000 0.54987  0.97200  0.17301  Biso   1.000  N  -0.365113
  N329     1.0000 0.55681  0.90234  0.15606  Biso   1.000  N  -0.378165
  N330     1.0000 0.93355  0.56772  0.58236  Biso   1.000  N  -0.369557
  N331     1.0000 0.80805  0.54505  0.68958  Biso   1.000  N  -0.362310
  N332     1.0000 0.84217  0.55597  0.46683  Biso   1.000  N  -0.382638
  N333     1.0000 0.76198  0.47196  0.67481  Biso   1.000  N  -0.355598
  N334     1.0000 0.90350  0.52806  0.50695  Biso   1.000  N  -0.378102
  N335     1.0000 0.92224  0.48725  0.60937  Biso   1.000  N  -0.386409
  N336     1.0000 0.81135  0.56994  0.60304  Biso   1.000  N  -0.362647
  N337     1.0000 0.84292  0.45464  0.60624  Biso   1.000  N  -0.376645
  N338     1.0000 0.71503  0.63894  0.94696  Biso   1.000  N  -0.361232
  N339     1.0000 0.72651  0.67279  0.12534  Biso   1.000  N  -0.385673
  N340     1.0000 0.75696  0.78982  0.84937  Biso   1.000  N  -0.306988
  N341     1.0000 0.64148  0.59248  0.08213  Biso   1.000  N  -0.356774
  N342     1.0000 0.65766  0.75067  0.97224  Biso   1.000  N  -0.350497
  N343     1.0000 0.62448  0.67264  0.08823  Biso   1.000  N  -0.374458
  N344     1.0000 0.84236  0.76316  0.12574  Biso   1.000  N  -0.385895
  N345     1.0000 0.95883  0.89305  0.84902  Biso   1.000  N  -0.309615
  N346     1.0000 0.76331  0.97233  0.08152  Biso   1.000  N  -0.362038
  N347     1.0000 0.91885  0.90886  0.97202  Biso   1.000  N  -0.355616
  N348     1.0000 0.84319  0.90283  0.08808  Biso   1.000  N  -0.376417
  N349     1.0000 0.72632  0.42452  0.46515  Biso   1.000  N  -0.383192
  N350     1.0000 0.64027  0.38005  0.67443  Biso   1.000  N  -0.363259
  N351     1.0000 0.62330  0.38659  0.60496  Biso   1.000  N  -0.377017
  N352     1.0000 0.93301  0.67242  0.25962  Biso   1.000  N  -0.385618
  N353     1.0000 0.97335  0.73364  0.23158  Biso   1.000  N  -0.388140
  N354     1.0000 0.59290  0.55667  0.37520  Biso   1.000  N  -0.385155
  N355     1.0000 0.54983  0.47181  0.29467  Biso   1.000  N  -0.354838
  N356     1.0000 0.55555  0.45483  0.37504  Biso   1.000  N  -0.373544
  N357     1.0000 0.59426  0.67268  0.46542  Biso   1.000  N  -0.381096
  N358     1.0000 0.54708  0.59426  0.67607  Biso   1.000  N  -0.360075
  N359     1.0000 0.55441  0.67372  0.60621  Biso   1.000  N  -0.377437
  N360     1.0000 0.93182  0.55687  0.12731  Biso   1.000  N  -0.381048
  N361     1.0000 0.73781  0.88093  0.46514  Biso   1.000  N  -0.371512
  N362     1.0000 0.72636  0.76301  0.37503  Biso   1.000  N  -0.381964
  N363     1.0000 0.64178  0.97247  0.29612  Biso   1.000  N  -0.360023
  N364     1.0000 0.69902  0.80315  0.43613  Biso   1.000  N  -0.375411
  N365     1.0000 0.65774  0.90754  0.45323  Biso   1.000  N  -0.391794
  N366     1.0000 0.74038  0.90041  0.34399  Biso   1.000  N  -0.328371
  N367     1.0000 0.62533  0.90257  0.37573  Biso   1.000  N  -0.377862
  N368     1.0000 0.84233  0.42364  0.25890  Biso   1.000  N  -0.386288
  N369     1.0000 0.76264  0.37777  0.17395  Biso   1.000  N  -0.357992
  N370     1.0000 0.84197  0.38527  0.15727  Biso   1.000  N  -0.371571
  N371     1.0000 0.99713  0.50458  0.84221  Biso   1.000  N  -0.369405
  N372     1.0000 0.89095  0.45984  0.86586  Biso   1.000  N  -0.380186
  N373     1.0000 0.96958  0.43998  0.92250  Biso   1.000  N  -0.381191
  N374     1.0000 0.97781  0.40219  0.84028  Biso   1.000  N  -0.376523
  N375     1.0000 0.67398  0.82899  0.64618  Biso   1.000  N  -0.368420
  N376     1.0000 0.63234  0.72247  0.77198  Biso   1.000  N  -0.365300
  N377     1.0000 0.52559  0.90408  0.67747  Biso   1.000  N  -0.348448
  N378     1.0000 0.60918  0.80136  0.65852  Biso   1.000  N  -0.382310
  N379     1.0000 0.57342  0.80883  0.76931  Biso   1.000  N  -0.368503
  N380     1.0000 0.98545  0.91881  0.26578  Biso   1.000  N  -0.305754
  N381     1.0000 0.96930  0.95902  0.14288  Biso   1.000  N  -0.350769
  N382     1.0000 0.73155  0.92008  0.81959  Biso   1.000  N  -0.308087
  N383     1.0000 0.52591  0.97558  0.88400  Biso   1.000  N  -0.352030
  N384     1.0000 0.60972  0.96071  0.91921  Biso   1.000  N  -0.350276
  Zn1      1.0000 0.05066  0.69654  0.02865  Biso   1.000  Zn  0.679497
  Zn2      1.0000 0.04654  0.51374  0.03103  Biso   1.000  Zn  0.664764
  Zn3      1.0000 0.86374  0.51352  0.03096  Biso   1.000  Zn  0.640098
  Zn4      1.0000 0.68367  0.88071  0.02639  Biso   1.000  Zn  0.668050
  Zn5      1.0000 0.68115  0.69621  0.03092  Biso   1.000  Zn  0.677143
  Zn6      1.0000 0.86624  0.87886  0.03161  Biso   1.000  Zn  0.664957
  Zn7      1.0000 0.18095  0.19596  0.53104  Biso   1.000  Zn  0.690716
  Zn8      1.0000 0.36450  0.00990  0.08460  Biso   1.000  Zn  0.679273
  Zn9      1.0000 0.05106  0.32652  0.21410  Biso   1.000  Zn  0.681696
  Zn10     1.0000 0.04845  0.32869  0.39847  Biso   1.000  Zn  0.651298
  Zn11     1.0000 0.18150  0.19605  0.08170  Biso   1.000  Zn  0.653507
  Zn12     1.0000 0.36396  0.01135  0.53167  Biso   1.000  Zn  0.654902
  Zn13     1.0000 0.99854  0.01120  0.89845  Biso   1.000  Zn  0.689930
  Zn14     1.0000 0.55110  0.19601  0.71333  Biso   1.000  Zn  0.677658
  Zn15     1.0000 0.54893  0.01161  0.53148  Biso   1.000  Zn  0.677129
  Zn16     1.0000 0.99637  0.19621  0.08349  Biso   1.000  Zn  0.690559
  Zn17     1.0000 0.68330  0.32600  0.39890  Biso   1.000  Zn  0.668762
  Zn18     1.0000 0.86671  0.32625  0.58314  Biso   1.000  Zn  0.667563
  Zn19     1.0000 0.68141  0.33072  0.58092  Biso   1.000  Zn  0.665707
  Zn20     1.0000 0.86575  0.32910  0.21438  Biso   1.000  Zn  0.663212
  Zn21     1.0000 0.99869  0.01131  0.08322  Biso   1.000  Zn  0.640236
  Zn22     1.0000 0.54858  0.19625  0.53119  Biso   1.000  Zn  0.640616
  Zn23     1.0000 0.54909  0.01374  0.89858  Biso   1.000  Zn  0.654682
  Zn24     1.0000 0.99850  0.19553  0.71441  Biso   1.000  Zn  0.639486
  Zn25     1.0000 0.18107  0.82872  0.08347  Biso   1.000  Zn  0.664774
  Zn26     1.0000 0.36378  0.38144  0.53181  Biso   1.000  Zn  0.676583
  Zn27     1.0000 0.36595  0.82848  0.71387  Biso   1.000  Zn  0.663199
  Zn28     1.0000 0.18078  0.38109  0.89850  Biso   1.000  Zn  0.663730
  Zn29     1.0000 0.49684  0.88060  0.39894  Biso   1.000  Zn  0.653723
  Zn30     1.0000 0.49382  0.51371  0.58315  Biso   1.000  Zn  0.667008
  Zn31     1.0000 0.49607  0.69619  0.21602  Biso   1.000  Zn  0.654400
  Zn32     1.0000 0.04935  0.51314  0.39847  Biso   1.000  Zn  0.654066
  Zn33     1.0000 0.50086  0.87836  0.21385  Biso   1.000  Zn  0.666479
  Zn34     1.0000 0.04888  0.69649  0.21402  Biso   1.000  Zn  0.663779
  Zn35     1.0000 0.49833  0.51146  0.39857  Biso   1.000  Zn  0.677689
  Zn36     1.0000 0.49847  0.69655  0.58097  Biso   1.000  Zn  0.676537
  Zn37     1.0000 0.18167  0.82856  0.89834  Biso   1.000  Zn  0.652625
  Zn38     1.0000 0.36566  0.37946  0.71566  Biso   1.000  Zn  0.653166
  Zn39     1.0000 0.36589  0.82637  0.08346  Biso   1.000  Zn  0.667593
  Zn40     1.0000 0.18087  0.38109  0.53107  Biso   1.000  Zn  0.667326
  Zn41     1.0000 0.99902  0.37890  0.71434  Biso   1.000  Zn  0.662048
  Zn42     1.0000 0.54934  0.82974  0.89799  Biso   1.000  Zn  0.664851
  Zn43     1.0000 0.68312  0.69586  0.58202  Biso   1.000  Zn  0.639680
  Zn44     1.0000 0.86642  0.88067  0.21577  Biso   1.000  Zn  0.668224
  Zn45     1.0000 0.86672  0.51181  0.58270  Biso   1.000  Zn  0.690199
  Zn46     1.0000 0.68334  0.87833  0.39896  Biso   1.000  Zn  0.677597
  Zn47     1.0000 0.99676  0.38157  0.89868  Biso   1.000  Zn  0.668722
  Zn48     1.0000 0.55107  0.82854  0.71363  Biso   1.000  Zn  0.680188
