data_image0
_cell_length_a       31.114
_cell_length_b       31.114
_cell_length_c       39.28
_cell_angle_alpha    90
_cell_angle_beta     90
_cell_angle_gamma    120

_symmetry_space_group_name_H-M    "P 1"
_symmetry_int_tables_number       1

loop_
  _symmetry_equiv_pos_as_xyz
  'x, y, z'

loop_
  _atom_site_label
  _atom_site_occupancy
  _atom_site_fract_x
  _atom_site_fract_y
  _atom_site_fract_z
  _atom_site_thermal_displace_type
  _atom_site_B_iso_or_equiv
  _atom_site_type_symbol
  _atom_site_charge
  C1       1.0000 0.22340  0.28170  0.45770  Biso   1.000  C  0.482393
  C2       1.0000 0.71830  0.94170  0.12437  Biso   1.000  C  0.480843
  C3       1.0000 0.05830  0.77660  0.79103  Biso   1.000  C  0.481632
  C4       1.0000 0.71830  0.77660  0.87563  Biso   1.000  C  0.480843
  C5       1.0000 0.05830  0.28170  0.20897  Biso   1.000  C  0.481634
  C6       1.0000 0.22340  0.94170  0.54230  Biso   1.000  C  0.482391
  C7       1.0000 0.38620  0.27780  0.45497  Biso   1.000  C  0.615382
  C8       1.0000 0.72220  0.10840  0.12164  Biso   1.000  C  0.614990
  C9       1.0000 0.89160  0.61380  0.78830  Biso   1.000  C  0.615598
  C10      1.0000 0.72220  0.61380  0.87836  Biso   1.000  C  0.614988
  C11      1.0000 0.89160  0.27780  0.21170  Biso   1.000  C  0.615601
  C12      1.0000 0.38620  0.10840  0.54503  Biso   1.000  C  0.615383
  C13      1.0000 0.38980  0.43790  0.45140  Biso   1.000  C  0.634617
  C14      1.0000 0.56210  0.95190  0.11807  Biso   1.000  C  0.635109
  C15      1.0000 0.04810  0.61020  0.78473  Biso   1.000  C  0.635441
  C16      1.0000 0.56210  0.61020  0.88193  Biso   1.000  C  0.635111
  C17      1.0000 0.04810  0.43790  0.21527  Biso   1.000  C  0.635442
  C18      1.0000 0.38980  0.95190  0.54860  Biso   1.000  C  0.634614
  C19      1.0000 0.18050  0.26390  0.43120  Biso   1.000  C  0.014856
  C20      1.0000 0.73610  0.91660  0.09787  Biso   1.000  C  0.015139
  C21      1.0000 0.08340  0.81950  0.76453  Biso   1.000  C  0.015257
  C22      1.0000 0.73610  0.81950  0.90213  Biso   1.000  C  0.015138
  C23      1.0000 0.08340  0.26390  0.23547  Biso   1.000  C  0.015259
  C24      1.0000 0.18050  0.91660  0.56880  Biso   1.000  C  0.014856
  C25      1.0000 0.40110  0.24910  0.43250  Biso   1.000  C  -0.042725
  C26      1.0000 0.75090  0.15200  0.09917  Biso   1.000  C  -0.042690
  C27      1.0000 0.84800  0.59890  0.76583  Biso   1.000  C  -0.042015
  C28      1.0000 0.75090  0.59890  0.90083  Biso   1.000  C  -0.042690
  C29      1.0000 0.84800  0.24910  0.23417  Biso   1.000  C  -0.042016
  C30      1.0000 0.40110  0.15200  0.56750  Biso   1.000  C  -0.042724
  C31      1.0000 0.41310  0.47950  0.42710  Biso   1.000  C  -0.033529
  C32      1.0000 0.52050  0.93360  0.09377  Biso   1.000  C  -0.036837
  C33      1.0000 0.06640  0.58690  0.76043  Biso   1.000  C  -0.037819
  C34      1.0000 0.52050  0.58690  0.90623  Biso   1.000  C  -0.036838
  C35      1.0000 0.06640  0.47950  0.23957  Biso   1.000  C  -0.037818
  C36      1.0000 0.41310  0.93360  0.57290  Biso   1.000  C  -0.033529
  C37      1.0000 0.14060  0.25940  0.44970  Biso   1.000  C  -0.116252
  C38      1.0000 0.74060  0.88120  0.11637  Biso   1.000  C  -0.115492
  C39      1.0000 0.11880  0.85940  0.78303  Biso   1.000  C  -0.115604
  C40      1.0000 0.74060  0.85940  0.88363  Biso   1.000  C  -0.115491
  C41      1.0000 0.11880  0.25940  0.21697  Biso   1.000  C  -0.115598
  C42      1.0000 0.14060  0.88120  0.55030  Biso   1.000  C  -0.116258
  C43      1.0000 0.17720  0.24460  0.39930  Biso   1.000  C  -0.084068
  C44      1.0000 0.75540  0.93260  0.06597  Biso   1.000  C  -0.084029
  C45      1.0000 0.06740  0.82280  0.73263  Biso   1.000  C  -0.086398
  C46      1.0000 0.75540  0.82280  0.93403  Biso   1.000  C  -0.084029
  C47      1.0000 0.06740  0.24460  0.26737  Biso   1.000  C  -0.086395
  C48      1.0000 0.17720  0.93260  0.60070  Biso   1.000  C  -0.084071
  C49      1.0000 0.41490  0.26630  0.39890  Biso   1.000  C  -0.107916
  C50      1.0000 0.73370  0.14860  0.06557  Biso   1.000  C  -0.107218
  C51      1.0000 0.85140  0.58510  0.73223  Biso   1.000  C  -0.106274
  C52      1.0000 0.73370  0.58510  0.93443  Biso   1.000  C  -0.107218
  C53      1.0000 0.85140  0.26630  0.26777  Biso   1.000  C  -0.106275
  C54      1.0000 0.41490  0.14860  0.60110  Biso   1.000  C  -0.107917
  C55      1.0000 0.40880  0.21150  0.44410  Biso   1.000  C  -0.086470
  C56      1.0000 0.78850  0.19730  0.11077  Biso   1.000  C  -0.084922
  C57      1.0000 0.80270  0.59120  0.77743  Biso   1.000  C  -0.086488
  C58      1.0000 0.78850  0.59120  0.88923  Biso   1.000  C  -0.084916
  C59      1.0000 0.80270  0.21150  0.22257  Biso   1.000  C  -0.086494
  C60      1.0000 0.40880  0.19730  0.55590  Biso   1.000  C  -0.086470
  C61      1.0000 0.39720  0.47220  0.39320  Biso   1.000  C  -0.106551
  C62      1.0000 0.52780  0.92500  0.05987  Biso   1.000  C  -0.105375
  C63      1.0000 0.07500  0.60280  0.72653  Biso   1.000  C  -0.105274
  C64      1.0000 0.52780  0.60280  0.94013  Biso   1.000  C  -0.105376
  C65      1.0000 0.07500  0.47220  0.27347  Biso   1.000  C  -0.105275
  C66      1.0000 0.39720  0.92500  0.60680  Biso   1.000  C  -0.106550
  C67      1.0000 0.44810  0.52660  0.43590  Biso   1.000  C  -0.102197
  C68      1.0000 0.47340  0.92150  0.10257  Biso   1.000  C  -0.100152
  C69      1.0000 0.07850  0.55190  0.76923  Biso   1.000  C  -0.097602
  C70      1.0000 0.47340  0.55190  0.89743  Biso   1.000  C  -0.100156
  C71      1.0000 0.07850  0.52660  0.23077  Biso   1.000  C  -0.097601
  C72      1.0000 0.44810  0.92150  0.56410  Biso   1.000  C  -0.102194
  C73      1.0000 0.09620  0.23650  0.43140  Biso   1.000  C  -0.113415
  C74      1.0000 0.76350  0.85970  0.09807  Biso   1.000  C  -0.112427
  C75      1.0000 0.14030  0.90380  0.76473  Biso   1.000  C  -0.111503
  C76      1.0000 0.76350  0.90380  0.90193  Biso   1.000  C  -0.112420
  C77      1.0000 0.14030  0.23650  0.23527  Biso   1.000  C  -0.111518
  C78      1.0000 0.09620  0.85970  0.56860  Biso   1.000  C  -0.113407
  C79      1.0000 0.13140  0.22160  0.38290  Biso   1.000  C  -0.114768
  C80      1.0000 0.77840  0.90980  0.04957  Biso   1.000  C  -0.114071
  C81      1.0000 0.09020  0.86860  0.71623  Biso   1.000  C  -0.111917
  C82      1.0000 0.77840  0.86860  0.95043  Biso   1.000  C  -0.114069
  C83      1.0000 0.09020  0.22160  0.28377  Biso   1.000  C  -0.111915
  C84      1.0000 0.13140  0.90980  0.61710  Biso   1.000  C  -0.114771
  C85      1.0000 0.43790  0.24820  0.37830  Biso   1.000  C  -0.136109
  C86      1.0000 0.75180  0.18970  0.04497  Biso   1.000  C  -0.137809
  C87      1.0000 0.81030  0.56210  0.71163  Biso   1.000  C  -0.136932
  C88      1.0000 0.75180  0.56210  0.95503  Biso   1.000  C  -0.137809
  C89      1.0000 0.81030  0.24820  0.28837  Biso   1.000  C  -0.136930
  C90      1.0000 0.43790  0.18970  0.62170  Biso   1.000  C  -0.136111
  C91      1.0000 0.42830  0.19110  0.42270  Biso   1.000  C  -0.125414
  C92      1.0000 0.80890  0.23720  0.08937  Biso   1.000  C  -0.122395
  C93      1.0000 0.76280  0.57170  0.75603  Biso   1.000  C  -0.125579
  C94      1.0000 0.80890  0.57170  0.91063  Biso   1.000  C  -0.122394
  C95      1.0000 0.76280  0.19110  0.24397  Biso   1.000  C  -0.125579
  C96      1.0000 0.42830  0.23720  0.57730  Biso   1.000  C  -0.125414
  C97      1.0000 0.41520  0.51240  0.37090  Biso   1.000  C  -0.147541
  C98      1.0000 0.48760  0.90280  0.03757  Biso   1.000  C  -0.147477
  C99      1.0000 0.09720  0.58480  0.70423  Biso   1.000  C  -0.149210
  C100     1.0000 0.48760  0.58480  0.96243  Biso   1.000  C  -0.147479
  C101     1.0000 0.09720  0.51240  0.29577  Biso   1.000  C  -0.149213
  C102     1.0000 0.41520  0.90280  0.62910  Biso   1.000  C  -0.147535
  C103     1.0000 0.46850  0.56490  0.41430  Biso   1.000  C  -0.126601
  C104     1.0000 0.43510  0.90360  0.08097  Biso   1.000  C  -0.127670
  C105     1.0000 0.09640  0.53150  0.74763  Biso   1.000  C  -0.127907
  C106     1.0000 0.43510  0.53150  0.91903  Biso   1.000  C  -0.127673
  C107     1.0000 0.09640  0.56490  0.25237  Biso   1.000  C  -0.127909
  C108     1.0000 0.46850  0.90360  0.58570  Biso   1.000  C  -0.126598
  C109     1.0000 0.08930  0.21760  0.39960  Biso   1.000  C  0.148989
  C110     1.0000 0.78240  0.87170  0.06627  Biso   1.000  C  0.149372
  C111     1.0000 0.12830  0.91070  0.73293  Biso   1.000  C  0.147880
  C112     1.0000 0.78240  0.91070  0.93373  Biso   1.000  C  0.149367
  C113     1.0000 0.12830  0.21760  0.26707  Biso   1.000  C  0.147887
  C114     1.0000 0.08930  0.87170  0.60040  Biso   1.000  C  0.148986
  C115     1.0000 0.44130  0.20760  0.39060  Biso   1.000  C  0.151436
  C116     1.0000 0.79240  0.23370  0.05727  Biso   1.000  C  0.151314
  C117     1.0000 0.76630  0.55870  0.72393  Biso   1.000  C  0.151611
  C118     1.0000 0.79240  0.55870  0.94273  Biso   1.000  C  0.151315
  C119     1.0000 0.76630  0.20760  0.27607  Biso   1.000  C  0.151609
  C120     1.0000 0.44130  0.23370  0.60940  Biso   1.000  C  0.151436
  C121     1.0000 0.45130  0.55940  0.37960  Biso   1.000  C  0.136280
  C122     1.0000 0.44060  0.89190  0.04627  Biso   1.000  C  0.138039
  C123     1.0000 0.10810  0.54870  0.71293  Biso   1.000  C  0.137807
  C124     1.0000 0.44060  0.54870  0.95373  Biso   1.000  C  0.138038
  C125     1.0000 0.10810  0.55940  0.28707  Biso   1.000  C  0.137808
  C126     1.0000 0.45130  0.89190  0.62040  Biso   1.000  C  0.136280
  C127     1.0000 0.04630  0.19370  0.38110  Biso   1.000  C  -0.059421
  C128     1.0000 0.80630  0.85260  0.04777  Biso   1.000  C  -0.061261
  C129     1.0000 0.14740  0.95370  0.71443  Biso   1.000  C  -0.060887
  C130     1.0000 0.80630  0.95370  0.95223  Biso   1.000  C  -0.061257
  C131     1.0000 0.14740  0.19370  0.28557  Biso   1.000  C  -0.060886
  C132     1.0000 0.04630  0.85260  0.61890  Biso   1.000  C  -0.059426
  C133     1.0000 0.46110  0.18280  0.36940  Biso   1.000  C  -0.102716
  C134     1.0000 0.81720  0.27830  0.03607  Biso   1.000  C  -0.104280
  C135     1.0000 0.72170  0.53890  0.70273  Biso   1.000  C  -0.103516
  C136     1.0000 0.81720  0.53890  0.96393  Biso   1.000  C  -0.104284
  C137     1.0000 0.72170  0.18280  0.29727  Biso   1.000  C  -0.103515
  C138     1.0000 0.46110  0.27830  0.63060  Biso   1.000  C  -0.102715
  C139     1.0000 0.47160  0.59880  0.35630  Biso   1.000  C  -0.064024
  C140     1.0000 0.40120  0.87280  0.02297  Biso   1.000  C  -0.064694
  C141     1.0000 0.12720  0.52840  0.68963  Biso   1.000  C  -0.063069
  C142     1.0000 0.40120  0.52840  0.97703  Biso   1.000  C  -0.064693
  C143     1.0000 0.12720  0.59880  0.31037  Biso   1.000  C  -0.063064
  C144     1.0000 0.47160  0.87280  0.64370  Biso   1.000  C  -0.064029
  C145     1.0000 0.00870  0.16970  0.35930  Biso   1.000  C  -0.083318
  C146     1.0000 0.83030  0.83900  0.02597  Biso   1.000  C  -0.082565
  C147     1.0000 0.16100  0.99130  0.69263  Biso   1.000  C  -0.082057
  C148     1.0000 0.83030  0.99130  0.97403  Biso   1.000  C  -0.082561
  C149     1.0000 0.16100  0.16970  0.30737  Biso   1.000  C  -0.082066
  C150     1.0000 0.00870  0.83900  0.64070  Biso   1.000  C  -0.083314
  C151     1.0000 0.47980  0.16820  0.34630  Biso   1.000  C  -0.041508
  C152     1.0000 0.83180  0.31160  0.01297  Biso   1.000  C  -0.039302
  C153     1.0000 0.68840  0.52020  0.67963  Biso   1.000  C  -0.040961
  C154     1.0000 0.83180  0.52020  0.98703  Biso   1.000  C  -0.039304
  C155     1.0000 0.68840  0.16820  0.32037  Biso   1.000  C  -0.040960
  C156     1.0000 0.47980  0.31160  0.65370  Biso   1.000  C  -0.041507
  C157     1.0000 0.48740  0.63220  0.33760  Biso   1.000  C  -0.022471
  C158     1.0000 0.36780  0.85520  0.00427  Biso   1.000  C  -0.021662
  C159     1.0000 0.14480  0.51260  0.67093  Biso   1.000  C  -0.023857
  C160     1.0000 0.36780  0.51260  0.99573  Biso   1.000  C  -0.021659
  C161     1.0000 0.14480  0.63220  0.32907  Biso   1.000  C  -0.023858
  C162     1.0000 0.48740  0.85520  0.66240  Biso   1.000  C  -0.022472
  C163     1.0000 0.95870  0.15150  0.34610  Biso   1.000  C  0.000190
  C164     1.0000 0.84850  0.80720  0.01277  Biso   1.000  C  0.000700
  C165     1.0000 0.19280  0.04130  0.67943  Biso   1.000  C  -0.000389
  C166     1.0000 0.84850  0.04130  0.98723  Biso   1.000  C  0.000702
  C167     1.0000 0.19280  0.15150  0.32057  Biso   1.000  C  -0.000387
  C168     1.0000 0.95870  0.80720  0.65390  Biso   1.000  C  0.000187
  C169     1.0000 0.49750  0.14450  0.32920  Biso   1.000  C  -0.019574
  C170     1.0000 0.85550  0.35300  0.99587  Biso   1.000  C  -0.023210
  C171     1.0000 0.64700  0.50250  0.66253  Biso   1.000  C  -0.021724
  C172     1.0000 0.85550  0.50250  0.00413  Biso   1.000  C  -0.023208
  C173     1.0000 0.64700  0.14450  0.33747  Biso   1.000  C  -0.021724
  C174     1.0000 0.49750  0.35300  0.67080  Biso   1.000  C  -0.019575
  C175     1.0000 0.50400  0.67310  0.31870  Biso   1.000  C  -0.044933
  C176     1.0000 0.32690  0.83090  0.98537  Biso   1.000  C  -0.046633
  C177     1.0000 0.16910  0.49600  0.65203  Biso   1.000  C  -0.046004
  C178     1.0000 0.32690  0.49600  0.01463  Biso   1.000  C  -0.046632
  C179     1.0000 0.16910  0.67310  0.34797  Biso   1.000  C  -0.046000
  C180     1.0000 0.50400  0.83090  0.68130  Biso   1.000  C  -0.044937
  C181     1.0000 0.92020  0.12870  0.33510  Biso   1.000  C  -0.068224
  C182     1.0000 0.87130  0.79150  0.00177  Biso   1.000  C  -0.068321
  C183     1.0000 0.20850  0.07980  0.66843  Biso   1.000  C  -0.067568
  C184     1.0000 0.87130  0.07980  0.99823  Biso   1.000  C  -0.068319
  C185     1.0000 0.20850  0.12870  0.33157  Biso   1.000  C  -0.067569
  C186     1.0000 0.92020  0.79150  0.66490  Biso   1.000  C  -0.068224
  C187     1.0000 0.51700  0.13380  0.30820  Biso   1.000  C  -0.085514
  C188     1.0000 0.86620  0.38320  0.97487  Biso   1.000  C  -0.082565
  C189     1.0000 0.61680  0.48300  0.64153  Biso   1.000  C  -0.082942
  C190     1.0000 0.86620  0.48300  0.02513  Biso   1.000  C  -0.082565
  C191     1.0000 0.61680  0.13380  0.35847  Biso   1.000  C  -0.082941
  C192     1.0000 0.51700  0.38320  0.69180  Biso   1.000  C  -0.085515
  C193     1.0000 0.51860  0.70660  0.29640  Biso   1.000  C  -0.094479
  C194     1.0000 0.29340  0.81200  0.96307  Biso   1.000  C  -0.092876
  C195     1.0000 0.18800  0.48140  0.62973  Biso   1.000  C  -0.091611
  C196     1.0000 0.29340  0.48140  0.03693  Biso   1.000  C  -0.092875
  C197     1.0000 0.18800  0.70660  0.37027  Biso   1.000  C  -0.091621
  C198     1.0000 0.51860  0.81200  0.70360  Biso   1.000  C  -0.094469
  C199     1.0000 0.88640  0.11200  0.30580  Biso   1.000  C  0.157295
  C200     1.0000 0.88800  0.77440  0.97247  Biso   1.000  C  0.157772
  C201     1.0000 0.22560  0.11360  0.63913  Biso   1.000  C  0.158574
  C202     1.0000 0.88800  0.11360  0.02753  Biso   1.000  C  0.157772
  C203     1.0000 0.22560  0.11200  0.36087  Biso   1.000  C  0.158574
  C204     1.0000 0.88640  0.77440  0.69420  Biso   1.000  C  0.157296
  C205     1.0000 0.53730  0.10650  0.28450  Biso   1.000  C  0.151172
  C206     1.0000 0.89350  0.43080  0.95117  Biso   1.000  C  0.149811
  C207     1.0000 0.56920  0.46270  0.61783  Biso   1.000  C  0.150779
  C208     1.0000 0.89350  0.46270  0.04883  Biso   1.000  C  0.149811
  C209     1.0000 0.56920  0.10650  0.38217  Biso   1.000  C  0.150779
  C210     1.0000 0.53730  0.43080  0.71550  Biso   1.000  C  0.151171
  C211     1.0000 0.53980  0.75120  0.27740  Biso   1.000  C  0.153141
  C212     1.0000 0.24880  0.78860  0.94407  Biso   1.000  C  0.152250
  C213     1.0000 0.21140  0.46020  0.61073  Biso   1.000  C  0.151136
  C214     1.0000 0.24880  0.46020  0.05593  Biso   1.000  C  0.152251
  C215     1.0000 0.21140  0.75120  0.38927  Biso   1.000  C  0.151134
  C216     1.0000 0.53980  0.78860  0.72260  Biso   1.000  C  0.153143
  C217     1.0000 0.85820  0.06420  0.29950  Biso   1.000  C  -0.149691
  C218     1.0000 0.93580  0.79400  0.96617  Biso   1.000  C  -0.149133
  C219     1.0000 0.20600  0.14180  0.63283  Biso   1.000  C  -0.150925
  C220     1.0000 0.93580  0.14180  0.03383  Biso   1.000  C  -0.149134
  C221     1.0000 0.20600  0.06420  0.36717  Biso   1.000  C  -0.150925
  C222     1.0000 0.85820  0.79400  0.70050  Biso   1.000  C  -0.149690
  C223     1.0000 0.87480  0.14290  0.28690  Biso   1.000  C  -0.140693
  C224     1.0000 0.85710  0.73190  0.95357  Biso   1.000  C  -0.141636
  C225     1.0000 0.26810  0.12520  0.62023  Biso   1.000  C  -0.143372
  C226     1.0000 0.85710  0.12520  0.04643  Biso   1.000  C  -0.141636
  C227     1.0000 0.26810  0.14290  0.37977  Biso   1.000  C  -0.143370
  C228     1.0000 0.87480  0.73190  0.71310  Biso   1.000  C  -0.140695
  C229     1.0000 0.58580  0.14170  0.27090  Biso   1.000  C  -0.152051
  C230     1.0000 0.85830  0.44410  0.93757  Biso   1.000  C  -0.149164
  C231     1.0000 0.55590  0.41420  0.60423  Biso   1.000  C  -0.149094
  C232     1.0000 0.85830  0.41420  0.06243  Biso   1.000  C  -0.149165
  C233     1.0000 0.55590  0.14170  0.39577  Biso   1.000  C  -0.149093
  C234     1.0000 0.58580  0.44410  0.72910  Biso   1.000  C  -0.152051
  C235     1.0000 0.51420  0.06030  0.27820  Biso   1.000  C  -0.148706
  C236     1.0000 0.93970  0.45390  0.94487  Biso   1.000  C  -0.149480
  C237     1.0000 0.54610  0.48580  0.61153  Biso   1.000  C  -0.150127
  C238     1.0000 0.93970  0.48580  0.05513  Biso   1.000  C  -0.149479
  C239     1.0000 0.54610  0.06030  0.38847  Biso   1.000  C  -0.150130
  C240     1.0000 0.51420  0.45390  0.72180  Biso   1.000  C  -0.148704
  C241     1.0000 0.58830  0.78490  0.27970  Biso   1.000  C  -0.125361
  C242     1.0000 0.21510  0.80340  0.94637  Biso   1.000  C  -0.125575
  C243     1.0000 0.19660  0.41170  0.61303  Biso   1.000  C  -0.127347
  C244     1.0000 0.21510  0.41170  0.05363  Biso   1.000  C  -0.125575
  C245     1.0000 0.19660  0.78490  0.38697  Biso   1.000  C  -0.127348
  C246     1.0000 0.58830  0.80340  0.72030  Biso   1.000  C  -0.125362
  C247     1.0000 0.51220  0.76240  0.25610  Biso   1.000  C  -0.126741
  C248     1.0000 0.23760  0.74980  0.92277  Biso   1.000  C  -0.127010
  C249     1.0000 0.25020  0.48780  0.58943  Biso   1.000  C  -0.126470
  C250     1.0000 0.23760  0.48780  0.07723  Biso   1.000  C  -0.127015
  C251     1.0000 0.25020  0.76240  0.41057  Biso   1.000  C  -0.126463
  C252     1.0000 0.51220  0.74980  0.74390  Biso   1.000  C  -0.126742
  C253     1.0000 0.81830  0.04630  0.27710  Biso   1.000  C  -0.089964
  C254     1.0000 0.95370  0.77200  0.94377  Biso   1.000  C  -0.091939
  C255     1.0000 0.22800  0.18170  0.61043  Biso   1.000  C  -0.088018
  C256     1.0000 0.95370  0.18170  0.05623  Biso   1.000  C  -0.091943
  C257     1.0000 0.22800  0.04630  0.38957  Biso   1.000  C  -0.088019
  C258     1.0000 0.81830  0.77200  0.72290  Biso   1.000  C  -0.089959
  C259     1.0000 0.83630  0.12510  0.26410  Biso   1.000  C  -0.093501
  C260     1.0000 0.87490  0.71120  0.93077  Biso   1.000  C  -0.095766
  C261     1.0000 0.28880  0.16370  0.59743  Biso   1.000  C  -0.091505
  C262     1.0000 0.87490  0.16370  0.06923  Biso   1.000  C  -0.095763
  C263     1.0000 0.28880  0.12510  0.40257  Biso   1.000  C  -0.091503
  C264     1.0000 0.83630  0.71120  0.73590  Biso   1.000  C  -0.093507
  C265     1.0000 0.60590  0.11980  0.25140  Biso   1.000  C  -0.092014
  C266     1.0000 0.88020  0.48610  0.91807  Biso   1.000  C  -0.092604
  C267     1.0000 0.51390  0.39410  0.58473  Biso   1.000  C  -0.093052
  C268     1.0000 0.88020  0.39410  0.08193  Biso   1.000  C  -0.092607
  C269     1.0000 0.51390  0.11980  0.41527  Biso   1.000  C  -0.093048
  C270     1.0000 0.60590  0.48610  0.74860  Biso   1.000  C  -0.092015
  C271     1.0000 0.53640  0.04050  0.25670  Biso   1.000  C  -0.082980
  C272     1.0000 0.95950  0.49590  0.92337  Biso   1.000  C  -0.080111
  C273     1.0000 0.50410  0.46360  0.59003  Biso   1.000  C  -0.081004
  C274     1.0000 0.95950  0.46360  0.07663  Biso   1.000  C  -0.080111
  C275     1.0000 0.50410  0.04050  0.40997  Biso   1.000  C  -0.081008
  C276     1.0000 0.53640  0.49590  0.74330  Biso   1.000  C  -0.082976
  C277     1.0000 0.60840  0.82770  0.26170  Biso   1.000  C  -0.114992
  C278     1.0000 0.17230  0.78070  0.92837  Biso   1.000  C  -0.119363
  C279     1.0000 0.21930  0.39160  0.59503  Biso   1.000  C  -0.114303
  C280     1.0000 0.17230  0.39160  0.07163  Biso   1.000  C  -0.119371
  C281     1.0000 0.21930  0.82770  0.40497  Biso   1.000  C  -0.114296
  C282     1.0000 0.60840  0.78070  0.73830  Biso   1.000  C  -0.114991
  C283     1.0000 0.53240  0.80630  0.23830  Biso   1.000  C  -0.096441
  C284     1.0000 0.19370  0.72610  0.90497  Biso   1.000  C  -0.097120
  C285     1.0000 0.27390  0.46760  0.57163  Biso   1.000  C  -0.097139
  C286     1.0000 0.19370  0.46760  0.09503  Biso   1.000  C  -0.097120
  C287     1.0000 0.27390  0.80630  0.42837  Biso   1.000  C  -0.097137
  C288     1.0000 0.53240  0.72610  0.76170  Biso   1.000  C  -0.096442
  C289     1.0000 0.80730  0.07480  0.25900  Biso   1.000  C  -0.029942
  C290     1.0000 0.92520  0.73250  0.92567  Biso   1.000  C  -0.027503
  C291     1.0000 0.26750  0.19270  0.59233  Biso   1.000  C  -0.032585
  C292     1.0000 0.92520  0.19270  0.07433  Biso   1.000  C  -0.027501
  C293     1.0000 0.26750  0.07480  0.40767  Biso   1.000  C  -0.032588
  C294     1.0000 0.80730  0.73250  0.74100  Biso   1.000  C  -0.029942
  C295     1.0000 0.58340  0.07120  0.24400  Biso   1.000  C  -0.033215
  C296     1.0000 0.92880  0.51220  0.91067  Biso   1.000  C  -0.035081
  C297     1.0000 0.48780  0.41660  0.57733  Biso   1.000  C  -0.034150
  C298     1.0000 0.92880  0.41660  0.08933  Biso   1.000  C  -0.035080
  C299     1.0000 0.48780  0.07120  0.42267  Biso   1.000  C  -0.034151
  C300     1.0000 0.58340  0.51220  0.75600  Biso   1.000  C  -0.033213
  C301     1.0000 0.58050  0.83770  0.24070  Biso   1.000  C  -0.040807
  C302     1.0000 0.16230  0.74280  0.90737  Biso   1.000  C  -0.036413
  C303     1.0000 0.25720  0.41950  0.57403  Biso   1.000  C  -0.040675
  C304     1.0000 0.16230  0.41950  0.09263  Biso   1.000  C  -0.036413
  C305     1.0000 0.25720  0.83770  0.42597  Biso   1.000  C  -0.040678
  C306     1.0000 0.58050  0.74280  0.75930  Biso   1.000  C  -0.040806
  C307     1.0000 0.76500  0.05400  0.23480  Biso   1.000  C  0.643597
  C308     1.0000 0.94600  0.71100  0.90147  Biso   1.000  C  0.642660
  C309     1.0000 0.28900  0.23500  0.56813  Biso   1.000  C  0.643546
  C310     1.0000 0.94600  0.23500  0.09853  Biso   1.000  C  0.642661
  C311     1.0000 0.28900  0.05400  0.43187  Biso   1.000  C  0.643547
  C312     1.0000 0.76500  0.71100  0.76520  Biso   1.000  C  0.643595
  C313     1.0000 0.60910  0.04970  0.22520  Biso   1.000  C  0.631281
  C314     1.0000 0.95030  0.55940  0.89187  Biso   1.000  C  0.633207
  C315     1.0000 0.44060  0.39090  0.55853  Biso   1.000  C  0.632201
  C316     1.0000 0.95030  0.39090  0.10813  Biso   1.000  C  0.633206
  C317     1.0000 0.44060  0.04970  0.44147  Biso   1.000  C  0.632202
  C318     1.0000 0.60910  0.55940  0.77480  Biso   1.000  C  0.631281
  C319     1.0000 0.60700  0.88870  0.22230  Biso   1.000  C  0.678430
  C320     1.0000 0.11130  0.71830  0.88897  Biso   1.000  C  0.677063
  C321     1.0000 0.28170  0.39300  0.55563  Biso   1.000  C  0.678402
  C322     1.0000 0.11130  0.39300  0.11103  Biso   1.000  C  0.677065
  C323     1.0000 0.28170  0.88870  0.44437  Biso   1.000  C  0.678403
  C324     1.0000 0.60700  0.71830  0.77770  Biso   1.000  C  0.678429
  C325     1.0000 0.60930  0.56890  0.41870  Biso   1.000  C  0.622918
  C326     1.0000 0.43110  0.04040  0.08537  Biso   1.000  C  0.624181
  C327     1.0000 0.95960  0.39070  0.75203  Biso   1.000  C  0.621335
  C328     1.0000 0.43110  0.39070  0.91463  Biso   1.000  C  0.624183
  C329     1.0000 0.95960  0.56890  0.24797  Biso   1.000  C  0.621334
  C330     1.0000 0.60930  0.04040  0.58130  Biso   1.000  C  0.622918
  C331     1.0000 0.58860  0.52370  0.39520  Biso   1.000  C  -0.023644
  C332     1.0000 0.47630  0.06490  0.06187  Biso   1.000  C  -0.024923
  C333     1.0000 0.93510  0.41140  0.72853  Biso   1.000  C  -0.022661
  C334     1.0000 0.47630  0.41140  0.93813  Biso   1.000  C  -0.024925
  C335     1.0000 0.93510  0.52370  0.27147  Biso   1.000  C  -0.022660
  C336     1.0000 0.58860  0.06490  0.60480  Biso   1.000  C  -0.023644
  C337     1.0000 0.53860  0.49530  0.39120  Biso   1.000  C  -0.103591
  C338     1.0000 0.50470  0.04330  0.05787  Biso   1.000  C  -0.103065
  C339     1.0000 0.95670  0.46140  0.72453  Biso   1.000  C  -0.104841
  C340     1.0000 0.50470  0.46140  0.94213  Biso   1.000  C  -0.103060
  C341     1.0000 0.95670  0.49530  0.27547  Biso   1.000  C  -0.104842
  C342     1.0000 0.53860  0.04330  0.60880  Biso   1.000  C  -0.103593
  C343     1.0000 0.51990  0.45430  0.37050  Biso   1.000  C  -0.106133
  C344     1.0000 0.54570  0.06560  0.03717  Biso   1.000  C  -0.105380
  C345     1.0000 0.93440  0.48010  0.70383  Biso   1.000  C  -0.103918
  C346     1.0000 0.54570  0.48010  0.96283  Biso   1.000  C  -0.105382
  C347     1.0000 0.93440  0.45430  0.29617  Biso   1.000  C  -0.103917
  C348     1.0000 0.51990  0.06560  0.62950  Biso   1.000  C  -0.106132
  C349     1.0000 0.55050  0.44380  0.35200  Biso   1.000  C  0.136788
  C350     1.0000 0.55620  0.10670  0.01867  Biso   1.000  C  0.134970
  C351     1.0000 0.89330  0.44950  0.68533  Biso   1.000  C  0.134158
  C352     1.0000 0.55620  0.44950  0.98133  Biso   1.000  C  0.134967
  C353     1.0000 0.89330  0.44380  0.31467  Biso   1.000  C  0.134159
  C354     1.0000 0.55050  0.10670  0.64800  Biso   1.000  C  0.136789
  C355     1.0000 0.59980  0.47430  0.35620  Biso   1.000  C  -0.111069
  C356     1.0000 0.52570  0.12550  0.02287  Biso   1.000  C  -0.109159
  C357     1.0000 0.87450  0.40020  0.68953  Biso   1.000  C  -0.110084
  C358     1.0000 0.52570  0.40020  0.97713  Biso   1.000  C  -0.109153
  C359     1.0000 0.87450  0.47430  0.31047  Biso   1.000  C  -0.110089
  C360     1.0000 0.59980  0.12550  0.64380  Biso   1.000  C  -0.111071
  C361     1.0000 0.62030  0.51280  0.37870  Biso   1.000  C  -0.105175
  C362     1.0000 0.48720  0.10750  0.04537  Biso   1.000  C  -0.106557
  C363     1.0000 0.89250  0.37970  0.71203  Biso   1.000  C  -0.106427
  C364     1.0000 0.48720  0.37970  0.95463  Biso   1.000  C  -0.106559
  C365     1.0000 0.89250  0.51280  0.28797  Biso   1.000  C  -0.106425
  C366     1.0000 0.62030  0.10750  0.62130  Biso   1.000  C  -0.105173
  C367     1.0000 0.53230  0.40610  0.33210  Biso   1.000  C  -0.055298
  C368     1.0000 0.59390  0.12620  0.99877  Biso   1.000  C  -0.054848
  C369     1.0000 0.87380  0.46770  0.66543  Biso   1.000  C  -0.053755
  C370     1.0000 0.59390  0.46770  0.00123  Biso   1.000  C  -0.054851
  C371     1.0000 0.87380  0.40610  0.33457  Biso   1.000  C  -0.053753
  C372     1.0000 0.53230  0.12620  0.66790  Biso   1.000  C  -0.055296
  C373     1.0000 0.50790  0.36560  0.31090  Biso   1.000  C  -0.070218
  C374     1.0000 0.63440  0.14230  0.97757  Biso   1.000  C  -0.069100
  C375     1.0000 0.85770  0.49210  0.64423  Biso   1.000  C  -0.070016
  C376     1.0000 0.63440  0.49210  0.02243  Biso   1.000  C  -0.069098
  C377     1.0000 0.85770  0.36560  0.35577  Biso   1.000  C  -0.070015
  C378     1.0000 0.50790  0.14230  0.68910  Biso   1.000  C  -0.070222
  C379     1.0000 0.49530  0.32700  0.29470  Biso   1.000  C  -0.045822
  C380     1.0000 0.67300  0.16830  0.96137  Biso   1.000  C  -0.047430
  C381     1.0000 0.83170  0.50470  0.62803  Biso   1.000  C  -0.048373
  C382     1.0000 0.67300  0.50470  0.03863  Biso   1.000  C  -0.047430
  C383     1.0000 0.83170  0.32700  0.37197  Biso   1.000  C  -0.048373
  C384     1.0000 0.49530  0.16830  0.70530  Biso   1.000  C  -0.045822
  C385     1.0000 0.46770  0.28730  0.27690  Biso   1.000  C  -0.063361
  C386     1.0000 0.71270  0.18040  0.94357  Biso   1.000  C  -0.062972
  C387     1.0000 0.81960  0.53230  0.61023  Biso   1.000  C  -0.060116
  C388     1.0000 0.71270  0.53230  0.05643  Biso   1.000  C  -0.062970
  C389     1.0000 0.81960  0.28730  0.38977  Biso   1.000  C  -0.060114
  C390     1.0000 0.46770  0.18040  0.72310  Biso   1.000  C  -0.063366
  C391     1.0000 0.43990  0.24190  0.25620  Biso   1.000  C  0.134578
  C392     1.0000 0.75810  0.19800  0.92287  Biso   1.000  C  0.135641
  C393     1.0000 0.80200  0.56010  0.58953  Biso   1.000  C  0.133382
  C394     1.0000 0.75810  0.56010  0.07713  Biso   1.000  C  0.135645
  C395     1.0000 0.80200  0.24190  0.41047  Biso   1.000  C  0.133379
  C396     1.0000 0.43990  0.19800  0.74380  Biso   1.000  C  0.134577
  C397     1.0000 0.42800  0.23930  0.22360  Biso   1.000  C  -0.126558
  C398     1.0000 0.76070  0.18870  0.89027  Biso   1.000  C  -0.127711
  C399     1.0000 0.81130  0.57200  0.55693  Biso   1.000  C  -0.126705
  C400     1.0000 0.76070  0.57200  0.10973  Biso   1.000  C  -0.127722
  C401     1.0000 0.81130  0.23930  0.44307  Biso   1.000  C  -0.126698
  C402     1.0000 0.42800  0.18870  0.77640  Biso   1.000  C  -0.126553
  C403     1.0000 0.40430  0.19560  0.20470  Biso   1.000  C  -0.103088
  C404     1.0000 0.80440  0.20870  0.87137  Biso   1.000  C  -0.103761
  C405     1.0000 0.79130  0.59570  0.53803  Biso   1.000  C  -0.102307
  C406     1.0000 0.80440  0.59570  0.12863  Biso   1.000  C  -0.103754
  C407     1.0000 0.79130  0.19560  0.46197  Biso   1.000  C  -0.102317
  C408     1.0000 0.40430  0.20870  0.79530  Biso   1.000  C  -0.103086
  C409     1.0000 0.39930  0.15440  0.21960  Biso   1.000  C  -0.008304
  C410     1.0000 0.84560  0.24490  0.88627  Biso   1.000  C  -0.008558
  C411     1.0000 0.75510  0.60070  0.55293  Biso   1.000  C  -0.009204
  C412     1.0000 0.84560  0.60070  0.11373  Biso   1.000  C  -0.008557
  C413     1.0000 0.75510  0.15440  0.44707  Biso   1.000  C  -0.009206
  C414     1.0000 0.39930  0.24490  0.78040  Biso   1.000  C  -0.008302
  C415     1.0000 0.41200  0.15410  0.25400  Biso   1.000  C  -0.089159
  C416     1.0000 0.84590  0.25790  0.92067  Biso   1.000  C  -0.089196
  C417     1.0000 0.74210  0.58800  0.58733  Biso   1.000  C  -0.086862
  C418     1.0000 0.84590  0.58800  0.07933  Biso   1.000  C  -0.089195
  C419     1.0000 0.74210  0.15410  0.41267  Biso   1.000  C  -0.086863
  C420     1.0000 0.41200  0.25790  0.74600  Biso   1.000  C  -0.089161
  C421     1.0000 0.43490  0.19790  0.27200  Biso   1.000  C  -0.125665
  C422     1.0000 0.80210  0.23700  0.93867  Biso   1.000  C  -0.126744
  C423     1.0000 0.76300  0.56510  0.60533  Biso   1.000  C  -0.127591
  C424     1.0000 0.80210  0.56510  0.06133  Biso   1.000  C  -0.126743
  C425     1.0000 0.76300  0.19790  0.39467  Biso   1.000  C  -0.127589
  C426     1.0000 0.43490  0.23700  0.72800  Biso   1.000  C  -0.125665
  C427     1.0000 0.38130  0.10970  0.19570  Biso   1.000  C  0.534191
  C428     1.0000 0.89030  0.27160  0.86237  Biso   1.000  C  0.535705
  C429     1.0000 0.72840  0.61870  0.52903  Biso   1.000  C  0.533612
  C430     1.0000 0.89030  0.61870  0.13763  Biso   1.000  C  0.535705
  C431     1.0000 0.72840  0.10970  0.47097  Biso   1.000  C  0.533613
  C432     1.0000 0.38130  0.27160  0.80430  Biso   1.000  C  0.534190
  C433     1.0000 0.55950  0.61170  0.53230  Biso   1.000  C  0.595919
  C434     1.0000 0.38830  0.94780  0.19897  Biso   1.000  C  0.597066
  C435     1.0000 0.05220  0.44050  0.86563  Biso   1.000  C  0.595621
  C436     1.0000 0.38830  0.44050  0.80103  Biso   1.000  C  0.597071
  C437     1.0000 0.05220  0.61170  0.13437  Biso   1.000  C  0.595619
  C438     1.0000 0.55950  0.94780  0.46770  Biso   1.000  C  0.595917
  C439     1.0000 0.51450  0.58350  0.55570  Biso   1.000  C  -0.028273
  C440     1.0000 0.41650  0.93100  0.22237  Biso   1.000  C  -0.029340
  C441     1.0000 0.06900  0.48550  0.88903  Biso   1.000  C  -0.030639
  C442     1.0000 0.41650  0.48550  0.77763  Biso   1.000  C  -0.029341
  C443     1.0000 0.06900  0.58350  0.11097  Biso   1.000  C  -0.030638
  C444     1.0000 0.51450  0.93100  0.44430  Biso   1.000  C  -0.028273
  C445     1.0000 0.46900  0.54890  0.54400  Biso   1.000  C  -0.095514
  C446     1.0000 0.45110  0.92010  0.21067  Biso   1.000  C  -0.094596
  C447     1.0000 0.07990  0.53100  0.87733  Biso   1.000  C  -0.094648
  C448     1.0000 0.45110  0.53100  0.78933  Biso   1.000  C  -0.094601
  C449     1.0000 0.07990  0.54890  0.12267  Biso   1.000  C  -0.094648
  C450     1.0000 0.46900  0.92010  0.45600  Biso   1.000  C  -0.095508
  C451     1.0000 0.42930  0.52890  0.56510  Biso   1.000  C  -0.113728
  C452     1.0000 0.47110  0.90040  0.23177  Biso   1.000  C  -0.115232
  C453     1.0000 0.09960  0.57070  0.89843  Biso   1.000  C  -0.113280
  C454     1.0000 0.47110  0.57070  0.76823  Biso   1.000  C  -0.115230
  C455     1.0000 0.09960  0.52890  0.10157  Biso   1.000  C  -0.113284
  C456     1.0000 0.42930  0.90040  0.43490  Biso   1.000  C  -0.113723
  C457     1.0000 0.43350  0.54130  0.59790  Biso   1.000  C  0.148783
  C458     1.0000 0.45870  0.89220  0.26457  Biso   1.000  C  0.149392
  C459     1.0000 0.10780  0.56650  0.93123  Biso   1.000  C  0.147875
  C460     1.0000 0.45870  0.56650  0.73543  Biso   1.000  C  0.149391
  C461     1.0000 0.10780  0.54130  0.06877  Biso   1.000  C  0.147876
  C462     1.0000 0.43350  0.89220  0.40210  Biso   1.000  C  0.148784
  C463     1.0000 0.47990  0.57840  0.61030  Biso   1.000  C  -0.122996
  C464     1.0000 0.42160  0.90150  0.27697  Biso   1.000  C  -0.124276
  C465     1.0000 0.09850  0.52010  0.94363  Biso   1.000  C  -0.123233
  C466     1.0000 0.42160  0.52010  0.72303  Biso   1.000  C  -0.124277
  C467     1.0000 0.09850  0.57840  0.05637  Biso   1.000  C  -0.123232
  C468     1.0000 0.47990  0.90150  0.38970  Biso   1.000  C  -0.122998
  C469     1.0000 0.52020  0.59790  0.58980  Biso   1.000  C  -0.112124
  C470     1.0000 0.40210  0.92230  0.25647  Biso   1.000  C  -0.108782
  C471     1.0000 0.07770  0.47980  0.92313  Biso   1.000  C  -0.108705
  C472     1.0000 0.40210  0.47980  0.74353  Biso   1.000  C  -0.108782
  C473     1.0000 0.07770  0.59790  0.07687  Biso   1.000  C  -0.108706
  C474     1.0000 0.52020  0.92230  0.41020  Biso   1.000  C  -0.112123
  C475     1.0000 0.39210  0.51720  0.61820  Biso   1.000  C  -0.087167
  C476     1.0000 0.48280  0.87490  0.28487  Biso   1.000  C  -0.086465
  C477     1.0000 0.12510  0.60790  0.95153  Biso   1.000  C  -0.088128
  C478     1.0000 0.48280  0.60790  0.71513  Biso   1.000  C  -0.086462
  C479     1.0000 0.12510  0.51720  0.04847  Biso   1.000  C  -0.088130
  C480     1.0000 0.39210  0.87490  0.38180  Biso   1.000  C  -0.087169
  C481     1.0000 0.35320  0.49960  0.63890  Biso   1.000  C  -0.064106
  C482     1.0000 0.50040  0.85360  0.30557  Biso   1.000  C  -0.065068
  C483     1.0000 0.14640  0.64680  0.97223  Biso   1.000  C  -0.063187
  C484     1.0000 0.50040  0.64680  0.69443  Biso   1.000  C  -0.065065
  C485     1.0000 0.14640  0.49960  0.02777  Biso   1.000  C  -0.063188
  C486     1.0000 0.35320  0.85360  0.36110  Biso   1.000  C  -0.064108
  C487     1.0000 0.31510  0.48260  0.66020  Biso   1.000  C  -0.028105
  C488     1.0000 0.51740  0.83250  0.32687  Biso   1.000  C  -0.027158
  C489     1.0000 0.16750  0.68490  0.99353  Biso   1.000  C  -0.027033
  C490     1.0000 0.51740  0.68490  0.67313  Biso   1.000  C  -0.027160
  C491     1.0000 0.16750  0.48260  0.00647  Biso   1.000  C  -0.027030
  C492     1.0000 0.31510  0.83250  0.33980  Biso   1.000  C  -0.028105
  C493     1.0000 0.28470  0.46470  0.68160  Biso   1.000  C  -0.059176
  C494     1.0000 0.53530  0.82000  0.34827  Biso   1.000  C  -0.059994
  C495     1.0000 0.18000  0.71530  0.01493  Biso   1.000  C  -0.060463
  C496     1.0000 0.53530  0.71530  0.65173  Biso   1.000  C  -0.059996
  C497     1.0000 0.18000  0.46470  0.98507  Biso   1.000  C  -0.060460
  C498     1.0000 0.28470  0.82000  0.31840  Biso   1.000  C  -0.059177
  C499     1.0000 0.23900  0.43860  0.70000  Biso   1.000  C  0.145728
  C500     1.0000 0.56140  0.80040  0.36667  Biso   1.000  C  0.146798
  C501     1.0000 0.19960  0.76100  0.03333  Biso   1.000  C  0.146487
  C502     1.0000 0.56140  0.76100  0.63333  Biso   1.000  C  0.146795
  C503     1.0000 0.19960  0.43860  0.96667  Biso   1.000  C  0.146488
  C504     1.0000 0.23900  0.80040  0.30000  Biso   1.000  C  0.145730
  C505     1.0000 0.22420  0.47040  0.71390  Biso   1.000  C  -0.135798
  C506     1.0000 0.52960  0.75380  0.38057  Biso   1.000  C  -0.136871
  C507     1.0000 0.24620  0.77580  0.04723  Biso   1.000  C  -0.136382
  C508     1.0000 0.52960  0.77580  0.61943  Biso   1.000  C  -0.136862
  C509     1.0000 0.24620  0.47040  0.95277  Biso   1.000  C  -0.136387
  C510     1.0000 0.22420  0.75380  0.28610  Biso   1.000  C  -0.135802
  C511     1.0000 0.18290  0.45190  0.73550  Biso   1.000  C  -0.109196
  C512     1.0000 0.54810  0.73100  0.40217  Biso   1.000  C  -0.108771
  C513     1.0000 0.26900  0.81710  0.06883  Biso   1.000  C  -0.108864
  C514     1.0000 0.54810  0.81710  0.59783  Biso   1.000  C  -0.108770
  C515     1.0000 0.26900  0.45190  0.93117  Biso   1.000  C  -0.108863
  C516     1.0000 0.18290  0.73100  0.26450  Biso   1.000  C  -0.109198
  C517     1.0000 0.15640  0.40170  0.74350  Biso   1.000  C  -0.047636
  C518     1.0000 0.59830  0.75470  0.41017  Biso   1.000  C  -0.045616
  C519     1.0000 0.24530  0.84360  0.07683  Biso   1.000  C  -0.046301
  C520     1.0000 0.59830  0.84360  0.58983  Biso   1.000  C  -0.045598
  C521     1.0000 0.24530  0.40170  0.92317  Biso   1.000  C  -0.046300
  C522     1.0000 0.15640  0.75470  0.25650  Biso   1.000  C  -0.047637
  C523     1.0000 0.17300  0.37100  0.72900  Biso   1.000  C  -0.099409
  C524     1.0000 0.62900  0.80200  0.39567  Biso   1.000  C  -0.102507
  C525     1.0000 0.19800  0.82700  0.06233  Biso   1.000  C  -0.101221
  C526     1.0000 0.62900  0.82700  0.60433  Biso   1.000  C  -0.102528
  C527     1.0000 0.19800  0.37100  0.93767  Biso   1.000  C  -0.101223
  C528     1.0000 0.17300  0.80200  0.27100  Biso   1.000  C  -0.099406
  C529     1.0000 0.21400  0.39110  0.70810  Biso   1.000  C  -0.141762
  C530     1.0000 0.60890  0.82290  0.37477  Biso   1.000  C  -0.139636
  C531     1.0000 0.17710  0.78600  0.04143  Biso   1.000  C  -0.140125
  C532     1.0000 0.60890  0.78600  0.62523  Biso   1.000  C  -0.139634
  C533     1.0000 0.17710  0.39110  0.95857  Biso   1.000  C  -0.140125
  C534     1.0000 0.21400  0.82290  0.29190  Biso   1.000  C  -0.141761
  C535     1.0000 0.10740  0.38150  0.76360  Biso   1.000  C  0.637872
  C536     1.0000 0.61850  0.72590  0.43027  Biso   1.000  C  0.637809
  C537     1.0000 0.27410  0.89260  0.09693  Biso   1.000  C  0.636052
  C538     1.0000 0.61850  0.89260  0.56973  Biso   1.000  C  0.637808
  C539     1.0000 0.27410  0.38150  0.90307  Biso   1.000  C  0.636051
  C540     1.0000 0.10740  0.72590  0.23640  Biso   1.000  C  0.637872
  C541     1.0000 0.77990  0.72950  0.43250  Biso   1.000  C  0.631461
  C542     1.0000 0.27050  0.05040  0.09917  Biso   1.000  C  0.633647
  C543     1.0000 0.94960  0.22010  0.76583  Biso   1.000  C  0.631294
  C544     1.0000 0.27050  0.22010  0.90083  Biso   1.000  C  0.633648
  C545     1.0000 0.94960  0.72950  0.23417  Biso   1.000  C  0.631294
  C546     1.0000 0.77990  0.05040  0.56750  Biso   1.000  C  0.631460
  C547     1.0000 0.83050  0.75470  0.41530  Biso   1.000  C  -0.031976
  C548     1.0000 0.24530  0.07580  0.08197  Biso   1.000  C  -0.030444
  C549     1.0000 0.92420  0.16950  0.74863  Biso   1.000  C  -0.031641
  C550     1.0000 0.24530  0.16950  0.91803  Biso   1.000  C  -0.030448
  C551     1.0000 0.92420  0.75470  0.25137  Biso   1.000  C  -0.031639
  C552     1.0000 0.83050  0.07580  0.58470  Biso   1.000  C  -0.031974
  C553     1.0000 0.84080  0.72670  0.39440  Biso   1.000  C  -0.113785
  C554     1.0000 0.27330  0.11410  0.06107  Biso   1.000  C  -0.116629
  C555     1.0000 0.88590  0.15920  0.72773  Biso   1.000  C  -0.114078
  C556     1.0000 0.27330  0.15920  0.93893  Biso   1.000  C  -0.116630
  C557     1.0000 0.88590  0.72670  0.27227  Biso   1.000  C  -0.114083
  C558     1.0000 0.84080  0.11410  0.60560  Biso   1.000  C  -0.113778
  C559     1.0000 0.88350  0.74670  0.37600  Biso   1.000  C  -0.130745
  C560     1.0000 0.25330  0.13680  0.04267  Biso   1.000  C  -0.129422
  C561     1.0000 0.86320  0.11650  0.70933  Biso   1.000  C  -0.131535
  C562     1.0000 0.25330  0.11650  0.95733  Biso   1.000  C  -0.129423
  C563     1.0000 0.86320  0.74670  0.29067  Biso   1.000  C  -0.131532
  C564     1.0000 0.88350  0.13680  0.62400  Biso   1.000  C  -0.130749
  C565     1.0000 0.91890  0.79810  0.37640  Biso   1.000  C  0.144348
  C566     1.0000 0.20190  0.12080  0.04307  Biso   1.000  C  0.143893
  C567     1.0000 0.87920  0.08110  0.70973  Biso   1.000  C  0.145944
  C568     1.0000 0.20190  0.08110  0.95693  Biso   1.000  C  0.143893
  C569     1.0000 0.87920  0.79810  0.29027  Biso   1.000  C  0.145946
  C570     1.0000 0.91890  0.12080  0.62360  Biso   1.000  C  0.144345
  C571     1.0000 0.90540  0.82440  0.39660  Biso   1.000  C  -0.137696
  C572     1.0000 0.17560  0.08100  0.06327  Biso   1.000  C  -0.136765
  C573     1.0000 0.91900  0.09460  0.72993  Biso   1.000  C  -0.138620
  C574     1.0000 0.17560  0.09460  0.93673  Biso   1.000  C  -0.136755
  C575     1.0000 0.91900  0.82440  0.27007  Biso   1.000  C  -0.138622
  C576     1.0000 0.90540  0.08100  0.60340  Biso   1.000  C  -0.137703
  C577     1.0000 0.86270  0.80560  0.41530  Biso   1.000  C  -0.098092
  C578     1.0000 0.19440  0.05710  0.08197  Biso   1.000  C  -0.100454
  C579     1.0000 0.94290  0.13730  0.74863  Biso   1.000  C  -0.097399
  C580     1.0000 0.19440  0.13730  0.91803  Biso   1.000  C  -0.100454
  C581     1.0000 0.94290  0.80560  0.25137  Biso   1.000  C  -0.097400
  C582     1.0000 0.86270  0.05710  0.58470  Biso   1.000  C  -0.098091
  C583     1.0000 0.96040  0.81880  0.35830  Biso   1.000  C  -0.049622
  C584     1.0000 0.18120  0.14160  0.02497  Biso   1.000  C  -0.050915
  C585     1.0000 0.85840  0.03960  0.69163  Biso   1.000  C  -0.050897
  C586     1.0000 0.18120  0.03960  0.97503  Biso   1.000  C  -0.050914
  C587     1.0000 0.85840  0.81880  0.30837  Biso   1.000  C  -0.050895
  C588     1.0000 0.96040  0.14160  0.64170  Biso   1.000  C  -0.049625
  C589     1.0000 0.98650  0.82160  0.33690  Biso   1.000  C  -0.017935
  C590     1.0000 0.17840  0.16490  0.00357  Biso   1.000  C  -0.015883
  C591     1.0000 0.83510  0.01350  0.67023  Biso   1.000  C  -0.017067
  C592     1.0000 0.17840  0.01350  0.99643  Biso   1.000  C  -0.015877
  C593     1.0000 0.83510  0.82160  0.32977  Biso   1.000  C  -0.017069
  C594     1.0000 0.98650  0.16490  0.66310  Biso   1.000  C  -0.017938
  C595     1.0000 0.03510  0.85080  0.31660  Biso   1.000  C  -0.076818
  C596     1.0000 0.14920  0.18430  0.98327  Biso   1.000  C  -0.079785
  C597     1.0000 0.81570  0.96490  0.64993  Biso   1.000  C  -0.077727
  C598     1.0000 0.14920  0.96490  0.01673  Biso   1.000  C  -0.079782
  C599     1.0000 0.81570  0.85080  0.35007  Biso   1.000  C  -0.077727
  C600     1.0000 0.03510  0.18430  0.68340  Biso   1.000  C  -0.076821
  C601     1.0000 0.07120  0.87090  0.29800  Biso   1.000  C  -0.087096
  C602     1.0000 0.12910  0.20030  0.96467  Biso   1.000  C  -0.084783
  C603     1.0000 0.79970  0.92880  0.63133  Biso   1.000  C  -0.086157
  C604     1.0000 0.12910  0.92880  0.03533  Biso   1.000  C  -0.084782
  C605     1.0000 0.79970  0.87090  0.36867  Biso   1.000  C  -0.086157
  C606     1.0000 0.07120  0.20030  0.70200  Biso   1.000  C  -0.087098
  C607     1.0000 0.11060  0.88880  0.27470  Biso   1.000  C  0.151722
  C608     1.0000 0.11120  0.22180  0.94137  Biso   1.000  C  0.150721
  C609     1.0000 0.77820  0.88940  0.60803  Biso   1.000  C  0.149628
  C610     1.0000 0.11120  0.88940  0.05863  Biso   1.000  C  0.150726
  C611     1.0000 0.77820  0.88880  0.39197  Biso   1.000  C  0.149626
  C612     1.0000 0.11060  0.22180  0.72530  Biso   1.000  C  0.151718
  C613     1.0000 0.15760  0.92150  0.28430  Biso   1.000  C  -0.147920
  C614     1.0000 0.07850  0.23610  0.95097  Biso   1.000  C  -0.146812
  C615     1.0000 0.76390  0.84240  0.61763  Biso   1.000  C  -0.142443
  C616     1.0000 0.07850  0.84240  0.04903  Biso   1.000  C  -0.146816
  C617     1.0000 0.76390  0.92150  0.38237  Biso   1.000  C  -0.142439
  C618     1.0000 0.15760  0.23610  0.71570  Biso   1.000  C  -0.147920
  C619     1.0000 0.19660  0.93780  0.26190  Biso   1.000  C  -0.100354
  C620     1.0000 0.06220  0.25880  0.92857  Biso   1.000  C  -0.102493
  C621     1.0000 0.74120  0.80340  0.59523  Biso   1.000  C  -0.103350
  C622     1.0000 0.06220  0.80340  0.07143  Biso   1.000  C  -0.102493
  C623     1.0000 0.74120  0.93780  0.40477  Biso   1.000  C  -0.103352
  C624     1.0000 0.19660  0.25880  0.73810  Biso   1.000  C  -0.100351
  C625     1.0000 0.18810  0.91950  0.22870  Biso   1.000  C  -0.028702
  C626     1.0000 0.08050  0.26860  0.89537  Biso   1.000  C  -0.025537
  C627     1.0000 0.73140  0.81190  0.56203  Biso   1.000  C  -0.026407
  C628     1.0000 0.08050  0.81190  0.10463  Biso   1.000  C  -0.025538
  C629     1.0000 0.73140  0.91950  0.43797  Biso   1.000  C  -0.026408
  C630     1.0000 0.18810  0.26860  0.77130  Biso   1.000  C  -0.028701
  C631     1.0000 0.14280  0.88710  0.21920  Biso   1.000  C  -0.097359
  C632     1.0000 0.11290  0.25570  0.88587  Biso   1.000  C  -0.100018
  C633     1.0000 0.74430  0.85720  0.55253  Biso   1.000  C  -0.100079
  C634     1.0000 0.11290  0.85720  0.11413  Biso   1.000  C  -0.100022
  C635     1.0000 0.74430  0.88710  0.44747  Biso   1.000  C  -0.100080
  C636     1.0000 0.14280  0.25570  0.78080  Biso   1.000  C  -0.097353
  C637     1.0000 0.10230  0.86810  0.24160  Biso   1.000  C  -0.126361
  C638     1.0000 0.13190  0.23420  0.90827  Biso   1.000  C  -0.125336
  C639     1.0000 0.76580  0.89770  0.57493  Biso   1.000  C  -0.126240
  C640     1.0000 0.13190  0.89770  0.09173  Biso   1.000  C  -0.125343
  C641     1.0000 0.76580  0.86810  0.42507  Biso   1.000  C  -0.126242
  C642     1.0000 0.10230  0.23420  0.75840  Biso   1.000  C  -0.126354
  C643     1.0000 0.22920  0.94820  0.20300  Biso   1.000  C  0.620666
  C644     1.0000 0.05180  0.28100  0.86967  Biso   1.000  C  0.619846
  C645     1.0000 0.71900  0.77080  0.53633  Biso   1.000  C  0.621182
  C646     1.0000 0.05180  0.77080  0.13033  Biso   1.000  C  0.619848
  C647     1.0000 0.71900  0.94820  0.46367  Biso   1.000  C  0.621184
  C648     1.0000 0.22920  0.28100  0.79700  Biso   1.000  C  0.620662
  H1       1.0000 0.14320  0.27050  0.47200  Biso   1.000  H  0.140024
  H2       1.0000 0.72950  0.87270  0.13867  Biso   1.000  H  0.138877
  H3       1.0000 0.12730  0.85680  0.80533  Biso   1.000  H  0.138790
  H4       1.0000 0.72950  0.85680  0.86133  Biso   1.000  H  0.138873
  H5       1.0000 0.12730  0.27050  0.19467  Biso   1.000  H  0.138791
  H6       1.0000 0.14320  0.87270  0.52800  Biso   1.000  H  0.140027
  H7       1.0000 0.20510  0.24680  0.38890  Biso   1.000  H  0.135081
  H8       1.0000 0.75320  0.95830  0.05557  Biso   1.000  H  0.135100
  H9       1.0000 0.04170  0.79490  0.72223  Biso   1.000  H  0.135827
  H10      1.0000 0.75320  0.79490  0.94443  Biso   1.000  H  0.135100
  H11      1.0000 0.04170  0.24680  0.27777  Biso   1.000  H  0.135826
  H12      1.0000 0.20510  0.95830  0.61110  Biso   1.000  H  0.135081
  H13      1.0000 0.40840  0.29040  0.39050  Biso   1.000  H  0.119624
  H14      1.0000 0.70960  0.11800  0.05717  Biso   1.000  H  0.119012
  H15      1.0000 0.88200  0.59160  0.72383  Biso   1.000  H  0.117563
  H16      1.0000 0.70960  0.59160  0.94283  Biso   1.000  H  0.119012
  H17      1.0000 0.88200  0.29040  0.27617  Biso   1.000  H  0.117562
  H18      1.0000 0.40840  0.11800  0.60950  Biso   1.000  H  0.119626
  H19      1.0000 0.40080  0.20020  0.46640  Biso   1.000  H  0.120604
  H20      1.0000 0.79980  0.20060  0.13307  Biso   1.000  H  0.119456
  H21      1.0000 0.79940  0.59920  0.79973  Biso   1.000  H  0.120981
  H22      1.0000 0.79980  0.59920  0.86693  Biso   1.000  H  0.119456
  H23      1.0000 0.79940  0.20020  0.20027  Biso   1.000  H  0.120980
  H24      1.0000 0.40080  0.20060  0.53360  Biso   1.000  H  0.120605
  H25      1.0000 0.37450  0.44050  0.38550  Biso   1.000  H  0.119393
  H26      1.0000 0.55950  0.93400  0.05217  Biso   1.000  H  0.119162
  H27      1.0000 0.06600  0.62550  0.71883  Biso   1.000  H  0.119786
  H28      1.0000 0.55950  0.62550  0.94783  Biso   1.000  H  0.119164
  H29      1.0000 0.06600  0.44050  0.28117  Biso   1.000  H  0.119788
  H30      1.0000 0.37450  0.93400  0.61450  Biso   1.000  H  0.119390
  H31      1.0000 0.45850  0.53250  0.45840  Biso   1.000  H  0.114318
  H32      1.0000 0.46750  0.92600  0.12507  Biso   1.000  H  0.113892
  H33      1.0000 0.07400  0.54150  0.79173  Biso   1.000  H  0.112306
  H34      1.0000 0.46750  0.54150  0.87493  Biso   1.000  H  0.113891
  H35      1.0000 0.07400  0.53250  0.20827  Biso   1.000  H  0.112307
  H36      1.0000 0.45850  0.92600  0.54160  Biso   1.000  H  0.114318
  H37      1.0000 0.06850  0.23410  0.44220  Biso   1.000  H  0.111498
  H38      1.0000 0.76590  0.83440  0.10887  Biso   1.000  H  0.110979
  H39      1.0000 0.16560  0.93150  0.77553  Biso   1.000  H  0.110844
  H40      1.0000 0.76590  0.93150  0.89113  Biso   1.000  H  0.110977
  H41      1.0000 0.16560  0.23410  0.22447  Biso   1.000  H  0.110844
  H42      1.0000 0.06850  0.83440  0.55780  Biso   1.000  H  0.111499
  H43      1.0000 0.12860  0.20890  0.36110  Biso   1.000  H  0.111351
  H44      1.0000 0.79110  0.91970  0.02777  Biso   1.000  H  0.110943
  H45      1.0000 0.08030  0.87140  0.69443  Biso   1.000  H  0.110529
  H46      1.0000 0.79110  0.87140  0.97223  Biso   1.000  H  0.110942
  H47      1.0000 0.08030  0.20890  0.30557  Biso   1.000  H  0.110529
  H48      1.0000 0.12860  0.91970  0.63890  Biso   1.000  H  0.111352
  H49      1.0000 0.45060  0.26210  0.35710  Biso   1.000  H  0.120755
  H50      1.0000 0.73790  0.18850  0.02377  Biso   1.000  H  0.122165
  H51      1.0000 0.81150  0.54940  0.69043  Biso   1.000  H  0.121488
  H52      1.0000 0.73790  0.54940  0.97623  Biso   1.000  H  0.122165
  H53      1.0000 0.81150  0.26210  0.30957  Biso   1.000  H  0.121489
  H54      1.0000 0.45060  0.18850  0.64290  Biso   1.000  H  0.120755
  H55      1.0000 0.43270  0.16530  0.43050  Biso   1.000  H  0.125305
  H56      1.0000 0.83470  0.26740  0.09717  Biso   1.000  H  0.123561
  H57      1.0000 0.73260  0.56730  0.76383  Biso   1.000  H  0.125457
  H58      1.0000 0.83470  0.56730  0.90283  Biso   1.000  H  0.123563
  H59      1.0000 0.73260  0.16530  0.23617  Biso   1.000  H  0.125455
  H60      1.0000 0.43270  0.26740  0.56950  Biso   1.000  H  0.125306
  H61      1.0000 0.40210  0.50700  0.34900  Biso   1.000  H  0.116042
  H62      1.0000 0.49300  0.89510  0.01567  Biso   1.000  H  0.116415
  H63      1.0000 0.10490  0.59790  0.68233  Biso   1.000  H  0.117154
  H64      1.0000 0.49300  0.59790  0.98433  Biso   1.000  H  0.116419
  H65      1.0000 0.10490  0.50700  0.31767  Biso   1.000  H  0.117150
  H66      1.0000 0.40210  0.89510  0.65100  Biso   1.000  H  0.116040
  H67      1.0000 0.49400  0.59550  0.42180  Biso   1.000  H  0.121469
  H68      1.0000 0.40450  0.89850  0.08847  Biso   1.000  H  0.120999
  H69      1.0000 0.10150  0.50600  0.75513  Biso   1.000  H  0.120992
  H70      1.0000 0.40450  0.50600  0.91153  Biso   1.000  H  0.120998
  H71      1.0000 0.10150  0.59550  0.24487  Biso   1.000  H  0.120992
  H72      1.0000 0.49400  0.89850  0.57820  Biso   1.000  H  0.121472
  H73      1.0000 0.86510  0.04180  0.31040  Biso   1.000  H  0.118573
  H74      1.0000 0.95820  0.82330  0.97707  Biso   1.000  H  0.118138
  H75      1.0000 0.17670  0.13490  0.64373  Biso   1.000  H  0.118401
  H76      1.0000 0.95820  0.13490  0.02293  Biso   1.000  H  0.118135
  H77      1.0000 0.17670  0.04180  0.35627  Biso   1.000  H  0.118402
  H78      1.0000 0.86510  0.82330  0.68960  Biso   1.000  H  0.118574
  H79      1.0000 0.89410  0.17710  0.28980  Biso   1.000  H  0.114897
  H80      1.0000 0.82290  0.71700  0.95647  Biso   1.000  H  0.115517
  H81      1.0000 0.28300  0.10590  0.62313  Biso   1.000  H  0.114951
  H82      1.0000 0.82290  0.10590  0.04353  Biso   1.000  H  0.115517
  H83      1.0000 0.28300  0.17710  0.37687  Biso   1.000  H  0.114951
  H84      1.0000 0.89410  0.71700  0.71020  Biso   1.000  H  0.114897
  H85      1.0000 0.60160  0.17570  0.27500  Biso   1.000  H  0.135963
  H86      1.0000 0.82430  0.42590  0.94167  Biso   1.000  H  0.135392
  H87      1.0000 0.57410  0.39840  0.60833  Biso   1.000  H  0.134587
  H88      1.0000 0.82430  0.39840  0.05833  Biso   1.000  H  0.135395
  H89      1.0000 0.57410  0.17570  0.39167  Biso   1.000  H  0.134586
  H90      1.0000 0.60160  0.42590  0.72500  Biso   1.000  H  0.135961
  H91      1.0000 0.48300  0.03980  0.28760  Biso   1.000  H  0.131159
  H92      1.0000 0.96020  0.44320  0.95427  Biso   1.000  H  0.130815
  H93      1.0000 0.55680  0.51700  0.62093  Biso   1.000  H  0.131133
  H94      1.0000 0.96020  0.51700  0.04573  Biso   1.000  H  0.130815
  H95      1.0000 0.55680  0.03980  0.37907  Biso   1.000  H  0.131133
  H96      1.0000 0.48300  0.44320  0.71240  Biso   1.000  H  0.131158
  H97      1.0000 0.60850  0.77880  0.29400  Biso   1.000  H  0.113435
  H98      1.0000 0.22120  0.82970  0.96067  Biso   1.000  H  0.114281
  H99      1.0000 0.17030  0.39150  0.62733  Biso   1.000  H  0.114479
  H100     1.0000 0.22120  0.39150  0.03933  Biso   1.000  H  0.114281
  H101     1.0000 0.17030  0.77880  0.37267  Biso   1.000  H  0.114477
  H102     1.0000 0.60850  0.82970  0.70600  Biso   1.000  H  0.113438
  H103     1.0000 0.47860  0.73970  0.25360  Biso   1.000  H  0.115428
  H104     1.0000 0.26030  0.73890  0.92027  Biso   1.000  H  0.115494
  H105     1.0000 0.26110  0.52140  0.58693  Biso   1.000  H  0.115299
  H106     1.0000 0.26030  0.52140  0.07973  Biso   1.000  H  0.115500
  H107     1.0000 0.26110  0.73970  0.41307  Biso   1.000  H  0.115293
  H108     1.0000 0.47860  0.73890  0.74640  Biso   1.000  H  0.115426
  H109     1.0000 0.79840  0.01210  0.27490  Biso   1.000  H  0.108140
  H110     1.0000 0.98790  0.78630  0.94157  Biso   1.000  H  0.109050
  H111     1.0000 0.21370  0.20160  0.60823  Biso   1.000  H  0.108211
  H112     1.0000 0.98790  0.20160  0.05843  Biso   1.000  H  0.109051
  H113     1.0000 0.21370  0.01210  0.39177  Biso   1.000  H  0.108208
  H114     1.0000 0.79840  0.78630  0.72510  Biso   1.000  H  0.108141
  H115     1.0000 0.82980  0.14700  0.25220  Biso   1.000  H  0.109361
  H116     1.0000 0.85300  0.68280  0.91887  Biso   1.000  H  0.110726
  H117     1.0000 0.31720  0.17020  0.58553  Biso   1.000  H  0.109664
  H118     1.0000 0.85300  0.17020  0.08113  Biso   1.000  H  0.110728
  H119     1.0000 0.31720  0.14700  0.41447  Biso   1.000  H  0.109665
  H120     1.0000 0.82980  0.68280  0.74780  Biso   1.000  H  0.109360
  H121     1.0000 0.63760  0.14010  0.24270  Biso   1.000  H  0.107753
  H122     1.0000 0.85990  0.49750  0.90937  Biso   1.000  H  0.107695
  H123     1.0000 0.50250  0.36240  0.57603  Biso   1.000  H  0.108122
  H124     1.0000 0.85990  0.36240  0.09063  Biso   1.000  H  0.107694
  H125     1.0000 0.50250  0.14010  0.42397  Biso   1.000  H  0.108121
  H126     1.0000 0.63760  0.49750  0.75730  Biso   1.000  H  0.107755
  H127     1.0000 0.51950  0.00690  0.25120  Biso   1.000  H  0.107935
  H128     1.0000 0.99310  0.51260  0.91787  Biso   1.000  H  0.106666
  H129     1.0000 0.48740  0.48050  0.58453  Biso   1.000  H  0.107374
  H130     1.0000 0.99310  0.48050  0.08213  Biso   1.000  H  0.106666
  H131     1.0000 0.48740  0.00690  0.41547  Biso   1.000  H  0.107373
  H132     1.0000 0.51950  0.51260  0.74880  Biso   1.000  H  0.107935
  H133     1.0000 0.64200  0.85050  0.26390  Biso   1.000  H  0.109743
  H134     1.0000 0.14950  0.79150  0.93057  Biso   1.000  H  0.110962
  H135     1.0000 0.20850  0.35800  0.59723  Biso   1.000  H  0.109989
  H136     1.0000 0.14950  0.35800  0.06943  Biso   1.000  H  0.110962
  H137     1.0000 0.20850  0.85050  0.40277  Biso   1.000  H  0.109990
  H138     1.0000 0.64200  0.79150  0.73610  Biso   1.000  H  0.109742
  H139     1.0000 0.51250  0.81360  0.22470  Biso   1.000  H  0.120564
  H140     1.0000 0.18640  0.69890  0.89137  Biso   1.000  H  0.120774
  H141     1.0000 0.30110  0.48750  0.55803  Biso   1.000  H  0.121503
  H142     1.0000 0.18640  0.48750  0.10863  Biso   1.000  H  0.120780
  H143     1.0000 0.30110  0.81360  0.44197  Biso   1.000  H  0.121503
  H144     1.0000 0.51250  0.69890  0.77530  Biso   1.000  H  0.120558
  H145     1.0000 0.51740  0.50360  0.40240  Biso   1.000  H  0.117482
  H146     1.0000 0.49640  0.01380  0.06907  Biso   1.000  H  0.118043
  H147     1.0000 0.98620  0.48260  0.73573  Biso   1.000  H  0.117902
  H148     1.0000 0.49640  0.48260  0.93093  Biso   1.000  H  0.118044
  H149     1.0000 0.98620  0.50360  0.26427  Biso   1.000  H  0.117903
  H150     1.0000 0.51740  0.01380  0.59760  Biso   1.000  H  0.117480
  H151     1.0000 0.48570  0.43330  0.36910  Biso   1.000  H  0.115236
  H152     1.0000 0.56670  0.05240  0.03577  Biso   1.000  H  0.114893
  H153     1.0000 0.94760  0.51430  0.70243  Biso   1.000  H  0.114610
  H154     1.0000 0.56670  0.51430  0.96423  Biso   1.000  H  0.114893
  H155     1.0000 0.94760  0.43330  0.29757  Biso   1.000  H  0.114610
  H156     1.0000 0.48570  0.05240  0.63090  Biso   1.000  H  0.115236
  H157     1.0000 0.62120  0.46870  0.34290  Biso   1.000  H  0.108601
  H158     1.0000 0.53130  0.15250  0.00957  Biso   1.000  H  0.107883
  H159     1.0000 0.84750  0.37880  0.67623  Biso   1.000  H  0.108478
  H160     1.0000 0.53130  0.37880  0.99043  Biso   1.000  H  0.107882
  H161     1.0000 0.84750  0.46870  0.32377  Biso   1.000  H  0.108477
  H162     1.0000 0.62120  0.15250  0.65710  Biso   1.000  H  0.108602
  H163     1.0000 0.65430  0.53060  0.38270  Biso   1.000  H  0.125496
  H164     1.0000 0.46940  0.12370  0.04937  Biso   1.000  H  0.126648
  H165     1.0000 0.87630  0.34570  0.71603  Biso   1.000  H  0.125851
  H166     1.0000 0.46940  0.34570  0.95063  Biso   1.000  H  0.126644
  H167     1.0000 0.87630  0.53060  0.28397  Biso   1.000  H  0.125854
  H168     1.0000 0.65430  0.12370  0.61730  Biso   1.000  H  0.125496
  H169     1.0000 0.43600  0.26880  0.21250  Biso   1.000  H  0.113558
  H170     1.0000 0.73120  0.16720  0.87917  Biso   1.000  H  0.114024
  H171     1.0000 0.83280  0.56400  0.54583  Biso   1.000  H  0.114392
  H172     1.0000 0.73120  0.56400  0.12083  Biso   1.000  H  0.114023
  H173     1.0000 0.83280  0.26880  0.45417  Biso   1.000  H  0.114393
  H174     1.0000 0.43600  0.16720  0.78750  Biso   1.000  H  0.113558
  H175     1.0000 0.39250  0.19490  0.18280  Biso   1.000  H  0.128240
  H176     1.0000 0.80510  0.19760  0.84947  Biso   1.000  H  0.128816
  H177     1.0000 0.80240  0.60750  0.51613  Biso   1.000  H  0.127425
  H178     1.0000 0.80510  0.60750  0.15053  Biso   1.000  H  0.128815
  H179     1.0000 0.80240  0.19490  0.48387  Biso   1.000  H  0.127426
  H180     1.0000 0.39250  0.19760  0.81720  Biso   1.000  H  0.128239
  H181     1.0000 0.40490  0.12450  0.26450  Biso   1.000  H  0.129822
  H182     1.0000 0.87550  0.28040  0.93117  Biso   1.000  H  0.130227
  H183     1.0000 0.71960  0.59510  0.59783  Biso   1.000  H  0.129226
  H184     1.0000 0.87550  0.59510  0.06883  Biso   1.000  H  0.130226
  H185     1.0000 0.71960  0.12450  0.40217  Biso   1.000  H  0.129226
  H186     1.0000 0.40490  0.28040  0.73550  Biso   1.000  H  0.129823
  H187     1.0000 0.44680  0.19910  0.29380  Biso   1.000  H  0.116117
  H188     1.0000 0.80090  0.24770  0.96047  Biso   1.000  H  0.116534
  H189     1.0000 0.75230  0.55320  0.62713  Biso   1.000  H  0.116446
  H190     1.0000 0.80090  0.55320  0.03953  Biso   1.000  H  0.116533
  H191     1.0000 0.75230  0.19910  0.37287  Biso   1.000  H  0.116447
  H192     1.0000 0.44680  0.24770  0.70620  Biso   1.000  H  0.116118
  H193     1.0000 0.46520  0.53890  0.52140  Biso   1.000  H  0.117587
  H194     1.0000 0.46110  0.92630  0.18807  Biso   1.000  H  0.116426
  H195     1.0000 0.07370  0.53480  0.85473  Biso   1.000  H  0.117624
  H196     1.0000 0.46110  0.53480  0.81193  Biso   1.000  H  0.116427
  H197     1.0000 0.07370  0.53890  0.14527  Biso   1.000  H  0.117622
  H198     1.0000 0.46520  0.92630  0.47860  Biso   1.000  H  0.117589
  H199     1.0000 0.39840  0.50600  0.55650  Biso   1.000  H  0.118841
  H200     1.0000 0.49400  0.89240  0.22317  Biso   1.000  H  0.119974
  H201     1.0000 0.10760  0.60160  0.88983  Biso   1.000  H  0.119317
  H202     1.0000 0.49400  0.60160  0.77683  Biso   1.000  H  0.119971
  H203     1.0000 0.10760  0.50600  0.11017  Biso   1.000  H  0.119316
  H204     1.0000 0.39840  0.89240  0.44350  Biso   1.000  H  0.118845
  H205     1.0000 0.48290  0.58950  0.63270  Biso   1.000  H  0.110894
  H206     1.0000 0.41050  0.89340  0.29937  Biso   1.000  H  0.110620
  H207     1.0000 0.10660  0.51710  0.96603  Biso   1.000  H  0.109933
  H208     1.0000 0.41050  0.51710  0.70063  Biso   1.000  H  0.110620
  H209     1.0000 0.10660  0.58950  0.03397  Biso   1.000  H  0.109933
  H210     1.0000 0.48290  0.89340  0.36730  Biso   1.000  H  0.110894
  H211     1.0000 0.55130  0.62050  0.59840  Biso   1.000  H  0.125787
  H212     1.0000 0.37950  0.93080  0.26507  Biso   1.000  H  0.124036
  H213     1.0000 0.06920  0.44870  0.93173  Biso   1.000  H  0.124688
  H214     1.0000 0.37950  0.44870  0.73493  Biso   1.000  H  0.124037
  H215     1.0000 0.06920  0.62050  0.06827  Biso   1.000  H  0.124688
  H216     1.0000 0.55130  0.93080  0.40160  Biso   1.000  H  0.125786
  H217     1.0000 0.24180  0.50410  0.70880  Biso   1.000  H  0.119036
  H218     1.0000 0.49590  0.73770  0.37547  Biso   1.000  H  0.118671
  H219     1.0000 0.26230  0.75820  0.04213  Biso   1.000  H  0.119308
  H220     1.0000 0.49590  0.75820  0.62453  Biso   1.000  H  0.118669
  H221     1.0000 0.26230  0.50410  0.95787  Biso   1.000  H  0.119307
  H222     1.0000 0.24180  0.73770  0.29120  Biso   1.000  H  0.119038
  H223     1.0000 0.17320  0.47340  0.74450  Biso   1.000  H  0.119498
  H224     1.0000 0.52660  0.69980  0.41117  Biso   1.000  H  0.118773
  H225     1.0000 0.30020  0.82680  0.07783  Biso   1.000  H  0.118561
  H226     1.0000 0.52660  0.82680  0.58883  Biso   1.000  H  0.118775
  H227     1.0000 0.30020  0.47340  0.92217  Biso   1.000  H  0.118559
  H228     1.0000 0.17320  0.69980  0.25550  Biso   1.000  H  0.119498
  H229     1.0000 0.15610  0.33710  0.73350  Biso   1.000  H  0.106828
  H230     1.0000 0.66290  0.81900  0.40017  Biso   1.000  H  0.107677
  H231     1.0000 0.18100  0.84390  0.06683  Biso   1.000  H  0.107138
  H232     1.0000 0.66290  0.84390  0.59983  Biso   1.000  H  0.107677
  H233     1.0000 0.18100  0.33710  0.93317  Biso   1.000  H  0.107137
  H234     1.0000 0.15610  0.81900  0.26650  Biso   1.000  H  0.106828
  H235     1.0000 0.22460  0.37020  0.69940  Biso   1.000  H  0.112301
  H236     1.0000 0.62980  0.85440  0.36607  Biso   1.000  H  0.111974
  H237     1.0000 0.14560  0.77540  0.03273  Biso   1.000  H  0.111662
  H238     1.0000 0.62980  0.77540  0.63393  Biso   1.000  H  0.111974
  H239     1.0000 0.14560  0.37020  0.96727  Biso   1.000  H  0.111662
  H240     1.0000 0.22460  0.85440  0.30060  Biso   1.000  H  0.112301
  H241     1.0000 0.81820  0.69290  0.39250  Biso   1.000  H  0.117609
  H242     1.0000 0.30710  0.12530  0.05917  Biso   1.000  H  0.119078
  H243     1.0000 0.87470  0.18180  0.72583  Biso   1.000  H  0.118049
  H244     1.0000 0.30710  0.18180  0.94083  Biso   1.000  H  0.119079
  H245     1.0000 0.87470  0.69290  0.27417  Biso   1.000  H  0.118047
  H246     1.0000 0.81820  0.12530  0.60750  Biso   1.000  H  0.117609
  H247     1.0000 0.88980  0.72580  0.36260  Biso   1.000  H  0.108569
  H248     1.0000 0.27420  0.16400  0.02927  Biso   1.000  H  0.108419
  H249     1.0000 0.83600  0.11020  0.69593  Biso   1.000  H  0.108878
  H250     1.0000 0.27420  0.11020  0.97073  Biso   1.000  H  0.108419
  H251     1.0000 0.83600  0.72580  0.30407  Biso   1.000  H  0.108874
  H252     1.0000 0.88980  0.16400  0.63740  Biso   1.000  H  0.108573
  H253     1.0000 0.92720  0.85840  0.39790  Biso   1.000  H  0.110961
  H254     1.0000 0.14160  0.06880  0.06457  Biso   1.000  H  0.110990
  H255     1.0000 0.93120  0.07280  0.73123  Biso   1.000  H  0.111196
  H256     1.0000 0.14160  0.07280  0.93543  Biso   1.000  H  0.110993
  H257     1.0000 0.93120  0.85840  0.26877  Biso   1.000  H  0.111192
  H258     1.0000 0.92720  0.06880  0.60210  Biso   1.000  H  0.110962
  H259     1.0000 0.85540  0.82660  0.42770  Biso   1.000  H  0.119966
  H260     1.0000 0.17340  0.02880  0.09437  Biso   1.000  H  0.120581
  H261     1.0000 0.97120  0.14460  0.76103  Biso   1.000  H  0.119293
  H262     1.0000 0.17340  0.14460  0.90563  Biso   1.000  H  0.120588
  H263     1.0000 0.97120  0.82660  0.23897  Biso   1.000  H  0.119290
  H264     1.0000 0.85540  0.02880  0.57230  Biso   1.000  H  0.119962
  H265     1.0000 0.16360  0.93330  0.30660  Biso   1.000  H  0.116997
  H266     1.0000 0.06670  0.23030  0.97327  Biso   1.000  H  0.116964
  H267     1.0000 0.76970  0.83640  0.63993  Biso   1.000  H  0.114358
  H268     1.0000 0.06670  0.83640  0.02673  Biso   1.000  H  0.116964
  H269     1.0000 0.76970  0.93330  0.36007  Biso   1.000  H  0.114358
  H270     1.0000 0.16360  0.23030  0.69340  Biso   1.000  H  0.116997
  H271     1.0000 0.22850  0.96100  0.26880  Biso   1.000  H  0.120481
  H272     1.0000 0.03900  0.26750  0.93547  Biso   1.000  H  0.120953
  H273     1.0000 0.73250  0.77150  0.60213  Biso   1.000  H  0.121014
  H274     1.0000 0.03900  0.77150  0.06453  Biso   1.000  H  0.120954
  H275     1.0000 0.73250  0.96100  0.39787  Biso   1.000  H  0.121014
  H276     1.0000 0.22850  0.26750  0.73120  Biso   1.000  H  0.120479
  H277     1.0000 0.13730  0.87640  0.19670  Biso   1.000  H  0.113659
  H278     1.0000 0.12360  0.26090  0.86337  Biso   1.000  H  0.114209
  H279     1.0000 0.73910  0.86270  0.53003  Biso   1.000  H  0.115273
  H280     1.0000 0.12360  0.86270  0.13663  Biso   1.000  H  0.114209
  H281     1.0000 0.73910  0.87640  0.46997  Biso   1.000  H  0.115272
  H282     1.0000 0.13730  0.26090  0.80330  Biso   1.000  H  0.113660
  H283     1.0000 0.07110  0.84280  0.23500  Biso   1.000  H  0.125002
  H284     1.0000 0.15720  0.22830  0.90167  Biso   1.000  H  0.124681
  H285     1.0000 0.77170  0.92890  0.56833  Biso   1.000  H  0.125344
  H286     1.0000 0.15720  0.92890  0.09833  Biso   1.000  H  0.124677
  H287     1.0000 0.77170  0.84280  0.43167  Biso   1.000  H  0.125345
  H288     1.0000 0.07110  0.22830  0.76500  Biso   1.000  H  0.125006
  O1       1.0000 0.33127  0.33239  0.50668  Biso   1.000  O  -1.032567
  O2       1.0000 0.66761  0.99888  0.17335  Biso   1.000  O  -1.032413
  O3       1.0000 0.00112  0.66873  0.84001  Biso   1.000  O  -1.032894
  O4       1.0000 0.66761  0.66873  0.82665  Biso   1.000  O  -1.032414
  O5       1.0000 0.00112  0.33239  0.15999  Biso   1.000  O  -1.032894
  O6       1.0000 0.33127  0.99888  0.49332  Biso   1.000  O  -1.032568
  O7       1.0000 0.26790  0.29600  0.43480  Biso   1.000  O  -0.536101
  O8       1.0000 0.70400  0.97190  0.10147  Biso   1.000  O  -0.536438
  O9       1.0000 0.02810  0.73210  0.76813  Biso   1.000  O  -0.535615
  O10      1.0000 0.70400  0.73210  0.89853  Biso   1.000  O  -0.536441
  O11      1.0000 0.02810  0.29600  0.23187  Biso   1.000  O  -0.535614
  O12      1.0000 0.26790  0.97190  0.56520  Biso   1.000  O  -0.536102
  O13      1.0000 0.36780  0.30010  0.44286  Biso   1.000  O  -0.518775
  O14      1.0000 0.69990  0.06770  0.10953  Biso   1.000  O  -0.519838
  O15      1.0000 0.93230  0.63220  0.77619  Biso   1.000  O  -0.519443
  O16      1.0000 0.69990  0.63220  0.89047  Biso   1.000  O  -0.519837
  O17      1.0000 0.93230  0.30010  0.22381  Biso   1.000  O  -0.519444
  O18      1.0000 0.36780  0.06770  0.55714  Biso   1.000  O  -0.518777
  O19      1.0000 0.36490  0.39659  0.43858  Biso   1.000  O  -0.570663
  O20      1.0000 0.60341  0.96831  0.10525  Biso   1.000  O  -0.570734
  O21      1.0000 0.03169  0.63510  0.77191  Biso   1.000  O  -0.569212
  O22      1.0000 0.60341  0.63510  0.89475  Biso   1.000  O  -0.570737
  O23      1.0000 0.03169  0.39659  0.22809  Biso   1.000  O  -0.569213
  O24      1.0000 0.36490  0.96831  0.56142  Biso   1.000  O  -0.570660
  O25      1.0000 0.21520  0.27300  0.49020  Biso   1.000  O  -0.452731
  O26      1.0000 0.72700  0.94220  0.15687  Biso   1.000  O  -0.451470
  O27      1.0000 0.05780  0.78480  0.82353  Biso   1.000  O  -0.452573
  O28      1.0000 0.72700  0.78480  0.84313  Biso   1.000  O  -0.451468
  O29      1.0000 0.05780  0.27300  0.17647  Biso   1.000  O  -0.452580
  O30      1.0000 0.21520  0.94220  0.50980  Biso   1.000  O  -0.452727
  O31      1.0000 0.26460  0.25490  0.56132  Biso   1.000  O  -0.578939
  O32      1.0000 0.74510  0.00970  0.22799  Biso   1.000  O  -0.578915
  O33      1.0000 0.99030  0.73540  0.89465  Biso   1.000  O  -0.579417
  O34      1.0000 0.74510  0.73540  0.77201  Biso   1.000  O  -0.578915
  O35      1.0000 0.99030  0.25490  0.10535  Biso   1.000  O  -0.579418
  O36      1.0000 0.26460  0.00970  0.43868  Biso   1.000  O  -0.578937
  O37      1.0000 0.26530  0.35360  0.55330  Biso   1.000  O  -0.512612
  O38      1.0000 0.64640  0.91170  0.21997  Biso   1.000  O  -0.512416
  O39      1.0000 0.08830  0.73470  0.88663  Biso   1.000  O  -0.512860
  O40      1.0000 0.64640  0.73470  0.78003  Biso   1.000  O  -0.512412
  O41      1.0000 0.08830  0.35360  0.11337  Biso   1.000  O  -0.512863
  O42      1.0000 0.26530  0.91170  0.44670  Biso   1.000  O  -0.512611
  O43      1.0000 0.38990  0.27209  0.48754  Biso   1.000  O  -0.581781
  O44      1.0000 0.72791  0.11781  0.15421  Biso   1.000  O  -0.581113
  O45      1.0000 0.88219  0.61010  0.82087  Biso   1.000  O  -0.581643
  O46      1.0000 0.72791  0.61010  0.84579  Biso   1.000  O  -0.581113
  O47      1.0000 0.88219  0.27209  0.17913  Biso   1.000  O  -0.581642
  O48      1.0000 0.38990  0.11781  0.51246  Biso   1.000  O  -0.581779
  O49      1.0000 0.33210  0.25170  0.55675  Biso   1.000  O  -0.545706
  O50      1.0000 0.74830  0.08040  0.22342  Biso   1.000  O  -0.546168
  O51      1.0000 0.91960  0.66790  0.89008  Biso   1.000  O  -0.546782
  O52      1.0000 0.74830  0.66790  0.77658  Biso   1.000  O  -0.546171
  O53      1.0000 0.91960  0.25170  0.10992  Biso   1.000  O  -0.546777
  O54      1.0000 0.33210  0.08040  0.44325  Biso   1.000  O  -0.545709
  O55      1.0000 0.42585  0.34688  0.54814  Biso   1.000  O  -0.584732
  O56      1.0000 0.65312  0.07897  0.21481  Biso   1.000  O  -0.584168
  O57      1.0000 0.92103  0.57415  0.88147  Biso   1.000  O  -0.584642
  O58      1.0000 0.65312  0.57415  0.78519  Biso   1.000  O  -0.584170
  O59      1.0000 0.92103  0.34688  0.11853  Biso   1.000  O  -0.584643
  O60      1.0000 0.42585  0.07897  0.45186  Biso   1.000  O  -0.584730
  O61      1.0000 0.39663  0.44693  0.48151  Biso   1.000  O  -0.539288
  O62      1.0000 0.55307  0.94970  0.14818  Biso   1.000  O  -0.538682
  O63      1.0000 0.05030  0.60337  0.81484  Biso   1.000  O  -0.540193
  O64      1.0000 0.55307  0.60337  0.85182  Biso   1.000  O  -0.538678
  O65      1.0000 0.05030  0.44693  0.18516  Biso   1.000  O  -0.540191
  O66      1.0000 0.39663  0.94970  0.51849  Biso   1.000  O  -0.539292
  O67      1.0000 0.42080  0.41410  0.55005  Biso   1.000  O  -0.538547
  O68      1.0000 0.58590  0.00670  0.21672  Biso   1.000  O  -0.538045
  O69      1.0000 0.99330  0.57920  0.88338  Biso   1.000  O  -0.539462
  O70      1.0000 0.58590  0.57920  0.78328  Biso   1.000  O  -0.538041
  O71      1.0000 0.99330  0.41410  0.11662  Biso   1.000  O  -0.539464
  O72      1.0000 0.42080  0.00670  0.44995  Biso   1.000  O  -0.538550
  O73      1.0000 0.32408  0.42290  0.54183  Biso   1.000  O  -0.636174
  O74      1.0000 0.57710  0.90118  0.20850  Biso   1.000  O  -0.636113
  O75      1.0000 0.09882  0.67592  0.87516  Biso   1.000  O  -0.635734
  O76      1.0000 0.57710  0.67592  0.79150  Biso   1.000  O  -0.636115
  O77      1.0000 0.09882  0.42290  0.12484  Biso   1.000  O  -0.635733
  O78      1.0000 0.32408  0.90118  0.45817  Biso   1.000  O  -0.636175
  O79      1.0000 0.66885  0.66754  0.47980  Biso   1.000  O  -1.025643
  O80      1.0000 0.33246  0.00131  0.14647  Biso   1.000  O  -1.025898
  O81      1.0000 0.99869  0.33115  0.81313  Biso   1.000  O  -1.026547
  O82      1.0000 0.33246  0.33115  0.85353  Biso   1.000  O  -1.025896
  O83      1.0000 0.99869  0.66754  0.18687  Biso   1.000  O  -1.026546
  O84      1.0000 0.66885  0.00131  0.52020  Biso   1.000  O  -1.025646
  O85      1.0000 0.58190  0.58051  0.43213  Biso   1.000  O  -0.503422
  O86      1.0000 0.41949  0.00139  0.09880  Biso   1.000  O  -0.504078
  O87      1.0000 0.99861  0.41810  0.76546  Biso   1.000  O  -0.502796
  O88      1.0000 0.41949  0.41810  0.90120  Biso   1.000  O  -0.504074
  O89      1.0000 0.99861  0.58051  0.23454  Biso   1.000  O  -0.502793
  O90      1.0000 0.58190  0.00139  0.56787  Biso   1.000  O  -0.503429
  O91      1.0000 0.65650  0.59490  0.42400  Biso   1.000  O  -0.626136
  O92      1.0000 0.40510  0.06160  0.09067  Biso   1.000  O  -0.626606
  O93      1.0000 0.93840  0.34350  0.75733  Biso   1.000  O  -0.625306
  O94      1.0000 0.40510  0.34350  0.90933  Biso   1.000  O  -0.626606
  O95      1.0000 0.93840  0.59490  0.24267  Biso   1.000  O  -0.625307
  O96      1.0000 0.65650  0.06160  0.57600  Biso   1.000  O  -0.626136
  O97      1.0000 0.38280  0.11620  0.16360  Biso   1.000  O  -0.491740
  O98      1.0000 0.88380  0.26660  0.83027  Biso   1.000  O  -0.492215
  O99      1.0000 0.73340  0.61720  0.49693  Biso   1.000  O  -0.491261
  O100     1.0000 0.88380  0.61720  0.16973  Biso   1.000  O  -0.492206
  O101     1.0000 0.73340  0.11620  0.50307  Biso   1.000  O  -0.491265
  O102     1.0000 0.38280  0.26660  0.83640  Biso   1.000  O  -0.491745
  O103     1.0000 0.37030  0.06920  0.21650  Biso   1.000  O  -0.520019
  O104     1.0000 0.93080  0.30110  0.88317  Biso   1.000  O  -0.520937
  O105     1.0000 0.69890  0.62970  0.54983  Biso   1.000  O  -0.520009
  O106     1.0000 0.93080  0.62970  0.11683  Biso   1.000  O  -0.520937
  O107     1.0000 0.69890  0.06920  0.45017  Biso   1.000  O  -0.520008
  O108     1.0000 0.37030  0.30110  0.78350  Biso   1.000  O  -0.520018
  O109     1.0000 0.55023  0.60773  0.50060  Biso   1.000  O  -0.545820
  O110     1.0000 0.39227  0.94250  0.16727  Biso   1.000  O  -0.546261
  O111     1.0000 0.05750  0.44977  0.83393  Biso   1.000  O  -0.545833
  O112     1.0000 0.39227  0.44977  0.83273  Biso   1.000  O  -0.546261
  O113     1.0000 0.05750  0.60773  0.16607  Biso   1.000  O  -0.545833
  O114     1.0000 0.55023  0.94250  0.49940  Biso   1.000  O  -0.545821
  O115     1.0000 0.60060  0.63400  0.54656  Biso   1.000  O  -0.526308
  O116     1.0000 0.36600  0.96660  0.21323  Biso   1.000  O  -0.526174
  O117     1.0000 0.03340  0.39940  0.87989  Biso   1.000  O  -0.525769
  O118     1.0000 0.36600  0.39940  0.78677  Biso   1.000  O  -0.526175
  O119     1.0000 0.03340  0.63400  0.12011  Biso   1.000  O  -0.525766
  O120     1.0000 0.60060  0.96660  0.45344  Biso   1.000  O  -0.526309
  O121     1.0000 0.09518  0.41232  0.77121  Biso   1.000  O  -0.556074
  O122     1.0000 0.58768  0.68286  0.43788  Biso   1.000  O  -0.556055
  O123     1.0000 0.31714  0.90482  0.10454  Biso   1.000  O  -0.555266
  O124     1.0000 0.58768  0.90482  0.56212  Biso   1.000  O  -0.556055
  O125     1.0000 0.31714  0.41232  0.89546  Biso   1.000  O  -0.555263
  O126     1.0000 0.09518  0.68286  0.22879  Biso   1.000  O  -0.556076
  O127     1.0000 0.08908  0.33895  0.77037  Biso   1.000  O  -0.524193
  O128     1.0000 0.66105  0.75013  0.43704  Biso   1.000  O  -0.524054
  O129     1.0000 0.24987  0.91092  0.10370  Biso   1.000  O  -0.522959
  O130     1.0000 0.66105  0.91092  0.56296  Biso   1.000  O  -0.524054
  O131     1.0000 0.24987  0.33895  0.89630  Biso   1.000  O  -0.522963
  O132     1.0000 0.08908  0.75013  0.22963  Biso   1.000  O  -0.524189
  O133     1.0000 0.75790  0.68560  0.43560  Biso   1.000  O  -0.539836
  O134     1.0000 0.31440  0.07230  0.10227  Biso   1.000  O  -0.541337
  O135     1.0000 0.92770  0.24210  0.76893  Biso   1.000  O  -0.539928
  O136     1.0000 0.31440  0.24210  0.89773  Biso   1.000  O  -0.541341
  O137     1.0000 0.92770  0.68560  0.23107  Biso   1.000  O  -0.539929
  O138     1.0000 0.75790  0.07230  0.56440  Biso   1.000  O  -0.539832
  O139     1.0000 0.76652  0.75880  0.44499  Biso   1.000  O  -0.574073
  O140     1.0000 0.24120  0.00772  0.11166  Biso   1.000  O  -0.574683
  O141     1.0000 0.99228  0.23348  0.77832  Biso   1.000  O  -0.573910
  O142     1.0000 0.24120  0.23348  0.88834  Biso   1.000  O  -0.574682
  O143     1.0000 0.99228  0.75880  0.22168  Biso   1.000  O  -0.573910
  O144     1.0000 0.76652  0.00772  0.55501  Biso   1.000  O  -0.574075
  O145     1.0000 0.27171  0.97443  0.21599  Biso   1.000  O  -0.567128
  O146     1.0000 0.02557  0.29728  0.88266  Biso   1.000  O  -0.568003
  O147     1.0000 0.70272  0.72829  0.54932  Biso   1.000  O  -0.568353
  O148     1.0000 0.02557  0.72829  0.11734  Biso   1.000  O  -0.568007
  O149     1.0000 0.70272  0.97443  0.45068  Biso   1.000  O  -0.568354
  O150     1.0000 0.27171  0.29728  0.78401  Biso   1.000  O  -0.567125
  O151     1.0000 0.21876  0.93740  0.17392  Biso   1.000  O  -0.512375
  O152     1.0000 0.06260  0.28136  0.84059  Biso   1.000  O  -0.511548
  O153     1.0000 0.71864  0.78124  0.50725  Biso   1.000  O  -0.512336
  O154     1.0000 0.06260  0.78124  0.15941  Biso   1.000  O  -0.511543
  O155     1.0000 0.71864  0.93740  0.49275  Biso   1.000  O  -0.512336
  O156     1.0000 0.21876  0.28136  0.82608  Biso   1.000  O  -0.512379
  Zn1      1.0000 0.32760  0.32781  0.45777  Biso   1.000  Zn  0.916401
  Zn2      1.0000 0.67219  0.99979  0.12444  Biso   1.000  Zn  0.917306
  Zn3      1.0000 0.00021  0.67240  0.79110  Biso   1.000  Zn  0.916017
  Zn4      1.0000 0.67219  0.67240  0.87556  Biso   1.000  Zn  0.917307
  Zn5      1.0000 0.00021  0.32781  0.20890  Biso   1.000  Zn  0.916023
  Zn6      1.0000 0.32760  0.99979  0.54223  Biso   1.000  Zn  0.916401
  Zn7      1.0000 0.26227  0.29772  0.52533  Biso   1.000  Zn  1.009367
  Zn8      1.0000 0.70228  0.96455  0.19200  Biso   1.000  Zn  1.008712
  Zn9      1.0000 0.03545  0.73773  0.85866  Biso   1.000  Zn  1.010059
  Zn10     1.0000 0.70228  0.73773  0.80800  Biso   1.000  Zn  1.008712
  Zn11     1.0000 0.03545  0.29772  0.14134  Biso   1.000  Zn  1.010060
  Zn12     1.0000 0.26227  0.96455  0.47467  Biso   1.000  Zn  1.009365
  Zn13     1.0000 0.36614  0.29935  0.52337  Biso   1.000  Zn  0.955133
  Zn14     1.0000 0.70065  0.06679  0.19004  Biso   1.000  Zn  0.954703
  Zn15     1.0000 0.93321  0.63386  0.85670  Biso   1.000  Zn  0.955548
  Zn16     1.0000 0.70065  0.63386  0.80996  Biso   1.000  Zn  0.954705
  Zn17     1.0000 0.93321  0.29935  0.14330  Biso   1.000  Zn  0.955553
  Zn18     1.0000 0.36614  0.06679  0.47663  Biso   1.000  Zn  0.955129
  Zn19     1.0000 0.36460  0.40031  0.52007  Biso   1.000  Zn  0.960847
  Zn20     1.0000 0.59969  0.96429  0.18674  Biso   1.000  Zn  0.960075
  Zn21     1.0000 0.03571  0.63540  0.85341  Biso   1.000  Zn  0.961343
  Zn22     1.0000 0.59969  0.63540  0.81326  Biso   1.000  Zn  0.960074
  Zn23     1.0000 0.03571  0.40031  0.14659  Biso   1.000  Zn  0.961340
  Zn24     1.0000 0.36460  0.96429  0.47993  Biso   1.000  Zn  0.960851
  Zn25     1.0000 0.60056  0.63475  0.46373  Biso   1.000  Zn  0.941085
  Zn26     1.0000 0.36525  0.96581  0.13040  Biso   1.000  Zn  0.941037
  Zn27     1.0000 0.03419  0.39944  0.79706  Biso   1.000  Zn  0.941928
  Zn28     1.0000 0.36525  0.39944  0.86960  Biso   1.000  Zn  0.941034
  Zn29     1.0000 0.03419  0.63475  0.20294  Biso   1.000  Zn  0.941931
  Zn30     1.0000 0.60056  0.96581  0.53627  Biso   1.000  Zn  0.941086
  Zn31     1.0000 0.70176  0.63183  0.46108  Biso   1.000  Zn  1.007375
  Zn32     1.0000 0.36817  0.06993  0.12775  Biso   1.000  Zn  1.008190
  Zn33     1.0000 0.93007  0.29824  0.79441  Biso   1.000  Zn  1.006998
  Zn34     1.0000 0.36817  0.29824  0.87225  Biso   1.000  Zn  1.008193
  Zn35     1.0000 0.93007  0.63183  0.20559  Biso   1.000  Zn  1.006993
  Zn36     1.0000 0.70176  0.06993  0.53892  Biso   1.000  Zn  1.007377
  Zn37     1.0000 0.66761  0.66209  0.52879  Biso   1.000  Zn  0.905618
  Zn38     1.0000 0.33791  0.00552  0.19546  Biso   1.000  Zn  0.905086
  Zn39     1.0000 0.99448  0.33239  0.86212  Biso   1.000  Zn  0.906066
  Zn40     1.0000 0.33791  0.33239  0.80454  Biso   1.000  Zn  0.905086
  Zn41     1.0000 0.99448  0.66209  0.13788  Biso   1.000  Zn  0.906067
  Zn42     1.0000 0.66761  0.00552  0.47121  Biso   1.000  Zn  0.905619
  Zn43     1.0000 0.70277  0.73531  0.46757  Biso   1.000  Zn  0.947705
  Zn44     1.0000 0.26469  0.96746  0.13424  Biso   1.000  Zn  0.947416
  Zn45     1.0000 0.03254  0.29723  0.80090  Biso   1.000  Zn  0.948297
  Zn46     1.0000 0.26469  0.29723  0.86576  Biso   1.000  Zn  0.947416
  Zn47     1.0000 0.03254  0.73531  0.19910  Biso   1.000  Zn  0.948292
  Zn48     1.0000 0.70277  0.96746  0.53243  Biso   1.000  Zn  0.947708
