data_image0
_cell_length_a       31.369
_cell_length_b       31.369
_cell_length_c       19.806
_cell_angle_alpha    90
_cell_angle_beta     90
_cell_angle_gamma    90

_symmetry_space_group_name_H-M    "P 1"
_symmetry_int_tables_number       1

loop_
  _symmetry_equiv_pos_as_xyz
  'x, y, z'

loop_
  _atom_site_label
  _atom_site_occupancy
  _atom_site_fract_x
  _atom_site_fract_y
  _atom_site_fract_z
  _atom_site_thermal_displace_type
  _atom_site_B_iso_or_equiv
  _atom_site_type_symbol
  _atom_site_charge
  C1       1.0000 0.68560  0.21500  0.58590  Biso   1.000  C  0.596765
  C2       1.0000 0.72110  0.20820  0.63270  Biso   1.000  C  -0.001554
  C3       1.0000 0.75030  0.23950  0.64400  Biso   1.000  C  -0.146530
  C4       1.0000 0.78560  0.23240  0.68950  Biso   1.000  C  0.145033
  C5       1.0000 0.78790  0.19250  0.72100  Biso   1.000  C  -0.174859
  C6       1.0000 0.75840  0.16180  0.71000  Biso   1.000  C  0.170252
  C7       1.0000 0.72620  0.16930  0.66550  Biso   1.000  C  -0.152748
  C8       1.0000 0.81580  0.26470  0.69970  Biso   1.000  C  -0.103892
  C9       1.0000 0.84070  0.29450  0.70870  Biso   1.000  C  -0.106565
  C10      1.0000 0.86750  0.32980  0.71890  Biso   1.000  C  0.156512
  C11      1.0000 0.88510  0.34010  0.78030  Biso   1.000  C  -0.133100
  C12      1.0000 0.91070  0.37340  0.78870  Biso   1.000  C  -0.086885
  C13      1.0000 0.91950  0.40080  0.73560  Biso   1.000  C  -0.024950
  C14      1.0000 0.94880  0.43690  0.74320  Biso   1.000  C  0.593124
  C15      1.0000 0.89960  0.39050  0.67300  Biso   1.000  C  -0.093405
  C16      1.0000 0.87490  0.35790  0.66340  Biso   1.000  C  -0.136668
  C17      1.0000 0.75960  0.12120  0.74720  Biso   1.000  C  -0.109831
  C18      1.0000 0.75750  0.08680  0.77140  Biso   1.000  C  -0.099754
  C19      1.0000 0.75360  0.04780  0.80560  Biso   1.000  C  0.171609
  C20      1.0000 0.71420  0.03510  0.81990  Biso   1.000  C  -0.131500
  C21      1.0000 0.70590  0.99880  0.85490  Biso   1.000  C  -0.107970
  C22      1.0000 0.74090  0.97160  0.87490  Biso   1.000  C  -0.014424
  C23      1.0000 0.73200  0.93220  0.91610  Biso   1.000  C  0.586357
  C24      1.0000 0.77900  0.98620  0.86140  Biso   1.000  C  -0.093729
  C25      1.0000 0.78510  0.02510  0.82940  Biso   1.000  C  -0.130196
  C26      1.0000 0.31440  0.78500  0.58590  Biso   1.000  C  0.596765
  C27      1.0000 0.27890  0.79180  0.63270  Biso   1.000  C  -0.001554
  C28      1.0000 0.24970  0.76050  0.64400  Biso   1.000  C  -0.146529
  C29      1.0000 0.21440  0.76760  0.68950  Biso   1.000  C  0.145033
  C30      1.0000 0.21210  0.80750  0.72100  Biso   1.000  C  -0.174858
  C31      1.0000 0.24160  0.83820  0.71000  Biso   1.000  C  0.170252
  C32      1.0000 0.27380  0.83070  0.66550  Biso   1.000  C  -0.152748
  C33      1.0000 0.18420  0.73530  0.69970  Biso   1.000  C  -0.103892
  C34      1.0000 0.15930  0.70550  0.70870  Biso   1.000  C  -0.106564
  C35      1.0000 0.13250  0.67020  0.71890  Biso   1.000  C  0.156511
  C36      1.0000 0.11490  0.65990  0.78030  Biso   1.000  C  -0.133100
  C37      1.0000 0.08930  0.62660  0.78870  Biso   1.000  C  -0.086885
  C38      1.0000 0.08050  0.59920  0.73560  Biso   1.000  C  -0.024951
  C39      1.0000 0.05120  0.56310  0.74320  Biso   1.000  C  0.593124
  C40      1.0000 0.10040  0.60950  0.67300  Biso   1.000  C  -0.093405
  C41      1.0000 0.12510  0.64210  0.66340  Biso   1.000  C  -0.136667
  C42      1.0000 0.24040  0.87880  0.74720  Biso   1.000  C  -0.109829
  C43      1.0000 0.24250  0.91320  0.77140  Biso   1.000  C  -0.099753
  C44      1.0000 0.24640  0.95220  0.80560  Biso   1.000  C  0.171610
  C45      1.0000 0.28580  0.96490  0.81990  Biso   1.000  C  -0.131499
  C46      1.0000 0.29410  0.00120  0.85490  Biso   1.000  C  -0.107970
  C47      1.0000 0.25910  0.02840  0.87490  Biso   1.000  C  -0.014422
  C48      1.0000 0.26800  0.06780  0.91610  Biso   1.000  C  0.586355
  C49      1.0000 0.22100  0.01380  0.86140  Biso   1.000  C  -0.093729
  C50      1.0000 0.21490  0.97490  0.82940  Biso   1.000  C  -0.130197
  C51      1.0000 0.28500  0.18560  0.08590  Biso   1.000  C  0.596735
  C52      1.0000 0.29180  0.22110  0.13270  Biso   1.000  C  -0.001542
  C53      1.0000 0.26050  0.25030  0.14400  Biso   1.000  C  -0.146497
  C54      1.0000 0.26760  0.28560  0.18950  Biso   1.000  C  0.145061
  C55      1.0000 0.30750  0.28790  0.22100  Biso   1.000  C  -0.174894
  C56      1.0000 0.33820  0.25840  0.21000  Biso   1.000  C  0.170202
  C57      1.0000 0.33070  0.22620  0.16550  Biso   1.000  C  -0.152951
  C58      1.0000 0.23530  0.31580  0.19970  Biso   1.000  C  -0.103956
  C59      1.0000 0.20550  0.34070  0.20870  Biso   1.000  C  -0.106560
  C60      1.0000 0.17020  0.36750  0.21890  Biso   1.000  C  0.156487
  C61      1.0000 0.15990  0.38510  0.28030  Biso   1.000  C  -0.132992
  C62      1.0000 0.12660  0.41070  0.28870  Biso   1.000  C  -0.087163
  C63      1.0000 0.09920  0.41950  0.23560  Biso   1.000  C  -0.022828
  C64      1.0000 0.06310  0.44880  0.24320  Biso   1.000  C  0.592736
  C65      1.0000 0.10950  0.39960  0.17300  Biso   1.000  C  -0.093930
  C66      1.0000 0.14210  0.37490  0.16340  Biso   1.000  C  -0.136426
  C67      1.0000 0.37880  0.25960  0.24720  Biso   1.000  C  -0.109818
  C68      1.0000 0.41320  0.25750  0.27140  Biso   1.000  C  -0.099862
  C69      1.0000 0.45220  0.25360  0.30560  Biso   1.000  C  0.171623
  C70      1.0000 0.46490  0.21420  0.31990  Biso   1.000  C  -0.131720
  C71      1.0000 0.50120  0.20590  0.35490  Biso   1.000  C  -0.108228
  C72      1.0000 0.52840  0.24090  0.37490  Biso   1.000  C  -0.014387
  C73      1.0000 0.56780  0.23200  0.41610  Biso   1.000  C  0.586322
  C74      1.0000 0.51380  0.27900  0.36140  Biso   1.000  C  -0.093600
  C75      1.0000 0.47490  0.28510  0.32940  Biso   1.000  C  -0.130034
  C76      1.0000 0.71500  0.81440  0.08590  Biso   1.000  C  0.596737
  C77      1.0000 0.70820  0.77890  0.13270  Biso   1.000  C  -0.001543
  C78      1.0000 0.73950  0.74970  0.14400  Biso   1.000  C  -0.146497
  C79      1.0000 0.73240  0.71440  0.18950  Biso   1.000  C  0.145061
  C80      1.0000 0.69250  0.71210  0.22100  Biso   1.000  C  -0.174893
  C81      1.0000 0.66180  0.74160  0.21000  Biso   1.000  C  0.170203
  C82      1.0000 0.66930  0.77380  0.16550  Biso   1.000  C  -0.152951
  C83      1.0000 0.76470  0.68420  0.19970  Biso   1.000  C  -0.103955
  C84      1.0000 0.79450  0.65930  0.20870  Biso   1.000  C  -0.106559
  C85      1.0000 0.82980  0.63250  0.21890  Biso   1.000  C  0.156487
  C86      1.0000 0.84010  0.61490  0.28030  Biso   1.000  C  -0.132992
  C87      1.0000 0.87340  0.58930  0.28870  Biso   1.000  C  -0.087163
  C88      1.0000 0.90080  0.58050  0.23560  Biso   1.000  C  -0.022828
  C89      1.0000 0.93690  0.55120  0.24320  Biso   1.000  C  0.592736
  C90      1.0000 0.89050  0.60040  0.17300  Biso   1.000  C  -0.093931
  C91      1.0000 0.85790  0.62510  0.16340  Biso   1.000  C  -0.136425
  C92      1.0000 0.62120  0.74040  0.24720  Biso   1.000  C  -0.109821
  C93      1.0000 0.58680  0.74250  0.27140  Biso   1.000  C  -0.099861
  C94      1.0000 0.54780  0.74640  0.30560  Biso   1.000  C  0.171623
  C95      1.0000 0.53510  0.78580  0.31990  Biso   1.000  C  -0.131720
  C96      1.0000 0.49880  0.79410  0.35490  Biso   1.000  C  -0.108229
  C97      1.0000 0.47160  0.75910  0.37490  Biso   1.000  C  -0.014388
  C98      1.0000 0.43220  0.76800  0.41610  Biso   1.000  C  0.586322
  C99      1.0000 0.48620  0.72100  0.36140  Biso   1.000  C  -0.093602
  C100     1.0000 0.52510  0.71490  0.32940  Biso   1.000  C  -0.130034
  C101     1.0000 0.31440  0.78500  0.41410  Biso   1.000  C  0.596723
  C102     1.0000 0.27890  0.79180  0.36730  Biso   1.000  C  -0.001547
  C103     1.0000 0.24970  0.76050  0.35600  Biso   1.000  C  -0.146508
  C104     1.0000 0.21440  0.76760  0.31050  Biso   1.000  C  0.145065
  C105     1.0000 0.21210  0.80750  0.27900  Biso   1.000  C  -0.174904
  C106     1.0000 0.24160  0.83820  0.29000  Biso   1.000  C  0.170208
  C107     1.0000 0.27380  0.83070  0.33450  Biso   1.000  C  -0.152979
  C108     1.0000 0.18420  0.73530  0.30030  Biso   1.000  C  -0.103975
  C109     1.0000 0.15930  0.70550  0.29130  Biso   1.000  C  -0.106542
  C110     1.0000 0.13250  0.67020  0.28110  Biso   1.000  C  0.156474
  C111     1.0000 0.11490  0.65990  0.21970  Biso   1.000  C  -0.132991
  C112     1.0000 0.08930  0.62660  0.21130  Biso   1.000  C  -0.087159
  C113     1.0000 0.08050  0.59920  0.26440  Biso   1.000  C  -0.022815
  C114     1.0000 0.05120  0.56310  0.25680  Biso   1.000  C  0.592736
  C115     1.0000 0.10040  0.60950  0.32700  Biso   1.000  C  -0.093928
  C116     1.0000 0.12510  0.64210  0.33660  Biso   1.000  C  -0.136421
  C117     1.0000 0.24040  0.87880  0.25280  Biso   1.000  C  -0.109853
  C118     1.0000 0.24250  0.91320  0.22860  Biso   1.000  C  -0.099837
  C119     1.0000 0.24640  0.95220  0.19440  Biso   1.000  C  0.171619
  C120     1.0000 0.28580  0.96490  0.18010  Biso   1.000  C  -0.131731
  C121     1.0000 0.29410  0.00120  0.14510  Biso   1.000  C  -0.108225
  C122     1.0000 0.25910  0.02840  0.12510  Biso   1.000  C  -0.014357
  C123     1.0000 0.26800  0.06780  0.08390  Biso   1.000  C  0.586334
  C124     1.0000 0.22100  0.01380  0.13860  Biso   1.000  C  -0.093587
  C125     1.0000 0.21490  0.97490  0.17060  Biso   1.000  C  -0.130020
  C126     1.0000 0.68560  0.21500  0.41410  Biso   1.000  C  0.596723
  C127     1.0000 0.72110  0.20820  0.36730  Biso   1.000  C  -0.001547
  C128     1.0000 0.75030  0.23950  0.35600  Biso   1.000  C  -0.146509
  C129     1.0000 0.78560  0.23240  0.31050  Biso   1.000  C  0.145065
  C130     1.0000 0.78790  0.19250  0.27900  Biso   1.000  C  -0.174904
  C131     1.0000 0.75840  0.16180  0.29000  Biso   1.000  C  0.170208
  C132     1.0000 0.72620  0.16930  0.33450  Biso   1.000  C  -0.152979
  C133     1.0000 0.81580  0.26470  0.30030  Biso   1.000  C  -0.103976
  C134     1.0000 0.84070  0.29450  0.29130  Biso   1.000  C  -0.106543
  C135     1.0000 0.86750  0.32980  0.28110  Biso   1.000  C  0.156474
  C136     1.0000 0.88510  0.34010  0.21970  Biso   1.000  C  -0.132991
  C137     1.0000 0.91070  0.37340  0.21130  Biso   1.000  C  -0.087159
  C138     1.0000 0.91950  0.40080  0.26440  Biso   1.000  C  -0.022815
  C139     1.0000 0.94880  0.43690  0.25680  Biso   1.000  C  0.592736
  C140     1.0000 0.89960  0.39050  0.32700  Biso   1.000  C  -0.093928
  C141     1.0000 0.87490  0.35790  0.33660  Biso   1.000  C  -0.136422
  C142     1.0000 0.75960  0.12120  0.25280  Biso   1.000  C  -0.109855
  C143     1.0000 0.75750  0.08680  0.22860  Biso   1.000  C  -0.099838
  C144     1.0000 0.75360  0.04780  0.19440  Biso   1.000  C  0.171618
  C145     1.0000 0.71420  0.03510  0.18010  Biso   1.000  C  -0.131732
  C146     1.0000 0.70590  0.99880  0.14510  Biso   1.000  C  -0.108226
  C147     1.0000 0.74090  0.97160  0.12510  Biso   1.000  C  -0.014359
  C148     1.0000 0.73200  0.93220  0.08390  Biso   1.000  C  0.586335
  C149     1.0000 0.77900  0.98620  0.13860  Biso   1.000  C  -0.093587
  C150     1.0000 0.78510  0.02510  0.17060  Biso   1.000  C  -0.130019
  C151     1.0000 0.71500  0.81440  0.91410  Biso   1.000  C  0.596768
  C152     1.0000 0.70820  0.77890  0.86730  Biso   1.000  C  -0.001554
  C153     1.0000 0.73950  0.74970  0.85600  Biso   1.000  C  -0.146526
  C154     1.0000 0.73240  0.71440  0.81050  Biso   1.000  C  0.145033
  C155     1.0000 0.69250  0.71210  0.77900  Biso   1.000  C  -0.174858
  C156     1.0000 0.66180  0.74160  0.79000  Biso   1.000  C  0.170251
  C157     1.0000 0.66930  0.77380  0.83450  Biso   1.000  C  -0.152748
  C158     1.0000 0.76470  0.68420  0.80030  Biso   1.000  C  -0.103890
  C159     1.0000 0.79450  0.65930  0.79130  Biso   1.000  C  -0.106565
  C160     1.0000 0.82980  0.63250  0.78110  Biso   1.000  C  0.156513
  C161     1.0000 0.84010  0.61490  0.71970  Biso   1.000  C  -0.133100
  C162     1.0000 0.87340  0.58930  0.71130  Biso   1.000  C  -0.086885
  C163     1.0000 0.90080  0.58050  0.76440  Biso   1.000  C  -0.024953
  C164     1.0000 0.93690  0.55120  0.75680  Biso   1.000  C  0.593124
  C165     1.0000 0.89050  0.60040  0.82700  Biso   1.000  C  -0.093406
  C166     1.0000 0.85790  0.62510  0.83660  Biso   1.000  C  -0.136668
  C167     1.0000 0.62120  0.74040  0.75280  Biso   1.000  C  -0.109828
  C168     1.0000 0.58680  0.74250  0.72860  Biso   1.000  C  -0.099757
  C169     1.0000 0.54780  0.74640  0.69440  Biso   1.000  C  0.171610
  C170     1.0000 0.53510  0.78580  0.68010  Biso   1.000  C  -0.131497
  C171     1.0000 0.49880  0.79410  0.64510  Biso   1.000  C  -0.107965
  C172     1.0000 0.47160  0.75910  0.62510  Biso   1.000  C  -0.014425
  C173     1.0000 0.43220  0.76800  0.58390  Biso   1.000  C  0.586355
  C174     1.0000 0.48620  0.72100  0.63860  Biso   1.000  C  -0.093732
  C175     1.0000 0.52510  0.71490  0.67060  Biso   1.000  C  -0.130199
  C176     1.0000 0.28500  0.18560  0.91410  Biso   1.000  C  0.596766
  C177     1.0000 0.29180  0.22110  0.86730  Biso   1.000  C  -0.001553
  C178     1.0000 0.26050  0.25030  0.85600  Biso   1.000  C  -0.146526
  C179     1.0000 0.26760  0.28560  0.81050  Biso   1.000  C  0.145033
  C180     1.0000 0.30750  0.28790  0.77900  Biso   1.000  C  -0.174858
  C181     1.0000 0.33820  0.25840  0.79000  Biso   1.000  C  0.170251
  C182     1.0000 0.33070  0.22620  0.83450  Biso   1.000  C  -0.152748
  C183     1.0000 0.23530  0.31580  0.80030  Biso   1.000  C  -0.103890
  C184     1.0000 0.20550  0.34070  0.79130  Biso   1.000  C  -0.106566
  C185     1.0000 0.17020  0.36750  0.78110  Biso   1.000  C  0.156513
  C186     1.0000 0.15990  0.38510  0.71970  Biso   1.000  C  -0.133100
  C187     1.0000 0.12660  0.41070  0.71130  Biso   1.000  C  -0.086885
  C188     1.0000 0.09920  0.41950  0.76440  Biso   1.000  C  -0.024953
  C189     1.0000 0.06310  0.44880  0.75680  Biso   1.000  C  0.593124
  C190     1.0000 0.10950  0.39960  0.82700  Biso   1.000  C  -0.093406
  C191     1.0000 0.14210  0.37490  0.83660  Biso   1.000  C  -0.136669
  C192     1.0000 0.37880  0.25960  0.75280  Biso   1.000  C  -0.109825
  C193     1.0000 0.41320  0.25750  0.72860  Biso   1.000  C  -0.099758
  C194     1.0000 0.45220  0.25360  0.69440  Biso   1.000  C  0.171610
  C195     1.0000 0.46490  0.21420  0.68010  Biso   1.000  C  -0.131496
  C196     1.0000 0.50120  0.20590  0.64510  Biso   1.000  C  -0.107964
  C197     1.0000 0.52840  0.24090  0.62510  Biso   1.000  C  -0.014424
  C198     1.0000 0.56780  0.23200  0.58390  Biso   1.000  C  0.586355
  C199     1.0000 0.51380  0.27900  0.63860  Biso   1.000  C  -0.093731
  C200     1.0000 0.47490  0.28510  0.67060  Biso   1.000  C  -0.130199
  C201     1.0000 0.18560  0.71500  0.08590  Biso   1.000  C  0.596709
  C202     1.0000 0.22110  0.70820  0.13270  Biso   1.000  C  -0.001398
  C203     1.0000 0.25030  0.73950  0.14400  Biso   1.000  C  -0.146285
  C204     1.0000 0.28560  0.73240  0.18950  Biso   1.000  C  0.144406
  C205     1.0000 0.28790  0.69250  0.22100  Biso   1.000  C  -0.174556
  C206     1.0000 0.25840  0.66180  0.21000  Biso   1.000  C  0.170378
  C207     1.0000 0.22620  0.66930  0.16550  Biso   1.000  C  -0.152118
  C208     1.0000 0.31580  0.76470  0.19970  Biso   1.000  C  -0.101794
  C209     1.0000 0.34070  0.79450  0.20870  Biso   1.000  C  -0.107508
  C210     1.0000 0.36750  0.82980  0.21890  Biso   1.000  C  0.157707
  C211     1.0000 0.38510  0.84010  0.28030  Biso   1.000  C  -0.132642
  C212     1.0000 0.41070  0.87340  0.28870  Biso   1.000  C  -0.086347
  C213     1.0000 0.41950  0.90080  0.23560  Biso   1.000  C  -0.023767
  C214     1.0000 0.44880  0.93690  0.24320  Biso   1.000  C  0.590918
  C215     1.0000 0.39960  0.89050  0.17300  Biso   1.000  C  -0.093953
  C216     1.0000 0.37490  0.85790  0.16340  Biso   1.000  C  -0.136072
  C217     1.0000 0.25960  0.62120  0.24720  Biso   1.000  C  -0.110200
  C218     1.0000 0.25750  0.58680  0.27140  Biso   1.000  C  -0.099266
  C219     1.0000 0.25360  0.54780  0.30560  Biso   1.000  C  0.171469
  C220     1.0000 0.21420  0.53510  0.31990  Biso   1.000  C  -0.131427
  C221     1.0000 0.20590  0.49880  0.35490  Biso   1.000  C  -0.107820
  C222     1.0000 0.24090  0.47160  0.37490  Biso   1.000  C  -0.014314
  C223     1.0000 0.23200  0.43220  0.41610  Biso   1.000  C  0.586362
  C224     1.0000 0.27900  0.48620  0.36140  Biso   1.000  C  -0.093720
  C225     1.0000 0.28510  0.52510  0.32940  Biso   1.000  C  -0.130168
  C226     1.0000 0.81440  0.28500  0.08590  Biso   1.000  C  0.596710
  C227     1.0000 0.77890  0.29180  0.13270  Biso   1.000  C  -0.001397
  C228     1.0000 0.74970  0.26050  0.14400  Biso   1.000  C  -0.146285
  C229     1.0000 0.71440  0.26760  0.18950  Biso   1.000  C  0.144405
  C230     1.0000 0.71210  0.30750  0.22100  Biso   1.000  C  -0.174556
  C231     1.0000 0.74160  0.33820  0.21000  Biso   1.000  C  0.170378
  C232     1.0000 0.77380  0.33070  0.16550  Biso   1.000  C  -0.152117
  C233     1.0000 0.68420  0.23530  0.19970  Biso   1.000  C  -0.101794
  C234     1.0000 0.65930  0.20550  0.20870  Biso   1.000  C  -0.107510
  C235     1.0000 0.63250  0.17020  0.21890  Biso   1.000  C  0.157708
  C236     1.0000 0.61490  0.15990  0.28030  Biso   1.000  C  -0.132642
  C237     1.0000 0.58930  0.12660  0.28870  Biso   1.000  C  -0.086347
  C238     1.0000 0.58050  0.09920  0.23560  Biso   1.000  C  -0.023767
  C239     1.0000 0.55120  0.06310  0.24320  Biso   1.000  C  0.590918
  C240     1.0000 0.60040  0.10950  0.17300  Biso   1.000  C  -0.093953
  C241     1.0000 0.62510  0.14210  0.16340  Biso   1.000  C  -0.136073
  C242     1.0000 0.74040  0.37880  0.24720  Biso   1.000  C  -0.110202
  C243     1.0000 0.74250  0.41320  0.27140  Biso   1.000  C  -0.099267
  C244     1.0000 0.74640  0.45220  0.30560  Biso   1.000  C  0.171468
  C245     1.0000 0.78580  0.46490  0.31990  Biso   1.000  C  -0.131428
  C246     1.0000 0.79410  0.50120  0.35490  Biso   1.000  C  -0.107820
  C247     1.0000 0.75910  0.52840  0.37490  Biso   1.000  C  -0.014315
  C248     1.0000 0.76800  0.56780  0.41610  Biso   1.000  C  0.586363
  C249     1.0000 0.72100  0.51380  0.36140  Biso   1.000  C  -0.093720
  C250     1.0000 0.71490  0.47490  0.32940  Biso   1.000  C  -0.130168
  C251     1.0000 0.78500  0.68560  0.58590  Biso   1.000  C  0.596748
  C252     1.0000 0.79180  0.72110  0.63270  Biso   1.000  C  -0.001519
  C253     1.0000 0.76050  0.75030  0.64400  Biso   1.000  C  -0.146574
  C254     1.0000 0.76760  0.78560  0.68950  Biso   1.000  C  0.144896
  C255     1.0000 0.80750  0.78790  0.72100  Biso   1.000  C  -0.174843
  C256     1.0000 0.83820  0.75840  0.71000  Biso   1.000  C  0.170295
  C257     1.0000 0.83070  0.72620  0.66550  Biso   1.000  C  -0.152602
  C258     1.0000 0.73530  0.81580  0.69970  Biso   1.000  C  -0.103630
  C259     1.0000 0.70550  0.84070  0.70870  Biso   1.000  C  -0.106935
  C260     1.0000 0.67020  0.86750  0.71890  Biso   1.000  C  0.156688
  C261     1.0000 0.65990  0.88510  0.78030  Biso   1.000  C  -0.132987
  C262     1.0000 0.62660  0.91070  0.78870  Biso   1.000  C  -0.087158
  C263     1.0000 0.59920  0.91950  0.73560  Biso   1.000  C  -0.022978
  C264     1.0000 0.56310  0.94880  0.74320  Biso   1.000  C  0.592801
  C265     1.0000 0.60950  0.89960  0.67300  Biso   1.000  C  -0.094018
  C266     1.0000 0.64210  0.87490  0.66340  Biso   1.000  C  -0.136556
  C267     1.0000 0.87880  0.75960  0.74720  Biso   1.000  C  -0.109945
  C268     1.0000 0.91320  0.75750  0.77140  Biso   1.000  C  -0.099609
  C269     1.0000 0.95220  0.75360  0.80560  Biso   1.000  C  0.171578
  C270     1.0000 0.96490  0.71420  0.81990  Biso   1.000  C  -0.131435
  C271     1.0000 0.00120  0.70590  0.85490  Biso   1.000  C  -0.107855
  C272     1.0000 0.02840  0.74090  0.87490  Biso   1.000  C  -0.014378
  C273     1.0000 0.06780  0.73200  0.91610  Biso   1.000  C  0.586370
  C274     1.0000 0.01380  0.77900  0.86140  Biso   1.000  C  -0.093751
  C275     1.0000 0.97490  0.78510  0.82940  Biso   1.000  C  -0.130224
  C276     1.0000 0.21500  0.31440  0.58590  Biso   1.000  C  0.596748
  C277     1.0000 0.20820  0.27890  0.63270  Biso   1.000  C  -0.001519
  C278     1.0000 0.23950  0.24970  0.64400  Biso   1.000  C  -0.146574
  C279     1.0000 0.23240  0.21440  0.68950  Biso   1.000  C  0.144896
  C280     1.0000 0.19250  0.21210  0.72100  Biso   1.000  C  -0.174844
  C281     1.0000 0.16180  0.24160  0.71000  Biso   1.000  C  0.170295
  C282     1.0000 0.16930  0.27380  0.66550  Biso   1.000  C  -0.152602
  C283     1.0000 0.26470  0.18420  0.69970  Biso   1.000  C  -0.103630
  C284     1.0000 0.29450  0.15930  0.70870  Biso   1.000  C  -0.106935
  C285     1.0000 0.32980  0.13250  0.71890  Biso   1.000  C  0.156687
  C286     1.0000 0.34010  0.11490  0.78030  Biso   1.000  C  -0.132986
  C287     1.0000 0.37340  0.08930  0.78870  Biso   1.000  C  -0.087158
  C288     1.0000 0.40080  0.08050  0.73560  Biso   1.000  C  -0.022978
  C289     1.0000 0.43690  0.05120  0.74320  Biso   1.000  C  0.592800
  C290     1.0000 0.39050  0.10040  0.67300  Biso   1.000  C  -0.094018
  C291     1.0000 0.35790  0.12510  0.66340  Biso   1.000  C  -0.136557
  C292     1.0000 0.12120  0.24040  0.74720  Biso   1.000  C  -0.109943
  C293     1.0000 0.08680  0.24250  0.77140  Biso   1.000  C  -0.099609
  C294     1.0000 0.04780  0.24640  0.80560  Biso   1.000  C  0.171578
  C295     1.0000 0.03510  0.28580  0.81990  Biso   1.000  C  -0.131435
  C296     1.0000 0.99880  0.29410  0.85490  Biso   1.000  C  -0.107855
  C297     1.0000 0.97160  0.25910  0.87490  Biso   1.000  C  -0.014377
  C298     1.0000 0.93220  0.26800  0.91610  Biso   1.000  C  0.586371
  C299     1.0000 0.98620  0.22100  0.86140  Biso   1.000  C  -0.093749
  C300     1.0000 0.02510  0.21490  0.82940  Biso   1.000  C  -0.130225
  C301     1.0000 0.81440  0.28500  0.91410  Biso   1.000  C  0.596746
  C302     1.0000 0.77890  0.29180  0.86730  Biso   1.000  C  -0.001521
  C303     1.0000 0.74970  0.26050  0.85600  Biso   1.000  C  -0.146583
  C304     1.0000 0.71440  0.26760  0.81050  Biso   1.000  C  0.144894
  C305     1.0000 0.71210  0.30750  0.77900  Biso   1.000  C  -0.174843
  C306     1.0000 0.74160  0.33820  0.79000  Biso   1.000  C  0.170297
  C307     1.0000 0.77380  0.33070  0.83450  Biso   1.000  C  -0.152603
  C308     1.0000 0.68420  0.23530  0.80030  Biso   1.000  C  -0.103634
  C309     1.0000 0.65930  0.20550  0.79130  Biso   1.000  C  -0.106939
  C310     1.0000 0.63250  0.17020  0.78110  Biso   1.000  C  0.156687
  C311     1.0000 0.61490  0.15990  0.71970  Biso   1.000  C  -0.132980
  C312     1.0000 0.58930  0.12660  0.71130  Biso   1.000  C  -0.087149
  C313     1.0000 0.58050  0.09920  0.76440  Biso   1.000  C  -0.022972
  C314     1.0000 0.55120  0.06310  0.75680  Biso   1.000  C  0.592802
  C315     1.0000 0.60040  0.10950  0.82700  Biso   1.000  C  -0.094028
  C316     1.0000 0.62510  0.14210  0.83660  Biso   1.000  C  -0.136570
  C317     1.0000 0.74040  0.37880  0.75280  Biso   1.000  C  -0.109952
  C318     1.0000 0.74250  0.41320  0.72860  Biso   1.000  C  -0.099603
  C319     1.0000 0.74640  0.45220  0.69440  Biso   1.000  C  0.171574
  C320     1.0000 0.78580  0.46490  0.68010  Biso   1.000  C  -0.131437
  C321     1.0000 0.79410  0.50120  0.64510  Biso   1.000  C  -0.107854
  C322     1.0000 0.75910  0.52840  0.62510  Biso   1.000  C  -0.014375
  C323     1.0000 0.76800  0.56780  0.58390  Biso   1.000  C  0.586370
  C324     1.0000 0.72100  0.51380  0.63860  Biso   1.000  C  -0.093750
  C325     1.0000 0.71490  0.47490  0.67060  Biso   1.000  C  -0.130225
  C326     1.0000 0.18560  0.71500  0.91410  Biso   1.000  C  0.596745
  C327     1.0000 0.22110  0.70820  0.86730  Biso   1.000  C  -0.001521
  C328     1.0000 0.25030  0.73950  0.85600  Biso   1.000  C  -0.146582
  C329     1.0000 0.28560  0.73240  0.81050  Biso   1.000  C  0.144895
  C330     1.0000 0.28790  0.69250  0.77900  Biso   1.000  C  -0.174843
  C331     1.0000 0.25840  0.66180  0.79000  Biso   1.000  C  0.170297
  C332     1.0000 0.22620  0.66930  0.83450  Biso   1.000  C  -0.152604
  C333     1.0000 0.31580  0.76470  0.80030  Biso   1.000  C  -0.103634
  C334     1.0000 0.34070  0.79450  0.79130  Biso   1.000  C  -0.106937
  C335     1.0000 0.36750  0.82980  0.78110  Biso   1.000  C  0.156686
  C336     1.0000 0.38510  0.84010  0.71970  Biso   1.000  C  -0.132980
  C337     1.0000 0.41070  0.87340  0.71130  Biso   1.000  C  -0.087149
  C338     1.0000 0.41950  0.90080  0.76440  Biso   1.000  C  -0.022972
  C339     1.0000 0.44880  0.93690  0.75680  Biso   1.000  C  0.592802
  C340     1.0000 0.39960  0.89050  0.82700  Biso   1.000  C  -0.094028
  C341     1.0000 0.37490  0.85790  0.83660  Biso   1.000  C  -0.136569
  C342     1.0000 0.25960  0.62120  0.75280  Biso   1.000  C  -0.109950
  C343     1.0000 0.25750  0.58680  0.72860  Biso   1.000  C  -0.099602
  C344     1.0000 0.25360  0.54780  0.69440  Biso   1.000  C  0.171575
  C345     1.0000 0.21420  0.53510  0.68010  Biso   1.000  C  -0.131436
  C346     1.0000 0.20590  0.49880  0.64510  Biso   1.000  C  -0.107854
  C347     1.0000 0.24090  0.47160  0.62510  Biso   1.000  C  -0.014374
  C348     1.0000 0.23200  0.43220  0.58390  Biso   1.000  C  0.586369
  C349     1.0000 0.27900  0.48620  0.63860  Biso   1.000  C  -0.093751
  C350     1.0000 0.28510  0.52510  0.67060  Biso   1.000  C  -0.130225
  C351     1.0000 0.21500  0.31440  0.41410  Biso   1.000  C  0.596717
  C352     1.0000 0.20820  0.27890  0.36730  Biso   1.000  C  -0.001410
  C353     1.0000 0.23950  0.24970  0.35600  Biso   1.000  C  -0.146324
  C354     1.0000 0.23240  0.21440  0.31050  Biso   1.000  C  0.144467
  C355     1.0000 0.19250  0.21210  0.27900  Biso   1.000  C  -0.174599
  C356     1.0000 0.16180  0.24160  0.29000  Biso   1.000  C  0.170364
  C357     1.0000 0.16930  0.27380  0.33450  Biso   1.000  C  -0.152195
  C358     1.0000 0.26470  0.18420  0.30030  Biso   1.000  C  -0.102034
  C359     1.0000 0.29450  0.15930  0.29130  Biso   1.000  C  -0.107500
  C360     1.0000 0.32980  0.13250  0.28110  Biso   1.000  C  0.157607
  C361     1.0000 0.34010  0.11490  0.21970  Biso   1.000  C  -0.132702
  C362     1.0000 0.37340  0.08930  0.21130  Biso   1.000  C  -0.086858
  C363     1.0000 0.40080  0.08050  0.26440  Biso   1.000  C  -0.023696
  C364     1.0000 0.43690  0.05120  0.25680  Biso   1.000  C  0.591173
  C365     1.0000 0.39050  0.10040  0.32700  Biso   1.000  C  -0.093551
  C366     1.0000 0.35790  0.12510  0.33660  Biso   1.000  C  -0.136156
  C367     1.0000 0.12120  0.24040  0.25280  Biso   1.000  C  -0.110157
  C368     1.0000 0.08680  0.24250  0.22860  Biso   1.000  C  -0.099326
  C369     1.0000 0.04780  0.24640  0.19440  Biso   1.000  C  0.171487
  C370     1.0000 0.03510  0.28580  0.18010  Biso   1.000  C  -0.131429
  C371     1.0000 0.99880  0.29410  0.14510  Biso   1.000  C  -0.107828
  C372     1.0000 0.97160  0.25910  0.12510  Biso   1.000  C  -0.014330
  C373     1.0000 0.93220  0.26800  0.08390  Biso   1.000  C  0.586363
  C374     1.0000 0.98620  0.22100  0.13860  Biso   1.000  C  -0.093723
  C375     1.0000 0.02510  0.21490  0.17060  Biso   1.000  C  -0.130175
  C376     1.0000 0.78500  0.68560  0.41410  Biso   1.000  C  0.596717
  C377     1.0000 0.79180  0.72110  0.36730  Biso   1.000  C  -0.001411
  C378     1.0000 0.76050  0.75030  0.35600  Biso   1.000  C  -0.146324
  C379     1.0000 0.76760  0.78560  0.31050  Biso   1.000  C  0.144467
  C380     1.0000 0.80750  0.78790  0.27900  Biso   1.000  C  -0.174598
  C381     1.0000 0.83820  0.75840  0.29000  Biso   1.000  C  0.170364
  C382     1.0000 0.83070  0.72620  0.33450  Biso   1.000  C  -0.152195
  C383     1.0000 0.73530  0.81580  0.30030  Biso   1.000  C  -0.102033
  C384     1.0000 0.70550  0.84070  0.29130  Biso   1.000  C  -0.107500
  C385     1.0000 0.67020  0.86750  0.28110  Biso   1.000  C  0.157608
  C386     1.0000 0.65990  0.88510  0.21970  Biso   1.000  C  -0.132702
  C387     1.0000 0.62660  0.91070  0.21130  Biso   1.000  C  -0.086858
  C388     1.0000 0.59920  0.91950  0.26440  Biso   1.000  C  -0.023696
  C389     1.0000 0.56310  0.94880  0.25680  Biso   1.000  C  0.591173
  C390     1.0000 0.60950  0.89960  0.32700  Biso   1.000  C  -0.093550
  C391     1.0000 0.64210  0.87490  0.33660  Biso   1.000  C  -0.136155
  C392     1.0000 0.87880  0.75960  0.25280  Biso   1.000  C  -0.110158
  C393     1.0000 0.91320  0.75750  0.22860  Biso   1.000  C  -0.099326
  C394     1.0000 0.95220  0.75360  0.19440  Biso   1.000  C  0.171487
  C395     1.0000 0.96490  0.71420  0.18010  Biso   1.000  C  -0.131429
  C396     1.0000 0.00120  0.70590  0.14510  Biso   1.000  C  -0.107828
  C397     1.0000 0.02840  0.74090  0.12510  Biso   1.000  C  -0.014332
  C398     1.0000 0.06780  0.73200  0.08390  Biso   1.000  C  0.586363
  C399     1.0000 0.01380  0.77900  0.13860  Biso   1.000  C  -0.093724
  C400     1.0000 0.97490  0.78510  0.17060  Biso   1.000  C  -0.130175
  Cu1      1.0000 0.61944  0.18258  0.50000  Biso   1.000  Cu  0.842604
  Cu2      1.0000 0.63452  0.26616  0.50000  Biso   1.000  Cu  0.835280
  Cu3      1.0000 0.38056  0.81742  0.50000  Biso   1.000  Cu  0.842600
  Cu4      1.0000 0.36548  0.73384  0.50000  Biso   1.000  Cu  0.835274
  Cu5      1.0000 0.31742  0.11944  0.00000  Biso   1.000  Cu  0.842584
  Cu6      1.0000 0.23384  0.13452  0.00000  Biso   1.000  Cu  0.835289
  Cu7      1.0000 0.68258  0.88056  0.00000  Biso   1.000  Cu  0.842585
  Cu8      1.0000 0.76616  0.86548  0.00000  Biso   1.000  Cu  0.835285
  Cu9      1.0000 0.00000  0.50000  0.68294  Biso   1.000  Cu  0.876714
  Cu10     1.0000 0.00000  0.50000  0.18294  Biso   1.000  Cu  0.874080
  Cu11     1.0000 0.00000  0.50000  0.31706  Biso   1.000  Cu  0.874055
  Cu12     1.0000 0.00000  0.50000  0.81706  Biso   1.000  Cu  0.876684
  Cu13     1.0000 0.11944  0.68258  0.00000  Biso   1.000  Cu  0.842946
  Cu14     1.0000 0.13452  0.76616  0.00000  Biso   1.000  Cu  0.835212
  Cu15     1.0000 0.88056  0.31742  0.00000  Biso   1.000  Cu  0.842953
  Cu16     1.0000 0.86548  0.23384  0.00000  Biso   1.000  Cu  0.835217
  Cu17     1.0000 0.81742  0.61944  0.50000  Biso   1.000  Cu  0.842956
  Cu18     1.0000 0.73384  0.63452  0.50000  Biso   1.000  Cu  0.835221
  Cu19     1.0000 0.18258  0.38056  0.50000  Biso   1.000  Cu  0.842957
  Cu20     1.0000 0.26616  0.36548  0.50000  Biso   1.000  Cu  0.835224
  Cu21     1.0000 0.50000  0.00000  0.18294  Biso   1.000  Cu  0.855017
  Cu22     1.0000 0.50000  0.00000  0.68294  Biso   1.000  Cu  0.873837
  Cu23     1.0000 0.50000  0.00000  0.81706  Biso   1.000  Cu  0.873785
  Cu24     1.0000 0.50000  0.00000  0.31706  Biso   1.000  Cu  0.867786
  H1       1.0000 0.74750  0.26620  0.62190  Biso   1.000  H  0.132106
  H2       1.0000 0.81080  0.18680  0.75100  Biso   1.000  H  0.132545
  H3       1.0000 0.70640  0.14710  0.65650  Biso   1.000  H  0.127575
  H4       1.0000 0.87880  0.32270  0.81820  Biso   1.000  H  0.117240
  H5       1.0000 0.92300  0.37860  0.83170  Biso   1.000  H  0.119148
  H6       1.0000 0.90470  0.40880  0.63570  Biso   1.000  H  0.115948
  H7       1.0000 0.86220  0.35290  0.62070  Biso   1.000  H  0.126039
  H8       1.0000 0.69100  0.05220  0.80520  Biso   1.000  H  0.113704
  H9       1.0000 0.67740  0.99140  0.86620  Biso   1.000  H  0.119584
  H10      1.0000 0.80320  0.96980  0.87390  Biso   1.000  H  0.118908
  H11      1.0000 0.81340  0.03560  0.82450  Biso   1.000  H  0.110216
  H12      1.0000 0.25250  0.73380  0.62190  Biso   1.000  H  0.132104
  H13      1.0000 0.18920  0.81320  0.75100  Biso   1.000  H  0.132544
  H14      1.0000 0.29360  0.85290  0.65650  Biso   1.000  H  0.127575
  H15      1.0000 0.12120  0.67730  0.81820  Biso   1.000  H  0.117240
  H16      1.0000 0.07700  0.62140  0.83170  Biso   1.000  H  0.119148
  H17      1.0000 0.09530  0.59120  0.63570  Biso   1.000  H  0.115947
  H18      1.0000 0.13780  0.64710  0.62070  Biso   1.000  H  0.126038
  H19      1.0000 0.30900  0.94780  0.80520  Biso   1.000  H  0.113705
  H20      1.0000 0.32260  0.00860  0.86620  Biso   1.000  H  0.119585
  H21      1.0000 0.19680  0.03020  0.87390  Biso   1.000  H  0.118910
  H22      1.0000 0.18660  0.96440  0.82450  Biso   1.000  H  0.110220
  H23      1.0000 0.23380  0.24750  0.12190  Biso   1.000  H  0.132157
  H24      1.0000 0.31320  0.31080  0.25100  Biso   1.000  H  0.132574
  H25      1.0000 0.35290  0.20640  0.15650  Biso   1.000  H  0.127480
  H26      1.0000 0.17730  0.37880  0.31820  Biso   1.000  H  0.117355
  H27      1.0000 0.12140  0.42300  0.33170  Biso   1.000  H  0.119365
  H28      1.0000 0.09120  0.40470  0.13570  Biso   1.000  H  0.116147
  H29      1.0000 0.14710  0.36220  0.12070  Biso   1.000  H  0.126150
  H30      1.0000 0.44780  0.19100  0.30520  Biso   1.000  H  0.113476
  H31      1.0000 0.50860  0.17740  0.36620  Biso   1.000  H  0.119426
  H32      1.0000 0.53020  0.30320  0.37390  Biso   1.000  H  0.118968
  H33      1.0000 0.46440  0.31340  0.32450  Biso   1.000  H  0.110276
  H34      1.0000 0.76620  0.75250  0.12190  Biso   1.000  H  0.132156
  H35      1.0000 0.68680  0.68920  0.25100  Biso   1.000  H  0.132573
  H36      1.0000 0.64710  0.79360  0.15650  Biso   1.000  H  0.127480
  H37      1.0000 0.82270  0.62120  0.31820  Biso   1.000  H  0.117355
  H38      1.0000 0.87860  0.57700  0.33170  Biso   1.000  H  0.119365
  H39      1.0000 0.90880  0.59530  0.13570  Biso   1.000  H  0.116147
  H40      1.0000 0.85290  0.63780  0.12070  Biso   1.000  H  0.126152
  H41      1.0000 0.55220  0.80900  0.30520  Biso   1.000  H  0.113475
  H42      1.0000 0.49140  0.82260  0.36620  Biso   1.000  H  0.119425
  H43      1.0000 0.46980  0.69680  0.37390  Biso   1.000  H  0.118970
  H44      1.0000 0.53560  0.68660  0.32450  Biso   1.000  H  0.110278
  H45      1.0000 0.25250  0.73380  0.37810  Biso   1.000  H  0.132159
  H46      1.0000 0.18920  0.81320  0.24900  Biso   1.000  H  0.132579
  H47      1.0000 0.29360  0.85290  0.34350  Biso   1.000  H  0.127482
  H48      1.0000 0.12120  0.67730  0.18180  Biso   1.000  H  0.117353
  H49      1.0000 0.07700  0.62140  0.16830  Biso   1.000  H  0.119368
  H50      1.0000 0.09530  0.59120  0.36430  Biso   1.000  H  0.116150
  H51      1.0000 0.13780  0.64710  0.37930  Biso   1.000  H  0.126148
  H52      1.0000 0.30900  0.94780  0.19480  Biso   1.000  H  0.113458
  H53      1.0000 0.32260  0.00860  0.13380  Biso   1.000  H  0.119396
  H54      1.0000 0.19680  0.03020  0.12610  Biso   1.000  H  0.118975
  H55      1.0000 0.18660  0.96440  0.17550  Biso   1.000  H  0.110280
  H56      1.0000 0.74750  0.26620  0.37810  Biso   1.000  H  0.132161
  H57      1.0000 0.81080  0.18680  0.24900  Biso   1.000  H  0.132580
  H58      1.0000 0.70640  0.14710  0.34350  Biso   1.000  H  0.127482
  H59      1.0000 0.87880  0.32270  0.18180  Biso   1.000  H  0.117353
  H60      1.0000 0.92300  0.37860  0.16830  Biso   1.000  H  0.119369
  H61      1.0000 0.90470  0.40880  0.36430  Biso   1.000  H  0.116151
  H62      1.0000 0.86220  0.35290  0.37930  Biso   1.000  H  0.126150
  H63      1.0000 0.69100  0.05220  0.19480  Biso   1.000  H  0.113456
  H64      1.0000 0.67740  0.99140  0.13380  Biso   1.000  H  0.119394
  H65      1.0000 0.80320  0.96980  0.12610  Biso   1.000  H  0.118974
  H66      1.0000 0.81340  0.03560  0.17550  Biso   1.000  H  0.110277
  H67      1.0000 0.76620  0.75250  0.87810  Biso   1.000  H  0.132106
  H68      1.0000 0.68680  0.68920  0.74900  Biso   1.000  H  0.132543
  H69      1.0000 0.64710  0.79360  0.84350  Biso   1.000  H  0.127573
  H70      1.0000 0.82270  0.62120  0.68180  Biso   1.000  H  0.117241
  H71      1.0000 0.87860  0.57700  0.66830  Biso   1.000  H  0.119148
  H72      1.0000 0.90880  0.59530  0.86430  Biso   1.000  H  0.115947
  H73      1.0000 0.85290  0.63780  0.87930  Biso   1.000  H  0.126042
  H74      1.0000 0.55220  0.80900  0.69480  Biso   1.000  H  0.113705
  H75      1.0000 0.49140  0.82260  0.63380  Biso   1.000  H  0.119588
  H76      1.0000 0.46980  0.69680  0.62610  Biso   1.000  H  0.118907
  H77      1.0000 0.53560  0.68660  0.67550  Biso   1.000  H  0.110218
  H78      1.0000 0.23380  0.24750  0.87810  Biso   1.000  H  0.132107
  H79      1.0000 0.31320  0.31080  0.74900  Biso   1.000  H  0.132544
  H80      1.0000 0.35290  0.20640  0.84350  Biso   1.000  H  0.127573
  H81      1.0000 0.17730  0.37880  0.68180  Biso   1.000  H  0.117241
  H82      1.0000 0.12140  0.42300  0.66830  Biso   1.000  H  0.119148
  H83      1.0000 0.09120  0.40470  0.86430  Biso   1.000  H  0.115947
  H84      1.0000 0.14710  0.36220  0.87930  Biso   1.000  H  0.126041
  H85      1.0000 0.44780  0.19100  0.69480  Biso   1.000  H  0.113707
  H86      1.0000 0.50860  0.17740  0.63380  Biso   1.000  H  0.119590
  H87      1.0000 0.53020  0.30320  0.62610  Biso   1.000  H  0.118905
  H88      1.0000 0.46440  0.31340  0.67550  Biso   1.000  H  0.110216
  H89      1.0000 0.24750  0.76620  0.12190  Biso   1.000  H  0.132110
  H90      1.0000 0.31080  0.68680  0.25100  Biso   1.000  H  0.132563
  H91      1.0000 0.20640  0.64710  0.15650  Biso   1.000  H  0.127732
  H92      1.0000 0.37880  0.82270  0.31820  Biso   1.000  H  0.117774
  H93      1.0000 0.42300  0.87860  0.33170  Biso   1.000  H  0.119487
  H94      1.0000 0.40470  0.90880  0.13570  Biso   1.000  H  0.116136
  H95      1.0000 0.36220  0.85290  0.12070  Biso   1.000  H  0.126475
  H96      1.0000 0.19100  0.55220  0.30520  Biso   1.000  H  0.113708
  H97      1.0000 0.17740  0.49140  0.36620  Biso   1.000  H  0.119660
  H98      1.0000 0.30320  0.46980  0.37390  Biso   1.000  H  0.118906
  H99      1.0000 0.31340  0.53560  0.32450  Biso   1.000  H  0.110181
  H100     1.0000 0.75250  0.23380  0.12190  Biso   1.000  H  0.132112
  H101     1.0000 0.68920  0.31320  0.25100  Biso   1.000  H  0.132564
  H102     1.0000 0.79360  0.35290  0.15650  Biso   1.000  H  0.127732
  H103     1.0000 0.62120  0.17730  0.31820  Biso   1.000  H  0.117774
  H104     1.0000 0.57700  0.12140  0.33170  Biso   1.000  H  0.119488
  H105     1.0000 0.59530  0.09120  0.13570  Biso   1.000  H  0.116138
  H106     1.0000 0.63780  0.14710  0.12070  Biso   1.000  H  0.126477
  H107     1.0000 0.80900  0.44780  0.30520  Biso   1.000  H  0.113707
  H108     1.0000 0.82260  0.50860  0.36620  Biso   1.000  H  0.119659
  H109     1.0000 0.69680  0.53020  0.37390  Biso   1.000  H  0.118905
  H110     1.0000 0.68660  0.46440  0.32450  Biso   1.000  H  0.110178
  H111     1.0000 0.73380  0.74750  0.62190  Biso   1.000  H  0.132064
  H112     1.0000 0.81320  0.81080  0.75100  Biso   1.000  H  0.132524
  H113     1.0000 0.85290  0.70640  0.65650  Biso   1.000  H  0.127639
  H114     1.0000 0.67730  0.87880  0.81820  Biso   1.000  H  0.117388
  H115     1.0000 0.62140  0.92300  0.83170  Biso   1.000  H  0.119291
  H116     1.0000 0.59120  0.90470  0.63570  Biso   1.000  H  0.116015
  H117     1.0000 0.64710  0.86220  0.62070  Biso   1.000  H  0.126064
  H118     1.0000 0.94780  0.69100  0.80520  Biso   1.000  H  0.113721
  H119     1.0000 0.00860  0.67740  0.86620  Biso   1.000  H  0.119621
  H120     1.0000 0.03020  0.80320  0.87390  Biso   1.000  H  0.118884
  H121     1.0000 0.96440  0.81340  0.82450  Biso   1.000  H  0.110180
  H122     1.0000 0.26620  0.25250  0.62190  Biso   1.000  H  0.132065
  H123     1.0000 0.18680  0.18920  0.75100  Biso   1.000  H  0.132525
  H124     1.0000 0.14710  0.29360  0.65650  Biso   1.000  H  0.127639
  H125     1.0000 0.32270  0.12120  0.81820  Biso   1.000  H  0.117388
  H126     1.0000 0.37860  0.07700  0.83170  Biso   1.000  H  0.119292
  H127     1.0000 0.40880  0.09530  0.63570  Biso   1.000  H  0.116015
  H128     1.0000 0.35290  0.13780  0.62070  Biso   1.000  H  0.126064
  H129     1.0000 0.05220  0.30900  0.80520  Biso   1.000  H  0.113722
  H130     1.0000 0.99140  0.32260  0.86620  Biso   1.000  H  0.119623
  H131     1.0000 0.96980  0.19680  0.87390  Biso   1.000  H  0.118882
  H132     1.0000 0.03560  0.18660  0.82450  Biso   1.000  H  0.110177
  H133     1.0000 0.75250  0.23380  0.87810  Biso   1.000  H  0.132062
  H134     1.0000 0.68920  0.31320  0.74900  Biso   1.000  H  0.132527
  H135     1.0000 0.79360  0.35290  0.84350  Biso   1.000  H  0.127639
  H136     1.0000 0.62120  0.17730  0.68180  Biso   1.000  H  0.117390
  H137     1.0000 0.57700  0.12140  0.66830  Biso   1.000  H  0.119300
  H138     1.0000 0.59530  0.09120  0.86430  Biso   1.000  H  0.116002
  H139     1.0000 0.63780  0.14710  0.87930  Biso   1.000  H  0.126053
  H140     1.0000 0.80900  0.44780  0.69480  Biso   1.000  H  0.113720
  H141     1.0000 0.82260  0.50860  0.63380  Biso   1.000  H  0.119622
  H142     1.0000 0.69680  0.53020  0.62610  Biso   1.000  H  0.118884
  H143     1.0000 0.68660  0.46440  0.67550  Biso   1.000  H  0.110174
  H144     1.0000 0.24750  0.76620  0.87810  Biso   1.000  H  0.132060
  H145     1.0000 0.31080  0.68680  0.74900  Biso   1.000  H  0.132526
  H146     1.0000 0.20640  0.64710  0.84350  Biso   1.000  H  0.127639
  H147     1.0000 0.37880  0.82270  0.68180  Biso   1.000  H  0.117390
  H148     1.0000 0.42300  0.87860  0.66830  Biso   1.000  H  0.119299
  H149     1.0000 0.40470  0.90880  0.86430  Biso   1.000  H  0.116001
  H150     1.0000 0.36220  0.85290  0.87930  Biso   1.000  H  0.126051
  H151     1.0000 0.19100  0.55220  0.69480  Biso   1.000  H  0.113721
  H152     1.0000 0.17740  0.49140  0.63380  Biso   1.000  H  0.119624
  H153     1.0000 0.30320  0.46980  0.62610  Biso   1.000  H  0.118885
  H154     1.0000 0.31340  0.53560  0.67550  Biso   1.000  H  0.110177
  H155     1.0000 0.26620  0.25250  0.37810  Biso   1.000  H  0.132106
  H156     1.0000 0.18680  0.18920  0.24900  Biso   1.000  H  0.132555
  H157     1.0000 0.14710  0.29360  0.34350  Biso   1.000  H  0.127717
  H158     1.0000 0.32270  0.12120  0.18180  Biso   1.000  H  0.117704
  H159     1.0000 0.37860  0.07700  0.16830  Biso   1.000  H  0.119401
  H160     1.0000 0.40880  0.09530  0.36430  Biso   1.000  H  0.116195
  H161     1.0000 0.35290  0.13780  0.37930  Biso   1.000  H  0.126487
  H162     1.0000 0.05220  0.30900  0.19480  Biso   1.000  H  0.113709
  H163     1.0000 0.99140  0.32260  0.13380  Biso   1.000  H  0.119656
  H164     1.0000 0.96980  0.19680  0.12610  Biso   1.000  H  0.118899
  H165     1.0000 0.03560  0.18660  0.17550  Biso   1.000  H  0.110181
  H166     1.0000 0.73380  0.74750  0.37810  Biso   1.000  H  0.132106
  H167     1.0000 0.81320  0.81080  0.24900  Biso   1.000  H  0.132554
  H168     1.0000 0.85290  0.70640  0.34350  Biso   1.000  H  0.127717
  H169     1.0000 0.67730  0.87880  0.18180  Biso   1.000  H  0.117704
  H170     1.0000 0.62140  0.92300  0.16830  Biso   1.000  H  0.119400
  H171     1.0000 0.59120  0.90470  0.36430  Biso   1.000  H  0.116195
  H172     1.0000 0.64710  0.86220  0.37930  Biso   1.000  H  0.126487
  H173     1.0000 0.94780  0.69100  0.19480  Biso   1.000  H  0.113708
  H174     1.0000 0.00860  0.67740  0.13380  Biso   1.000  H  0.119654
  H175     1.0000 0.03020  0.80320  0.12610  Biso   1.000  H  0.118901
  H176     1.0000 0.96440  0.81340  0.17550  Biso   1.000  H  0.110184
  O1       1.0000 0.67861  0.25333  0.56790  Biso   1.000  O  -0.520796
  O2       1.0000 0.66324  0.18348  0.56890  Biso   1.000  O  -0.533024
  O3       1.0000 0.96140  0.45320  0.68620  Biso   1.000  O  -0.556085
  O4       1.0000 0.96070  0.44940  0.79970  Biso   1.000  O  -0.524599
  O5       1.0000 0.69446  0.92397  0.93230  Biso   1.000  O  -0.507574
  O6       1.0000 0.76560  0.91020  0.93030  Biso   1.000  O  -0.541347
  O7       1.0000 0.32139  0.74667  0.56790  Biso   1.000  O  -0.520796
  O8       1.0000 0.33676  0.81652  0.56890  Biso   1.000  O  -0.533025
  O9       1.0000 0.03860  0.54680  0.68620  Biso   1.000  O  -0.556085
  O10      1.0000 0.03930  0.55060  0.79970  Biso   1.000  O  -0.524599
  O11      1.0000 0.30554  0.07603  0.93230  Biso   1.000  O  -0.507575
  O12      1.0000 0.23440  0.08980  0.93030  Biso   1.000  O  -0.541348
  O13      1.0000 0.24667  0.17861  0.06790  Biso   1.000  O  -0.520863
  O14      1.0000 0.31652  0.16324  0.06890  Biso   1.000  O  -0.533294
  O15      1.0000 0.04680  0.46140  0.18620  Biso   1.000  O  -0.555462
  O16      1.0000 0.05060  0.46070  0.29970  Biso   1.000  O  -0.525629
  O17      1.0000 0.57603  0.19446  0.43230  Biso   1.000  O  -0.507925
  O18      1.0000 0.58980  0.26560  0.43030  Biso   1.000  O  -0.541410
  O19      1.0000 0.75333  0.82139  0.06790  Biso   1.000  O  -0.520862
  O20      1.0000 0.68348  0.83676  0.06890  Biso   1.000  O  -0.533292
  O21      1.0000 0.95320  0.53860  0.18620  Biso   1.000  O  -0.555462
  O22      1.0000 0.94940  0.53930  0.29970  Biso   1.000  O  -0.525629
  O23      1.0000 0.42397  0.80554  0.43230  Biso   1.000  O  -0.507925
  O24      1.0000 0.41020  0.73440  0.43030  Biso   1.000  O  -0.541410
  O25      1.0000 0.32139  0.74667  0.43210  Biso   1.000  O  -0.520872
  O26      1.0000 0.33676  0.81652  0.43110  Biso   1.000  O  -0.533306
  O27      1.0000 0.03860  0.54680  0.31380  Biso   1.000  O  -0.555456
  O28      1.0000 0.03930  0.55060  0.20030  Biso   1.000  O  -0.525627
  O29      1.0000 0.30554  0.07603  0.06770  Biso   1.000  O  -0.507927
  O30      1.0000 0.23440  0.08980  0.06970  Biso   1.000  O  -0.541396
  O31      1.0000 0.67861  0.25333  0.43210  Biso   1.000  O  -0.520872
  O32      1.0000 0.66324  0.18348  0.43110  Biso   1.000  O  -0.533305
  O33      1.0000 0.96140  0.45320  0.31380  Biso   1.000  O  -0.555456
  O34      1.0000 0.96070  0.44940  0.20030  Biso   1.000  O  -0.525627
  O35      1.0000 0.69446  0.92397  0.06770  Biso   1.000  O  -0.507925
  O36      1.0000 0.76560  0.91020  0.06970  Biso   1.000  O  -0.541395
  O37      1.0000 0.75333  0.82139  0.93210  Biso   1.000  O  -0.520791
  O38      1.0000 0.68348  0.83676  0.93110  Biso   1.000  O  -0.533025
  O39      1.0000 0.95320  0.53860  0.81380  Biso   1.000  O  -0.556082
  O40      1.0000 0.94940  0.53930  0.70030  Biso   1.000  O  -0.524601
  O41      1.0000 0.42397  0.80554  0.56770  Biso   1.000  O  -0.507564
  O42      1.0000 0.41020  0.73440  0.56970  Biso   1.000  O  -0.541348
  O43      1.0000 0.24667  0.17861  0.93210  Biso   1.000  O  -0.520792
  O44      1.0000 0.31652  0.16324  0.93110  Biso   1.000  O  -0.533026
  O45      1.0000 0.04680  0.46140  0.81380  Biso   1.000  O  -0.556082
  O46      1.0000 0.05060  0.46070  0.70030  Biso   1.000  O  -0.524602
  O47      1.0000 0.57603  0.19446  0.56770  Biso   1.000  O  -0.507564
  O48      1.0000 0.58980  0.26560  0.56970  Biso   1.000  O  -0.541347
  O49      1.0000 0.17861  0.75333  0.06790  Biso   1.000  O  -0.520934
  O50      1.0000 0.16324  0.68348  0.06890  Biso   1.000  O  -0.532992
  O51      1.0000 0.46140  0.95320  0.18620  Biso   1.000  O  -0.545110
  O52      1.0000 0.46070  0.94940  0.29970  Biso   1.000  O  -0.522267
  O53      1.0000 0.19446  0.42397  0.43230  Biso   1.000  O  -0.507495
  O54      1.0000 0.26560  0.41020  0.43030  Biso   1.000  O  -0.541439
  O55      1.0000 0.82139  0.24667  0.06790  Biso   1.000  O  -0.520934
  O56      1.0000 0.83676  0.31652  0.06890  Biso   1.000  O  -0.532994
  O57      1.0000 0.53860  0.04680  0.18620  Biso   1.000  O  -0.545110
  O58      1.0000 0.53930  0.05060  0.29970  Biso   1.000  O  -0.522268
  O59      1.0000 0.80554  0.57603  0.43230  Biso   1.000  O  -0.507494
  O60      1.0000 0.73440  0.58980  0.43030  Biso   1.000  O  -0.541438
  O61      1.0000 0.74667  0.67861  0.56790  Biso   1.000  O  -0.520892
  O62      1.0000 0.81652  0.66324  0.56890  Biso   1.000  O  -0.532977
  O63      1.0000 0.54680  0.96140  0.68620  Biso   1.000  O  -0.555583
  O64      1.0000 0.55060  0.96070  0.79970  Biso   1.000  O  -0.525704
  O65      1.0000 0.07603  0.69446  0.93230  Biso   1.000  O  -0.507439
  O66      1.0000 0.08980  0.76560  0.93030  Biso   1.000  O  -0.541357
  O67      1.0000 0.25333  0.32139  0.56790  Biso   1.000  O  -0.520893
  O68      1.0000 0.18348  0.33676  0.56890  Biso   1.000  O  -0.532978
  O69      1.0000 0.45320  0.03860  0.68620  Biso   1.000  O  -0.555583
  O70      1.0000 0.44940  0.03930  0.79970  Biso   1.000  O  -0.525704
  O71      1.0000 0.92397  0.30554  0.93230  Biso   1.000  O  -0.507442
  O72      1.0000 0.91020  0.23440  0.93030  Biso   1.000  O  -0.541357
  O73      1.0000 0.82139  0.24667  0.93210  Biso   1.000  O  -0.520900
  O74      1.0000 0.83676  0.31652  0.93110  Biso   1.000  O  -0.532982
  O75      1.0000 0.53860  0.04680  0.81380  Biso   1.000  O  -0.555594
  O76      1.0000 0.53930  0.05060  0.70030  Biso   1.000  O  -0.525694
  O77      1.0000 0.80554  0.57603  0.56770  Biso   1.000  O  -0.507446
  O78      1.0000 0.73440  0.58980  0.56970  Biso   1.000  O  -0.541363
  O79      1.0000 0.17861  0.75333  0.93210  Biso   1.000  O  -0.520899
  O80      1.0000 0.16324  0.68348  0.93110  Biso   1.000  O  -0.532980
  O81      1.0000 0.46140  0.95320  0.81380  Biso   1.000  O  -0.555594
  O82      1.0000 0.46070  0.94940  0.70030  Biso   1.000  O  -0.525693
  O83      1.0000 0.19446  0.42397  0.56770  Biso   1.000  O  -0.507447
  O84      1.0000 0.26560  0.41020  0.56970  Biso   1.000  O  -0.541364
  O85      1.0000 0.25333  0.32139  0.43210  Biso   1.000  O  -0.520930
  O86      1.0000 0.18348  0.33676  0.43110  Biso   1.000  O  -0.532996
  O87      1.0000 0.45320  0.03860  0.31380  Biso   1.000  O  -0.551553
  O88      1.0000 0.44940  0.03930  0.20030  Biso   1.000  O  -0.517606
  O89      1.0000 0.92397  0.30554  0.06770  Biso   1.000  O  -0.507499
  O90      1.0000 0.91020  0.23440  0.06970  Biso   1.000  O  -0.541444
  O91      1.0000 0.74667  0.67861  0.43210  Biso   1.000  O  -0.520929
  O92      1.0000 0.81652  0.66324  0.43110  Biso   1.000  O  -0.532995
  O93      1.0000 0.54680  0.96140  0.31380  Biso   1.000  O  -0.551553
  O94      1.0000 0.55060  0.96070  0.20030  Biso   1.000  O  -0.517606
  O95      1.0000 0.07603  0.69446  0.06770  Biso   1.000  O  -0.507497
  O96      1.0000 0.08980  0.76560  0.06970  Biso   1.000  O  -0.541443
