data_image0
_cell_length_a       24.3013
_cell_length_b       24.3013
_cell_length_c       54.57
_cell_angle_alpha    90
_cell_angle_beta     90
_cell_angle_gamma    90

_symmetry_space_group_name_H-M    "P 1"
_symmetry_int_tables_number       1

loop_
  _symmetry_equiv_pos_as_xyz
  'x, y, z'

loop_
  _atom_site_label
  _atom_site_occupancy
  _atom_site_fract_x
  _atom_site_fract_y
  _atom_site_fract_z
  _atom_site_thermal_displace_type
  _atom_site_B_iso_or_equiv
  _atom_site_type_symbol
  _atom_site_charge
  Be1      1.0000 0.34227  0.35606  0.49932  Biso   1.000  Be  1.127564
  Be2      1.0000 0.65773  0.64394  0.49932  Biso   1.000  Be  1.127564
  Be3      1.0000 0.64394  0.65773  0.00068  Biso   1.000  Be  1.127564
  Be4      1.0000 0.35606  0.34227  0.00068  Biso   1.000  Be  1.127564
  Be5      1.0000 0.65773  0.35606  0.99932  Biso   1.000  Be  1.127564
  Be6      1.0000 0.34227  0.64394  0.99932  Biso   1.000  Be  1.127564
  Be7      1.0000 0.64394  0.34227  0.50068  Biso   1.000  Be  1.127564
  Be8      1.0000 0.35606  0.65773  0.50068  Biso   1.000  Be  1.127564
  Be9      1.0000 0.32031  0.56063  0.48072  Biso   1.000  Be  1.131516
  Be10     1.0000 0.67969  0.43937  0.48072  Biso   1.000  Be  1.131516
  Be11     1.0000 0.43937  0.67969  0.01928  Biso   1.000  Be  1.131516
  Be12     1.0000 0.56063  0.32031  0.01928  Biso   1.000  Be  1.131516
  Be13     1.0000 0.67969  0.56063  0.98072  Biso   1.000  Be  1.131516
  Be14     1.0000 0.32031  0.43937  0.98072  Biso   1.000  Be  1.131516
  Be15     1.0000 0.43937  0.32031  0.51928  Biso   1.000  Be  1.131516
  Be16     1.0000 0.56063  0.67969  0.51928  Biso   1.000  Be  1.131516
  Be17     1.0000 0.30554  0.45348  0.48107  Biso   1.000  Be  1.136235
  Be18     1.0000 0.69446  0.54652  0.48107  Biso   1.000  Be  1.136235
  Be19     1.0000 0.54652  0.69446  0.01893  Biso   1.000  Be  1.136235
  Be20     1.0000 0.45348  0.30554  0.01893  Biso   1.000  Be  1.136235
  Be21     1.0000 0.69446  0.45348  0.98107  Biso   1.000  Be  1.136235
  Be22     1.0000 0.30554  0.54652  0.98107  Biso   1.000  Be  1.136235
  Be23     1.0000 0.54652  0.30554  0.51893  Biso   1.000  Be  1.136235
  Be24     1.0000 0.45348  0.69446  0.51893  Biso   1.000  Be  1.136235
  Be25     1.0000 0.06732  0.19840  0.23072  Biso   1.000  Be  1.125903
  Be26     1.0000 0.93268  0.80160  0.23072  Biso   1.000  Be  1.125903
  Be27     1.0000 0.80160  0.93268  0.26928  Biso   1.000  Be  1.125903
  Be28     1.0000 0.19840  0.06732  0.26928  Biso   1.000  Be  1.125903
  Be29     1.0000 0.93268  0.19840  0.73072  Biso   1.000  Be  1.125903
  Be30     1.0000 0.06732  0.80160  0.73072  Biso   1.000  Be  1.125903
  Be31     1.0000 0.80160  0.06732  0.76928  Biso   1.000  Be  1.125903
  Be32     1.0000 0.19840  0.93268  0.76928  Biso   1.000  Be  1.125903
  Be33     1.0000 0.16521  0.16521  0.25000  Biso   1.000  Be  1.148583
  Be34     1.0000 0.83479  0.83479  0.25000  Biso   1.000  Be  1.148583
  Be35     1.0000 0.83479  0.16521  0.75000  Biso   1.000  Be  1.148583
  Be36     1.0000 0.16521  0.83479  0.75000  Biso   1.000  Be  1.148583
  Be37     1.0000 0.04402  0.82027  0.22760  Biso   1.000  Be  1.122551
  Be38     1.0000 0.95598  0.17973  0.22760  Biso   1.000  Be  1.122551
  Be39     1.0000 0.17973  0.95598  0.27240  Biso   1.000  Be  1.122551
  Be40     1.0000 0.82027  0.04402  0.27240  Biso   1.000  Be  1.122551
  Be41     1.0000 0.95598  0.82027  0.72760  Biso   1.000  Be  1.122551
  Be42     1.0000 0.04402  0.17973  0.72760  Biso   1.000  Be  1.122551
  Be43     1.0000 0.17973  0.04402  0.77240  Biso   1.000  Be  1.122551
  Be44     1.0000 0.82027  0.95598  0.77240  Biso   1.000  Be  1.122551
  Be45     1.0000 0.13646  0.86354  0.25000  Biso   1.000  Be  1.147571
  Be46     1.0000 0.86354  0.13646  0.25000  Biso   1.000  Be  1.147571
  Be47     1.0000 0.86354  0.86354  0.75000  Biso   1.000  Be  1.147571
  Be48     1.0000 0.13646  0.13646  0.75000  Biso   1.000  Be  1.147571
  C1       1.0000 0.24944  0.51386  0.41845  Biso   1.000  C  -0.033268
  C2       1.0000 0.75056  0.48614  0.41845  Biso   1.000  C  -0.033268
  C3       1.0000 0.48614  0.75056  0.08155  Biso   1.000  C  -0.033268
  C4       1.0000 0.51386  0.24944  0.08155  Biso   1.000  C  -0.033268
  C5       1.0000 0.75056  0.51386  0.91845  Biso   1.000  C  -0.033268
  C6       1.0000 0.24944  0.48614  0.91845  Biso   1.000  C  -0.033268
  C7       1.0000 0.48614  0.24944  0.58155  Biso   1.000  C  -0.033268
  C8       1.0000 0.51386  0.75056  0.58155  Biso   1.000  C  -0.033268
  C9       1.0000 0.11119  0.71371  0.27338  Biso   1.000  C  -0.048558
  C10      1.0000 0.88881  0.28629  0.27338  Biso   1.000  C  -0.048558
  C11      1.0000 0.28629  0.88881  0.22662  Biso   1.000  C  -0.048558
  C12      1.0000 0.71371  0.11119  0.22662  Biso   1.000  C  -0.048558
  C13      1.0000 0.88881  0.71371  0.77338  Biso   1.000  C  -0.048558
  C14      1.0000 0.11119  0.28629  0.77338  Biso   1.000  C  -0.048558
  C15      1.0000 0.28629  0.11119  0.72662  Biso   1.000  C  -0.048558
  C16      1.0000 0.71371  0.88881  0.72662  Biso   1.000  C  -0.048558
  C17      1.0000 0.80277  0.61142  0.52578  Biso   1.000  C  -0.050231
  C18      1.0000 0.19723  0.38858  0.52578  Biso   1.000  C  -0.050231
  C19      1.0000 0.38858  0.19723  0.97422  Biso   1.000  C  -0.050231
  C20      1.0000 0.61142  0.80277  0.97422  Biso   1.000  C  -0.050231
  C21      1.0000 0.19723  0.61142  0.02578  Biso   1.000  C  -0.050231
  C22      1.0000 0.80277  0.38858  0.02578  Biso   1.000  C  -0.050231
  C23      1.0000 0.38858  0.80277  0.47422  Biso   1.000  C  -0.050231
  C24      1.0000 0.61142  0.19723  0.47422  Biso   1.000  C  -0.050231
  C25      1.0000 0.10379  0.76545  0.25997  Biso   1.000  C  0.644205
  C26      1.0000 0.89621  0.23455  0.25997  Biso   1.000  C  0.644205
  C27      1.0000 0.23455  0.89621  0.24003  Biso   1.000  C  0.644205
  C28      1.0000 0.76545  0.10379  0.24003  Biso   1.000  C  0.644205
  C29      1.0000 0.89621  0.76545  0.75997  Biso   1.000  C  0.644205
  C30      1.0000 0.10379  0.23455  0.75997  Biso   1.000  C  0.644205
  C31      1.0000 0.23455  0.10379  0.74003  Biso   1.000  C  0.644205
  C32      1.0000 0.76545  0.89621  0.74003  Biso   1.000  C  0.644205
  C33      1.0000 0.20384  0.62774  0.52236  Biso   1.000  C  -0.037365
  C34      1.0000 0.79616  0.37226  0.52236  Biso   1.000  C  -0.037365
  C35      1.0000 0.37226  0.79616  0.97764  Biso   1.000  C  -0.037365
  C36      1.0000 0.62774  0.20384  0.97764  Biso   1.000  C  -0.037365
  C37      1.0000 0.79616  0.62774  0.02236  Biso   1.000  C  -0.037365
  C38      1.0000 0.20384  0.37226  0.02236  Biso   1.000  C  -0.037365
  C39      1.0000 0.37226  0.20384  0.47764  Biso   1.000  C  -0.037365
  C40      1.0000 0.62774  0.79616  0.47764  Biso   1.000  C  -0.037365
  C41      1.0000 0.08526  0.62183  0.28366  Biso   1.000  C  -0.153895
  C42      1.0000 0.91474  0.37817  0.28366  Biso   1.000  C  -0.153895
  C43      1.0000 0.37817  0.91474  0.21634  Biso   1.000  C  -0.153895
  C44      1.0000 0.62183  0.08526  0.21634  Biso   1.000  C  -0.153895
  C45      1.0000 0.91474  0.62183  0.78366  Biso   1.000  C  -0.153895
  C46      1.0000 0.08526  0.37817  0.78366  Biso   1.000  C  -0.153895
  C47      1.0000 0.37817  0.08526  0.71634  Biso   1.000  C  -0.153895
  C48      1.0000 0.62183  0.91474  0.71634  Biso   1.000  C  -0.153895
  C49      1.0000 0.12936  0.61692  0.29971  Biso   1.000  C  0.088626
  C50      1.0000 0.87064  0.38308  0.29971  Biso   1.000  C  0.088626
  C51      1.0000 0.38308  0.87064  0.20029  Biso   1.000  C  0.088626
  C52      1.0000 0.61692  0.12936  0.20029  Biso   1.000  C  0.088626
  C53      1.0000 0.87064  0.61692  0.79971  Biso   1.000  C  0.088626
  C54      1.0000 0.12936  0.38308  0.79971  Biso   1.000  C  0.088626
  C55      1.0000 0.38308  0.12936  0.70029  Biso   1.000  C  0.088626
  C56      1.0000 0.61692  0.87064  0.70029  Biso   1.000  C  0.088626
  C57      1.0000 0.16440  0.56373  0.33509  Biso   1.000  C  -0.211324
  C58      1.0000 0.83560  0.43627  0.33509  Biso   1.000  C  -0.211324
  C59      1.0000 0.43627  0.83560  0.16491  Biso   1.000  C  -0.211324
  C60      1.0000 0.56373  0.16440  0.16491  Biso   1.000  C  -0.211324
  C61      1.0000 0.83560  0.56373  0.83509  Biso   1.000  C  -0.211324
  C62      1.0000 0.16440  0.43627  0.83509  Biso   1.000  C  -0.211324
  C63      1.0000 0.43627  0.16440  0.66491  Biso   1.000  C  -0.211324
  C64      1.0000 0.56373  0.83560  0.66491  Biso   1.000  C  -0.211324
  C65      1.0000 0.20107  0.51571  0.37249  Biso   1.000  C  0.086934
  C66      1.0000 0.79893  0.48429  0.37249  Biso   1.000  C  0.086934
  C67      1.0000 0.48429  0.79893  0.12751  Biso   1.000  C  0.086934
  C68      1.0000 0.51571  0.20107  0.12751  Biso   1.000  C  0.086934
  C69      1.0000 0.79893  0.51571  0.87249  Biso   1.000  C  0.086934
  C70      1.0000 0.20107  0.48429  0.87249  Biso   1.000  C  0.086934
  C71      1.0000 0.48429  0.20107  0.62751  Biso   1.000  C  0.086934
  C72      1.0000 0.51571  0.79893  0.62751  Biso   1.000  C  0.086934
  C73      1.0000 0.09193  0.40271  0.28512  Biso   1.000  C  -0.159672
  C74      1.0000 0.90807  0.59729  0.28512  Biso   1.000  C  -0.159672
  C75      1.0000 0.59729  0.90807  0.21488  Biso   1.000  C  -0.159672
  C76      1.0000 0.40271  0.09193  0.21488  Biso   1.000  C  -0.159672
  C77      1.0000 0.90807  0.40271  0.78512  Biso   1.000  C  -0.159672
  C78      1.0000 0.09193  0.59729  0.78512  Biso   1.000  C  -0.159672
  C79      1.0000 0.59729  0.09193  0.71488  Biso   1.000  C  -0.159672
  C80      1.0000 0.40271  0.90807  0.71488  Biso   1.000  C  -0.159672
  C81      1.0000 0.14133  0.56389  0.31200  Biso   1.000  C  0.096789
  C82      1.0000 0.85867  0.43611  0.31200  Biso   1.000  C  0.096789
  C83      1.0000 0.43611  0.85867  0.18800  Biso   1.000  C  0.096789
  C84      1.0000 0.56389  0.14133  0.18800  Biso   1.000  C  0.096789
  C85      1.0000 0.85867  0.56389  0.81200  Biso   1.000  C  0.096789
  C86      1.0000 0.14133  0.43611  0.81200  Biso   1.000  C  0.096789
  C87      1.0000 0.43611  0.14133  0.68800  Biso   1.000  C  0.096789
  C88      1.0000 0.56389  0.85867  0.68800  Biso   1.000  C  0.096789
  C89      1.0000 0.12635  0.31238  0.27419  Biso   1.000  C  -0.055318
  C90      1.0000 0.87365  0.68762  0.27419  Biso   1.000  C  -0.055318
  C91      1.0000 0.68762  0.87365  0.22581  Biso   1.000  C  -0.055318
  C92      1.0000 0.31238  0.12635  0.22581  Biso   1.000  C  -0.055318
  C93      1.0000 0.87365  0.31238  0.77419  Biso   1.000  C  -0.055318
  C94      1.0000 0.12635  0.68762  0.77419  Biso   1.000  C  -0.055318
  C95      1.0000 0.68762  0.12635  0.72581  Biso   1.000  C  -0.055318
  C96      1.0000 0.31238  0.87365  0.72581  Biso   1.000  C  -0.055318
  C97      1.0000 0.89494  0.58492  0.53478  Biso   1.000  C  -0.147225
  C98      1.0000 0.10506  0.41508  0.53478  Biso   1.000  C  -0.147225
  C99      1.0000 0.41508  0.10506  0.96522  Biso   1.000  C  -0.147225
  C100     1.0000 0.58492  0.89494  0.96522  Biso   1.000  C  -0.147225
  C101     1.0000 0.10506  0.58492  0.03478  Biso   1.000  C  -0.147225
  C102     1.0000 0.89494  0.41508  0.03478  Biso   1.000  C  -0.147225
  C103     1.0000 0.41508  0.89494  0.46522  Biso   1.000  C  -0.147225
  C104     1.0000 0.58492  0.10506  0.46522  Biso   1.000  C  -0.147225
  C105     1.0000 0.00823  0.75234  0.66825  Biso   1.000  C  -0.055279
  C106     1.0000 0.99177  0.24766  0.66825  Biso   1.000  C  -0.055279
  C107     1.0000 0.24766  0.99177  0.83175  Biso   1.000  C  -0.055279
  C108     1.0000 0.75234  0.00823  0.83175  Biso   1.000  C  -0.055279
  C109     1.0000 0.99177  0.75234  0.16825  Biso   1.000  C  -0.055279
  C110     1.0000 0.00823  0.24766  0.16825  Biso   1.000  C  -0.055279
  C111     1.0000 0.24766  0.00823  0.33175  Biso   1.000  C  -0.055279
  C112     1.0000 0.75234  0.99177  0.33175  Biso   1.000  C  -0.055279
  C113     1.0000 0.16497  0.66008  0.30172  Biso   1.000  C  -0.151530
  C114     1.0000 0.83503  0.33992  0.30172  Biso   1.000  C  -0.151530
  C115     1.0000 0.33992  0.83503  0.19828  Biso   1.000  C  -0.151530
  C116     1.0000 0.66008  0.16497  0.19828  Biso   1.000  C  -0.151530
  C117     1.0000 0.83503  0.66008  0.80172  Biso   1.000  C  -0.151530
  C118     1.0000 0.16497  0.33992  0.80172  Biso   1.000  C  -0.151530
  C119     1.0000 0.33992  0.16497  0.69828  Biso   1.000  C  -0.151530
  C120     1.0000 0.66008  0.83503  0.69828  Biso   1.000  C  -0.151530
  C121     1.0000 0.75096  0.60300  0.51128  Biso   1.000  C  0.641454
  C122     1.0000 0.24904  0.39700  0.51128  Biso   1.000  C  0.641454
  C123     1.0000 0.39700  0.24904  0.98872  Biso   1.000  C  0.641454
  C124     1.0000 0.60300  0.75096  0.98872  Biso   1.000  C  0.641454
  C125     1.0000 0.24904  0.60300  0.01128  Biso   1.000  C  0.641454
  C126     1.0000 0.75096  0.39700  0.01128  Biso   1.000  C  0.641454
  C127     1.0000 0.39700  0.75096  0.48872  Biso   1.000  C  0.641454
  C128     1.0000 0.60300  0.24904  0.48872  Biso   1.000  C  0.641454
  C129     1.0000 0.08735  0.35282  0.27261  Biso   1.000  C  -0.092623
  C130     1.0000 0.91265  0.64718  0.27261  Biso   1.000  C  -0.092623
  C131     1.0000 0.64718  0.91265  0.22739  Biso   1.000  C  -0.092623
  C132     1.0000 0.35282  0.08735  0.22739  Biso   1.000  C  -0.092623
  C133     1.0000 0.91265  0.35282  0.77261  Biso   1.000  C  -0.092623
  C134     1.0000 0.08735  0.64718  0.77261  Biso   1.000  C  -0.092623
  C135     1.0000 0.64718  0.08735  0.72739  Biso   1.000  C  -0.092623
  C136     1.0000 0.35282  0.91265  0.72739  Biso   1.000  C  -0.092623
  C137     1.0000 0.00859  0.77566  0.69260  Biso   1.000  C  0.674514
  C138     1.0000 0.99141  0.22434  0.69260  Biso   1.000  C  0.674514
  C139     1.0000 0.22434  0.99141  0.80740  Biso   1.000  C  0.674514
  C140     1.0000 0.77566  0.00859  0.80740  Biso   1.000  C  0.674514
  C141     1.0000 0.99141  0.77566  0.19260  Biso   1.000  C  0.674514
  C142     1.0000 0.00859  0.22434  0.19260  Biso   1.000  C  0.674514
  C143     1.0000 0.22434  0.00859  0.30740  Biso   1.000  C  0.674514
  C144     1.0000 0.77566  0.99141  0.30740  Biso   1.000  C  0.674514
  C145     1.0000 0.85638  0.66601  0.55271  Biso   1.000  C  -0.143567
  C146     1.0000 0.14362  0.33399  0.55271  Biso   1.000  C  -0.143567
  C147     1.0000 0.33399  0.14362  0.94729  Biso   1.000  C  -0.143567
  C148     1.0000 0.66601  0.85638  0.94729  Biso   1.000  C  -0.143567
  C149     1.0000 0.14362  0.66601  0.05271  Biso   1.000  C  -0.143567
  C150     1.0000 0.85638  0.33399  0.05271  Biso   1.000  C  -0.143567
  C151     1.0000 0.33399  0.85638  0.44729  Biso   1.000  C  -0.143567
  C152     1.0000 0.66601  0.14362  0.44729  Biso   1.000  C  -0.143567
  C153     1.0000 0.95402  0.66532  0.58606  Biso   1.000  C  -0.220857
  C154     1.0000 0.04598  0.33468  0.58606  Biso   1.000  C  -0.220857
  C155     1.0000 0.33468  0.04598  0.91394  Biso   1.000  C  -0.220857
  C156     1.0000 0.66532  0.95402  0.91394  Biso   1.000  C  -0.220857
  C157     1.0000 0.04598  0.66532  0.08606  Biso   1.000  C  -0.220857
  C158     1.0000 0.95402  0.33468  0.08606  Biso   1.000  C  -0.220857
  C159     1.0000 0.33468  0.95402  0.41394  Biso   1.000  C  -0.220857
  C160     1.0000 0.66532  0.04598  0.41394  Biso   1.000  C  -0.220857
  C161     1.0000 0.17897  0.51648  0.34750  Biso   1.000  C  0.087629
  C162     1.0000 0.82103  0.48352  0.34750  Biso   1.000  C  0.087629
  C163     1.0000 0.48352  0.82103  0.15250  Biso   1.000  C  0.087629
  C164     1.0000 0.51648  0.17897  0.15250  Biso   1.000  C  0.087629
  C165     1.0000 0.82103  0.51648  0.84750  Biso   1.000  C  0.087629
  C166     1.0000 0.17897  0.48352  0.84750  Biso   1.000  C  0.087629
  C167     1.0000 0.48352  0.17897  0.65250  Biso   1.000  C  0.087629
  C168     1.0000 0.51648  0.82103  0.65250  Biso   1.000  C  0.087629
  C169     1.0000 0.17771  0.37260  0.30070  Biso   1.000  C  -0.154146
  C170     1.0000 0.82229  0.62740  0.30070  Biso   1.000  C  -0.154146
  C171     1.0000 0.62740  0.82229  0.19930  Biso   1.000  C  -0.154146
  C172     1.0000 0.37260  0.17771  0.19930  Biso   1.000  C  -0.154146
  C173     1.0000 0.82229  0.37260  0.80070  Biso   1.000  C  -0.154146
  C174     1.0000 0.17771  0.62740  0.80070  Biso   1.000  C  -0.154146
  C175     1.0000 0.62740  0.17771  0.69930  Biso   1.000  C  -0.154146
  C176     1.0000 0.37260  0.82229  0.69930  Biso   1.000  C  -0.154146
  C177     1.0000 0.90178  0.62897  0.54996  Biso   1.000  C  0.078234
  C178     1.0000 0.09822  0.37103  0.54996  Biso   1.000  C  0.078234
  C179     1.0000 0.37103  0.09822  0.95004  Biso   1.000  C  0.078234
  C180     1.0000 0.62897  0.90178  0.95004  Biso   1.000  C  0.078234
  C181     1.0000 0.09822  0.62897  0.04996  Biso   1.000  C  0.078234
  C182     1.0000 0.90178  0.37103  0.04996  Biso   1.000  C  0.078234
  C183     1.0000 0.37103  0.90178  0.45004  Biso   1.000  C  0.078234
  C184     1.0000 0.62897  0.09822  0.45004  Biso   1.000  C  0.078234
  C185     1.0000 0.80800  0.65644  0.54137  Biso   1.000  C  -0.096032
  C186     1.0000 0.19200  0.34356  0.54137  Biso   1.000  C  -0.096032
  C187     1.0000 0.34356  0.19200  0.95863  Biso   1.000  C  -0.096032
  C188     1.0000 0.65644  0.80800  0.95863  Biso   1.000  C  -0.096032
  C189     1.0000 0.19200  0.65644  0.04137  Biso   1.000  C  -0.096032
  C190     1.0000 0.80800  0.34356  0.04137  Biso   1.000  C  -0.096032
  C191     1.0000 0.34356  0.80800  0.45863  Biso   1.000  C  -0.096032
  C192     1.0000 0.65644  0.19200  0.45863  Biso   1.000  C  -0.096032
  C193     1.0000 0.11515  0.59484  0.53224  Biso   1.000  C  -0.143336
  C194     1.0000 0.88485  0.40516  0.53224  Biso   1.000  C  -0.143336
  C195     1.0000 0.40516  0.88485  0.96776  Biso   1.000  C  -0.143336
  C196     1.0000 0.59484  0.11515  0.96776  Biso   1.000  C  -0.143336
  C197     1.0000 0.88485  0.59484  0.03224  Biso   1.000  C  -0.143336
  C198     1.0000 0.11515  0.40516  0.03224  Biso   1.000  C  -0.143336
  C199     1.0000 0.40516  0.11515  0.46776  Biso   1.000  C  -0.143336
  C200     1.0000 0.59484  0.88485  0.46776  Biso   1.000  C  -0.143336
  C201     1.0000 0.07726  0.66961  0.27062  Biso   1.000  C  -0.087234
  C202     1.0000 0.92274  0.33039  0.27062  Biso   1.000  C  -0.087234
  C203     1.0000 0.33039  0.92274  0.22938  Biso   1.000  C  -0.087234
  C204     1.0000 0.66961  0.07726  0.22938  Biso   1.000  C  -0.087234
  C205     1.0000 0.92274  0.66961  0.77062  Biso   1.000  C  -0.087234
  C206     1.0000 0.07726  0.33039  0.77062  Biso   1.000  C  -0.087234
  C207     1.0000 0.33039  0.07726  0.72938  Biso   1.000  C  -0.087234
  C208     1.0000 0.66961  0.92274  0.72938  Biso   1.000  C  -0.087234
  C209     1.0000 0.17425  0.32189  0.28814  Biso   1.000  C  -0.094584
  C210     1.0000 0.82575  0.67811  0.28814  Biso   1.000  C  -0.094584
  C211     1.0000 0.67811  0.82575  0.21186  Biso   1.000  C  -0.094584
  C212     1.0000 0.32189  0.17425  0.21186  Biso   1.000  C  -0.094584
  C213     1.0000 0.82575  0.32189  0.78814  Biso   1.000  C  -0.094584
  C214     1.0000 0.17425  0.67811  0.78814  Biso   1.000  C  -0.094584
  C215     1.0000 0.67811  0.17425  0.71186  Biso   1.000  C  -0.094584
  C216     1.0000 0.32189  0.82575  0.71186  Biso   1.000  C  -0.094584
  C217     1.0000 0.10572  0.63948  0.54677  Biso   1.000  C  0.081848
  C218     1.0000 0.89428  0.36052  0.54677  Biso   1.000  C  0.081848
  C219     1.0000 0.36052  0.89428  0.95323  Biso   1.000  C  0.081848
  C220     1.0000 0.63948  0.10572  0.95323  Biso   1.000  C  0.081848
  C221     1.0000 0.89428  0.63948  0.04677  Biso   1.000  C  0.081848
  C222     1.0000 0.10572  0.36052  0.04677  Biso   1.000  C  0.081848
  C223     1.0000 0.36052  0.10572  0.45323  Biso   1.000  C  0.081848
  C224     1.0000 0.63948  0.89428  0.45323  Biso   1.000  C  0.081848
  C225     1.0000 0.96136  0.72972  0.63053  Biso   1.000  C  -0.142361
  C226     1.0000 0.03864  0.27028  0.63053  Biso   1.000  C  -0.142361
  C227     1.0000 0.27028  0.03864  0.86947  Biso   1.000  C  -0.142361
  C228     1.0000 0.72972  0.96136  0.86947  Biso   1.000  C  -0.142361
  C229     1.0000 0.03864  0.72972  0.13053  Biso   1.000  C  -0.142361
  C230     1.0000 0.96136  0.27028  0.13053  Biso   1.000  C  -0.142361
  C231     1.0000 0.27028  0.96136  0.36947  Biso   1.000  C  -0.142361
  C232     1.0000 0.72972  0.03864  0.36947  Biso   1.000  C  -0.142361
  C233     1.0000 0.95415  0.64109  0.56189  Biso   1.000  C  0.095320
  C234     1.0000 0.04585  0.35891  0.56189  Biso   1.000  C  0.095320
  C235     1.0000 0.35891  0.04585  0.93811  Biso   1.000  C  0.095320
  C236     1.0000 0.64109  0.95415  0.93811  Biso   1.000  C  0.095320
  C237     1.0000 0.04585  0.64109  0.06189  Biso   1.000  C  0.095320
  C238     1.0000 0.95415  0.35891  0.06189  Biso   1.000  C  0.095320
  C239     1.0000 0.35891  0.95415  0.43811  Biso   1.000  C  0.095320
  C240     1.0000 0.64109  0.04585  0.43811  Biso   1.000  C  0.095320
  C241     1.0000 0.13307  0.51478  0.30126  Biso   1.000  C  -0.200275
  C242     1.0000 0.86693  0.48522  0.30126  Biso   1.000  C  -0.200275
  C243     1.0000 0.48522  0.86693  0.19874  Biso   1.000  C  -0.200275
  C244     1.0000 0.51478  0.13307  0.19874  Biso   1.000  C  -0.200275
  C245     1.0000 0.86693  0.51478  0.80126  Biso   1.000  C  -0.200275
  C246     1.0000 0.13307  0.48522  0.80126  Biso   1.000  C  -0.200275
  C247     1.0000 0.48522  0.13307  0.69874  Biso   1.000  C  -0.200275
  C248     1.0000 0.51478  0.86693  0.69874  Biso   1.000  C  -0.200275
  C249     1.0000 0.13818  0.41185  0.29953  Biso   1.000  C  0.088102
  C250     1.0000 0.86182  0.58815  0.29953  Biso   1.000  C  0.088102
  C251     1.0000 0.58815  0.86182  0.20047  Biso   1.000  C  0.088102
  C252     1.0000 0.41185  0.13818  0.20047  Biso   1.000  C  0.088102
  C253     1.0000 0.86182  0.41185  0.79953  Biso   1.000  C  0.088102
  C254     1.0000 0.13818  0.58815  0.79953  Biso   1.000  C  0.088102
  C255     1.0000 0.58815  0.13818  0.70047  Biso   1.000  C  0.088102
  C256     1.0000 0.41185  0.86182  0.70047  Biso   1.000  C  0.088102
  C257     1.0000 0.00366  0.63232  0.54950  Biso   1.000  C  -0.215581
  C258     1.0000 0.99634  0.36768  0.54950  Biso   1.000  C  -0.215581
  C259     1.0000 0.36768  0.99634  0.95050  Biso   1.000  C  -0.215581
  C260     1.0000 0.63232  0.00366  0.95050  Biso   1.000  C  -0.215581
  C261     1.0000 0.99634  0.63232  0.04950  Biso   1.000  C  -0.215581
  C262     1.0000 0.00366  0.36768  0.04950  Biso   1.000  C  -0.215581
  C263     1.0000 0.36768  0.00366  0.45050  Biso   1.000  C  -0.215581
  C264     1.0000 0.63232  0.99634  0.45050  Biso   1.000  C  -0.215581
  C265     1.0000 0.05287  0.64708  0.55955  Biso   1.000  C  0.085094
  C266     1.0000 0.94713  0.35292  0.55955  Biso   1.000  C  0.085094
  C267     1.0000 0.35292  0.94713  0.94045  Biso   1.000  C  0.085094
  C268     1.0000 0.64708  0.05287  0.94045  Biso   1.000  C  0.085094
  C269     1.0000 0.94713  0.64708  0.05955  Biso   1.000  C  0.085094
  C270     1.0000 0.05287  0.35292  0.05955  Biso   1.000  C  0.085094
  C271     1.0000 0.35292  0.05287  0.44045  Biso   1.000  C  0.085094
  C272     1.0000 0.64708  0.94713  0.44045  Biso   1.000  C  0.085094
  C273     1.0000 0.84619  0.57501  0.52294  Biso   1.000  C  -0.103199
  C274     1.0000 0.15381  0.42499  0.52294  Biso   1.000  C  -0.103199
  C275     1.0000 0.42499  0.15381  0.97706  Biso   1.000  C  -0.103199
  C276     1.0000 0.57501  0.84619  0.97706  Biso   1.000  C  -0.103199
  C277     1.0000 0.15381  0.57501  0.02294  Biso   1.000  C  -0.103199
  C278     1.0000 0.84619  0.42499  0.02294  Biso   1.000  C  -0.103199
  C279     1.0000 0.42499  0.84619  0.47706  Biso   1.000  C  -0.103199
  C280     1.0000 0.57501  0.15381  0.47706  Biso   1.000  C  -0.103199
  C281     1.0000 0.05484  0.67131  0.58504  Biso   1.000  C  -0.225705
  C282     1.0000 0.94516  0.32869  0.58504  Biso   1.000  C  -0.225705
  C283     1.0000 0.32869  0.94516  0.91496  Biso   1.000  C  -0.225705
  C284     1.0000 0.67131  0.05484  0.91496  Biso   1.000  C  -0.225705
  C285     1.0000 0.94516  0.67131  0.08504  Biso   1.000  C  -0.225705
  C286     1.0000 0.05484  0.32869  0.08504  Biso   1.000  C  -0.225705
  C287     1.0000 0.32869  0.05484  0.41496  Biso   1.000  C  -0.225705
  C288     1.0000 0.67131  0.94516  0.41496  Biso   1.000  C  -0.225705
  C289     1.0000 0.15706  0.70933  0.28945  Biso   1.000  C  -0.100588
  C290     1.0000 0.84294  0.29067  0.28945  Biso   1.000  C  -0.100588
  C291     1.0000 0.29067  0.84294  0.21055  Biso   1.000  C  -0.100588
  C292     1.0000 0.70933  0.15706  0.21055  Biso   1.000  C  -0.100588
  C293     1.0000 0.84294  0.70933  0.78945  Biso   1.000  C  -0.100588
  C294     1.0000 0.15706  0.29067  0.78945  Biso   1.000  C  -0.100588
  C295     1.0000 0.29067  0.15706  0.71055  Biso   1.000  C  -0.100588
  C296     1.0000 0.70933  0.84294  0.71055  Biso   1.000  C  -0.100588
  C297     1.0000 0.14543  0.46604  0.31210  Biso   1.000  C  0.097309
  C298     1.0000 0.85457  0.53396  0.31210  Biso   1.000  C  0.097309
  C299     1.0000 0.53396  0.85457  0.18790  Biso   1.000  C  0.097309
  C300     1.0000 0.46604  0.14543  0.18790  Biso   1.000  C  0.097309
  C301     1.0000 0.85457  0.46604  0.81210  Biso   1.000  C  0.097309
  C302     1.0000 0.14543  0.53396  0.81210  Biso   1.000  C  0.097309
  C303     1.0000 0.53396  0.14543  0.68790  Biso   1.000  C  0.097309
  C304     1.0000 0.46604  0.85457  0.68790  Biso   1.000  C  0.097309
  C305     1.0000 0.16898  0.46650  0.33449  Biso   1.000  C  -0.215059
  C306     1.0000 0.83102  0.53350  0.33449  Biso   1.000  C  -0.215059
  C307     1.0000 0.53350  0.83102  0.16551  Biso   1.000  C  -0.215059
  C308     1.0000 0.46650  0.16898  0.16551  Biso   1.000  C  -0.215059
  C309     1.0000 0.83102  0.46650  0.83449  Biso   1.000  C  -0.215059
  C310     1.0000 0.16898  0.53350  0.83449  Biso   1.000  C  -0.215059
  C311     1.0000 0.53350  0.16898  0.66551  Biso   1.000  C  -0.215059
  C312     1.0000 0.46650  0.83102  0.66551  Biso   1.000  C  -0.215059
  C313     1.0000 0.16342  0.58879  0.51988  Biso   1.000  C  -0.098544
  C314     1.0000 0.83658  0.41121  0.51988  Biso   1.000  C  -0.098544
  C315     1.0000 0.41121  0.83658  0.98012  Biso   1.000  C  -0.098544
  C316     1.0000 0.58879  0.16342  0.98012  Biso   1.000  C  -0.098544
  C317     1.0000 0.83658  0.58879  0.01988  Biso   1.000  C  -0.098544
  C318     1.0000 0.16342  0.41121  0.01988  Biso   1.000  C  -0.098544
  C319     1.0000 0.41121  0.16342  0.48012  Biso   1.000  C  -0.098544
  C320     1.0000 0.58879  0.83658  0.48012  Biso   1.000  C  -0.098544
  C321     1.0000 0.25797  0.61931  0.50857  Biso   1.000  C  0.630582
  C322     1.0000 0.74203  0.38069  0.50857  Biso   1.000  C  0.630582
  C323     1.0000 0.38069  0.74203  0.99143  Biso   1.000  C  0.630582
  C324     1.0000 0.61931  0.25797  0.99143  Biso   1.000  C  0.630582
  C325     1.0000 0.74203  0.61931  0.00857  Biso   1.000  C  0.630582
  C326     1.0000 0.25797  0.38069  0.00857  Biso   1.000  C  0.630582
  C327     1.0000 0.38069  0.25797  0.49143  Biso   1.000  C  0.630582
  C328     1.0000 0.61931  0.74203  0.49143  Biso   1.000  C  0.630582
  C329     1.0000 0.00381  0.67756  0.59662  Biso   1.000  C  0.090635
  C330     1.0000 0.99619  0.32244  0.59662  Biso   1.000  C  0.090635
  C331     1.0000 0.32244  0.99619  0.90338  Biso   1.000  C  0.090635
  C332     1.0000 0.67756  0.00381  0.90338  Biso   1.000  C  0.090635
  C333     1.0000 0.99619  0.67756  0.09662  Biso   1.000  C  0.090635
  C334     1.0000 0.00381  0.32244  0.09662  Biso   1.000  C  0.090635
  C335     1.0000 0.32244  0.00381  0.40338  Biso   1.000  C  0.090635
  C336     1.0000 0.67756  0.99619  0.40338  Biso   1.000  C  0.090635
  C337     1.0000 0.27712  0.51123  0.44335  Biso   1.000  C  0.650687
  C338     1.0000 0.72288  0.48877  0.44335  Biso   1.000  C  0.650687
  C339     1.0000 0.48877  0.72288  0.05665  Biso   1.000  C  0.650687
  C340     1.0000 0.51123  0.27712  0.05665  Biso   1.000  C  0.650687
  C341     1.0000 0.72288  0.51123  0.94335  Biso   1.000  C  0.650687
  C342     1.0000 0.27712  0.48877  0.94335  Biso   1.000  C  0.650687
  C343     1.0000 0.48877  0.27712  0.55665  Biso   1.000  C  0.650687
  C344     1.0000 0.51123  0.72288  0.55665  Biso   1.000  C  0.650687
  C345     1.0000 0.00480  0.70502  0.62151  Biso   1.000  C  0.095667
  C346     1.0000 0.99520  0.29498  0.62151  Biso   1.000  C  0.095667
  C347     1.0000 0.29498  0.99520  0.87849  Biso   1.000  C  0.095667
  C348     1.0000 0.70502  0.00480  0.87849  Biso   1.000  C  0.095667
  C349     1.0000 0.99520  0.70502  0.12151  Biso   1.000  C  0.095667
  C350     1.0000 0.00480  0.29498  0.12151  Biso   1.000  C  0.095667
  C351     1.0000 0.29498  0.00480  0.37849  Biso   1.000  C  0.095667
  C352     1.0000 0.70502  0.99520  0.37849  Biso   1.000  C  0.095667
  C353     1.0000 0.14790  0.67768  0.54970  Biso   1.000  C  -0.141423
  C354     1.0000 0.85210  0.32232  0.54970  Biso   1.000  C  -0.141423
  C355     1.0000 0.32232  0.85210  0.95030  Biso   1.000  C  -0.141423
  C356     1.0000 0.67768  0.14790  0.95030  Biso   1.000  C  -0.141423
  C357     1.0000 0.85210  0.67768  0.04970  Biso   1.000  C  -0.141423
  C358     1.0000 0.14790  0.32232  0.04970  Biso   1.000  C  -0.141423
  C359     1.0000 0.32232  0.14790  0.45030  Biso   1.000  C  -0.141423
  C360     1.0000 0.67768  0.85210  0.45030  Biso   1.000  C  -0.141423
  C361     1.0000 0.04770  0.69708  0.63663  Biso   1.000  C  -0.143391
  C362     1.0000 0.95230  0.30292  0.63663  Biso   1.000  C  -0.143391
  C363     1.0000 0.30292  0.95230  0.86337  Biso   1.000  C  -0.143391
  C364     1.0000 0.69708  0.04770  0.86337  Biso   1.000  C  -0.143391
  C365     1.0000 0.95230  0.69708  0.13663  Biso   1.000  C  -0.143391
  C366     1.0000 0.04770  0.30292  0.13663  Biso   1.000  C  -0.143391
  C367     1.0000 0.30292  0.04770  0.36337  Biso   1.000  C  -0.143391
  C368     1.0000 0.69708  0.95230  0.36337  Biso   1.000  C  -0.143391
  C369     1.0000 0.04987  0.72123  0.65974  Biso   1.000  C  -0.094909
  C370     1.0000 0.95013  0.27877  0.65974  Biso   1.000  C  -0.094909
  C371     1.0000 0.27877  0.95013  0.84026  Biso   1.000  C  -0.094909
  C372     1.0000 0.72123  0.04987  0.84026  Biso   1.000  C  -0.094909
  C373     1.0000 0.95013  0.72123  0.15974  Biso   1.000  C  -0.094909
  C374     1.0000 0.04987  0.27877  0.15974  Biso   1.000  C  -0.094909
  C375     1.0000 0.27877  0.04987  0.34026  Biso   1.000  C  -0.094909
  C376     1.0000 0.72123  0.95013  0.34026  Biso   1.000  C  -0.094909
  C377     1.0000 0.23334  0.55828  0.38022  Biso   1.000  C  -0.153041
  C378     1.0000 0.76666  0.44172  0.38022  Biso   1.000  C  -0.153041
  C379     1.0000 0.44172  0.76666  0.11978  Biso   1.000  C  -0.153041
  C380     1.0000 0.55828  0.23334  0.11978  Biso   1.000  C  -0.153041
  C381     1.0000 0.76666  0.55828  0.88022  Biso   1.000  C  -0.153041
  C382     1.0000 0.23334  0.44172  0.88022  Biso   1.000  C  -0.153041
  C383     1.0000 0.44172  0.23334  0.61978  Biso   1.000  C  -0.153041
  C384     1.0000 0.55828  0.76666  0.61978  Biso   1.000  C  -0.153041
  C385     1.0000 0.19343  0.47356  0.38728  Biso   1.000  C  -0.154042
  C386     1.0000 0.80657  0.52644  0.38728  Biso   1.000  C  -0.154042
  C387     1.0000 0.52644  0.80657  0.11272  Biso   1.000  C  -0.154042
  C388     1.0000 0.47356  0.19343  0.11272  Biso   1.000  C  -0.154042
  C389     1.0000 0.80657  0.47356  0.88728  Biso   1.000  C  -0.154042
  C390     1.0000 0.19343  0.52644  0.88728  Biso   1.000  C  -0.154042
  C391     1.0000 0.52644  0.19343  0.61272  Biso   1.000  C  -0.154042
  C392     1.0000 0.47356  0.80657  0.61272  Biso   1.000  C  -0.154042
  C393     1.0000 0.96177  0.75827  0.65273  Biso   1.000  C  -0.098017
  C394     1.0000 0.03823  0.24173  0.65273  Biso   1.000  C  -0.098017
  C395     1.0000 0.24173  0.03823  0.84727  Biso   1.000  C  -0.098017
  C396     1.0000 0.75827  0.96177  0.84727  Biso   1.000  C  -0.098017
  C397     1.0000 0.03823  0.75827  0.15273  Biso   1.000  C  -0.098017
  C398     1.0000 0.96177  0.24173  0.15273  Biso   1.000  C  -0.098017
  C399     1.0000 0.24173  0.96177  0.34727  Biso   1.000  C  -0.098017
  C400     1.0000 0.75827  0.03823  0.34727  Biso   1.000  C  -0.098017
  C401     1.0000 0.12122  0.25999  0.26115  Biso   1.000  C  0.650021
  C402     1.0000 0.87878  0.74001  0.26115  Biso   1.000  C  0.650021
  C403     1.0000 0.74001  0.87878  0.23885  Biso   1.000  C  0.650021
  C404     1.0000 0.25999  0.12122  0.23885  Biso   1.000  C  0.650021
  C405     1.0000 0.87878  0.25999  0.76115  Biso   1.000  C  0.650021
  C406     1.0000 0.12122  0.74001  0.76115  Biso   1.000  C  0.650021
  C407     1.0000 0.74001  0.12122  0.73885  Biso   1.000  C  0.650021
  C408     1.0000 0.25999  0.87878  0.73885  Biso   1.000  C  0.650021
  C409     1.0000 0.21979  0.47371  0.41145  Biso   1.000  C  -0.101498
  C410     1.0000 0.78021  0.52629  0.41145  Biso   1.000  C  -0.101498
  C411     1.0000 0.52629  0.78021  0.08855  Biso   1.000  C  -0.101498
  C412     1.0000 0.47371  0.21979  0.08855  Biso   1.000  C  -0.101498
  C413     1.0000 0.78021  0.47371  0.91145  Biso   1.000  C  -0.101498
  C414     1.0000 0.21979  0.52629  0.91145  Biso   1.000  C  -0.101498
  C415     1.0000 0.52629  0.21979  0.58855  Biso   1.000  C  -0.101498
  C416     1.0000 0.47371  0.78021  0.58855  Biso   1.000  C  -0.101498
  C417     1.0000 0.25734  0.55666  0.40398  Biso   1.000  C  -0.106683
  C418     1.0000 0.74266  0.44334  0.40398  Biso   1.000  C  -0.106683
  C419     1.0000 0.44334  0.74266  0.09602  Biso   1.000  C  -0.106683
  C420     1.0000 0.55666  0.25734  0.09602  Biso   1.000  C  -0.106683
  C421     1.0000 0.74266  0.55666  0.90398  Biso   1.000  C  -0.106683
  C422     1.0000 0.25734  0.44334  0.90398  Biso   1.000  C  -0.106683
  C423     1.0000 0.44334  0.25734  0.59602  Biso   1.000  C  -0.106683
  C424     1.0000 0.55666  0.74266  0.59602  Biso   1.000  C  -0.106683
  C425     1.0000 0.19619  0.67108  0.53676  Biso   1.000  C  -0.099809
  C426     1.0000 0.80381  0.32892  0.53676  Biso   1.000  C  -0.099809
  C427     1.0000 0.32892  0.80381  0.96324  Biso   1.000  C  -0.099809
  C428     1.0000 0.67108  0.19619  0.96324  Biso   1.000  C  -0.099809
  C429     1.0000 0.80381  0.67108  0.03676  Biso   1.000  C  -0.099809
  C430     1.0000 0.19619  0.32892  0.03676  Biso   1.000  C  -0.099809
  C431     1.0000 0.32892  0.19619  0.46324  Biso   1.000  C  -0.099809
  C432     1.0000 0.67108  0.80381  0.46324  Biso   1.000  C  -0.099809
  H1       1.0000 0.35740  0.39000  0.46290  Biso   1.000  H  0.443826
  H2       1.0000 0.64260  0.61000  0.46290  Biso   1.000  H  0.443826
  H3       1.0000 0.61000  0.64260  0.03710  Biso   1.000  H  0.443826
  H4       1.0000 0.39000  0.35740  0.03710  Biso   1.000  H  0.443826
  H5       1.0000 0.64260  0.39000  0.96290  Biso   1.000  H  0.443826
  H6       1.0000 0.35740  0.61000  0.96290  Biso   1.000  H  0.443826
  H7       1.0000 0.61000  0.35740  0.53710  Biso   1.000  H  0.443826
  H8       1.0000 0.39000  0.64260  0.53710  Biso   1.000  H  0.443826
  H9       1.0000 0.36870  0.49780  0.49930  Biso   1.000  H  0.438779
  H10      1.0000 0.63130  0.50220  0.49930  Biso   1.000  H  0.438779
  H11      1.0000 0.50220  0.63130  0.00070  Biso   1.000  H  0.438779
  H12      1.0000 0.49780  0.36870  0.00070  Biso   1.000  H  0.438779
  H13      1.0000 0.63130  0.49780  0.99930  Biso   1.000  H  0.438779
  H14      1.0000 0.36870  0.50220  0.99930  Biso   1.000  H  0.438779
  H15      1.0000 0.50220  0.36870  0.50070  Biso   1.000  H  0.438779
  H16      1.0000 0.49780  0.63130  0.50070  Biso   1.000  H  0.438779
  H17      1.0000 0.01990  0.13260  0.25110  Biso   1.000  H  0.424440
  H18      1.0000 0.98010  0.86740  0.25110  Biso   1.000  H  0.424440
  H19      1.0000 0.86740  0.98010  0.24890  Biso   1.000  H  0.424440
  H20      1.0000 0.13260  0.01990  0.24890  Biso   1.000  H  0.424440
  H21      1.0000 0.98010  0.13260  0.75110  Biso   1.000  H  0.424440
  H22      1.0000 0.01990  0.86740  0.75110  Biso   1.000  H  0.424440
  H23      1.0000 0.86740  0.01990  0.74890  Biso   1.000  H  0.424440
  H24      1.0000 0.13260  0.98010  0.74890  Biso   1.000  H  0.424440
  H25      1.0000 0.39410  0.60690  0.47240  Biso   1.000  H  0.436453
  H26      1.0000 0.60590  0.39310  0.47240  Biso   1.000  H  0.436452
  H27      1.0000 0.39310  0.60590  0.02760  Biso   1.000  H  0.436453
  H28      1.0000 0.60690  0.39410  0.02760  Biso   1.000  H  0.436452
  H29      1.0000 0.60590  0.60690  0.97240  Biso   1.000  H  0.436453
  H30      1.0000 0.39410  0.39310  0.97240  Biso   1.000  H  0.436452
  H31      1.0000 0.39310  0.39410  0.52760  Biso   1.000  H  0.436453
  H32      1.0000 0.60690  0.60590  0.52760  Biso   1.000  H  0.436452
  H33      1.0000 0.08620  0.89730  0.22020  Biso   1.000  H  0.432242
  H34      1.0000 0.91380  0.10270  0.22020  Biso   1.000  H  0.432242
  H35      1.0000 0.10270  0.91380  0.27980  Biso   1.000  H  0.432242
  H36      1.0000 0.89730  0.08620  0.27980  Biso   1.000  H  0.432242
  H37      1.0000 0.91380  0.89730  0.72020  Biso   1.000  H  0.432242
  H38      1.0000 0.08620  0.10270  0.72020  Biso   1.000  H  0.432242
  H39      1.0000 0.10270  0.08620  0.77980  Biso   1.000  H  0.432242
  H40      1.0000 0.89730  0.91380  0.77980  Biso   1.000  H  0.432242
  H41      1.0000 0.06040  0.59200  0.28170  Biso   1.000  H  0.112377
  H42      1.0000 0.93960  0.40800  0.28170  Biso   1.000  H  0.112377
  H43      1.0000 0.40800  0.93960  0.21830  Biso   1.000  H  0.112377
  H44      1.0000 0.59200  0.06040  0.21830  Biso   1.000  H  0.112377
  H45      1.0000 0.93960  0.59200  0.78170  Biso   1.000  H  0.112377
  H46      1.0000 0.06040  0.40800  0.78170  Biso   1.000  H  0.112377
  H47      1.0000 0.40800  0.06040  0.71830  Biso   1.000  H  0.112377
  H48      1.0000 0.59200  0.93960  0.71830  Biso   1.000  H  0.112377
  H49      1.0000 0.17060  0.59810  0.34290  Biso   1.000  H  0.109242
  H50      1.0000 0.82940  0.40190  0.34290  Biso   1.000  H  0.109242
  H51      1.0000 0.40190  0.82940  0.15710  Biso   1.000  H  0.109242
  H52      1.0000 0.59810  0.17060  0.15710  Biso   1.000  H  0.109242
  H53      1.0000 0.82940  0.59810  0.84290  Biso   1.000  H  0.109242
  H54      1.0000 0.17060  0.40190  0.84290  Biso   1.000  H  0.109242
  H55      1.0000 0.40190  0.17060  0.65710  Biso   1.000  H  0.109242
  H56      1.0000 0.59810  0.82940  0.65710  Biso   1.000  H  0.109242
  H57      1.0000 0.06400  0.42990  0.28380  Biso   1.000  H  0.116073
  H58      1.0000 0.93600  0.57010  0.28380  Biso   1.000  H  0.116073
  H59      1.0000 0.57010  0.93600  0.21620  Biso   1.000  H  0.116073
  H60      1.0000 0.42990  0.06400  0.21620  Biso   1.000  H  0.116073
  H61      1.0000 0.93600  0.42990  0.78380  Biso   1.000  H  0.116073
  H62      1.0000 0.06400  0.57010  0.78380  Biso   1.000  H  0.116073
  H63      1.0000 0.57010  0.06400  0.71620  Biso   1.000  H  0.116073
  H64      1.0000 0.42990  0.93600  0.71620  Biso   1.000  H  0.116073
  H65      1.0000 0.92490  0.56040  0.53230  Biso   1.000  H  0.108170
  H66      1.0000 0.07510  0.43960  0.53230  Biso   1.000  H  0.108170
  H67      1.0000 0.43960  0.07510  0.96770  Biso   1.000  H  0.108170
  H68      1.0000 0.56040  0.92490  0.96770  Biso   1.000  H  0.108170
  H69      1.0000 0.07510  0.56040  0.03230  Biso   1.000  H  0.108170
  H70      1.0000 0.92490  0.43960  0.03230  Biso   1.000  H  0.108170
  H71      1.0000 0.43960  0.92490  0.46770  Biso   1.000  H  0.108170
  H72      1.0000 0.56040  0.07510  0.46770  Biso   1.000  H  0.108170
  H73      1.0000 0.19640  0.65620  0.31190  Biso   1.000  H  0.111868
  H74      1.0000 0.80360  0.34380  0.31190  Biso   1.000  H  0.111868
  H75      1.0000 0.34380  0.80360  0.18810  Biso   1.000  H  0.111868
  H76      1.0000 0.65620  0.19640  0.18810  Biso   1.000  H  0.111868
  H77      1.0000 0.80360  0.65620  0.81190  Biso   1.000  H  0.111868
  H78      1.0000 0.19640  0.34380  0.81190  Biso   1.000  H  0.111868
  H79      1.0000 0.34380  0.19640  0.68810  Biso   1.000  H  0.111868
  H80      1.0000 0.65620  0.80360  0.68810  Biso   1.000  H  0.111868
  H81      1.0000 0.05590  0.34670  0.26260  Biso   1.000  H  0.113165
  H82      1.0000 0.94410  0.65330  0.26260  Biso   1.000  H  0.113165
  H83      1.0000 0.65330  0.94410  0.23740  Biso   1.000  H  0.113165
  H84      1.0000 0.34670  0.05590  0.23740  Biso   1.000  H  0.113165
  H85      1.0000 0.94410  0.34670  0.76260  Biso   1.000  H  0.113165
  H86      1.0000 0.05590  0.65330  0.76260  Biso   1.000  H  0.113165
  H87      1.0000 0.65330  0.05590  0.73740  Biso   1.000  H  0.113165
  H88      1.0000 0.34670  0.94410  0.73740  Biso   1.000  H  0.113165
  H89      1.0000 0.86040  0.69780  0.56270  Biso   1.000  H  0.111794
  H90      1.0000 0.13960  0.30220  0.56270  Biso   1.000  H  0.111794
  H91      1.0000 0.30220  0.13960  0.93730  Biso   1.000  H  0.111794
  H92      1.0000 0.69780  0.86040  0.93730  Biso   1.000  H  0.111794
  H93      1.0000 0.13960  0.69780  0.06270  Biso   1.000  H  0.111794
  H94      1.0000 0.86040  0.30220  0.06270  Biso   1.000  H  0.111794
  H95      1.0000 0.30220  0.86040  0.43730  Biso   1.000  H  0.111794
  H96      1.0000 0.69780  0.13960  0.43730  Biso   1.000  H  0.111794
  H97      1.0000 0.92050  0.67260  0.59440  Biso   1.000  H  0.127305
  H98      1.0000 0.07950  0.32740  0.59440  Biso   1.000  H  0.127305
  H99      1.0000 0.32740  0.07950  0.90560  Biso   1.000  H  0.127305
  H100     1.0000 0.67260  0.92050  0.90560  Biso   1.000  H  0.127305
  H101     1.0000 0.07950  0.67260  0.09440  Biso   1.000  H  0.127305
  H102     1.0000 0.92050  0.32740  0.09440  Biso   1.000  H  0.127305
  H103     1.0000 0.32740  0.92050  0.40560  Biso   1.000  H  0.127305
  H104     1.0000 0.67260  0.07950  0.40560  Biso   1.000  H  0.127305
  H105     1.0000 0.20930  0.37950  0.31050  Biso   1.000  H  0.110523
  H106     1.0000 0.79070  0.62050  0.31050  Biso   1.000  H  0.110523
  H107     1.0000 0.62050  0.79070  0.18950  Biso   1.000  H  0.110523
  H108     1.0000 0.37950  0.20930  0.18950  Biso   1.000  H  0.110523
  H109     1.0000 0.79070  0.37950  0.81050  Biso   1.000  H  0.110523
  H110     1.0000 0.20930  0.62050  0.81050  Biso   1.000  H  0.110523
  H111     1.0000 0.62050  0.20930  0.68950  Biso   1.000  H  0.110523
  H112     1.0000 0.37950  0.79070  0.68950  Biso   1.000  H  0.110523
  H113     1.0000 0.77760  0.68030  0.54400  Biso   1.000  H  0.122097
  H114     1.0000 0.22240  0.31970  0.54400  Biso   1.000  H  0.122097
  H115     1.0000 0.31970  0.22240  0.95600  Biso   1.000  H  0.122097
  H116     1.0000 0.68030  0.77760  0.95600  Biso   1.000  H  0.122097
  H117     1.0000 0.22240  0.68030  0.04400  Biso   1.000  H  0.122097
  H118     1.0000 0.77760  0.31970  0.04400  Biso   1.000  H  0.122097
  H119     1.0000 0.31970  0.77760  0.45600  Biso   1.000  H  0.122097
  H120     1.0000 0.68030  0.22240  0.45600  Biso   1.000  H  0.122097
  H121     1.0000 0.08750  0.56740  0.53070  Biso   1.000  H  0.109050
  H122     1.0000 0.91250  0.43260  0.53070  Biso   1.000  H  0.109050
  H123     1.0000 0.43260  0.91250  0.96930  Biso   1.000  H  0.109050
  H124     1.0000 0.56740  0.08750  0.96930  Biso   1.000  H  0.109050
  H125     1.0000 0.91250  0.56740  0.03070  Biso   1.000  H  0.109050
  H126     1.0000 0.08750  0.43260  0.03070  Biso   1.000  H  0.109050
  H127     1.0000 0.43260  0.08750  0.46930  Biso   1.000  H  0.109050
  H128     1.0000 0.56740  0.91250  0.46930  Biso   1.000  H  0.109050
  H129     1.0000 0.04740  0.67190  0.25940  Biso   1.000  H  0.117531
  H130     1.0000 0.95260  0.32810  0.25940  Biso   1.000  H  0.117531
  H131     1.0000 0.32810  0.95260  0.24060  Biso   1.000  H  0.117531
  H132     1.0000 0.67190  0.04740  0.24060  Biso   1.000  H  0.117531
  H133     1.0000 0.95260  0.67190  0.75940  Biso   1.000  H  0.117531
  H134     1.0000 0.04740  0.32810  0.75940  Biso   1.000  H  0.117531
  H135     1.0000 0.32810  0.04740  0.74060  Biso   1.000  H  0.117531
  H136     1.0000 0.67190  0.95260  0.74060  Biso   1.000  H  0.117531
  H137     1.0000 0.20290  0.29540  0.28910  Biso   1.000  H  0.126480
  H138     1.0000 0.79710  0.70460  0.28910  Biso   1.000  H  0.126480
  H139     1.0000 0.70460  0.79710  0.21090  Biso   1.000  H  0.126480
  H140     1.0000 0.29540  0.20290  0.21090  Biso   1.000  H  0.126480
  H141     1.0000 0.79710  0.29540  0.78910  Biso   1.000  H  0.126480
  H142     1.0000 0.20290  0.70460  0.78910  Biso   1.000  H  0.126480
  H143     1.0000 0.70460  0.20290  0.71090  Biso   1.000  H  0.126480
  H144     1.0000 0.29540  0.79710  0.71090  Biso   1.000  H  0.126480
  H145     1.0000 0.92790  0.72810  0.62150  Biso   1.000  H  0.105448
  H146     1.0000 0.07210  0.27190  0.62150  Biso   1.000  H  0.105448
  H147     1.0000 0.27190  0.07210  0.87850  Biso   1.000  H  0.105448
  H148     1.0000 0.72810  0.92790  0.87850  Biso   1.000  H  0.105448
  H149     1.0000 0.07210  0.72810  0.12150  Biso   1.000  H  0.105448
  H150     1.0000 0.92790  0.27190  0.12150  Biso   1.000  H  0.105448
  H151     1.0000 0.27190  0.92790  0.37850  Biso   1.000  H  0.105448
  H152     1.0000 0.72810  0.07210  0.37850  Biso   1.000  H  0.105448
  H153     1.0000 0.12760  0.13850  0.21580  Biso   1.000  H  0.436253
  H154     1.0000 0.87240  0.86150  0.21580  Biso   1.000  H  0.436253
  H155     1.0000 0.86150  0.87240  0.28420  Biso   1.000  H  0.436253
  H156     1.0000 0.13850  0.12760  0.28420  Biso   1.000  H  0.436253
  H157     1.0000 0.87240  0.13850  0.71580  Biso   1.000  H  0.436253
  H158     1.0000 0.12760  0.86150  0.71580  Biso   1.000  H  0.436253
  H159     1.0000 0.86150  0.12760  0.78420  Biso   1.000  H  0.436253
  H160     1.0000 0.13850  0.87240  0.78420  Biso   1.000  H  0.436253
  H161     1.0000 0.11780  0.51420  0.28520  Biso   1.000  H  0.107525
  H162     1.0000 0.88220  0.48580  0.28520  Biso   1.000  H  0.107525
  H163     1.0000 0.48580  0.88220  0.21480  Biso   1.000  H  0.107525
  H164     1.0000 0.51420  0.11780  0.21480  Biso   1.000  H  0.107525
  H165     1.0000 0.88220  0.51420  0.78520  Biso   1.000  H  0.107525
  H166     1.0000 0.11780  0.48580  0.78520  Biso   1.000  H  0.107525
  H167     1.0000 0.48580  0.11780  0.71480  Biso   1.000  H  0.107525
  H168     1.0000 0.51420  0.88220  0.71480  Biso   1.000  H  0.107525
  H169     1.0000 0.00300  0.61570  0.53370  Biso   1.000  H  0.124680
  H170     1.0000 0.99700  0.38430  0.53370  Biso   1.000  H  0.124680
  H171     1.0000 0.38430  0.99700  0.96630  Biso   1.000  H  0.124680
  H172     1.0000 0.61570  0.00300  0.96630  Biso   1.000  H  0.124680
  H173     1.0000 0.99700  0.61570  0.03370  Biso   1.000  H  0.124680
  H174     1.0000 0.00300  0.38430  0.03370  Biso   1.000  H  0.124680
  H175     1.0000 0.38430  0.00300  0.46630  Biso   1.000  H  0.124680
  H176     1.0000 0.61570  0.99700  0.46630  Biso   1.000  H  0.124680
  H177     1.0000 0.84220  0.54340  0.51290  Biso   1.000  H  0.118803
  H178     1.0000 0.15780  0.45660  0.51290  Biso   1.000  H  0.118803
  H179     1.0000 0.45660  0.15780  0.98710  Biso   1.000  H  0.118803
  H180     1.0000 0.54340  0.84220  0.98710  Biso   1.000  H  0.118803
  H181     1.0000 0.15780  0.54340  0.01290  Biso   1.000  H  0.118803
  H182     1.0000 0.84220  0.45660  0.01290  Biso   1.000  H  0.118803
  H183     1.0000 0.45660  0.84220  0.48710  Biso   1.000  H  0.118803
  H184     1.0000 0.54340  0.15780  0.48710  Biso   1.000  H  0.118803
  H185     1.0000 0.08840  0.68160  0.59270  Biso   1.000  H  0.129033
  H186     1.0000 0.91160  0.31840  0.59270  Biso   1.000  H  0.129033
  H187     1.0000 0.31840  0.91160  0.90730  Biso   1.000  H  0.129033
  H188     1.0000 0.68160  0.08840  0.90730  Biso   1.000  H  0.129033
  H189     1.0000 0.91160  0.68160  0.09270  Biso   1.000  H  0.129033
  H190     1.0000 0.08840  0.31840  0.09270  Biso   1.000  H  0.129033
  H191     1.0000 0.31840  0.08840  0.40730  Biso   1.000  H  0.129033
  H192     1.0000 0.68160  0.91160  0.40730  Biso   1.000  H  0.129033
  H193     1.0000 0.18160  0.73940  0.29170  Biso   1.000  H  0.121861
  H194     1.0000 0.81840  0.26060  0.29170  Biso   1.000  H  0.121861
  H195     1.0000 0.26060  0.81840  0.20830  Biso   1.000  H  0.121861
  H196     1.0000 0.73940  0.18160  0.20830  Biso   1.000  H  0.121861
  H197     1.0000 0.81840  0.73940  0.79170  Biso   1.000  H  0.121861
  H198     1.0000 0.18160  0.26060  0.79170  Biso   1.000  H  0.121861
  H199     1.0000 0.26060  0.18160  0.70830  Biso   1.000  H  0.121861
  H200     1.0000 0.73940  0.81840  0.70830  Biso   1.000  H  0.121861
  H201     1.0000 0.17920  0.43260  0.34180  Biso   1.000  H  0.112096
  H202     1.0000 0.82080  0.56740  0.34180  Biso   1.000  H  0.112096
  H203     1.0000 0.56740  0.82080  0.15820  Biso   1.000  H  0.112096
  H204     1.0000 0.43260  0.17920  0.15820  Biso   1.000  H  0.112096
  H205     1.0000 0.82080  0.43260  0.84180  Biso   1.000  H  0.112096
  H206     1.0000 0.17920  0.56740  0.84180  Biso   1.000  H  0.112096
  H207     1.0000 0.56740  0.17920  0.65820  Biso   1.000  H  0.112096
  H208     1.0000 0.43260  0.82080  0.65820  Biso   1.000  H  0.112096
  H209     1.0000 0.16910  0.55780  0.50960  Biso   1.000  H  0.115651
  H210     1.0000 0.83090  0.44220  0.50960  Biso   1.000  H  0.115651
  H211     1.0000 0.44220  0.83090  0.99040  Biso   1.000  H  0.115651
  H212     1.0000 0.55780  0.16910  0.99040  Biso   1.000  H  0.115651
  H213     1.0000 0.83090  0.55780  0.00960  Biso   1.000  H  0.115651
  H214     1.0000 0.16910  0.44220  0.00960  Biso   1.000  H  0.115651
  H215     1.0000 0.44220  0.16910  0.49040  Biso   1.000  H  0.115651
  H216     1.0000 0.55780  0.83090  0.49040  Biso   1.000  H  0.115651
  H217     1.0000 0.14350  0.70800  0.56050  Biso   1.000  H  0.114255
  H218     1.0000 0.85650  0.29200  0.56050  Biso   1.000  H  0.114255
  H219     1.0000 0.29200  0.85650  0.93950  Biso   1.000  H  0.114255
  H220     1.0000 0.70800  0.14350  0.93950  Biso   1.000  H  0.114255
  H221     1.0000 0.85650  0.70800  0.06050  Biso   1.000  H  0.114255
  H222     1.0000 0.14350  0.29200  0.06050  Biso   1.000  H  0.114255
  H223     1.0000 0.29200  0.14350  0.43950  Biso   1.000  H  0.114255
  H224     1.0000 0.70800  0.85650  0.43950  Biso   1.000  H  0.114255
  H225     1.0000 0.07730  0.67440  0.63140  Biso   1.000  H  0.108828
  H226     1.0000 0.92270  0.32560  0.63140  Biso   1.000  H  0.108828
  H227     1.0000 0.32560  0.92270  0.86860  Biso   1.000  H  0.108828
  H228     1.0000 0.67440  0.07730  0.86860  Biso   1.000  H  0.108828
  H229     1.0000 0.92270  0.67440  0.13140  Biso   1.000  H  0.108828
  H230     1.0000 0.07730  0.32560  0.13140  Biso   1.000  H  0.108828
  H231     1.0000 0.32560  0.07730  0.36860  Biso   1.000  H  0.108828
  H232     1.0000 0.67440  0.92270  0.36860  Biso   1.000  H  0.108828
  H233     1.0000 0.08140  0.71560  0.66970  Biso   1.000  H  0.116438
  H234     1.0000 0.91860  0.28440  0.66970  Biso   1.000  H  0.116438
  H235     1.0000 0.28440  0.91860  0.83030  Biso   1.000  H  0.116438
  H236     1.0000 0.71560  0.08140  0.83030  Biso   1.000  H  0.116438
  H237     1.0000 0.91860  0.71560  0.16970  Biso   1.000  H  0.116438
  H238     1.0000 0.08140  0.28440  0.16970  Biso   1.000  H  0.116438
  H239     1.0000 0.28440  0.08140  0.33030  Biso   1.000  H  0.116438
  H240     1.0000 0.71560  0.91860  0.33030  Biso   1.000  H  0.116438
  H241     1.0000 0.23970  0.58890  0.36980  Biso   1.000  H  0.112074
  H242     1.0000 0.76030  0.41110  0.36980  Biso   1.000  H  0.112074
  H243     1.0000 0.41110  0.76030  0.13020  Biso   1.000  H  0.112074
  H244     1.0000 0.58890  0.23970  0.13020  Biso   1.000  H  0.112074
  H245     1.0000 0.76030  0.58890  0.86980  Biso   1.000  H  0.112074
  H246     1.0000 0.23970  0.41110  0.86980  Biso   1.000  H  0.112074
  H247     1.0000 0.41110  0.23970  0.63020  Biso   1.000  H  0.112074
  H248     1.0000 0.58890  0.76030  0.63020  Biso   1.000  H  0.112074
  H249     1.0000 0.17110  0.44340  0.38230  Biso   1.000  H  0.114768
  H250     1.0000 0.82890  0.55660  0.38230  Biso   1.000  H  0.114768
  H251     1.0000 0.55660  0.82890  0.11770  Biso   1.000  H  0.114768
  H252     1.0000 0.44340  0.17110  0.11770  Biso   1.000  H  0.114768
  H253     1.0000 0.82890  0.44340  0.88230  Biso   1.000  H  0.114768
  H254     1.0000 0.17110  0.55660  0.88230  Biso   1.000  H  0.114768
  H255     1.0000 0.55660  0.17110  0.61770  Biso   1.000  H  0.114768
  H256     1.0000 0.44340  0.82890  0.61770  Biso   1.000  H  0.114768
  H257     1.0000 0.93170  0.78110  0.65730  Biso   1.000  H  0.118869
  H258     1.0000 0.06830  0.21890  0.65730  Biso   1.000  H  0.118869
  H259     1.0000 0.21890  0.06830  0.84270  Biso   1.000  H  0.118869
  H260     1.0000 0.78110  0.93170  0.84270  Biso   1.000  H  0.118869
  H261     1.0000 0.06830  0.78110  0.15730  Biso   1.000  H  0.118869
  H262     1.0000 0.93170  0.21890  0.15730  Biso   1.000  H  0.118869
  H263     1.0000 0.21890  0.93170  0.34270  Biso   1.000  H  0.118869
  H264     1.0000 0.78110  0.06830  0.34270  Biso   1.000  H  0.118869
  H265     1.0000 0.21460  0.44320  0.42210  Biso   1.000  H  0.112604
  H266     1.0000 0.78540  0.55680  0.42210  Biso   1.000  H  0.112604
  H267     1.0000 0.55680  0.78540  0.07790  Biso   1.000  H  0.112604
  H268     1.0000 0.44320  0.21460  0.07790  Biso   1.000  H  0.112604
  H269     1.0000 0.78540  0.44320  0.92210  Biso   1.000  H  0.112604
  H270     1.0000 0.21460  0.55680  0.92210  Biso   1.000  H  0.112604
  H271     1.0000 0.55680  0.21460  0.57790  Biso   1.000  H  0.112604
  H272     1.0000 0.44320  0.78540  0.57790  Biso   1.000  H  0.112604
  H273     1.0000 0.27920  0.58660  0.40950  Biso   1.000  H  0.110018
  H274     1.0000 0.72080  0.41340  0.40950  Biso   1.000  H  0.110018
  H275     1.0000 0.41340  0.72080  0.09050  Biso   1.000  H  0.110018
  H276     1.0000 0.58660  0.27920  0.09050  Biso   1.000  H  0.110018
  H277     1.0000 0.72080  0.58660  0.90950  Biso   1.000  H  0.110018
  H278     1.0000 0.27920  0.41340  0.90950  Biso   1.000  H  0.110018
  H279     1.0000 0.41340  0.27920  0.59050  Biso   1.000  H  0.110018
  H280     1.0000 0.58660  0.72080  0.59050  Biso   1.000  H  0.110018
  H281     1.0000 0.22440  0.69800  0.53820  Biso   1.000  H  0.118995
  H282     1.0000 0.77560  0.30200  0.53820  Biso   1.000  H  0.118995
  H283     1.0000 0.30200  0.77560  0.96180  Biso   1.000  H  0.118995
  H284     1.0000 0.69800  0.22440  0.96180  Biso   1.000  H  0.118995
  H285     1.0000 0.77560  0.69800  0.03820  Biso   1.000  H  0.118995
  H286     1.0000 0.22440  0.30200  0.03820  Biso   1.000  H  0.118995
  H287     1.0000 0.30200  0.22440  0.46180  Biso   1.000  H  0.118995
  H288     1.0000 0.69800  0.77560  0.46180  Biso   1.000  H  0.118995
  O1       1.0000 0.06521  0.76597  0.24416  Biso   1.000  O  -0.596803
  O2       1.0000 0.93479  0.23403  0.24416  Biso   1.000  O  -0.596803
  O3       1.0000 0.23403  0.93479  0.25584  Biso   1.000  O  -0.596803
  O4       1.0000 0.76597  0.06521  0.25584  Biso   1.000  O  -0.596803
  O5       1.0000 0.93479  0.76597  0.74416  Biso   1.000  O  -0.596803
  O6       1.0000 0.06521  0.23403  0.74416  Biso   1.000  O  -0.596803
  O7       1.0000 0.23403  0.06521  0.75584  Biso   1.000  O  -0.596803
  O8       1.0000 0.76597  0.93479  0.75584  Biso   1.000  O  -0.596803
  O9       1.0000 0.96633  0.79816  0.70113  Biso   1.000  O  -0.623408
  O10      1.0000 0.03367  0.20184  0.70113  Biso   1.000  O  -0.623408
  O11      1.0000 0.20184  0.03367  0.79887  Biso   1.000  O  -0.623408
  O12      1.0000 0.79816  0.96633  0.79887  Biso   1.000  O  -0.623408
  O13      1.0000 0.03367  0.79816  0.20113  Biso   1.000  O  -0.623408
  O14      1.0000 0.96633  0.20184  0.20113  Biso   1.000  O  -0.623408
  O15      1.0000 0.20184  0.96633  0.29887  Biso   1.000  O  -0.623408
  O16      1.0000 0.79816  0.03367  0.29887  Biso   1.000  O  -0.623408
  O17      1.0000 0.33916  0.39774  0.47795  Biso   1.000  O  -1.031597
  O18      1.0000 0.66084  0.60226  0.47795  Biso   1.000  O  -1.031597
  O19      1.0000 0.60226  0.66084  0.02205  Biso   1.000  O  -1.031597
  O20      1.0000 0.39774  0.33916  0.02205  Biso   1.000  O  -1.031597
  O21      1.0000 0.66084  0.39774  0.97795  Biso   1.000  O  -1.031597
  O22      1.0000 0.33916  0.60226  0.97795  Biso   1.000  O  -1.031597
  O23      1.0000 0.60226  0.33916  0.52205  Biso   1.000  O  -1.031597
  O24      1.0000 0.39774  0.66084  0.52205  Biso   1.000  O  -1.031597
  O25      1.0000 0.33751  0.50240  0.48903  Biso   1.000  O  -1.035123
  O26      1.0000 0.66249  0.49760  0.48903  Biso   1.000  O  -1.035123
  O27      1.0000 0.49760  0.66249  0.01097  Biso   1.000  O  -1.035123
  O28      1.0000 0.50240  0.33751  0.01097  Biso   1.000  O  -1.035123
  O29      1.0000 0.66249  0.50240  0.98903  Biso   1.000  O  -1.035123
  O30      1.0000 0.33751  0.49760  0.98903  Biso   1.000  O  -1.035123
  O31      1.0000 0.49760  0.33751  0.51097  Biso   1.000  O  -1.035123
  O32      1.0000 0.50240  0.66249  0.51097  Biso   1.000  O  -1.035123
  O33      1.0000 0.01615  0.16199  0.23971  Biso   1.000  O  -1.018012
  O34      1.0000 0.98385  0.83801  0.23971  Biso   1.000  O  -1.018012
  O35      1.0000 0.83801  0.98385  0.26029  Biso   1.000  O  -1.018012
  O36      1.0000 0.16199  0.01615  0.26029  Biso   1.000  O  -1.018012
  O37      1.0000 0.98385  0.16199  0.73971  Biso   1.000  O  -1.018012
  O38      1.0000 0.01615  0.83801  0.73971  Biso   1.000  O  -1.018012
  O39      1.0000 0.83801  0.01615  0.76029  Biso   1.000  O  -1.018012
  O40      1.0000 0.16199  0.98385  0.76029  Biso   1.000  O  -1.018012
  O41      1.0000 0.07904  0.25049  0.24929  Biso   1.000  O  -0.586220
  O42      1.0000 0.92096  0.74951  0.24929  Biso   1.000  O  -0.586220
  O43      1.0000 0.74951  0.92096  0.25071  Biso   1.000  O  -0.586220
  O44      1.0000 0.25049  0.07904  0.25071  Biso   1.000  O  -0.586220
  O45      1.0000 0.92096  0.25049  0.74929  Biso   1.000  O  -0.586220
  O46      1.0000 0.07904  0.74951  0.74929  Biso   1.000  O  -0.586220
  O47      1.0000 0.74951  0.07904  0.75071  Biso   1.000  O  -0.586220
  O48      1.0000 0.25049  0.92096  0.75071  Biso   1.000  O  -0.586220
  O49      1.0000 0.29836  0.55345  0.45091  Biso   1.000  O  -0.591759
  O50      1.0000 0.70164  0.44655  0.45091  Biso   1.000  O  -0.591759
  O51      1.0000 0.44655  0.70164  0.04909  Biso   1.000  O  -0.591759
  O52      1.0000 0.55345  0.29836  0.04909  Biso   1.000  O  -0.591759
  O53      1.0000 0.70164  0.55345  0.95091  Biso   1.000  O  -0.591759
  O54      1.0000 0.29836  0.44655  0.95091  Biso   1.000  O  -0.591759
  O55      1.0000 0.44655  0.29836  0.54909  Biso   1.000  O  -0.591759
  O56      1.0000 0.55345  0.70164  0.54909  Biso   1.000  O  -0.591759
  O57      1.0000 0.36254  0.60804  0.48269  Biso   1.000  O  -1.018575
  O58      1.0000 0.63746  0.39196  0.48269  Biso   1.000  O  -1.018575
  O59      1.0000 0.39196  0.63746  0.01731  Biso   1.000  O  -1.018575
  O60      1.0000 0.60804  0.36254  0.01731  Biso   1.000  O  -1.018575
  O61      1.0000 0.63746  0.60804  0.98269  Biso   1.000  O  -1.018575
  O62      1.0000 0.36254  0.39196  0.98269  Biso   1.000  O  -1.018575
  O63      1.0000 0.39196  0.36254  0.51731  Biso   1.000  O  -1.018575
  O64      1.0000 0.60804  0.63746  0.51731  Biso   1.000  O  -1.018575
  O65      1.0000 0.74759  0.56146  0.49854  Biso   1.000  O  -0.576493
  O66      1.0000 0.25241  0.43854  0.49854  Biso   1.000  O  -0.576493
  O67      1.0000 0.43854  0.25241  0.00146  Biso   1.000  O  -0.576493
  O68      1.0000 0.56146  0.74759  0.00146  Biso   1.000  O  -0.576493
  O69      1.0000 0.25241  0.56146  0.99854  Biso   1.000  O  -0.576493
  O70      1.0000 0.74759  0.43854  0.99854  Biso   1.000  O  -0.576493
  O71      1.0000 0.43854  0.74759  0.50146  Biso   1.000  O  -0.576493
  O72      1.0000 0.56146  0.25241  0.50146  Biso   1.000  O  -0.576493
  O73      1.0000 0.13355  0.80596  0.26387  Biso   1.000  O  -0.602687
  O74      1.0000 0.86645  0.19404  0.26387  Biso   1.000  O  -0.602687
  O75      1.0000 0.19404  0.86645  0.23613  Biso   1.000  O  -0.602687
  O76      1.0000 0.80596  0.13355  0.23613  Biso   1.000  O  -0.602687
  O77      1.0000 0.86645  0.80596  0.76387  Biso   1.000  O  -0.602687
  O78      1.0000 0.13355  0.19404  0.76387  Biso   1.000  O  -0.602687
  O79      1.0000 0.19404  0.13355  0.73613  Biso   1.000  O  -0.602687
  O80      1.0000 0.80596  0.86645  0.73613  Biso   1.000  O  -0.602687
  O81      1.0000 0.29393  0.65639  0.51226  Biso   1.000  O  -0.601579
  O82      1.0000 0.70607  0.34361  0.51226  Biso   1.000  O  -0.601579
  O83      1.0000 0.34361  0.70607  0.98774  Biso   1.000  O  -0.601579
  O84      1.0000 0.65639  0.29393  0.98774  Biso   1.000  O  -0.601579
  O85      1.0000 0.70607  0.65639  0.01226  Biso   1.000  O  -0.601579
  O86      1.0000 0.29393  0.34361  0.01226  Biso   1.000  O  -0.601579
  O87      1.0000 0.34361  0.29393  0.48774  Biso   1.000  O  -0.601579
  O88      1.0000 0.65639  0.70607  0.48774  Biso   1.000  O  -0.601579
  O89      1.0000 0.16099  0.22661  0.26231  Biso   1.000  O  -0.612726
  O90      1.0000 0.83901  0.77339  0.26231  Biso   1.000  O  -0.612726
  O91      1.0000 0.77339  0.83901  0.23769  Biso   1.000  O  -0.612726
  O92      1.0000 0.22661  0.16099  0.23769  Biso   1.000  O  -0.612726
  O93      1.0000 0.83901  0.22661  0.76231  Biso   1.000  O  -0.612726
  O94      1.0000 0.16099  0.77339  0.76231  Biso   1.000  O  -0.612726
  O95      1.0000 0.77339  0.16099  0.73769  Biso   1.000  O  -0.612726
  O96      1.0000 0.22661  0.83901  0.73769  Biso   1.000  O  -0.612726
  O97      1.0000 0.26357  0.57879  0.49495  Biso   1.000  O  -0.571697
  O98      1.0000 0.73643  0.42121  0.49495  Biso   1.000  O  -0.571697
  O99      1.0000 0.42121  0.73643  0.00505  Biso   1.000  O  -0.571697
  O100     1.0000 0.57879  0.26357  0.00505  Biso   1.000  O  -0.571697
  O101     1.0000 0.73643  0.57879  0.99495  Biso   1.000  O  -0.571697
  O102     1.0000 0.26357  0.42121  0.99495  Biso   1.000  O  -0.571697
  O103     1.0000 0.42121  0.26357  0.50505  Biso   1.000  O  -0.571697
  O104     1.0000 0.57879  0.73643  0.50505  Biso   1.000  O  -0.571697
  O105     1.0000 0.08830  0.86601  0.23065  Biso   1.000  O  -1.015272
  O106     1.0000 0.91170  0.13399  0.23065  Biso   1.000  O  -1.015272
  O107     1.0000 0.13399  0.91170  0.26935  Biso   1.000  O  -1.015272
  O108     1.0000 0.86601  0.08830  0.26935  Biso   1.000  O  -1.015272
  O109     1.0000 0.91170  0.86601  0.73065  Biso   1.000  O  -1.015272
  O110     1.0000 0.08830  0.13399  0.73065  Biso   1.000  O  -1.015272
  O111     1.0000 0.13399  0.08830  0.76935  Biso   1.000  O  -1.015272
  O112     1.0000 0.86601  0.91170  0.76935  Biso   1.000  O  -1.015272
  O113     1.0000 0.05214  0.77374  0.70460  Biso   1.000  O  -0.600645
  O114     1.0000 0.94786  0.22626  0.70460  Biso   1.000  O  -0.600645
  O115     1.0000 0.22626  0.94786  0.79540  Biso   1.000  O  -0.600645
  O116     1.0000 0.77374  0.05214  0.79540  Biso   1.000  O  -0.600645
  O117     1.0000 0.94786  0.77374  0.20460  Biso   1.000  O  -0.600645
  O118     1.0000 0.05214  0.22626  0.20460  Biso   1.000  O  -0.600645
  O119     1.0000 0.22626  0.05214  0.29540  Biso   1.000  O  -0.600645
  O120     1.0000 0.77374  0.94786  0.29540  Biso   1.000  O  -0.600645
  O121     1.0000 0.71495  0.63858  0.51516  Biso   1.000  O  -0.596963
  O122     1.0000 0.28505  0.36142  0.51516  Biso   1.000  O  -0.596963
  O123     1.0000 0.36142  0.28505  0.98484  Biso   1.000  O  -0.596963
  O124     1.0000 0.63858  0.71495  0.98484  Biso   1.000  O  -0.596963
  O125     1.0000 0.28505  0.63858  0.01516  Biso   1.000  O  -0.596963
  O126     1.0000 0.71495  0.36142  0.01516  Biso   1.000  O  -0.596963
  O127     1.0000 0.36142  0.71495  0.48484  Biso   1.000  O  -0.596963
  O128     1.0000 0.63858  0.28505  0.48484  Biso   1.000  O  -0.596963
  O129     1.0000 0.12178  0.16218  0.22936  Biso   1.000  O  -1.024425
  O130     1.0000 0.87822  0.83782  0.22936  Biso   1.000  O  -1.024425
  O131     1.0000 0.83782  0.87822  0.27064  Biso   1.000  O  -1.024425
  O132     1.0000 0.16218  0.12178  0.27064  Biso   1.000  O  -1.024425
  O133     1.0000 0.87822  0.16218  0.72936  Biso   1.000  O  -1.024425
  O134     1.0000 0.12178  0.83782  0.72936  Biso   1.000  O  -1.024425
  O135     1.0000 0.83782  0.12178  0.77064  Biso   1.000  O  -1.024425
  O136     1.0000 0.16218  0.87822  0.77064  Biso   1.000  O  -1.024425
  O137     1.0000 0.27488  0.46697  0.45423  Biso   1.000  O  -0.590956
  O138     1.0000 0.72512  0.53303  0.45423  Biso   1.000  O  -0.590956
  O139     1.0000 0.53303  0.72512  0.04577  Biso   1.000  O  -0.590956
  O140     1.0000 0.46697  0.27488  0.04577  Biso   1.000  O  -0.590956
  O141     1.0000 0.72512  0.46697  0.95423  Biso   1.000  O  -0.590956
  O142     1.0000 0.27488  0.53303  0.95423  Biso   1.000  O  -0.590956
  O143     1.0000 0.53303  0.27488  0.54577  Biso   1.000  O  -0.590956
  O144     1.0000 0.46697  0.72512  0.54577  Biso   1.000  O  -0.590956
