data_image0
_cell_length_a       21.687
_cell_length_b       17.754
_cell_length_c       26.041
_cell_angle_alpha    90
_cell_angle_beta     103.95
_cell_angle_gamma    90

_symmetry_space_group_name_H-M    "P 1"
_symmetry_int_tables_number       1

loop_
  _symmetry_equiv_pos_as_xyz
  'x, y, z'

loop_
  _atom_site_label
  _atom_site_occupancy
  _atom_site_fract_x
  _atom_site_fract_y
  _atom_site_fract_z
  _atom_site_thermal_displace_type
  _atom_site_B_iso_or_equiv
  _atom_site_type_symbol
  _atom_site_charge
  C1       1.0000 0.81744  0.15000  0.16185  Biso   1.000  C  -0.004548
  C2       1.0000 0.18256  0.15000  0.33815  Biso   1.000  C  -0.004548
  C3       1.0000 0.31744  0.65000  0.16185  Biso   1.000  C  -0.004548
  C4       1.0000 0.68256  0.65000  0.33815  Biso   1.000  C  -0.004548
  C5       1.0000 0.18256  0.85000  0.83815  Biso   1.000  C  -0.004548
  C6       1.0000 0.81744  0.85000  0.66185  Biso   1.000  C  -0.004548
  C7       1.0000 0.68256  0.35000  0.83815  Biso   1.000  C  -0.004548
  C8       1.0000 0.31744  0.35000  0.66185  Biso   1.000  C  -0.004548
  C9       1.0000 0.89975  0.93420  0.24925  Biso   1.000  C  -0.119657
  C10      1.0000 0.10025  0.93420  0.25075  Biso   1.000  C  -0.119657
  C11      1.0000 0.39975  0.43420  0.24925  Biso   1.000  C  -0.119657
  C12      1.0000 0.60025  0.43420  0.25075  Biso   1.000  C  -0.119657
  C13      1.0000 0.10025  0.06580  0.75075  Biso   1.000  C  -0.119657
  C14      1.0000 0.89975  0.06580  0.74925  Biso   1.000  C  -0.119657
  C15      1.0000 0.60025  0.56580  0.75075  Biso   1.000  C  -0.119657
  C16      1.0000 0.39975  0.56580  0.74925  Biso   1.000  C  -0.119657
  C17      1.0000 0.20086  0.92390  0.02400  Biso   1.000  C  -0.169467
  C18      1.0000 0.79914  0.92390  0.47600  Biso   1.000  C  -0.169467
  C19      1.0000 0.70086  0.42390  0.02400  Biso   1.000  C  -0.169467
  C20      1.0000 0.29914  0.42390  0.47600  Biso   1.000  C  -0.169467
  C21      1.0000 0.79914  0.07610  0.97600  Biso   1.000  C  -0.169467
  C22      1.0000 0.20086  0.07610  0.52400  Biso   1.000  C  -0.169467
  C23      1.0000 0.29914  0.57610  0.97600  Biso   1.000  C  -0.169467
  C24      1.0000 0.70086  0.57610  0.52400  Biso   1.000  C  -0.169467
  C25      1.0000 0.25192  0.87790  0.02426  Biso   1.000  C  0.091774
  C26      1.0000 0.74808  0.87790  0.47574  Biso   1.000  C  0.091774
  C27      1.0000 0.75192  0.37790  0.02426  Biso   1.000  C  0.091774
  C28      1.0000 0.24808  0.37790  0.47574  Biso   1.000  C  0.091774
  C29      1.0000 0.74808  0.12210  0.97574  Biso   1.000  C  0.091774
  C30      1.0000 0.25192  0.12210  0.52426  Biso   1.000  C  0.091774
  C31      1.0000 0.24808  0.62210  0.97574  Biso   1.000  C  0.091774
  C32      1.0000 0.75192  0.62210  0.52426  Biso   1.000  C  0.091774
  C33      1.0000 0.84828  0.21240  0.13836  Biso   1.000  C  0.569990
  C34      1.0000 0.15172  0.21240  0.36164  Biso   1.000  C  0.569990
  C35      1.0000 0.34828  0.71240  0.13836  Biso   1.000  C  0.569990
  C36      1.0000 0.65172  0.71240  0.36164  Biso   1.000  C  0.569990
  C37      1.0000 0.15172  0.78760  0.86164  Biso   1.000  C  0.569990
  C38      1.0000 0.84828  0.78760  0.63836  Biso   1.000  C  0.569990
  C39      1.0000 0.65172  0.28760  0.86164  Biso   1.000  C  0.569990
  C40      1.0000 0.34828  0.28760  0.63836  Biso   1.000  C  0.569990
  C41      1.0000 0.81435  0.15430  0.21445  Biso   1.000  C  -0.090641
  C42      1.0000 0.18565  0.15430  0.28555  Biso   1.000  C  -0.090641
  C43      1.0000 0.31435  0.65430  0.21445  Biso   1.000  C  -0.090641
  C44      1.0000 0.68565  0.65430  0.28555  Biso   1.000  C  -0.090641
  C45      1.0000 0.18565  0.84570  0.78555  Biso   1.000  C  -0.090641
  C46      1.0000 0.81435  0.84570  0.71445  Biso   1.000  C  -0.090641
  C47      1.0000 0.68565  0.34570  0.78555  Biso   1.000  C  -0.090641
  C48      1.0000 0.31435  0.34570  0.71445  Biso   1.000  C  -0.090641
  C49      1.0000 0.91913  0.98070  0.16786  Biso   1.000  C  -0.004947
  C50      1.0000 0.08087  0.98070  0.33214  Biso   1.000  C  -0.004947
  C51      1.0000 0.41913  0.48070  0.16786  Biso   1.000  C  -0.004947
  C52      1.0000 0.58087  0.48070  0.33214  Biso   1.000  C  -0.004947
  C53      1.0000 0.08087  0.01930  0.83214  Biso   1.000  C  -0.004947
  C54      1.0000 0.91913  0.01930  0.66786  Biso   1.000  C  -0.004947
  C55      1.0000 0.58087  0.51930  0.83214  Biso   1.000  C  -0.004947
  C56      1.0000 0.41913  0.51930  0.66786  Biso   1.000  C  -0.004947
  C57      1.0000 0.91914  0.99160  0.22047  Biso   1.000  C  -0.100222
  C58      1.0000 0.08086  0.99160  0.27953  Biso   1.000  C  -0.100222
  C59      1.0000 0.41914  0.49160  0.22047  Biso   1.000  C  -0.100222
  C60      1.0000 0.58086  0.49160  0.27953  Biso   1.000  C  -0.100222
  C61      1.0000 0.08086  0.00840  0.77953  Biso   1.000  C  -0.100222
  C62      1.0000 0.91914  0.00840  0.72047  Biso   1.000  C  -0.100222
  C63      1.0000 0.58086  0.50840  0.77953  Biso   1.000  C  -0.100222
  C64      1.0000 0.41914  0.50840  0.72047  Biso   1.000  C  -0.100222
  C65      1.0000 0.50165  0.81950  0.12266  Biso   1.000  C  0.609121
  C66      1.0000 0.49835  0.81950  0.37734  Biso   1.000  C  0.609121
  C67      1.0000 0.00165  0.31950  0.12266  Biso   1.000  C  0.609121
  C68      1.0000 0.99835  0.31950  0.37734  Biso   1.000  C  0.609121
  C69      1.0000 0.49835  0.18050  0.87734  Biso   1.000  C  0.609121
  C70      1.0000 0.50165  0.18050  0.62266  Biso   1.000  C  0.609121
  C71      1.0000 0.99835  0.68050  0.87734  Biso   1.000  C  0.609121
  C72      1.0000 0.00165  0.68050  0.62266  Biso   1.000  C  0.609121
  C73      1.0000 0.56828  0.93540  0.13798  Biso   1.000  C  -0.107934
  C74      1.0000 0.43172  0.93540  0.36202  Biso   1.000  C  -0.107934
  C75      1.0000 0.06828  0.43540  0.13798  Biso   1.000  C  -0.107934
  C76      1.0000 0.93172  0.43540  0.36202  Biso   1.000  C  -0.107934
  C77      1.0000 0.43172  0.06460  0.86202  Biso   1.000  C  -0.107934
  C78      1.0000 0.56828  0.06460  0.63798  Biso   1.000  C  -0.107934
  C79      1.0000 0.93172  0.56460  0.86202  Biso   1.000  C  -0.107934
  C80      1.0000 0.06828  0.56460  0.63798  Biso   1.000  C  -0.107934
  C81      1.0000 0.75864  0.03400  0.15268  Biso   1.000  C  -0.117027
  C82      1.0000 0.24136  0.03400  0.34732  Biso   1.000  C  -0.117027
  C83      1.0000 0.25864  0.53400  0.15268  Biso   1.000  C  -0.117027
  C84      1.0000 0.74136  0.53400  0.34732  Biso   1.000  C  -0.117027
  C85      1.0000 0.24136  0.96600  0.84732  Biso   1.000  C  -0.117027
  C86      1.0000 0.75864  0.96600  0.65268  Biso   1.000  C  -0.117027
  C87      1.0000 0.74136  0.46600  0.84732  Biso   1.000  C  -0.117027
  C88      1.0000 0.25864  0.46600  0.65268  Biso   1.000  C  -0.117027
  C89      1.0000 0.93460  0.81340  0.39923  Biso   1.000  C  -0.113263
  C90      1.0000 0.06540  0.81340  0.10077  Biso   1.000  C  -0.113263
  C91      1.0000 0.43460  0.31340  0.39923  Biso   1.000  C  -0.113263
  C92      1.0000 0.56540  0.31340  0.10077  Biso   1.000  C  -0.113263
  C93      1.0000 0.06540  0.18660  0.60077  Biso   1.000  C  -0.113263
  C94      1.0000 0.93460  0.18660  0.89923  Biso   1.000  C  -0.113263
  C95      1.0000 0.56540  0.68660  0.60077  Biso   1.000  C  -0.113263
  C96      1.0000 0.43460  0.68660  0.89923  Biso   1.000  C  -0.113263
  C97      1.0000 0.88090  0.86480  0.22524  Biso   1.000  C  0.006180
  C98      1.0000 0.11910  0.86480  0.27476  Biso   1.000  C  0.006180
  C99      1.0000 0.38090  0.36480  0.22524  Biso   1.000  C  0.006180
  C100     1.0000 0.61910  0.36480  0.27476  Biso   1.000  C  0.006180
  C101     1.0000 0.11910  0.13520  0.77476  Biso   1.000  C  0.006180
  C102     1.0000 0.88090  0.13520  0.72524  Biso   1.000  C  0.006180
  C103     1.0000 0.61910  0.63520  0.77476  Biso   1.000  C  0.006180
  C104     1.0000 0.38090  0.63520  0.72524  Biso   1.000  C  0.006180
  C105     1.0000 0.89700  0.77190  0.47897  Biso   1.000  C  0.602089
  C106     1.0000 0.10300  0.77190  0.02103  Biso   1.000  C  0.602089
  C107     1.0000 0.39700  0.27190  0.47897  Biso   1.000  C  0.602089
  C108     1.0000 0.60300  0.27190  0.02103  Biso   1.000  C  0.602089
  C109     1.0000 0.10300  0.22810  0.52103  Biso   1.000  C  0.602089
  C110     1.0000 0.89700  0.22810  0.97897  Biso   1.000  C  0.602089
  C111     1.0000 0.60300  0.72810  0.52103  Biso   1.000  C  0.602089
  C112     1.0000 0.39700  0.72810  0.97897  Biso   1.000  C  0.602089
  C113     1.0000 0.90240  0.91100  0.14448  Biso   1.000  C  -0.114244
  C114     1.0000 0.09760  0.91100  0.35552  Biso   1.000  C  -0.114244
  C115     1.0000 0.40240  0.41100  0.14448  Biso   1.000  C  -0.114244
  C116     1.0000 0.59760  0.41100  0.35552  Biso   1.000  C  -0.114244
  C117     1.0000 0.09760  0.08900  0.85552  Biso   1.000  C  -0.114244
  C118     1.0000 0.90240  0.08900  0.64448  Biso   1.000  C  -0.114244
  C119     1.0000 0.59760  0.58900  0.85552  Biso   1.000  C  -0.114244
  C120     1.0000 0.40240  0.58900  0.64448  Biso   1.000  C  -0.114244
  C121     1.0000 0.78987  0.08870  0.13115  Biso   1.000  C  -0.102583
  C122     1.0000 0.21013  0.08870  0.36885  Biso   1.000  C  -0.102583
  C123     1.0000 0.28987  0.58870  0.13115  Biso   1.000  C  -0.102583
  C124     1.0000 0.71013  0.58870  0.36885  Biso   1.000  C  -0.102583
  C125     1.0000 0.21013  0.91130  0.86885  Biso   1.000  C  -0.102583
  C126     1.0000 0.78987  0.91130  0.63115  Biso   1.000  C  -0.102583
  C127     1.0000 0.71013  0.41130  0.86885  Biso   1.000  C  -0.102583
  C128     1.0000 0.28987  0.41130  0.63115  Biso   1.000  C  -0.102583
  C129     1.0000 0.75620  0.03790  0.20573  Biso   1.000  C  -0.000034
  C130     1.0000 0.24380  0.03790  0.29427  Biso   1.000  C  -0.000034
  C131     1.0000 0.25620  0.53790  0.20573  Biso   1.000  C  -0.000034
  C132     1.0000 0.74380  0.53790  0.29427  Biso   1.000  C  -0.000034
  C133     1.0000 0.24380  0.96210  0.79427  Biso   1.000  C  -0.000034
  C134     1.0000 0.75620  0.96210  0.70573  Biso   1.000  C  -0.000034
  C135     1.0000 0.74380  0.46210  0.79427  Biso   1.000  C  -0.000034
  C136     1.0000 0.25620  0.46210  0.70573  Biso   1.000  C  -0.000034
  C137     1.0000 0.66870  0.93750  0.20232  Biso   1.000  C  -0.001952
  C138     1.0000 0.33130  0.93750  0.29768  Biso   1.000  C  -0.001952
  C139     1.0000 0.16870  0.43750  0.20232  Biso   1.000  C  -0.001952
  C140     1.0000 0.83130  0.43750  0.29768  Biso   1.000  C  -0.001952
  C141     1.0000 0.33130  0.06250  0.79768  Biso   1.000  C  -0.001952
  C142     1.0000 0.66870  0.06250  0.70232  Biso   1.000  C  -0.001952
  C143     1.0000 0.83130  0.56250  0.79768  Biso   1.000  C  -0.001952
  C144     1.0000 0.16870  0.56250  0.70232  Biso   1.000  C  -0.001952
  C145     1.0000 0.20286  0.97190  0.06630  Biso   1.000  C  0.115795
  C146     1.0000 0.79714  0.97190  0.43370  Biso   1.000  C  0.115795
  C147     1.0000 0.70286  0.47190  0.06630  Biso   1.000  C  0.115795
  C148     1.0000 0.29714  0.47190  0.43370  Biso   1.000  C  0.115795
  C149     1.0000 0.79714  0.02810  0.93370  Biso   1.000  C  0.115795
  C150     1.0000 0.20286  0.02810  0.56630  Biso   1.000  C  0.115795
  C151     1.0000 0.29714  0.52810  0.93370  Biso   1.000  C  0.115795
  C152     1.0000 0.70286  0.52810  0.56630  Biso   1.000  C  0.115795
  C153     1.0000 0.78521  0.09960  0.23641  Biso   1.000  C  -0.108809
  C154     1.0000 0.21479  0.09960  0.26359  Biso   1.000  C  -0.108809
  C155     1.0000 0.28521  0.59960  0.23641  Biso   1.000  C  -0.108809
  C156     1.0000 0.71479  0.59960  0.26359  Biso   1.000  C  -0.108809
  C157     1.0000 0.21479  0.90040  0.76359  Biso   1.000  C  -0.108809
  C158     1.0000 0.78521  0.90040  0.73641  Biso   1.000  C  -0.108809
  C159     1.0000 0.71479  0.40040  0.76359  Biso   1.000  C  -0.108809
  C160     1.0000 0.28521  0.40040  0.73641  Biso   1.000  C  -0.108809
  C161     1.0000 0.62418  0.97240  0.16324  Biso   1.000  C  -0.121645
  C162     1.0000 0.37582  0.97240  0.33676  Biso   1.000  C  -0.121645
  C163     1.0000 0.12418  0.47240  0.16324  Biso   1.000  C  -0.121645
  C164     1.0000 0.87582  0.47240  0.33676  Biso   1.000  C  -0.121645
  C165     1.0000 0.37582  0.02760  0.83676  Biso   1.000  C  -0.121645
  C166     1.0000 0.62418  0.02760  0.66324  Biso   1.000  C  -0.121645
  C167     1.0000 0.87582  0.52760  0.83676  Biso   1.000  C  -0.121645
  C168     1.0000 0.12418  0.52760  0.66324  Biso   1.000  C  -0.121645
  C169     1.0000 0.30663  0.92460  0.10454  Biso   1.000  C  0.107878
  C170     1.0000 0.69337  0.92460  0.39546  Biso   1.000  C  0.107878
  C171     1.0000 0.80663  0.42460  0.10454  Biso   1.000  C  0.107878
  C172     1.0000 0.19337  0.42460  0.39546  Biso   1.000  C  0.107878
  C173     1.0000 0.69337  0.07540  0.89546  Biso   1.000  C  0.107878
  C174     1.0000 0.30663  0.07540  0.60454  Biso   1.000  C  0.107878
  C175     1.0000 0.19337  0.57540  0.89546  Biso   1.000  C  0.107878
  C176     1.0000 0.80663  0.57540  0.60454  Biso   1.000  C  0.107878
  C177     1.0000 0.10140  0.04030  0.02650  Biso   1.000  C  -0.178722
  C178     1.0000 0.89860  0.04030  0.47350  Biso   1.000  C  -0.178722
  C179     1.0000 0.60140  0.54030  0.02650  Biso   1.000  C  -0.178722
  C180     1.0000 0.39860  0.54030  0.47350  Biso   1.000  C  -0.178722
  C181     1.0000 0.89860  0.95970  0.97350  Biso   1.000  C  -0.178722
  C182     1.0000 0.10140  0.95970  0.52650  Biso   1.000  C  -0.178722
  C183     1.0000 0.39860  0.45970  0.97350  Biso   1.000  C  -0.178722
  C184     1.0000 0.60140  0.45970  0.52650  Biso   1.000  C  -0.178722
  C185     1.0000 0.93475  0.04460  0.13614  Biso   1.000  C  0.540770
  C186     1.0000 0.06525  0.04460  0.36386  Biso   1.000  C  0.540770
  C187     1.0000 0.43475  0.54460  0.13614  Biso   1.000  C  0.540770
  C188     1.0000 0.56525  0.54460  0.36386  Biso   1.000  C  0.540770
  C189     1.0000 0.06525  0.95540  0.86386  Biso   1.000  C  0.540770
  C190     1.0000 0.93475  0.95540  0.63614  Biso   1.000  C  0.540770
  C191     1.0000 0.56525  0.45540  0.86386  Biso   1.000  C  0.540770
  C192     1.0000 0.43475  0.45540  0.63614  Biso   1.000  C  0.540770
  C193     1.0000 0.14759  0.01960  0.07008  Biso   1.000  C  0.114141
  C194     1.0000 0.85241  0.01960  0.42992  Biso   1.000  C  0.114141
  C195     1.0000 0.64759  0.51960  0.07008  Biso   1.000  C  0.114141
  C196     1.0000 0.35241  0.51960  0.42992  Biso   1.000  C  0.114141
  C197     1.0000 0.85241  0.98040  0.92992  Biso   1.000  C  0.114141
  C198     1.0000 0.14759  0.98040  0.57008  Biso   1.000  C  0.114141
  C199     1.0000 0.35241  0.48040  0.92992  Biso   1.000  C  0.114141
  C200     1.0000 0.64759  0.48040  0.57008  Biso   1.000  C  0.114141
  C201     1.0000 0.88750  0.78340  0.42045  Biso   1.000  C  -0.018686
  C202     1.0000 0.11250  0.78340  0.07955  Biso   1.000  C  -0.018686
  C203     1.0000 0.38750  0.28340  0.42045  Biso   1.000  C  -0.018686
  C204     1.0000 0.61250  0.28340  0.07955  Biso   1.000  C  -0.018686
  C205     1.0000 0.11250  0.21660  0.57955  Biso   1.000  C  -0.018686
  C206     1.0000 0.88750  0.21660  0.92045  Biso   1.000  C  -0.018686
  C207     1.0000 0.61250  0.71660  0.57955  Biso   1.000  C  -0.018686
  C208     1.0000 0.38750  0.71660  0.92045  Biso   1.000  C  -0.018686
  C209     1.0000 0.25779  0.97240  0.10684  Biso   1.000  C  -0.164732
  C210     1.0000 0.74221  0.97240  0.39316  Biso   1.000  C  -0.164732
  C211     1.0000 0.75779  0.47240  0.10684  Biso   1.000  C  -0.164732
  C212     1.0000 0.24221  0.47240  0.39316  Biso   1.000  C  -0.164732
  C213     1.0000 0.74221  0.02760  0.89316  Biso   1.000  C  -0.164732
  C214     1.0000 0.25779  0.02760  0.60684  Biso   1.000  C  -0.164732
  C215     1.0000 0.24221  0.52760  0.89316  Biso   1.000  C  -0.164732
  C216     1.0000 0.75779  0.52760  0.60684  Biso   1.000  C  -0.164732
  C217     1.0000 0.55878  0.86160  0.15116  Biso   1.000  C  -0.010193
  C218     1.0000 0.44122  0.86160  0.34884  Biso   1.000  C  -0.010193
  C219     1.0000 0.05878  0.36160  0.15116  Biso   1.000  C  -0.010193
  C220     1.0000 0.94122  0.36160  0.34884  Biso   1.000  C  -0.010193
  C221     1.0000 0.44122  0.13840  0.84884  Biso   1.000  C  -0.010193
  C222     1.0000 0.55878  0.13840  0.65116  Biso   1.000  C  -0.010193
  C223     1.0000 0.94122  0.63840  0.84884  Biso   1.000  C  -0.010193
  C224     1.0000 0.05878  0.63840  0.65116  Biso   1.000  C  -0.010193
  C225     1.0000 0.60320  0.82780  0.19190  Biso   1.000  C  -0.096059
  C226     1.0000 0.39680  0.82780  0.30810  Biso   1.000  C  -0.096059
  C227     1.0000 0.10320  0.32780  0.19190  Biso   1.000  C  -0.096059
  C228     1.0000 0.89680  0.32780  0.30810  Biso   1.000  C  -0.096059
  C229     1.0000 0.39680  0.17220  0.80810  Biso   1.000  C  -0.096059
  C230     1.0000 0.60320  0.17220  0.69190  Biso   1.000  C  -0.096059
  C231     1.0000 0.89680  0.67220  0.80810  Biso   1.000  C  -0.096059
  C232     1.0000 0.10320  0.67220  0.69190  Biso   1.000  C  -0.096059
  C233     1.0000 0.72830  0.97630  0.23174  Biso   1.000  C  0.350494
  C234     1.0000 0.27170  0.97630  0.26826  Biso   1.000  C  0.350494
  C235     1.0000 0.22830  0.47630  0.23174  Biso   1.000  C  0.350494
  C236     1.0000 0.77170  0.47630  0.26826  Biso   1.000  C  0.350494
  C237     1.0000 0.27170  0.02370  0.76826  Biso   1.000  C  0.350494
  C238     1.0000 0.72830  0.02370  0.73174  Biso   1.000  C  0.350494
  C239     1.0000 0.77170  0.52370  0.76826  Biso   1.000  C  0.350494
  C240     1.0000 0.22830  0.52370  0.73174  Biso   1.000  C  0.350494
  C241     1.0000 0.05100  0.08300  0.03247  Biso   1.000  C  0.102598
  C242     1.0000 0.94900  0.08300  0.46753  Biso   1.000  C  0.102598
  C243     1.0000 0.55100  0.58300  0.03247  Biso   1.000  C  0.102598
  C244     1.0000 0.44900  0.58300  0.46753  Biso   1.000  C  0.102598
  C245     1.0000 0.94900  0.91700  0.96753  Biso   1.000  C  0.102598
  C246     1.0000 0.05100  0.91700  0.53247  Biso   1.000  C  0.102598
  C247     1.0000 0.44900  0.41700  0.96753  Biso   1.000  C  0.102598
  C248     1.0000 0.55100  0.41700  0.53247  Biso   1.000  C  0.102598
  C249     1.0000 0.82930  0.76320  0.38752  Biso   1.000  C  -0.113356
  C250     1.0000 0.17070  0.76320  0.11248  Biso   1.000  C  -0.113356
  C251     1.0000 0.32930  0.26320  0.38752  Biso   1.000  C  -0.113356
  C252     1.0000 0.67070  0.26320  0.11248  Biso   1.000  C  -0.113356
  C253     1.0000 0.17070  0.23680  0.61248  Biso   1.000  C  -0.113356
  C254     1.0000 0.82930  0.23680  0.88752  Biso   1.000  C  -0.113356
  C255     1.0000 0.67070  0.73680  0.61248  Biso   1.000  C  -0.113356
  C256     1.0000 0.32930  0.73680  0.88752  Biso   1.000  C  -0.113356
  C257     1.0000 0.13930  0.04100  0.11930  Biso   1.000  C  -0.181666
  C258     1.0000 0.86070  0.04100  0.38070  Biso   1.000  C  -0.181666
  C259     1.0000 0.63930  0.54100  0.11930  Biso   1.000  C  -0.181666
  C260     1.0000 0.36070  0.54100  0.38070  Biso   1.000  C  -0.181666
  C261     1.0000 0.86070  0.95900  0.88070  Biso   1.000  C  -0.181666
  C262     1.0000 0.13930  0.95900  0.61930  Biso   1.000  C  -0.181666
  C263     1.0000 0.36070  0.45900  0.88070  Biso   1.000  C  -0.181666
  C264     1.0000 0.63930  0.45900  0.61930  Biso   1.000  C  -0.181666
  C265     1.0000 0.08780  0.08490  0.12191  Biso   1.000  C  0.090959
  C266     1.0000 0.91220  0.08490  0.37809  Biso   1.000  C  0.090959
  C267     1.0000 0.58780  0.58490  0.12191  Biso   1.000  C  0.090959
  C268     1.0000 0.41220  0.58490  0.37809  Biso   1.000  C  0.090959
  C269     1.0000 0.91220  0.91510  0.87809  Biso   1.000  C  0.090959
  C270     1.0000 0.08780  0.91510  0.62191  Biso   1.000  C  0.090959
  C271     1.0000 0.41220  0.41510  0.87809  Biso   1.000  C  0.090959
  C272     1.0000 0.58780  0.41510  0.62191  Biso   1.000  C  0.090959
  C273     1.0000 0.85370  0.80640  0.25256  Biso   1.000  C  0.338963
  C274     1.0000 0.14630  0.80640  0.24744  Biso   1.000  C  0.338963
  C275     1.0000 0.35370  0.30640  0.25256  Biso   1.000  C  0.338963
  C276     1.0000 0.64630  0.30640  0.24744  Biso   1.000  C  0.338963
  C277     1.0000 0.14630  0.19360  0.74744  Biso   1.000  C  0.338963
  C278     1.0000 0.85370  0.19360  0.75256  Biso   1.000  C  0.338963
  C279     1.0000 0.64630  0.69360  0.74744  Biso   1.000  C  0.338963
  C280     1.0000 0.35370  0.69360  0.75256  Biso   1.000  C  0.338963
  C281     1.0000 0.86690  0.80120  0.31113  Biso   1.000  C  0.015196
  C282     1.0000 0.13310  0.80120  0.18887  Biso   1.000  C  0.015196
  C283     1.0000 0.36690  0.30120  0.31113  Biso   1.000  C  0.015196
  C284     1.0000 0.63310  0.30120  0.18887  Biso   1.000  C  0.015196
  C285     1.0000 0.13310  0.19880  0.68887  Biso   1.000  C  0.015196
  C286     1.0000 0.86690  0.19880  0.81113  Biso   1.000  C  0.015196
  C287     1.0000 0.63310  0.69880  0.68887  Biso   1.000  C  0.015196
  C288     1.0000 0.36690  0.69880  0.81113  Biso   1.000  C  0.015196
  C289     1.0000 0.65680  0.86610  0.21820  Biso   1.000  C  -0.094585
  C290     1.0000 0.34320  0.86610  0.28180  Biso   1.000  C  -0.094585
  C291     1.0000 0.15680  0.36610  0.21820  Biso   1.000  C  -0.094585
  C292     1.0000 0.84320  0.36610  0.28180  Biso   1.000  C  -0.094585
  C293     1.0000 0.34320  0.13390  0.78180  Biso   1.000  C  -0.094585
  C294     1.0000 0.65680  0.13390  0.71820  Biso   1.000  C  -0.094585
  C295     1.0000 0.84320  0.63390  0.78180  Biso   1.000  C  -0.094585
  C296     1.0000 0.15680  0.63390  0.71820  Biso   1.000  C  -0.094585
  C297     1.0000 0.88360  0.85420  0.17282  Biso   1.000  C  -0.107729
  C298     1.0000 0.11640  0.85420  0.32718  Biso   1.000  C  -0.107729
  C299     1.0000 0.38360  0.35420  0.17282  Biso   1.000  C  -0.107729
  C300     1.0000 0.61640  0.35420  0.32718  Biso   1.000  C  -0.107729
  C301     1.0000 0.11640  0.14580  0.82718  Biso   1.000  C  -0.107729
  C302     1.0000 0.88360  0.14580  0.67282  Biso   1.000  C  -0.107729
  C303     1.0000 0.61640  0.64580  0.82718  Biso   1.000  C  -0.107729
  C304     1.0000 0.38360  0.64580  0.67282  Biso   1.000  C  -0.107729
  C305     1.0000 0.92540  0.82160  0.34448  Biso   1.000  C  -0.126819
  C306     1.0000 0.07460  0.82160  0.15552  Biso   1.000  C  -0.126819
  C307     1.0000 0.42540  0.32160  0.34448  Biso   1.000  C  -0.126819
  C308     1.0000 0.57460  0.32160  0.15552  Biso   1.000  C  -0.126819
  C309     1.0000 0.07460  0.17840  0.65552  Biso   1.000  C  -0.126819
  C310     1.0000 0.92540  0.17840  0.84448  Biso   1.000  C  -0.126819
  C311     1.0000 0.57460  0.67840  0.65552  Biso   1.000  C  -0.126819
  C312     1.0000 0.42540  0.67840  0.84448  Biso   1.000  C  -0.126819
  C313     1.0000 0.81930  0.77200  0.33331  Biso   1.000  C  -0.093629
  C314     1.0000 0.18070  0.77200  0.16669  Biso   1.000  C  -0.093629
  C315     1.0000 0.31930  0.27200  0.33331  Biso   1.000  C  -0.093629
  C316     1.0000 0.68070  0.27200  0.16669  Biso   1.000  C  -0.093629
  C317     1.0000 0.18070  0.22800  0.66669  Biso   1.000  C  -0.093629
  C318     1.0000 0.81930  0.22800  0.83331  Biso   1.000  C  -0.093629
  C319     1.0000 0.68070  0.72800  0.66669  Biso   1.000  C  -0.093629
  C320     1.0000 0.31930  0.72800  0.83331  Biso   1.000  C  -0.093629
  H1       1.0000 0.89930  0.94190  0.28450  Biso   1.000  H  0.110217
  H2       1.0000 0.10070  0.94190  0.21550  Biso   1.000  H  0.110217
  H3       1.0000 0.39930  0.44190  0.28450  Biso   1.000  H  0.110217
  H4       1.0000 0.60070  0.44190  0.21550  Biso   1.000  H  0.110217
  H5       1.0000 0.10070  0.05810  0.71550  Biso   1.000  H  0.110217
  H6       1.0000 0.89930  0.05810  0.78450  Biso   1.000  H  0.110217
  H7       1.0000 0.60070  0.55810  0.71550  Biso   1.000  H  0.110217
  H8       1.0000 0.39930  0.55810  0.78450  Biso   1.000  H  0.110217
  H9       1.0000 0.16530  0.92280  0.99570  Biso   1.000  H  0.139544
  H10      1.0000 0.83470  0.92280  0.50430  Biso   1.000  H  0.139544
  H11      1.0000 0.66530  0.42280  0.99570  Biso   1.000  H  0.139544
  H12      1.0000 0.33470  0.42280  0.50430  Biso   1.000  H  0.139544
  H13      1.0000 0.83470  0.07720  0.00430  Biso   1.000  H  0.139544
  H14      1.0000 0.16530  0.07720  0.49570  Biso   1.000  H  0.139544
  H15      1.0000 0.33470  0.57720  0.00430  Biso   1.000  H  0.139544
  H16      1.0000 0.66530  0.57720  0.49570  Biso   1.000  H  0.139544
  H17      1.0000 0.25020  0.84600  0.99560  Biso   1.000  H  0.100433
  H18      1.0000 0.74980  0.84600  0.50440  Biso   1.000  H  0.100433
  H19      1.0000 0.75020  0.34600  0.99560  Biso   1.000  H  0.100433
  H20      1.0000 0.24980  0.34600  0.50440  Biso   1.000  H  0.100433
  H21      1.0000 0.74980  0.15400  0.00440  Biso   1.000  H  0.100433
  H22      1.0000 0.25020  0.15400  0.49560  Biso   1.000  H  0.100433
  H23      1.0000 0.24980  0.65400  0.00440  Biso   1.000  H  0.100433
  H24      1.0000 0.75020  0.65400  0.49560  Biso   1.000  H  0.100433
  H25      1.0000 0.83250  0.19520  0.23490  Biso   1.000  H  0.120338
  H26      1.0000 0.16750  0.19520  0.26510  Biso   1.000  H  0.120338
  H27      1.0000 0.33250  0.69520  0.23490  Biso   1.000  H  0.120338
  H28      1.0000 0.66750  0.69520  0.26510  Biso   1.000  H  0.120338
  H29      1.0000 0.16750  0.80480  0.76510  Biso   1.000  H  0.120338
  H30      1.0000 0.83250  0.80480  0.73490  Biso   1.000  H  0.120338
  H31      1.0000 0.66750  0.30480  0.76510  Biso   1.000  H  0.120338
  H32      1.0000 0.33250  0.30480  0.73490  Biso   1.000  H  0.120338
  H33      1.0000 0.93220  0.03760  0.23660  Biso   1.000  H  0.122339
  H34      1.0000 0.06780  0.03760  0.26340  Biso   1.000  H  0.122339
  H35      1.0000 0.43220  0.53760  0.23660  Biso   1.000  H  0.122339
  H36      1.0000 0.56780  0.53760  0.26340  Biso   1.000  H  0.122339
  H37      1.0000 0.06780  0.96240  0.76340  Biso   1.000  H  0.122339
  H38      1.0000 0.93220  0.96240  0.73660  Biso   1.000  H  0.122339
  H39      1.0000 0.56780  0.46240  0.76340  Biso   1.000  H  0.122339
  H40      1.0000 0.43220  0.46240  0.73660  Biso   1.000  H  0.122339
  H41      1.0000 0.53760  0.96020  0.11250  Biso   1.000  H  0.121988
  H42      1.0000 0.46240  0.96020  0.38750  Biso   1.000  H  0.121988
  H43      1.0000 0.03760  0.46020  0.11250  Biso   1.000  H  0.121988
  H44      1.0000 0.96240  0.46020  0.38750  Biso   1.000  H  0.121988
  H45      1.0000 0.46240  0.03980  0.88750  Biso   1.000  H  0.121988
  H46      1.0000 0.53760  0.03980  0.61250  Biso   1.000  H  0.121988
  H47      1.0000 0.96240  0.53980  0.88750  Biso   1.000  H  0.121988
  H48      1.0000 0.03760  0.53980  0.61250  Biso   1.000  H  0.121988
  H49      1.0000 0.73910  0.99430  0.13170  Biso   1.000  H  0.116378
  H50      1.0000 0.26090  0.99430  0.36830  Biso   1.000  H  0.116378
  H51      1.0000 0.23910  0.49430  0.13170  Biso   1.000  H  0.116378
  H52      1.0000 0.76090  0.49430  0.36830  Biso   1.000  H  0.116378
  H53      1.0000 0.26090  0.00570  0.86830  Biso   1.000  H  0.116378
  H54      1.0000 0.73910  0.00570  0.63170  Biso   1.000  H  0.116378
  H55      1.0000 0.76090  0.50570  0.86830  Biso   1.000  H  0.116378
  H56      1.0000 0.23910  0.50570  0.63170  Biso   1.000  H  0.116378
  H57      1.0000 0.97290  0.82840  0.42160  Biso   1.000  H  0.113724
  H58      1.0000 0.02710  0.82840  0.07840  Biso   1.000  H  0.113724
  H59      1.0000 0.47290  0.32840  0.42160  Biso   1.000  H  0.113724
  H60      1.0000 0.52710  0.32840  0.07840  Biso   1.000  H  0.113724
  H61      1.0000 0.02710  0.17160  0.57840  Biso   1.000  H  0.113724
  H62      1.0000 0.97290  0.17160  0.92160  Biso   1.000  H  0.113724
  H63      1.0000 0.52710  0.67160  0.57840  Biso   1.000  H  0.113724
  H64      1.0000 0.47290  0.67160  0.92160  Biso   1.000  H  0.113724
  H65      1.0000 0.90400  0.90280  0.10950  Biso   1.000  H  0.118051
  H66      1.0000 0.09600  0.90280  0.39050  Biso   1.000  H  0.118051
  H67      1.0000 0.40400  0.40280  0.10950  Biso   1.000  H  0.118051
  H68      1.0000 0.59600  0.40280  0.39050  Biso   1.000  H  0.118051
  H69      1.0000 0.09600  0.09720  0.89050  Biso   1.000  H  0.118051
  H70      1.0000 0.90400  0.09720  0.60950  Biso   1.000  H  0.118051
  H71      1.0000 0.59600  0.59720  0.89050  Biso   1.000  H  0.118051
  H72      1.0000 0.40400  0.59720  0.60950  Biso   1.000  H  0.118051
  H73      1.0000 0.79260  0.08480  0.09620  Biso   1.000  H  0.116521
  H74      1.0000 0.20740  0.08480  0.40380  Biso   1.000  H  0.116521
  H75      1.0000 0.29260  0.58480  0.09620  Biso   1.000  H  0.116521
  H76      1.0000 0.70740  0.58480  0.40380  Biso   1.000  H  0.116521
  H77      1.0000 0.20740  0.91520  0.90380  Biso   1.000  H  0.116521
  H78      1.0000 0.79260  0.91520  0.59620  Biso   1.000  H  0.116521
  H79      1.0000 0.70740  0.41520  0.90380  Biso   1.000  H  0.116521
  H80      1.0000 0.29260  0.41520  0.59620  Biso   1.000  H  0.116521
  H81      1.0000 0.78440  0.10270  0.27190  Biso   1.000  H  0.117466
  H82      1.0000 0.21560  0.10270  0.22810  Biso   1.000  H  0.117466
  H83      1.0000 0.28440  0.60270  0.27190  Biso   1.000  H  0.117466
  H84      1.0000 0.71560  0.60270  0.22810  Biso   1.000  H  0.117466
  H85      1.0000 0.21560  0.89730  0.72810  Biso   1.000  H  0.117466
  H86      1.0000 0.78440  0.89730  0.77190  Biso   1.000  H  0.117466
  H87      1.0000 0.71560  0.39730  0.72810  Biso   1.000  H  0.117466
  H88      1.0000 0.28440  0.39730  0.77190  Biso   1.000  H  0.117466
  H89      1.0000 0.63130  0.02140  0.15340  Biso   1.000  H  0.112924
  H90      1.0000 0.36870  0.02140  0.34660  Biso   1.000  H  0.112924
  H91      1.0000 0.13130  0.52140  0.15340  Biso   1.000  H  0.112924
  H92      1.0000 0.86870  0.52140  0.34660  Biso   1.000  H  0.112924
  H93      1.0000 0.36870  0.97860  0.84660  Biso   1.000  H  0.112924
  H94      1.0000 0.63130  0.97860  0.65340  Biso   1.000  H  0.112924
  H95      1.0000 0.86870  0.47860  0.84660  Biso   1.000  H  0.112924
  H96      1.0000 0.13130  0.47860  0.65340  Biso   1.000  H  0.112924
  H97      1.0000 0.34300  0.92530  0.13220  Biso   1.000  H  0.109072
  H98      1.0000 0.65700  0.92530  0.36780  Biso   1.000  H  0.109072
  H99      1.0000 0.84300  0.42530  0.13220  Biso   1.000  H  0.109072
  H100     1.0000 0.15700  0.42530  0.36780  Biso   1.000  H  0.109072
  H101     1.0000 0.65700  0.07470  0.86780  Biso   1.000  H  0.109072
  H102     1.0000 0.34300  0.07470  0.63220  Biso   1.000  H  0.109072
  H103     1.0000 0.15700  0.57470  0.86780  Biso   1.000  H  0.109072
  H104     1.0000 0.84300  0.57470  0.63220  Biso   1.000  H  0.109072
  H105     1.0000 0.10430  0.02530  0.99290  Biso   1.000  H  0.134393
  H106     1.0000 0.89570  0.02530  0.50710  Biso   1.000  H  0.134393
  H107     1.0000 0.60430  0.52530  0.99290  Biso   1.000  H  0.134393
  H108     1.0000 0.39570  0.52530  0.50710  Biso   1.000  H  0.134393
  H109     1.0000 0.89570  0.97470  0.00710  Biso   1.000  H  0.134393
  H110     1.0000 0.10430  0.97470  0.49290  Biso   1.000  H  0.134393
  H111     1.0000 0.39570  0.47470  0.00710  Biso   1.000  H  0.134393
  H112     1.0000 0.60430  0.47470  0.49290  Biso   1.000  H  0.134393
  H113     1.0000 0.26140  0.00500  0.13540  Biso   1.000  H  0.137220
  H114     1.0000 0.73860  0.00500  0.36460  Biso   1.000  H  0.137220
  H115     1.0000 0.76140  0.50500  0.13540  Biso   1.000  H  0.137220
  H116     1.0000 0.23860  0.50500  0.36460  Biso   1.000  H  0.137220
  H117     1.0000 0.73860  0.99500  0.86460  Biso   1.000  H  0.137220
  H118     1.0000 0.26140  0.99500  0.63540  Biso   1.000  H  0.137220
  H119     1.0000 0.23860  0.49500  0.86460  Biso   1.000  H  0.137220
  H120     1.0000 0.76140  0.49500  0.63540  Biso   1.000  H  0.137220
  H121     1.0000 0.59670  0.77860  0.20160  Biso   1.000  H  0.121242
  H122     1.0000 0.40330  0.77860  0.29840  Biso   1.000  H  0.121242
  H123     1.0000 0.09670  0.27860  0.20160  Biso   1.000  H  0.121242
  H124     1.0000 0.90330  0.27860  0.29840  Biso   1.000  H  0.121242
  H125     1.0000 0.40330  0.22140  0.79840  Biso   1.000  H  0.121242
  H126     1.0000 0.59670  0.22140  0.70160  Biso   1.000  H  0.121242
  H127     1.0000 0.90330  0.72140  0.79840  Biso   1.000  H  0.121242
  H128     1.0000 0.09670  0.72140  0.70160  Biso   1.000  H  0.121242
  H129     1.0000 0.02050  0.09640  0.00220  Biso   1.000  H  0.090221
  H130     1.0000 0.97950  0.09640  0.49780  Biso   1.000  H  0.090221
  H131     1.0000 0.52050  0.59640  0.00220  Biso   1.000  H  0.090221
  H132     1.0000 0.47950  0.59640  0.49780  Biso   1.000  H  0.090221
  H133     1.0000 0.97950  0.90360  0.99780  Biso   1.000  H  0.090221
  H134     1.0000 0.02050  0.90360  0.50220  Biso   1.000  H  0.090221
  H135     1.0000 0.47950  0.40360  0.99780  Biso   1.000  H  0.090221
  H136     1.0000 0.52050  0.40360  0.50220  Biso   1.000  H  0.090221
  H137     1.0000 0.79720  0.74380  0.40190  Biso   1.000  H  0.112775
  H138     1.0000 0.20280  0.74380  0.09810  Biso   1.000  H  0.112775
  H139     1.0000 0.29720  0.24380  0.40190  Biso   1.000  H  0.112775
  H140     1.0000 0.70280  0.24380  0.09810  Biso   1.000  H  0.112775
  H141     1.0000 0.20280  0.25620  0.59810  Biso   1.000  H  0.112775
  H142     1.0000 0.79720  0.25620  0.90190  Biso   1.000  H  0.112775
  H143     1.0000 0.70280  0.75620  0.59810  Biso   1.000  H  0.112775
  H144     1.0000 0.29720  0.75620  0.90190  Biso   1.000  H  0.112775
  H145     1.0000 0.16810  0.02580  0.15010  Biso   1.000  H  0.127352
  H146     1.0000 0.83190  0.02580  0.34990  Biso   1.000  H  0.127352
  H147     1.0000 0.66810  0.52580  0.15010  Biso   1.000  H  0.127352
  H148     1.0000 0.33190  0.52580  0.34990  Biso   1.000  H  0.127352
  H149     1.0000 0.83190  0.97420  0.84990  Biso   1.000  H  0.127352
  H150     1.0000 0.16810  0.97420  0.65010  Biso   1.000  H  0.127352
  H151     1.0000 0.33190  0.47420  0.84990  Biso   1.000  H  0.127352
  H152     1.0000 0.66810  0.47420  0.65010  Biso   1.000  H  0.127352
  H153     1.0000 0.08350  0.10050  0.15490  Biso   1.000  H  0.102701
  H154     1.0000 0.91650  0.10050  0.34510  Biso   1.000  H  0.102701
  H155     1.0000 0.58350  0.60050  0.15490  Biso   1.000  H  0.102701
  H156     1.0000 0.41650  0.60050  0.34510  Biso   1.000  H  0.102701
  H157     1.0000 0.91650  0.89950  0.84510  Biso   1.000  H  0.102701
  H158     1.0000 0.08350  0.89950  0.65490  Biso   1.000  H  0.102701
  H159     1.0000 0.41650  0.39950  0.84510  Biso   1.000  H  0.102701
  H160     1.0000 0.58350  0.39950  0.65490  Biso   1.000  H  0.102701
  H161     1.0000 0.68490  0.84370  0.24670  Biso   1.000  H  0.116103
  H162     1.0000 0.31510  0.84370  0.25330  Biso   1.000  H  0.116103
  H163     1.0000 0.18490  0.34370  0.24670  Biso   1.000  H  0.116103
  H164     1.0000 0.81510  0.34370  0.25330  Biso   1.000  H  0.116103
  H165     1.0000 0.31510  0.15630  0.75330  Biso   1.000  H  0.116103
  H166     1.0000 0.68490  0.15630  0.74670  Biso   1.000  H  0.116103
  H167     1.0000 0.81510  0.65630  0.75330  Biso   1.000  H  0.116103
  H168     1.0000 0.18490  0.65630  0.74670  Biso   1.000  H  0.116103
  H169     1.0000 0.87240  0.80770  0.15680  Biso   1.000  H  0.117579
  H170     1.0000 0.12760  0.80770  0.34320  Biso   1.000  H  0.117579
  H171     1.0000 0.37240  0.30770  0.15680  Biso   1.000  H  0.117579
  H172     1.0000 0.62760  0.30770  0.34320  Biso   1.000  H  0.117579
  H173     1.0000 0.12760  0.19230  0.84320  Biso   1.000  H  0.117579
  H174     1.0000 0.87240  0.19230  0.65680  Biso   1.000  H  0.117579
  H175     1.0000 0.62760  0.69230  0.84320  Biso   1.000  H  0.117579
  H176     1.0000 0.37240  0.69230  0.65680  Biso   1.000  H  0.117579
  H177     1.0000 0.95780  0.84030  0.33030  Biso   1.000  H  0.110076
  H178     1.0000 0.04220  0.84030  0.16970  Biso   1.000  H  0.110076
  H179     1.0000 0.45780  0.34030  0.33030  Biso   1.000  H  0.110076
  H180     1.0000 0.54220  0.34030  0.16970  Biso   1.000  H  0.110076
  H181     1.0000 0.04220  0.15970  0.66970  Biso   1.000  H  0.110076
  H182     1.0000 0.95780  0.15970  0.83030  Biso   1.000  H  0.110076
  H183     1.0000 0.54220  0.65970  0.66970  Biso   1.000  H  0.110076
  H184     1.0000 0.45780  0.65970  0.83030  Biso   1.000  H  0.110076
  H185     1.0000 0.78040  0.75840  0.31130  Biso   1.000  H  0.110707
  H186     1.0000 0.21960  0.75840  0.18870  Biso   1.000  H  0.110707
  H187     1.0000 0.28040  0.25840  0.31130  Biso   1.000  H  0.110707
  H188     1.0000 0.71960  0.25840  0.18870  Biso   1.000  H  0.110707
  H189     1.0000 0.21960  0.24160  0.68870  Biso   1.000  H  0.110707
  H190     1.0000 0.78040  0.24160  0.81130  Biso   1.000  H  0.110707
  H191     1.0000 0.71960  0.74160  0.68870  Biso   1.000  H  0.110707
  H192     1.0000 0.28040  0.74160  0.81130  Biso   1.000  H  0.110707
  N1       1.0000 0.04333  0.10620  0.07845  Biso   1.000  N  -0.209030
  N2       1.0000 0.95667  0.10620  0.42155  Biso   1.000  N  -0.209030
  N3       1.0000 0.54333  0.60620  0.07845  Biso   1.000  N  -0.209030
  N4       1.0000 0.45667  0.60620  0.42155  Biso   1.000  N  -0.209030
  N5       1.0000 0.95667  0.89380  0.92155  Biso   1.000  N  -0.209030
  N6       1.0000 0.04333  0.89380  0.57845  Biso   1.000  N  -0.209030
  N7       1.0000 0.45667  0.39380  0.92155  Biso   1.000  N  -0.209030
  N8       1.0000 0.54333  0.39380  0.57845  Biso   1.000  N  -0.209030
  N9       1.0000 0.30441  0.87709  0.06442  Biso   1.000  N  -0.219419
  N10      1.0000 0.69559  0.87709  0.43558  Biso   1.000  N  -0.219419
  N11      1.0000 0.80441  0.37709  0.06442  Biso   1.000  N  -0.219419
  N12      1.0000 0.19559  0.37709  0.43558  Biso   1.000  N  -0.219419
  N13      1.0000 0.69559  0.12291  0.93558  Biso   1.000  N  -0.219419
  N14      1.0000 0.30441  0.12291  0.56442  Biso   1.000  N  -0.219419
  N15      1.0000 0.19559  0.62291  0.93558  Biso   1.000  N  -0.219419
  N16      1.0000 0.80441  0.62291  0.56442  Biso   1.000  N  -0.219419
  O1       1.0000 0.96222  0.10254  0.16005  Biso   1.000  O  -0.538684
  O2       1.0000 0.03778  0.10254  0.33995  Biso   1.000  O  -0.538684
  O3       1.0000 0.46222  0.60254  0.16005  Biso   1.000  O  -0.538684
  O4       1.0000 0.53778  0.60254  0.33995  Biso   1.000  O  -0.538684
  O5       1.0000 0.03778  0.89746  0.83995  Biso   1.000  O  -0.538684
  O6       1.0000 0.96222  0.89746  0.66005  Biso   1.000  O  -0.538684
  O7       1.0000 0.53778  0.39746  0.83995  Biso   1.000  O  -0.538684
  O8       1.0000 0.46222  0.39746  0.66005  Biso   1.000  O  -0.538684
  O9       1.0000 0.91830  0.04214  0.08620  Biso   1.000  O  -0.567626
  O10      1.0000 0.08170  0.04214  0.41380  Biso   1.000  O  -0.567626
  O11      1.0000 0.41830  0.54214  0.08620  Biso   1.000  O  -0.567626
  O12      1.0000 0.58170  0.54214  0.41380  Biso   1.000  O  -0.567626
  O13      1.0000 0.08170  0.95786  0.91380  Biso   1.000  O  -0.567626
  O14      1.0000 0.91830  0.95786  0.58620  Biso   1.000  O  -0.567626
  O15      1.0000 0.58170  0.45786  0.91380  Biso   1.000  O  -0.567626
  O16      1.0000 0.41830  0.45786  0.58620  Biso   1.000  O  -0.567626
  O17      1.0000 0.93550  0.81526  0.50946  Biso   1.000  O  -0.562255
  O18      1.0000 0.06450  0.81526  0.99054  Biso   1.000  O  -0.562255
  O19      1.0000 0.43550  0.31526  0.50946  Biso   1.000  O  -0.562255
  O20      1.0000 0.56450  0.31526  0.99054  Biso   1.000  O  -0.562255
  O21      1.0000 0.06450  0.18474  0.49054  Biso   1.000  O  -0.562255
  O22      1.0000 0.93550  0.18474  0.00946  Biso   1.000  O  -0.562255
  O23      1.0000 0.56450  0.68474  0.49054  Biso   1.000  O  -0.562255
  O24      1.0000 0.43550  0.68474  0.00946  Biso   1.000  O  -0.562255
  O25      1.0000 0.86070  0.20021  0.09201  Biso   1.000  O  -0.599422
  O26      1.0000 0.13930  0.20021  0.40799  Biso   1.000  O  -0.599422
  O27      1.0000 0.36070  0.70021  0.09201  Biso   1.000  O  -0.599422
  O28      1.0000 0.63930  0.70021  0.40799  Biso   1.000  O  -0.599422
  O29      1.0000 0.13930  0.79979  0.90799  Biso   1.000  O  -0.599422
  O30      1.0000 0.86070  0.79979  0.59201  Biso   1.000  O  -0.599422
  O31      1.0000 0.63930  0.29979  0.90799  Biso   1.000  O  -0.599422
  O32      1.0000 0.36070  0.29979  0.59201  Biso   1.000  O  -0.599422
  O33      1.0000 0.85791  0.27423  0.16012  Biso   1.000  O  -0.514262
  O34      1.0000 0.14209  0.27423  0.33988  Biso   1.000  O  -0.514262
  O35      1.0000 0.35791  0.77423  0.16012  Biso   1.000  O  -0.514262
  O36      1.0000 0.64209  0.77423  0.33988  Biso   1.000  O  -0.514262
  O37      1.0000 0.14209  0.72577  0.83988  Biso   1.000  O  -0.514262
  O38      1.0000 0.85791  0.72577  0.66012  Biso   1.000  O  -0.514262
  O39      1.0000 0.64209  0.22577  0.83988  Biso   1.000  O  -0.514262
  O40      1.0000 0.35791  0.22577  0.66012  Biso   1.000  O  -0.514262
  O41      1.0000 0.75462  0.95692  0.27673  Biso   1.000  O  -0.408847
  O42      1.0000 0.24538  0.95692  0.22327  Biso   1.000  O  -0.408847
  O43      1.0000 0.25462  0.45692  0.27673  Biso   1.000  O  -0.408847
  O44      1.0000 0.74538  0.45692  0.22327  Biso   1.000  O  -0.408847
  O45      1.0000 0.24538  0.04308  0.72327  Biso   1.000  O  -0.408847
  O46      1.0000 0.75462  0.04308  0.77673  Biso   1.000  O  -0.408847
  O47      1.0000 0.74538  0.54308  0.72327  Biso   1.000  O  -0.408847
  O48      1.0000 0.25462  0.54308  0.77673  Biso   1.000  O  -0.408847
  O49      1.0000 0.50414  0.74847  0.12488  Biso   1.000  O  -0.555233
  O50      1.0000 0.49586  0.74847  0.37512  Biso   1.000  O  -0.555233
  O51      1.0000 0.00414  0.24847  0.12488  Biso   1.000  O  -0.555233
  O52      1.0000 0.99586  0.24847  0.37512  Biso   1.000  O  -0.555233
  O53      1.0000 0.49586  0.25153  0.87512  Biso   1.000  O  -0.555233
  O54      1.0000 0.50414  0.25153  0.62488  Biso   1.000  O  -0.555233
  O55      1.0000 0.99586  0.75153  0.87512  Biso   1.000  O  -0.555233
  O56      1.0000 0.00414  0.75153  0.62488  Biso   1.000  O  -0.555233
  O57      1.0000 0.86552  0.72015  0.49321  Biso   1.000  O  -0.536401
  O58      1.0000 0.13448  0.72015  0.00679  Biso   1.000  O  -0.536401
  O59      1.0000 0.36552  0.22015  0.49321  Biso   1.000  O  -0.536401
  O60      1.0000 0.63448  0.22015  0.00679  Biso   1.000  O  -0.536401
  O61      1.0000 0.13448  0.27985  0.50679  Biso   1.000  O  -0.536401
  O62      1.0000 0.86552  0.27985  0.99321  Biso   1.000  O  -0.536401
  O63      1.0000 0.63448  0.77985  0.50679  Biso   1.000  O  -0.536401
  O64      1.0000 0.36552  0.77985  0.99321  Biso   1.000  O  -0.536401
  O65      1.0000 0.45475  0.85674  0.09695  Biso   1.000  O  -0.541120
  O66      1.0000 0.54525  0.85674  0.40305  Biso   1.000  O  -0.541120
  O67      1.0000 0.95475  0.35674  0.09695  Biso   1.000  O  -0.541120
  O68      1.0000 0.04525  0.35674  0.40305  Biso   1.000  O  -0.541120
  O69      1.0000 0.54525  0.14326  0.90305  Biso   1.000  O  -0.541120
  O70      1.0000 0.45475  0.14326  0.59695  Biso   1.000  O  -0.541120
  O71      1.0000 0.04525  0.64326  0.90305  Biso   1.000  O  -0.541120
  O72      1.0000 0.95475  0.64326  0.59695  Biso   1.000  O  -0.541120
  O73      1.0000 0.81710  0.75920  0.22636  Biso   1.000  O  -0.421168
  O74      1.0000 0.18290  0.75920  0.27364  Biso   1.000  O  -0.421168
  O75      1.0000 0.31710  0.25920  0.22636  Biso   1.000  O  -0.421168
  O76      1.0000 0.68290  0.25920  0.27364  Biso   1.000  O  -0.421168
  O77      1.0000 0.18290  0.24080  0.77364  Biso   1.000  O  -0.421168
  O78      1.0000 0.81710  0.24080  0.72636  Biso   1.000  O  -0.421168
  O79      1.0000 0.68290  0.74080  0.77364  Biso   1.000  O  -0.421168
  O80      1.0000 0.31710  0.74080  0.72636  Biso   1.000  O  -0.421168
  Zn1      1.0000 0.95907  0.15741  0.08743  Biso   1.000  Zn  0.864964
  Zn2      1.0000 0.04093  0.15741  0.41257  Biso   1.000  Zn  0.864964
  Zn3      1.0000 0.45907  0.65741  0.08743  Biso   1.000  Zn  0.864964
  Zn4      1.0000 0.54093  0.65741  0.41257  Biso   1.000  Zn  0.864964
  Zn5      1.0000 0.04093  0.84259  0.91257  Biso   1.000  Zn  0.864964
  Zn6      1.0000 0.95907  0.84259  0.58743  Biso   1.000  Zn  0.864964
  Zn7      1.0000 0.54093  0.34259  0.91257  Biso   1.000  Zn  0.864964
  Zn8      1.0000 0.45907  0.34259  0.58743  Biso   1.000  Zn  0.864964
  Zn9      1.0000 0.87539  0.30428  0.06868  Biso   1.000  Zn  0.816341
  Zn10     1.0000 0.12461  0.30428  0.43132  Biso   1.000  Zn  0.816341
  Zn11     1.0000 0.37539  0.80428  0.06868  Biso   1.000  Zn  0.816341
  Zn12     1.0000 0.62461  0.80428  0.43132  Biso   1.000  Zn  0.816341
  Zn13     1.0000 0.12461  0.69572  0.93132  Biso   1.000  Zn  0.816341
  Zn14     1.0000 0.87539  0.69572  0.56868  Biso   1.000  Zn  0.816341
  Zn15     1.0000 0.62461  0.19572  0.93132  Biso   1.000  Zn  0.816341
  Zn16     1.0000 0.37539  0.19572  0.56868  Biso   1.000  Zn  0.816341
