data_image0
_cell_length_a       31.3109
_cell_length_b       31.3109
_cell_length_c       31.4977
_cell_angle_alpha    60.1959
_cell_angle_beta     60.1959
_cell_angle_gamma    90

_symmetry_space_group_name_H-M    "P 1"
_symmetry_int_tables_number       1

loop_
  _symmetry_equiv_pos_as_xyz
  'x, y, z'

loop_
  _atom_site_label
  _atom_site_occupancy
  _atom_site_fract_x
  _atom_site_fract_y
  _atom_site_fract_z
  _atom_site_thermal_displace_type
  _atom_site_B_iso_or_equiv
  _atom_site_type_symbol
  _atom_site_charge
  C1       1.0000 0.42870  0.47090  0.34860  Biso   1.000  C  0.595437
  C2       1.0000 0.37230  0.47420  0.38320  Biso   1.000  C  0.016139
  C3       1.0000 0.35190  0.46700  0.43400  Biso   1.000  C  -0.153440
  C4       1.0000 0.30380  0.47020  0.46080  Biso   1.000  C  0.166699
  C5       1.0000 0.23160  0.46110  0.55260  Biso   1.000  C  -0.123876
  C6       1.0000 0.23160  0.45970  0.59980  Biso   1.000  C  0.165736
  C7       1.0000 0.18710  0.44910  0.65440  Biso   1.000  C  0.054934
  C8       1.0000 0.13740  0.44980  0.66440  Biso   1.000  C  -0.174019
  C9       1.0000 0.09990  0.44030  0.71200  Biso   1.000  C  0.065647
  C10      1.0000 0.11490  0.45690  0.74480  Biso   1.000  C  -0.187567
  C11      1.0000 0.16160  0.46760  0.73180  Biso   1.000  C  0.072291
  C12      1.0000 0.19960  0.45930  0.68700  Biso   1.000  C  -0.176287
  C13      1.0000 0.16900  0.47120  0.76900  Biso   1.000  C  0.129545
  C14      1.0000 0.22310  0.48370  0.75900  Biso   1.000  C  -0.177082
  C15      1.0000 0.23930  0.49700  0.82000  Biso   1.000  C  0.157446
  C16      1.0000 0.29620  0.50080  0.78380  Biso   1.000  C  -0.158083
  C17      1.0000 0.33010  0.51380  0.79700  Biso   1.000  C  0.002888
  C18      1.0000 0.30830  0.51740  0.84200  Biso   1.000  C  -0.086819
  C19      1.0000 0.25960  0.52310  0.87140  Biso   1.000  C  -0.002277
  C20      1.0000 0.22450  0.50370  0.86260  Biso   1.000  C  -0.153192
  C21      1.0000 0.24060  0.53050  0.91860  Biso   1.000  C  0.592412
  C22      1.0000 0.81200  0.45850  0.76080  Biso   1.000  C  0.587164
  C23      1.0000 0.83990  0.44540  0.79000  Biso   1.000  C  0.008121
  C24      1.0000 0.81860  0.44430  0.83960  Biso   1.000  C  -0.094513
  C25      1.0000 0.84650  0.43930  0.86600  Biso   1.000  C  0.005148
  C26      1.0000 0.89160  0.43190  0.84200  Biso   1.000  C  -0.163037
  C27      1.0000 0.91760  0.43800  0.78800  Biso   1.000  C  0.149690
  C28      1.0000 0.88660  0.43880  0.76620  Biso   1.000  C  -0.132740
  C29      1.0000 0.82620  0.43920  0.91660  Biso   1.000  C  0.576611
  C30      1.0000 0.00500  0.44440  0.76760  Biso   1.000  C  -0.183311
  C31      1.0000 0.38080  0.51800  0.76380  Biso   1.000  C  0.586822
  C32      1.0000 0.04360  0.42990  0.73220  Biso   1.000  C  0.167713
  C33      1.0000 0.34380  0.47790  0.35800  Biso   1.000  C  -0.127253
  C34      1.0000 0.29800  0.48620  0.38180  Biso   1.000  C  0.020641
  C35      1.0000 0.27380  0.48000  0.43560  Biso   1.000  C  -0.184692
  C36      1.0000 0.27230  0.49670  0.35180  Biso   1.000  C  0.579977
  C37      1.0000 0.22270  0.18050  0.34860  Biso   1.000  C  0.592862
  C38      1.0000 0.24450  0.14260  0.38320  Biso   1.000  C  0.019960
  C39      1.0000 0.21410  0.09900  0.43400  Biso   1.000  C  -0.154425
  C40      1.0000 0.23540  0.06900  0.46080  Biso   1.000  C  0.167203
  C41      1.0000 0.21580  0.98630  0.55260  Biso   1.000  C  -0.123941
  C42      1.0000 0.16860  0.94050  0.59980  Biso   1.000  C  0.165851
  C43      1.0000 0.15850  0.89650  0.65440  Biso   1.000  C  0.054790
  C44      1.0000 0.19820  0.88580  0.66440  Biso   1.000  C  -0.174043
  C45      1.0000 0.18810  0.84770  0.71200  Biso   1.000  C  0.065688
  C46      1.0000 0.14030  0.79830  0.74480  Biso   1.000  C  -0.187539
  C47      1.0000 0.10660  0.80060  0.73180  Biso   1.000  C  0.072277
  C48      1.0000 0.11340  0.85370  0.68700  Biso   1.000  C  -0.176347
  C49      1.0000 0.06200  0.75980  0.76900  Biso   1.000  C  0.129606
  C50      1.0000 0.01790  0.75730  0.75900  Biso   1.000  C  -0.177112
  C51      1.0000 0.94070  0.68300  0.82000  Biso   1.000  C  0.157427
  C52      1.0000 0.92000  0.71540  0.78380  Biso   1.000  C  -0.157980
  C53      1.0000 0.87290  0.68920  0.79700  Biso   1.000  C  0.002891
  C54      1.0000 0.84970  0.64060  0.84200  Biso   1.000  C  -0.086845
  C55      1.0000 0.86900  0.60550  0.87140  Biso   1.000  C  -0.002351
  C56      1.0000 0.91290  0.63370  0.86260  Biso   1.000  C  -0.153167
  C57      1.0000 0.84080  0.55090  0.91860  Biso   1.000  C  0.592431
  C58      1.0000 0.42720  0.78070  0.76080  Biso   1.000  C  0.587224
  C59      1.0000 0.37010  0.76460  0.79000  Biso   1.000  C  0.008083
  C60      1.0000 0.34180  0.71610  0.83960  Biso   1.000  C  -0.094496
  C61      1.0000 0.28750  0.69470  0.86600  Biso   1.000  C  0.005215
  C62      1.0000 0.26640  0.72610  0.84200  Biso   1.000  C  -0.163080
  C63      1.0000 0.29440  0.77400  0.78800  Biso   1.000  C  0.149661
  C64      1.0000 0.34720  0.79500  0.76620  Biso   1.000  C  -0.132825
  C65      1.0000 0.25720  0.64420  0.91660  Biso   1.000  C  0.576577
  C66      1.0000 0.22740  0.78800  0.76760  Biso   1.000  C  -0.183306
  C67      1.0000 0.85540  0.71820  0.76380  Biso   1.000  C  0.586806
  C68      1.0000 0.22420  0.83790  0.73220  Biso   1.000  C  0.167677
  C69      1.0000 0.29820  0.16410  0.35800  Biso   1.000  C  -0.127306
  C70      1.0000 0.32020  0.13200  0.38180  Biso   1.000  C  0.021049
  C71      1.0000 0.29060  0.08440  0.43560  Biso   1.000  C  -0.184158
  C72      1.0000 0.37590  0.15150  0.35180  Biso   1.000  C  0.579920
  C73      1.0000 0.47090  0.22270  0.34860  Biso   1.000  C  0.594818
  C74      1.0000 0.47420  0.24450  0.38320  Biso   1.000  C  0.019051
  C75      1.0000 0.46700  0.21410  0.43400  Biso   1.000  C  -0.154514
  C76      1.0000 0.47020  0.23540  0.46080  Biso   1.000  C  0.166951
  C77      1.0000 0.46110  0.21580  0.55260  Biso   1.000  C  -0.123843
  C78      1.0000 0.45970  0.16860  0.59980  Biso   1.000  C  0.165864
  C79      1.0000 0.44910  0.15850  0.65440  Biso   1.000  C  0.054790
  C80      1.0000 0.44980  0.19820  0.66440  Biso   1.000  C  -0.174022
  C81      1.0000 0.44030  0.18810  0.71200  Biso   1.000  C  0.065699
  C82      1.0000 0.45690  0.14030  0.74480  Biso   1.000  C  -0.187526
  C83      1.0000 0.46760  0.10660  0.73180  Biso   1.000  C  0.072275
  C84      1.0000 0.45930  0.11340  0.68700  Biso   1.000  C  -0.176350
  C85      1.0000 0.47120  0.06200  0.76900  Biso   1.000  C  0.129573
  C86      1.0000 0.48370  0.01790  0.75900  Biso   1.000  C  -0.177136
  C87      1.0000 0.49700  0.94070  0.82000  Biso   1.000  C  0.157462
  C88      1.0000 0.50080  0.92000  0.78380  Biso   1.000  C  -0.158112
  C89      1.0000 0.51380  0.87290  0.79700  Biso   1.000  C  0.002877
  C90      1.0000 0.51740  0.84970  0.84200  Biso   1.000  C  -0.086860
  C91      1.0000 0.52310  0.86900  0.87140  Biso   1.000  C  -0.002260
  C92      1.0000 0.50370  0.91290  0.86260  Biso   1.000  C  -0.153212
  C93      1.0000 0.53050  0.84080  0.91860  Biso   1.000  C  0.592410
  C94      1.0000 0.45850  0.42720  0.76080  Biso   1.000  C  0.587195
  C95      1.0000 0.44540  0.37010  0.79000  Biso   1.000  C  0.008089
  C96      1.0000 0.44430  0.34180  0.83960  Biso   1.000  C  -0.094470
  C97      1.0000 0.43930  0.28750  0.86600  Biso   1.000  C  0.005205
  C98      1.0000 0.43190  0.26640  0.84200  Biso   1.000  C  -0.163055
  C99      1.0000 0.43800  0.29440  0.78800  Biso   1.000  C  0.149621
  C100     1.0000 0.43880  0.34720  0.76620  Biso   1.000  C  -0.132788
  C101     1.0000 0.43920  0.25720  0.91660  Biso   1.000  C  0.576603
  C102     1.0000 0.44440  0.22740  0.76760  Biso   1.000  C  -0.183338
  C103     1.0000 0.51800  0.85540  0.76380  Biso   1.000  C  0.586820
  C104     1.0000 0.42990  0.22420  0.73220  Biso   1.000  C  0.167658
  C105     1.0000 0.47790  0.29820  0.35800  Biso   1.000  C  -0.127339
  C106     1.0000 0.48620  0.32020  0.38180  Biso   1.000  C  0.019295
  C107     1.0000 0.48000  0.29060  0.43560  Biso   1.000  C  -0.183078
  C108     1.0000 0.49670  0.37590  0.35180  Biso   1.000  C  0.580399
  C109     1.0000 0.18050  0.42870  0.34860  Biso   1.000  C  0.594947
  C110     1.0000 0.14260  0.37230  0.38320  Biso   1.000  C  0.019241
  C111     1.0000 0.09900  0.35190  0.43400  Biso   1.000  C  -0.154682
  C112     1.0000 0.06900  0.30380  0.46080  Biso   1.000  C  0.167029
  C113     1.0000 0.98630  0.23160  0.55260  Biso   1.000  C  -0.123821
  C114     1.0000 0.94050  0.23160  0.59980  Biso   1.000  C  0.165859
  C115     1.0000 0.89650  0.18710  0.65440  Biso   1.000  C  0.054871
  C116     1.0000 0.88580  0.13740  0.66440  Biso   1.000  C  -0.174035
  C117     1.0000 0.84770  0.09990  0.71200  Biso   1.000  C  0.065733
  C118     1.0000 0.79830  0.11490  0.74480  Biso   1.000  C  -0.187476
  C119     1.0000 0.80060  0.16160  0.73180  Biso   1.000  C  0.072275
  C120     1.0000 0.85370  0.19960  0.68700  Biso   1.000  C  -0.176276
  C121     1.0000 0.75980  0.16900  0.76900  Biso   1.000  C  0.129550
  C122     1.0000 0.75730  0.22310  0.75900  Biso   1.000  C  -0.177125
  C123     1.0000 0.68300  0.23930  0.82000  Biso   1.000  C  0.157458
  C124     1.0000 0.71540  0.29620  0.78380  Biso   1.000  C  -0.158135
  C125     1.0000 0.68920  0.33010  0.79700  Biso   1.000  C  0.002869
  C126     1.0000 0.64060  0.30830  0.84200  Biso   1.000  C  -0.086866
  C127     1.0000 0.60550  0.25960  0.87140  Biso   1.000  C  -0.002235
  C128     1.0000 0.63370  0.22450  0.86260  Biso   1.000  C  -0.153212
  C129     1.0000 0.55090  0.24060  0.91860  Biso   1.000  C  0.592400
  C130     1.0000 0.78070  0.81200  0.76080  Biso   1.000  C  0.587215
  C131     1.0000 0.76460  0.83990  0.79000  Biso   1.000  C  0.008080
  C132     1.0000 0.71610  0.81860  0.83960  Biso   1.000  C  -0.094516
  C133     1.0000 0.69470  0.84650  0.86600  Biso   1.000  C  0.005251
  C134     1.0000 0.72610  0.89160  0.84200  Biso   1.000  C  -0.163075
  C135     1.0000 0.77400  0.91760  0.78800  Biso   1.000  C  0.149695
  C136     1.0000 0.79500  0.88660  0.76620  Biso   1.000  C  -0.132841
  C137     1.0000 0.64420  0.82620  0.91660  Biso   1.000  C  0.576582
  C138     1.0000 0.78800  0.00500  0.76760  Biso   1.000  C  -0.183294
  C139     1.0000 0.71820  0.38080  0.76380  Biso   1.000  C  0.586842
  C140     1.0000 0.83790  0.04360  0.73220  Biso   1.000  C  0.167643
  C141     1.0000 0.16410  0.34380  0.35800  Biso   1.000  C  -0.127526
  C142     1.0000 0.13200  0.29800  0.38180  Biso   1.000  C  0.021791
  C143     1.0000 0.08440  0.27380  0.43560  Biso   1.000  C  -0.184101
  C144     1.0000 0.15150  0.27230  0.35180  Biso   1.000  C  0.577251
  C145     1.0000 0.57130  0.52910  0.65140  Biso   1.000  C  0.594825
  C146     1.0000 0.62770  0.52580  0.61680  Biso   1.000  C  0.019364
  C147     1.0000 0.64810  0.53300  0.56600  Biso   1.000  C  -0.154119
  C148     1.0000 0.69620  0.52980  0.53920  Biso   1.000  C  0.167420
  C149     1.0000 0.76840  0.53890  0.44740  Biso   1.000  C  -0.124102
  C150     1.0000 0.76840  0.54030  0.40020  Biso   1.000  C  0.166011
  C151     1.0000 0.81290  0.55090  0.34560  Biso   1.000  C  0.054593
  C152     1.0000 0.86260  0.55020  0.33560  Biso   1.000  C  -0.174099
  C153     1.0000 0.90010  0.55970  0.28800  Biso   1.000  C  0.065764
  C154     1.0000 0.88510  0.54310  0.25520  Biso   1.000  C  -0.187478
  C155     1.0000 0.83840  0.53240  0.26820  Biso   1.000  C  0.072309
  C156     1.0000 0.80040  0.54070  0.31300  Biso   1.000  C  -0.176325
  C157     1.0000 0.83100  0.52880  0.23100  Biso   1.000  C  0.129575
  C158     1.0000 0.77690  0.51630  0.24100  Biso   1.000  C  -0.177035
  C159     1.0000 0.76070  0.50300  0.18000  Biso   1.000  C  0.157493
  C160     1.0000 0.70380  0.49920  0.21620  Biso   1.000  C  -0.157389
  C161     1.0000 0.66990  0.48620  0.20300  Biso   1.000  C  0.001728
  C162     1.0000 0.69170  0.48260  0.15800  Biso   1.000  C  -0.086619
  C163     1.0000 0.74040  0.47690  0.12860  Biso   1.000  C  -0.002381
  C164     1.0000 0.77550  0.49630  0.13740  Biso   1.000  C  -0.153261
  C165     1.0000 0.75940  0.46950  0.08140  Biso   1.000  C  0.592426
  C166     1.0000 0.18800  0.54150  0.23920  Biso   1.000  C  0.587185
  C167     1.0000 0.16010  0.55460  0.21000  Biso   1.000  C  0.008203
  C168     1.0000 0.18140  0.55570  0.16040  Biso   1.000  C  -0.094344
  C169     1.0000 0.15350  0.56070  0.13400  Biso   1.000  C  0.005147
  C170     1.0000 0.10840  0.56810  0.15800  Biso   1.000  C  -0.163127
  C171     1.0000 0.08240  0.56200  0.21200  Biso   1.000  C  0.149564
  C172     1.0000 0.11340  0.56120  0.23380  Biso   1.000  C  -0.132713
  C173     1.0000 0.17380  0.56080  0.08340  Biso   1.000  C  0.576606
  C174     1.0000 0.99500  0.55560  0.23240  Biso   1.000  C  -0.183301
  C175     1.0000 0.61920  0.48200  0.23620  Biso   1.000  C  0.587155
  C176     1.0000 0.95640  0.57010  0.26780  Biso   1.000  C  0.167618
  C177     1.0000 0.65620  0.52210  0.64200  Biso   1.000  C  -0.127488
  C178     1.0000 0.70200  0.51380  0.61820  Biso   1.000  C  0.021118
  C179     1.0000 0.72620  0.52000  0.56440  Biso   1.000  C  -0.183763
  C180     1.0000 0.72770  0.50330  0.64820  Biso   1.000  C  0.579862
  C181     1.0000 0.77730  0.81950  0.65140  Biso   1.000  C  0.594879
  C182     1.0000 0.75550  0.85740  0.61680  Biso   1.000  C  0.019314
  C183     1.0000 0.78590  0.90100  0.56600  Biso   1.000  C  -0.154146
  C184     1.0000 0.76460  0.93100  0.53920  Biso   1.000  C  0.167432
  C185     1.0000 0.78420  0.01370  0.44740  Biso   1.000  C  -0.124078
  C186     1.0000 0.83140  0.05950  0.40020  Biso   1.000  C  0.166057
  C187     1.0000 0.84150  0.10350  0.34560  Biso   1.000  C  0.054491
  C188     1.0000 0.80180  0.11420  0.33560  Biso   1.000  C  -0.174208
  C189     1.0000 0.81190  0.15230  0.28800  Biso   1.000  C  0.065651
  C190     1.0000 0.85970  0.20170  0.25520  Biso   1.000  C  -0.187637
  C191     1.0000 0.89340  0.19940  0.26820  Biso   1.000  C  0.072470
  C192     1.0000 0.88660  0.14630  0.31300  Biso   1.000  C  -0.176170
  C193     1.0000 0.93800  0.24020  0.23100  Biso   1.000  C  0.129199
  C194     1.0000 0.98210  0.24270  0.24100  Biso   1.000  C  -0.176944
  C195     1.0000 0.05930  0.31700  0.18000  Biso   1.000  C  0.157126
  C196     1.0000 0.08000  0.28460  0.21620  Biso   1.000  C  -0.158357
  C197     1.0000 0.12710  0.31080  0.20300  Biso   1.000  C  0.003605
  C198     1.0000 0.15030  0.35940  0.15800  Biso   1.000  C  -0.086962
  C199     1.0000 0.13100  0.39450  0.12860  Biso   1.000  C  -0.002639
  C200     1.0000 0.08710  0.36630  0.13740  Biso   1.000  C  -0.153762
  C201     1.0000 0.15920  0.44910  0.08140  Biso   1.000  C  0.592529
  C202     1.0000 0.57280  0.21930  0.23920  Biso   1.000  C  0.587190
  C203     1.0000 0.62990  0.23540  0.21000  Biso   1.000  C  0.008191
  C204     1.0000 0.65820  0.28390  0.16040  Biso   1.000  C  -0.094487
  C205     1.0000 0.71250  0.30530  0.13400  Biso   1.000  C  0.005058
  C206     1.0000 0.73360  0.27390  0.15800  Biso   1.000  C  -0.163127
  C207     1.0000 0.70560  0.22600  0.21200  Biso   1.000  C  0.149652
  C208     1.0000 0.65280  0.20500  0.23380  Biso   1.000  C  -0.132652
  C209     1.0000 0.74280  0.35580  0.08340  Biso   1.000  C  0.576632
  C210     1.0000 0.77260  0.21200  0.23240  Biso   1.000  C  -0.183294
  C211     1.0000 0.14460  0.28180  0.23620  Biso   1.000  C  0.583545
  C212     1.0000 0.77580  0.16210  0.26780  Biso   1.000  C  0.167720
  C213     1.0000 0.70180  0.83590  0.64200  Biso   1.000  C  -0.127512
  C214     1.0000 0.67980  0.86800  0.61820  Biso   1.000  C  0.021142
  C215     1.0000 0.70940  0.91560  0.56440  Biso   1.000  C  -0.183671
  C216     1.0000 0.62410  0.84850  0.64820  Biso   1.000  C  0.579862
  C217     1.0000 0.52910  0.77730  0.65140  Biso   1.000  C  0.594843
  C218     1.0000 0.52580  0.75550  0.61680  Biso   1.000  C  0.019319
  C219     1.0000 0.53300  0.78590  0.56600  Biso   1.000  C  -0.154165
  C220     1.0000 0.52980  0.76460  0.53920  Biso   1.000  C  0.167415
  C221     1.0000 0.53890  0.78420  0.44740  Biso   1.000  C  -0.123987
  C222     1.0000 0.54030  0.83140  0.40020  Biso   1.000  C  0.166096
  C223     1.0000 0.55090  0.84150  0.34560  Biso   1.000  C  0.054525
  C224     1.0000 0.55020  0.80180  0.33560  Biso   1.000  C  -0.174179
  C225     1.0000 0.55970  0.81190  0.28800  Biso   1.000  C  0.065881
  C226     1.0000 0.54310  0.85970  0.25520  Biso   1.000  C  -0.187394
  C227     1.0000 0.53240  0.89340  0.26820  Biso   1.000  C  0.072281
  C228     1.0000 0.54070  0.88660  0.31300  Biso   1.000  C  -0.176378
  C229     1.0000 0.52880  0.93800  0.23100  Biso   1.000  C  0.129528
  C230     1.0000 0.51630  0.98210  0.24100  Biso   1.000  C  -0.177138
  C231     1.0000 0.50300  0.05930  0.18000  Biso   1.000  C  0.157407
  C232     1.0000 0.49920  0.08000  0.21620  Biso   1.000  C  -0.158123
  C233     1.0000 0.48620  0.12710  0.20300  Biso   1.000  C  0.002992
  C234     1.0000 0.48260  0.15030  0.15800  Biso   1.000  C  -0.086777
  C235     1.0000 0.47690  0.13100  0.12860  Biso   1.000  C  -0.002284
  C236     1.0000 0.49630  0.08710  0.13740  Biso   1.000  C  -0.153328
  C237     1.0000 0.46950  0.15920  0.08140  Biso   1.000  C  0.592471
  C238     1.0000 0.54150  0.57280  0.23920  Biso   1.000  C  0.587754
  C239     1.0000 0.55460  0.62990  0.21000  Biso   1.000  C  0.005888
  C240     1.0000 0.55570  0.65820  0.16040  Biso   1.000  C  -0.094438
  C241     1.0000 0.56070  0.71250  0.13400  Biso   1.000  C  0.004548
  C242     1.0000 0.56810  0.73360  0.15800  Biso   1.000  C  -0.163523
  C243     1.0000 0.56200  0.70560  0.21200  Biso   1.000  C  0.149055
  C244     1.0000 0.56120  0.65280  0.23380  Biso   1.000  C  -0.131859
  C245     1.0000 0.56080  0.74280  0.08340  Biso   1.000  C  0.576756
  C246     1.0000 0.55560  0.77260  0.23240  Biso   1.000  C  -0.183482
  C247     1.0000 0.48200  0.14460  0.23620  Biso   1.000  C  0.586768
  C248     1.0000 0.57010  0.77580  0.26780  Biso   1.000  C  0.167497
  C249     1.0000 0.52210  0.70180  0.64200  Biso   1.000  C  -0.127502
  C250     1.0000 0.51380  0.67980  0.61820  Biso   1.000  C  0.021167
  C251     1.0000 0.52000  0.70940  0.56440  Biso   1.000  C  -0.183667
  C252     1.0000 0.50330  0.62410  0.64820  Biso   1.000  C  0.579839
  C253     1.0000 0.81950  0.57130  0.65140  Biso   1.000  C  0.594877
  C254     1.0000 0.85740  0.62770  0.61680  Biso   1.000  C  0.019317
  C255     1.0000 0.90100  0.64810  0.56600  Biso   1.000  C  -0.154154
  C256     1.0000 0.93100  0.69620  0.53920  Biso   1.000  C  0.167440
  C257     1.0000 0.01370  0.76840  0.44740  Biso   1.000  C  -0.124031
  C258     1.0000 0.05950  0.76840  0.40020  Biso   1.000  C  0.166112
  C259     1.0000 0.10350  0.81290  0.34560  Biso   1.000  C  0.054525
  C260     1.0000 0.11420  0.86260  0.33560  Biso   1.000  C  -0.174199
  C261     1.0000 0.15230  0.90010  0.28800  Biso   1.000  C  0.065844
  C262     1.0000 0.20170  0.88510  0.25520  Biso   1.000  C  -0.187459
  C263     1.0000 0.19940  0.83840  0.26820  Biso   1.000  C  0.072318
  C264     1.0000 0.14630  0.80040  0.31300  Biso   1.000  C  -0.176348
  C265     1.0000 0.24020  0.83100  0.23100  Biso   1.000  C  0.129475
  C266     1.0000 0.24270  0.77690  0.24100  Biso   1.000  C  -0.177094
  C267     1.0000 0.31700  0.76070  0.18000  Biso   1.000  C  0.157382
  C268     1.0000 0.28460  0.70380  0.21620  Biso   1.000  C  -0.158097
  C269     1.0000 0.31080  0.66990  0.20300  Biso   1.000  C  0.003057
  C270     1.0000 0.35940  0.69170  0.15800  Biso   1.000  C  -0.086737
  C271     1.0000 0.39450  0.74040  0.12860  Biso   1.000  C  -0.002303
  C272     1.0000 0.36630  0.77550  0.13740  Biso   1.000  C  -0.153357
  C273     1.0000 0.44910  0.75940  0.08140  Biso   1.000  C  0.592506
  C274     1.0000 0.21930  0.18800  0.23920  Biso   1.000  C  0.585257
  C275     1.0000 0.23540  0.16010  0.21000  Biso   1.000  C  0.008690
  C276     1.0000 0.28390  0.18140  0.16040  Biso   1.000  C  -0.094548
  C277     1.0000 0.30530  0.15350  0.13400  Biso   1.000  C  0.004920
  C278     1.0000 0.27390  0.10840  0.15800  Biso   1.000  C  -0.163439
  C279     1.0000 0.22600  0.08240  0.21200  Biso   1.000  C  0.149413
  C280     1.0000 0.20500  0.11340  0.23380  Biso   1.000  C  -0.132829
  C281     1.0000 0.35580  0.17380  0.08340  Biso   1.000  C  0.576677
  C282     1.0000 0.21200  0.99500  0.23240  Biso   1.000  C  -0.183446
  C283     1.0000 0.28180  0.61920  0.23620  Biso   1.000  C  0.586766
  C284     1.0000 0.16210  0.95640  0.26780  Biso   1.000  C  0.167534
  C285     1.0000 0.83590  0.65620  0.64200  Biso   1.000  C  -0.127514
  C286     1.0000 0.86800  0.70200  0.61820  Biso   1.000  C  0.021124
  C287     1.0000 0.91560  0.72620  0.56440  Biso   1.000  C  -0.183730
  C288     1.0000 0.84850  0.72770  0.64820  Biso   1.000  C  0.579860
  Cu1      1.0000 0.73215  0.48225  0.74560  Biso   1.000  Cu  0.911000
  Cu2      1.0000 0.80948  0.47425  0.66368  Biso   1.000  Cu  0.894388
  Cu3      1.0000 0.52225  0.77215  0.74560  Biso   1.000  Cu  0.910960
  Cu4      1.0000 0.52684  0.86207  0.66368  Biso   1.000  Cu  0.894411
  Cu5      1.0000 0.48225  0.52225  0.74560  Biso   1.000  Cu  0.910965
  Cu6      1.0000 0.47425  0.52684  0.66368  Biso   1.000  Cu  0.894491
  Cu7      1.0000 0.77215  0.73215  0.74560  Biso   1.000  Cu  0.910996
  Cu8      1.0000 0.86207  0.80948  0.66368  Biso   1.000  Cu  0.894401
  Cu9      1.0000 0.26785  0.51775  0.25440  Biso   1.000  Cu  0.910846
  Cu10     1.0000 0.19052  0.52575  0.33632  Biso   1.000  Cu  0.894140
  Cu11     1.0000 0.47775  0.22785  0.25440  Biso   1.000  Cu  0.911116
  Cu12     1.0000 0.47316  0.13793  0.33632  Biso   1.000  Cu  0.893854
  Cu13     1.0000 0.51775  0.47775  0.25440  Biso   1.000  Cu  0.918599
  Cu14     1.0000 0.52575  0.47316  0.33632  Biso   1.000  Cu  0.891378
  Cu15     1.0000 0.22785  0.26785  0.25440  Biso   1.000  Cu  0.879346
  Cu16     1.0000 0.13793  0.19052  0.33632  Biso   1.000  Cu  0.890456
  Cu17     1.0000 0.74948  0.46148  0.00000  Biso   1.000  Cu  0.901132
  Cu18     1.0000 0.83350  0.44979  0.00000  Biso   1.000  Cu  0.898145
  Cu19     1.0000 0.25052  0.53852  0.00000  Biso   1.000  Cu  0.901210
  Cu20     1.0000 0.16650  0.55021  0.00000  Biso   1.000  Cu  0.898036
  Cu21     1.0000 0.46148  0.25052  0.00000  Biso   1.000  Cu  0.901152
  Cu22     1.0000 0.44979  0.16650  0.00000  Biso   1.000  Cu  0.898075
  Cu23     1.0000 0.53852  0.74948  0.00000  Biso   1.000  Cu  0.901053
  Cu24     1.0000 0.55021  0.83350  0.00000  Biso   1.000  Cu  0.898168
  H1       1.0000 0.37000  0.45980  0.45200  Biso   1.000  H  0.154864
  H2       1.0000 0.20330  0.45830  0.54980  Biso   1.000  H  0.135924
  H3       1.0000 0.13320  0.45780  0.63400  Biso   1.000  H  0.124189
  H4       1.0000 0.08840  0.45900  0.77520  Biso   1.000  H  0.114430
  H5       1.0000 0.23280  0.46090  0.67960  Biso   1.000  H  0.115893
  H6       1.0000 0.25600  0.48820  0.72860  Biso   1.000  H  0.151949
  H7       1.0000 0.30860  0.49480  0.75400  Biso   1.000  H  0.138499
  H8       1.0000 0.32810  0.51610  0.85700  Biso   1.000  H  0.124346
  H9       1.0000 0.18860  0.49530  0.88940  Biso   1.000  H  0.138888
  H10      1.0000 0.78500  0.44680  0.85740  Biso   1.000  H  0.133755
  H11      1.0000 0.90700  0.42180  0.86320  Biso   1.000  H  0.132674
  H12      1.0000 0.89910  0.43480  0.73480  Biso   1.000  H  0.138144
  H13      1.0000 0.00690  0.46090  0.78500  Biso   1.000  H  0.159781
  H14      1.0000 0.35650  0.47460  0.32620  Biso   1.000  H  0.141734
  H15      1.0000 0.24020  0.48200  0.45480  Biso   1.000  H  0.146728
  H16      1.0000 0.17800  0.08820  0.45200  Biso   1.000  H  0.155330
  H17      1.0000 0.24690  0.99190  0.54980  Biso   1.000  H  0.135945
  H18      1.0000 0.23280  0.90820  0.63400  Biso   1.000  H  0.124159
  H19      1.0000 0.13640  0.76580  0.77520  Biso   1.000  H  0.114455
  H20      1.0000 0.08760  0.85950  0.67960  Biso   1.000  H  0.115876
  H21      1.0000 0.01540  0.78320  0.72860  Biso   1.000  H  0.151943
  H22      1.0000 0.93740  0.75120  0.75400  Biso   1.000  H  0.138515
  H23      1.0000 0.81490  0.62690  0.85700  Biso   1.000  H  0.124315
  H24      1.0000 0.92200  0.61530  0.88940  Biso   1.000  H  0.138869
  H25      1.0000 0.35760  0.69580  0.85740  Biso   1.000  H  0.133773
  H26      1.0000 0.22980  0.71500  0.86320  Biso   1.000  H  0.132660
  H27      1.0000 0.36610  0.83040  0.73480  Biso   1.000  H  0.138109
  H28      1.0000 0.20810  0.75410  0.78500  Biso   1.000  H  0.159786
  H29      1.0000 0.31730  0.19920  0.32620  Biso   1.000  H  0.142209
  H30      1.0000 0.30500  0.06320  0.45480  Biso   1.000  H  0.146848
  H31      1.0000 0.45980  0.17800  0.45200  Biso   1.000  H  0.155221
  H32      1.0000 0.45830  0.24690  0.54980  Biso   1.000  H  0.136008
  H33      1.0000 0.45780  0.23280  0.63400  Biso   1.000  H  0.124191
  H34      1.0000 0.45900  0.13640  0.77520  Biso   1.000  H  0.114460
  H35      1.0000 0.46090  0.08760  0.67960  Biso   1.000  H  0.115851
  H36      1.0000 0.48820  0.01540  0.72860  Biso   1.000  H  0.151929
  H37      1.0000 0.49480  0.93740  0.75400  Biso   1.000  H  0.138493
  H38      1.0000 0.51610  0.81490  0.85700  Biso   1.000  H  0.124320
  H39      1.0000 0.49530  0.92200  0.88940  Biso   1.000  H  0.138897
  H40      1.0000 0.44680  0.35760  0.85740  Biso   1.000  H  0.133784
  H41      1.0000 0.42180  0.22980  0.86320  Biso   1.000  H  0.132665
  H42      1.0000 0.43480  0.36610  0.73480  Biso   1.000  H  0.138128
  H43      1.0000 0.46090  0.20810  0.78500  Biso   1.000  H  0.159772
  H44      1.0000 0.47460  0.31730  0.32620  Biso   1.000  H  0.141929
  H45      1.0000 0.48200  0.30500  0.45480  Biso   1.000  H  0.146804
  H46      1.0000 0.08820  0.37000  0.45200  Biso   1.000  H  0.155214
  H47      1.0000 0.99190  0.20330  0.54980  Biso   1.000  H  0.136032
  H48      1.0000 0.90820  0.13320  0.63400  Biso   1.000  H  0.124223
  H49      1.0000 0.76580  0.08840  0.77520  Biso   1.000  H  0.114464
  H50      1.0000 0.85950  0.23280  0.67960  Biso   1.000  H  0.115878
  H51      1.0000 0.78320  0.25600  0.72860  Biso   1.000  H  0.151932
  H52      1.0000 0.75120  0.30860  0.75400  Biso   1.000  H  0.138488
  H53      1.0000 0.62690  0.32810  0.85700  Biso   1.000  H  0.124329
  H54      1.0000 0.61530  0.18860  0.88940  Biso   1.000  H  0.138890
  H55      1.0000 0.69580  0.78500  0.85740  Biso   1.000  H  0.133761
  H56      1.0000 0.71500  0.90700  0.86320  Biso   1.000  H  0.132684
  H57      1.0000 0.83040  0.89910  0.73480  Biso   1.000  H  0.138128
  H58      1.0000 0.75410  0.00690  0.78500  Biso   1.000  H  0.159785
  H59      1.0000 0.19920  0.35650  0.32620  Biso   1.000  H  0.142154
  H60      1.0000 0.06320  0.24020  0.45480  Biso   1.000  H  0.146945
  H61      1.0000 0.63000  0.54020  0.54800  Biso   1.000  H  0.155392
  H62      1.0000 0.79670  0.54170  0.45020  Biso   1.000  H  0.135924
  H63      1.0000 0.86680  0.54220  0.36600  Biso   1.000  H  0.124124
  H64      1.0000 0.91160  0.54100  0.22480  Biso   1.000  H  0.114496
  H65      1.0000 0.76720  0.53910  0.32040  Biso   1.000  H  0.115903
  H66      1.0000 0.74400  0.51180  0.27140  Biso   1.000  H  0.151983
  H67      1.0000 0.69140  0.50520  0.24600  Biso   1.000  H  0.138531
  H68      1.0000 0.67190  0.48390  0.14300  Biso   1.000  H  0.124268
  H69      1.0000 0.81140  0.50470  0.11060  Biso   1.000  H  0.138884
  H70      1.0000 0.21500  0.55320  0.14260  Biso   1.000  H  0.133803
  H71      1.0000 0.09300  0.57820  0.13680  Biso   1.000  H  0.132598
  H72      1.0000 0.10090  0.56520  0.26520  Biso   1.000  H  0.138104
  H73      1.0000 0.99310  0.53910  0.21500  Biso   1.000  H  0.159803
  H74      1.0000 0.64350  0.52540  0.67380  Biso   1.000  H  0.142125
  H75      1.0000 0.75980  0.51800  0.54520  Biso   1.000  H  0.147044
  H76      1.0000 0.82200  0.91180  0.54800  Biso   1.000  H  0.155384
  H77      1.0000 0.75310  0.00810  0.45020  Biso   1.000  H  0.135923
  H78      1.0000 0.76720  0.09180  0.36600  Biso   1.000  H  0.124068
  H79      1.0000 0.86360  0.23420  0.22480  Biso   1.000  H  0.114464
  H80      1.0000 0.91240  0.14050  0.32040  Biso   1.000  H  0.115948
  H81      1.0000 0.98460  0.21680  0.27140  Biso   1.000  H  0.151980
  H82      1.0000 0.06260  0.24880  0.24600  Biso   1.000  H  0.138445
  H83      1.0000 0.18510  0.37310  0.14300  Biso   1.000  H  0.124258
  H84      1.0000 0.07800  0.38470  0.11060  Biso   1.000  H  0.138658
  H85      1.0000 0.64240  0.30420  0.14260  Biso   1.000  H  0.133759
  H86      1.0000 0.77020  0.28500  0.13680  Biso   1.000  H  0.132632
  H87      1.0000 0.63390  0.16960  0.26520  Biso   1.000  H  0.138128
  H88      1.0000 0.79190  0.24590  0.21500  Biso   1.000  H  0.159787
  H89      1.0000 0.68270  0.80080  0.67380  Biso   1.000  H  0.142117
  H90      1.0000 0.69500  0.93680  0.54520  Biso   1.000  H  0.146999
  H91      1.0000 0.54020  0.82200  0.54800  Biso   1.000  H  0.155355
  H92      1.0000 0.54170  0.75310  0.45020  Biso   1.000  H  0.135961
  H93      1.0000 0.54220  0.76720  0.36600  Biso   1.000  H  0.124121
  H94      1.0000 0.54100  0.86360  0.22480  Biso   1.000  H  0.114517
  H95      1.0000 0.53910  0.91240  0.32040  Biso   1.000  H  0.115833
  H96      1.0000 0.51180  0.98460  0.27140  Biso   1.000  H  0.151925
  H97      1.0000 0.50520  0.06260  0.24600  Biso   1.000  H  0.138478
  H98      1.0000 0.48390  0.18510  0.14300  Biso   1.000  H  0.124349
  H99      1.0000 0.50470  0.07800  0.11060  Biso   1.000  H  0.138840
  H100     1.0000 0.55320  0.64240  0.14260  Biso   1.000  H  0.133413
  H101     1.0000 0.57820  0.77020  0.13680  Biso   1.000  H  0.132395
  H102     1.0000 0.56520  0.63390  0.26520  Biso   1.000  H  0.137875
  H103     1.0000 0.53910  0.79190  0.21500  Biso   1.000  H  0.159729
  H104     1.0000 0.52540  0.68270  0.67380  Biso   1.000  H  0.142122
  H105     1.0000 0.51800  0.69500  0.54520  Biso   1.000  H  0.147014
  H106     1.0000 0.91180  0.63000  0.54800  Biso   1.000  H  0.155381
  H107     1.0000 0.00810  0.79670  0.45020  Biso   1.000  H  0.135951
  H108     1.0000 0.09180  0.86680  0.36600  Biso   1.000  H  0.124111
  H109     1.0000 0.23420  0.91160  0.22480  Biso   1.000  H  0.114505
  H110     1.0000 0.14050  0.76720  0.32040  Biso   1.000  H  0.115871
  H111     1.0000 0.21680  0.74400  0.27140  Biso   1.000  H  0.151936
  H112     1.0000 0.24880  0.69140  0.24600  Biso   1.000  H  0.138479
  H113     1.0000 0.37310  0.67190  0.14300  Biso   1.000  H  0.124338
  H114     1.0000 0.38470  0.81140  0.11060  Biso   1.000  H  0.138812
  H115     1.0000 0.30420  0.21500  0.14260  Biso   1.000  H  0.133778
  H116     1.0000 0.28500  0.09300  0.13680  Biso   1.000  H  0.132496
  H117     1.0000 0.16960  0.10090  0.26520  Biso   1.000  H  0.138086
  H118     1.0000 0.24590  0.99310  0.21500  Biso   1.000  H  0.159750
  H119     1.0000 0.80080  0.64350  0.67380  Biso   1.000  H  0.142117
  H120     1.0000 0.93680  0.75980  0.54520  Biso   1.000  H  0.147064
  N1       1.0000 0.27640  0.46660  0.51800  Biso   1.000  N  0.120340
  N2       1.0000 0.31310  0.48350  0.52620  Biso   1.000  N  -0.164283
  N3       1.0000 0.27370  0.46550  0.58460  Biso   1.000  N  -0.258109
  N4       1.0000 0.13710  0.45720  0.82280  Biso   1.000  N  -0.224496
  N5       1.0000 0.15930  0.46110  0.84760  Biso   1.000  N  -0.132346
  N6       1.0000 0.21060  0.48610  0.80300  Biso   1.000  N  0.157283
  N7       1.0000 0.96460  0.42660  0.76800  Biso   1.000  N  0.131387
  N8       1.0000 0.98050  0.41590  0.72640  Biso   1.000  N  -0.126060
  N9       1.0000 0.03060  0.41610  0.71140  Biso   1.000  N  -0.240535
  N10      1.0000 0.20560  0.01540  0.51800  Biso   1.000  N  0.120201
  N11      1.0000 0.16070  0.99030  0.52620  Biso   1.000  N  -0.164518
  N12      1.0000 0.14170  0.94990  0.58460  Biso   1.000  N  -0.257872
  N13      1.0000 0.04010  0.72000  0.82280  Biso   1.000  N  -0.224400
  N14      1.0000 0.99310  0.69130  0.84760  Biso   1.000  N  -0.132417
  N15      1.0000 0.98640  0.71090  0.80300  Biso   1.000  N  0.157278
  N16      1.0000 0.26740  0.80540  0.76800  Biso   1.000  N  0.131441
  N17      1.0000 0.29310  0.85770  0.72640  Biso   1.000  N  -0.126047
  N18      1.0000 0.25800  0.87250  0.71140  Biso   1.000  N  -0.240602
  N19      1.0000 0.46660  0.20560  0.51800  Biso   1.000  N  0.120243
  N20      1.0000 0.48350  0.16070  0.52620  Biso   1.000  N  -0.164886
  N21      1.0000 0.46550  0.14170  0.58460  Biso   1.000  N  -0.257938
  N22      1.0000 0.45720  0.04010  0.82280  Biso   1.000  N  -0.224426
  N23      1.0000 0.46110  0.99310  0.84760  Biso   1.000  N  -0.132382
  N24      1.0000 0.48610  0.98640  0.80300  Biso   1.000  N  0.157283
  N25      1.0000 0.42660  0.26740  0.76800  Biso   1.000  N  0.131442
  N26      1.0000 0.41590  0.29310  0.72640  Biso   1.000  N  -0.125984
  N27      1.0000 0.41610  0.25800  0.71140  Biso   1.000  N  -0.240549
  N28      1.0000 0.01540  0.27640  0.51800  Biso   1.000  N  0.120348
  N29      1.0000 0.99030  0.31310  0.52620  Biso   1.000  N  -0.164717
  N30      1.0000 0.94990  0.27370  0.58460  Biso   1.000  N  -0.257860
  N31      1.0000 0.72000  0.13710  0.82280  Biso   1.000  N  -0.224411
  N32      1.0000 0.69130  0.15930  0.84760  Biso   1.000  N  -0.132357
  N33      1.0000 0.71090  0.21060  0.80300  Biso   1.000  N  0.157295
  N34      1.0000 0.80540  0.96460  0.76800  Biso   1.000  N  0.131425
  N35      1.0000 0.85770  0.98050  0.72640  Biso   1.000  N  -0.126005
  N36      1.0000 0.87250  0.03060  0.71140  Biso   1.000  N  -0.240504
  N37      1.0000 0.72360  0.53340  0.48200  Biso   1.000  N  0.120000
  N38      1.0000 0.68690  0.51650  0.47380  Biso   1.000  N  -0.164945
  N39      1.0000 0.72630  0.53450  0.41540  Biso   1.000  N  -0.257596
  N40      1.0000 0.86290  0.54280  0.17720  Biso   1.000  N  -0.224366
  N41      1.0000 0.84070  0.53890  0.15240  Biso   1.000  N  -0.132406
  N42      1.0000 0.78940  0.51390  0.19700  Biso   1.000  N  0.157274
  N43      1.0000 0.03540  0.57340  0.23200  Biso   1.000  N  0.131503
  N44      1.0000 0.01950  0.58410  0.27360  Biso   1.000  N  -0.126003
  N45      1.0000 0.96940  0.58390  0.28860  Biso   1.000  N  -0.240843
  N46      1.0000 0.79440  0.98460  0.48200  Biso   1.000  N  0.119947
  N47      1.0000 0.83930  0.00970  0.47380  Biso   1.000  N  -0.164911
  N48      1.0000 0.85830  0.05010  0.41540  Biso   1.000  N  -0.257508
  N49      1.0000 0.95990  0.28000  0.17720  Biso   1.000  N  -0.224721
  N50      1.0000 0.00690  0.30870  0.15240  Biso   1.000  N  -0.132437
  N51      1.0000 0.01360  0.28910  0.19700  Biso   1.000  N  0.157527
  N52      1.0000 0.73260  0.19460  0.23200  Biso   1.000  N  0.131434
  N53      1.0000 0.70690  0.14230  0.27360  Biso   1.000  N  -0.126076
  N54      1.0000 0.74200  0.12750  0.28860  Biso   1.000  N  -0.240713
  N55      1.0000 0.53340  0.79440  0.48200  Biso   1.000  N  0.119984
  N56      1.0000 0.51650  0.83930  0.47380  Biso   1.000  N  -0.165045
  N57      1.0000 0.53450  0.85830  0.41540  Biso   1.000  N  -0.257679
  N58      1.0000 0.54280  0.95990  0.17720  Biso   1.000  N  -0.224459
  N59      1.0000 0.53890  0.00690  0.15240  Biso   1.000  N  -0.132459
  N60      1.0000 0.51390  0.01360  0.19700  Biso   1.000  N  0.157341
  N61      1.0000 0.57340  0.73260  0.23200  Biso   1.000  N  0.131682
  N62      1.0000 0.58410  0.70690  0.27360  Biso   1.000  N  -0.125897
  N63      1.0000 0.58390  0.74200  0.28860  Biso   1.000  N  -0.241134
  N64      1.0000 0.98460  0.72360  0.48200  Biso   1.000  N  0.119966
  N65      1.0000 0.00970  0.68690  0.47380  Biso   1.000  N  -0.165042
  N66      1.0000 0.05010  0.72630  0.41540  Biso   1.000  N  -0.257647
  N67      1.0000 0.28000  0.86290  0.17720  Biso   1.000  N  -0.224490
  N68      1.0000 0.30870  0.84070  0.15240  Biso   1.000  N  -0.132438
  N69      1.0000 0.28910  0.78940  0.19700  Biso   1.000  N  0.157369
  N70      1.0000 0.19460  0.03540  0.23200  Biso   1.000  N  0.131607
  N71      1.0000 0.14230  0.01950  0.27360  Biso   1.000  N  -0.125865
  N72      1.0000 0.12750  0.96940  0.28860  Biso   1.000  N  -0.240983
  O1       1.0000 0.44716  0.47502  0.30316  Biso   1.000  O  -0.510020
  O2       1.0000 0.45148  0.46400  0.37560  Biso   1.000  O  -0.564269
  O3       1.0000 0.76732  0.45854  0.78664  Biso   1.000  O  -0.492574
  O4       1.0000 0.83589  0.45632  0.71316  Biso   1.000  O  -0.547400
  O5       1.0000 0.41313  0.52049  0.78038  Biso   1.000  O  -0.567152
  O6       1.0000 0.40188  0.51707  0.71606  Biso   1.000  O  -0.542593
  O7       1.0000 0.29175  0.49721  0.30470  Biso   1.000  O  -0.527273
  O8       1.0000 0.22777  0.50673  0.37494  Biso   1.000  O  -0.546349
  O9       1.0000 0.77831  0.44673  0.93934  Biso   1.000  O  -0.563807
  O10      1.0000 0.85190  0.43840  0.93820  Biso   1.000  O  -0.532638
  O11      1.0000 0.26797  0.52692  0.93946  Biso   1.000  O  -0.535858
  O12      1.0000 0.19559  0.53514  0.94036  Biso   1.000  O  -0.516842
  O13      1.0000 0.24968  0.22182  0.30316  Biso   1.000  O  -0.502504
  O14      1.0000 0.17292  0.16040  0.37560  Biso   1.000  O  -0.560852
  O15      1.0000 0.44604  0.75482  0.78664  Biso   1.000  O  -0.492566
  O16      1.0000 0.45095  0.83052  0.71316  Biso   1.000  O  -0.547491
  O17      1.0000 0.80649  0.69913  0.78038  Biso   1.000  O  -0.567166
  O18      1.0000 0.88206  0.76687  0.71606  Biso   1.000  O  -0.542504
  O19      1.0000 0.40355  0.19809  0.30470  Biso   1.000  O  -0.527029
  O20      1.0000 0.39729  0.11833  0.37494  Biso   1.000  O  -0.546227
  O21      1.0000 0.28235  0.61393  0.93934  Biso   1.000  O  -0.563923
  O22      1.0000 0.20990  0.62340  0.93820  Biso   1.000  O  -0.532823
  O23      1.0000 0.79257  0.53362  0.93946  Biso   1.000  O  -0.535907
  O24      1.0000 0.86405  0.52450  0.94036  Biso   1.000  O  -0.516773
  O25      1.0000 0.47502  0.24968  0.30316  Biso   1.000  O  -0.508128
  O26      1.0000 0.46400  0.17292  0.37560  Biso   1.000  O  -0.562297
  O27      1.0000 0.45854  0.44604  0.78664  Biso   1.000  O  -0.492556
  O28      1.0000 0.45632  0.45095  0.71316  Biso   1.000  O  -0.547470
  O29      1.0000 0.52049  0.80649  0.78038  Biso   1.000  O  -0.567153
  O30      1.0000 0.51707  0.88206  0.71606  Biso   1.000  O  -0.542566
  O31      1.0000 0.49721  0.40355  0.30470  Biso   1.000  O  -0.527584
  O32      1.0000 0.50673  0.39729  0.37494  Biso   1.000  O  -0.548507
  O33      1.0000 0.44673  0.28235  0.93934  Biso   1.000  O  -0.563773
  O34      1.0000 0.43840  0.20990  0.93820  Biso   1.000  O  -0.532759
  O35      1.0000 0.52692  0.79257  0.93946  Biso   1.000  O  -0.535980
  O36      1.0000 0.53514  0.86405  0.94036  Biso   1.000  O  -0.516875
  O37      1.0000 0.22182  0.44716  0.30316  Biso   1.000  O  -0.507872
  O38      1.0000 0.16040  0.45148  0.37560  Biso   1.000  O  -0.562362
  O39      1.0000 0.75482  0.76732  0.78664  Biso   1.000  O  -0.492578
  O40      1.0000 0.83052  0.83589  0.71316  Biso   1.000  O  -0.547367
  O41      1.0000 0.69913  0.41313  0.78038  Biso   1.000  O  -0.567161
  O42      1.0000 0.76687  0.40188  0.71606  Biso   1.000  O  -0.542602
  O43      1.0000 0.19809  0.29175  0.30470  Biso   1.000  O  -0.521743
  O44      1.0000 0.11833  0.22777  0.37494  Biso   1.000  O  -0.544927
  O45      1.0000 0.61393  0.77831  0.93934  Biso   1.000  O  -0.563830
  O46      1.0000 0.62340  0.85190  0.93820  Biso   1.000  O  -0.532648
  O47      1.0000 0.53362  0.26797  0.93946  Biso   1.000  O  -0.536001
  O48      1.0000 0.52450  0.19559  0.94036  Biso   1.000  O  -0.516940
  O49      1.0000 0.55284  0.52498  0.69684  Biso   1.000  O  -0.508148
  O50      1.0000 0.54852  0.53600  0.62440  Biso   1.000  O  -0.562284
  O51      1.0000 0.23268  0.54146  0.21336  Biso   1.000  O  -0.492670
  O52      1.0000 0.16411  0.54368  0.28684  Biso   1.000  O  -0.547691
  O53      1.0000 0.58687  0.47951  0.21962  Biso   1.000  O  -0.563581
  O54      1.0000 0.59812  0.48293  0.28394  Biso   1.000  O  -0.541317
  O55      1.0000 0.70825  0.50279  0.69530  Biso   1.000  O  -0.527295
  O56      1.0000 0.77223  0.49327  0.62506  Biso   1.000  O  -0.546134
  O57      1.0000 0.22169  0.55327  0.06066  Biso   1.000  O  -0.563658
  O58      1.0000 0.14810  0.56160  0.06180  Biso   1.000  O  -0.532716
  O59      1.0000 0.73203  0.47308  0.06054  Biso   1.000  O  -0.535982
  O60      1.0000 0.80441  0.46486  0.05964  Biso   1.000  O  -0.516767
  O61      1.0000 0.75032  0.77818  0.69684  Biso   1.000  O  -0.508117
  O62      1.0000 0.82708  0.83960  0.62440  Biso   1.000  O  -0.562240
  O63      1.0000 0.55396  0.24518  0.21336  Biso   1.000  O  -0.492736
  O64      1.0000 0.54905  0.16948  0.28684  Biso   1.000  O  -0.547639
  O65      1.0000 0.19351  0.30087  0.21962  Biso   1.000  O  -0.560034
  O66      1.0000 0.11794  0.23313  0.28394  Biso   1.000  O  -0.540540
  O67      1.0000 0.59645  0.80191  0.69530  Biso   1.000  O  -0.527326
  O68      1.0000 0.60271  0.88167  0.62506  Biso   1.000  O  -0.546136
  O69      1.0000 0.71765  0.38607  0.06066  Biso   1.000  O  -0.563774
  O70      1.0000 0.79010  0.37660  0.06180  Biso   1.000  O  -0.532669
  O71      1.0000 0.20743  0.46638  0.06054  Biso   1.000  O  -0.535644
  O72      1.0000 0.13595  0.47550  0.05964  Biso   1.000  O  -0.516875
  O73      1.0000 0.52498  0.75032  0.69684  Biso   1.000  O  -0.508100
  O74      1.0000 0.53600  0.82708  0.62440  Biso   1.000  O  -0.562308
  O75      1.0000 0.54146  0.55396  0.21336  Biso   1.000  O  -0.494985
  O76      1.0000 0.54368  0.54905  0.28684  Biso   1.000  O  -0.550865
  O77      1.0000 0.47951  0.19351  0.21962  Biso   1.000  O  -0.567158
  O78      1.0000 0.48293  0.11794  0.28394  Biso   1.000  O  -0.542761
  O79      1.0000 0.50279  0.59645  0.69530  Biso   1.000  O  -0.527345
  O80      1.0000 0.49327  0.60271  0.62506  Biso   1.000  O  -0.546130
  O81      1.0000 0.55327  0.71765  0.06066  Biso   1.000  O  -0.563811
  O82      1.0000 0.56160  0.79010  0.06180  Biso   1.000  O  -0.532924
  O83      1.0000 0.47308  0.20743  0.06054  Biso   1.000  O  -0.535808
  O84      1.0000 0.46486  0.13595  0.05964  Biso   1.000  O  -0.516871
  O85      1.0000 0.77818  0.55284  0.69684  Biso   1.000  O  -0.508141
  O86      1.0000 0.83960  0.54852  0.62440  Biso   1.000  O  -0.562282
  O87      1.0000 0.24518  0.23268  0.21336  Biso   1.000  O  -0.487698
  O88      1.0000 0.16948  0.16411  0.28684  Biso   1.000  O  -0.546359
  O89      1.0000 0.30087  0.58687  0.21962  Biso   1.000  O  -0.567221
  O90      1.0000 0.23313  0.59812  0.28394  Biso   1.000  O  -0.542711
  O91      1.0000 0.80191  0.70825  0.69530  Biso   1.000  O  -0.527319
  O92      1.0000 0.88167  0.77223  0.62506  Biso   1.000  O  -0.546118
  O93      1.0000 0.38607  0.22169  0.06066  Biso   1.000  O  -0.563504
  O94      1.0000 0.37660  0.14810  0.06180  Biso   1.000  O  -0.532800
  O95      1.0000 0.46638  0.73203  0.06054  Biso   1.000  O  -0.535802
  O96      1.0000 0.47550  0.80441  0.05964  Biso   1.000  O  -0.516824
