data_image0
_cell_length_a       20.4868
_cell_length_b       20.4868
_cell_length_c       20.4868
_cell_angle_alpha    90
_cell_angle_beta     90
_cell_angle_gamma    90

_symmetry_space_group_name_H-M    "P 1"
_symmetry_int_tables_number       1

loop_
  _symmetry_equiv_pos_as_xyz
  'x, y, z'

loop_
  _atom_site_label
  _atom_site_occupancy
  _atom_site_fract_x
  _atom_site_fract_y
  _atom_site_fract_z
  _atom_site_thermal_displace_type
  _atom_site_B_iso_or_equiv
  _atom_site_type_symbol
  _atom_site_charge
  B1       1.0000 0.55780  0.55780  0.55780  Biso   1.000  B  0.318459
  B2       1.0000 0.80780  0.19220  0.69220  Biso   1.000  B  0.318460
  B3       1.0000 0.44220  0.94220  0.55780  Biso   1.000  B  0.318462
  B4       1.0000 0.69220  0.80780  0.19220  Biso   1.000  B  0.318461
  B5       1.0000 0.55780  0.44220  0.94220  Biso   1.000  B  0.318460
  B6       1.0000 0.19220  0.69220  0.80780  Biso   1.000  B  0.318461
  B7       1.0000 0.94220  0.55780  0.44220  Biso   1.000  B  0.318460
  B8       1.0000 0.80780  0.80780  0.80780  Biso   1.000  B  0.318460
  B9       1.0000 0.05780  0.05780  0.05780  Biso   1.000  B  0.318462
  B10      1.0000 0.30780  0.69220  0.19220  Biso   1.000  B  0.318461
  B11      1.0000 0.94220  0.44220  0.05780  Biso   1.000  B  0.318460
  B12      1.0000 0.19220  0.30780  0.69220  Biso   1.000  B  0.318461
  B13      1.0000 0.05780  0.94220  0.44220  Biso   1.000  B  0.318462
  B14      1.0000 0.69220  0.19220  0.30780  Biso   1.000  B  0.318461
  B15      1.0000 0.44220  0.05780  0.94220  Biso   1.000  B  0.318462
  B16      1.0000 0.30780  0.30780  0.30780  Biso   1.000  B  0.318462
  C1       1.0000 0.48850  0.44870  0.58140  Biso   1.000  C  -0.120793
  C2       1.0000 0.69870  0.26150  0.66860  Biso   1.000  C  -0.120793
  C3       1.0000 0.51150  0.05130  0.58140  Biso   1.000  C  -0.120798
  C4       1.0000 0.80130  0.73850  0.16860  Biso   1.000  C  -0.120793
  C5       1.0000 0.76150  0.83140  0.30130  Biso   1.000  C  -0.120793
  C6       1.0000 0.48850  0.55130  0.91860  Biso   1.000  C  -0.120794
  C7       1.0000 0.26150  0.66860  0.69870  Biso   1.000  C  -0.120794
  C8       1.0000 0.16860  0.80130  0.73850  Biso   1.000  C  -0.120795
  C9       1.0000 0.01150  0.44870  0.41860  Biso   1.000  C  -0.120792
  C10      1.0000 0.83140  0.30130  0.76150  Biso   1.000  C  -0.120792
  C11      1.0000 0.58140  0.48850  0.44870  Biso   1.000  C  -0.120792
  C12      1.0000 0.44870  0.58140  0.48850  Biso   1.000  C  -0.120792
  C13      1.0000 0.55130  0.91860  0.48850  Biso   1.000  C  -0.120797
  C14      1.0000 0.58140  0.51150  0.05130  Biso   1.000  C  -0.120793
  C15      1.0000 0.05130  0.58140  0.51150  Biso   1.000  C  -0.120792
  C16      1.0000 0.41860  0.01150  0.44870  Biso   1.000  C  -0.120798
  C17      1.0000 0.91860  0.48850  0.55130  Biso   1.000  C  -0.120791
  C18      1.0000 0.44870  0.41860  0.01150  Biso   1.000  C  -0.120794
  C19      1.0000 0.30130  0.76150  0.83140  Biso   1.000  C  -0.120795
  C20      1.0000 0.69870  0.73850  0.83140  Biso   1.000  C  -0.120791
  C21      1.0000 0.73850  0.16860  0.80130  Biso   1.000  C  -0.120794
  C22      1.0000 0.73850  0.83140  0.69870  Biso   1.000  C  -0.120790
  C23      1.0000 0.66860  0.69870  0.26150  Biso   1.000  C  -0.120793
  C24      1.0000 0.83140  0.69870  0.73850  Biso   1.000  C  -0.120789
  C25      1.0000 0.98850  0.94870  0.08140  Biso   1.000  C  -0.120798
  C26      1.0000 0.19870  0.76150  0.16860  Biso   1.000  C  -0.120798
  C27      1.0000 0.01150  0.55130  0.08140  Biso   1.000  C  -0.120793
  C28      1.0000 0.30130  0.23850  0.66860  Biso   1.000  C  -0.120797
  C29      1.0000 0.26150  0.33140  0.80130  Biso   1.000  C  -0.120797
  C30      1.0000 0.98850  0.05130  0.41860  Biso   1.000  C  -0.120797
  C31      1.0000 0.76150  0.16860  0.19870  Biso   1.000  C  -0.120797
  C32      1.0000 0.66860  0.30130  0.23850  Biso   1.000  C  -0.120795
  C33      1.0000 0.51150  0.94870  0.91860  Biso   1.000  C  -0.120798
  C34      1.0000 0.33140  0.80130  0.26150  Biso   1.000  C  -0.120798
  C35      1.0000 0.08140  0.98850  0.94870  Biso   1.000  C  -0.120798
  C36      1.0000 0.94870  0.08140  0.98850  Biso   1.000  C  -0.120798
  C37      1.0000 0.05130  0.41860  0.98850  Biso   1.000  C  -0.120794
  C38      1.0000 0.08140  0.01150  0.55130  Biso   1.000  C  -0.120797
  C39      1.0000 0.55130  0.08140  0.01150  Biso   1.000  C  -0.120799
  C40      1.0000 0.91860  0.51150  0.94870  Biso   1.000  C  -0.120792
  C41      1.0000 0.41860  0.98850  0.05130  Biso   1.000  C  -0.120799
  C42      1.0000 0.94870  0.91860  0.51150  Biso   1.000  C  -0.120796
  C43      1.0000 0.80130  0.26150  0.33140  Biso   1.000  C  -0.120796
  C44      1.0000 0.19870  0.23850  0.33140  Biso   1.000  C  -0.120800
  C45      1.0000 0.23850  0.66860  0.30130  Biso   1.000  C  -0.120797
  C46      1.0000 0.23850  0.33140  0.19870  Biso   1.000  C  -0.120800
  C47      1.0000 0.16860  0.19870  0.76150  Biso   1.000  C  -0.120797
  C48      1.0000 0.33140  0.19870  0.23850  Biso   1.000  C  -0.120801
  C49      1.0000 0.46890  0.54260  0.65060  Biso   1.000  C  0.484591
  C50      1.0000 0.79260  0.28110  0.59940  Biso   1.000  C  0.484592
  C51      1.0000 0.53110  0.95740  0.65060  Biso   1.000  C  0.484592
  C52      1.0000 0.70740  0.71890  0.09940  Biso   1.000  C  0.484592
  C53      1.0000 0.78110  0.90060  0.20740  Biso   1.000  C  0.484592
  C54      1.0000 0.46890  0.45740  0.84940  Biso   1.000  C  0.484592
  C55      1.0000 0.28110  0.59940  0.79260  Biso   1.000  C  0.484592
  C56      1.0000 0.09940  0.70740  0.71890  Biso   1.000  C  0.484592
  C57      1.0000 0.03110  0.54260  0.34940  Biso   1.000  C  0.484592
  C58      1.0000 0.90060  0.20740  0.78110  Biso   1.000  C  0.484592
  C59      1.0000 0.65060  0.46890  0.54260  Biso   1.000  C  0.484591
  C60      1.0000 0.54260  0.65060  0.46890  Biso   1.000  C  0.484591
  C61      1.0000 0.45740  0.84940  0.46890  Biso   1.000  C  0.484592
  C62      1.0000 0.65060  0.53110  0.95740  Biso   1.000  C  0.484591
  C63      1.0000 0.95740  0.65060  0.53110  Biso   1.000  C  0.484591
  C64      1.0000 0.34940  0.03110  0.54260  Biso   1.000  C  0.484592
  C65      1.0000 0.84940  0.46890  0.45740  Biso   1.000  C  0.484591
  C66      1.0000 0.54260  0.34940  0.03110  Biso   1.000  C  0.484592
  C67      1.0000 0.20740  0.78110  0.90060  Biso   1.000  C  0.484592
  C68      1.0000 0.79260  0.71890  0.90060  Biso   1.000  C  0.484591
  C69      1.0000 0.71890  0.09940  0.70740  Biso   1.000  C  0.484592
  C70      1.0000 0.71890  0.90060  0.79260  Biso   1.000  C  0.484591
  C71      1.0000 0.59940  0.79260  0.28110  Biso   1.000  C  0.484592
  C72      1.0000 0.90060  0.79260  0.71890  Biso   1.000  C  0.484591
  C73      1.0000 0.96890  0.04260  0.15060  Biso   1.000  C  0.484592
  C74      1.0000 0.29260  0.78110  0.09940  Biso   1.000  C  0.484592
  C75      1.0000 0.03110  0.45740  0.15060  Biso   1.000  C  0.484592
  C76      1.0000 0.20740  0.21890  0.59940  Biso   1.000  C  0.484592
  C77      1.0000 0.28110  0.40060  0.70740  Biso   1.000  C  0.484592
  C78      1.0000 0.96890  0.95740  0.34940  Biso   1.000  C  0.484592
  C79      1.0000 0.78110  0.09940  0.29260  Biso   1.000  C  0.484592
  C80      1.0000 0.59940  0.20740  0.21890  Biso   1.000  C  0.484592
  C81      1.0000 0.53110  0.04260  0.84940  Biso   1.000  C  0.484592
  C82      1.0000 0.40060  0.70740  0.28110  Biso   1.000  C  0.484592
  C83      1.0000 0.15060  0.96890  0.04260  Biso   1.000  C  0.484593
  C84      1.0000 0.04260  0.15060  0.96890  Biso   1.000  C  0.484593
  C85      1.0000 0.95740  0.34940  0.96890  Biso   1.000  C  0.484592
  C86      1.0000 0.15060  0.03110  0.45740  Biso   1.000  C  0.484593
  C87      1.0000 0.45740  0.15060  0.03110  Biso   1.000  C  0.484593
  C88      1.0000 0.84940  0.53110  0.04260  Biso   1.000  C  0.484592
  C89      1.0000 0.34940  0.96890  0.95740  Biso   1.000  C  0.484593
  C90      1.0000 0.04260  0.84940  0.53110  Biso   1.000  C  0.484592
  C91      1.0000 0.70740  0.28110  0.40060  Biso   1.000  C  0.484592
  C92      1.0000 0.29260  0.21890  0.40060  Biso   1.000  C  0.484593
  C93      1.0000 0.21890  0.59940  0.20740  Biso   1.000  C  0.484592
  C94      1.0000 0.21890  0.40060  0.29260  Biso   1.000  C  0.484592
  C95      1.0000 0.09940  0.29260  0.78110  Biso   1.000  C  0.484592
  C96      1.0000 0.40060  0.29260  0.21890  Biso   1.000  C  0.484592
  C97      1.0000 0.47510  0.59970  0.67670  Biso   1.000  C  -0.596744
  C98      1.0000 0.84970  0.27490  0.57330  Biso   1.000  C  -0.596745
  C99      1.0000 0.52490  0.90030  0.67670  Biso   1.000  C  -0.596745
  C100     1.0000 0.65030  0.72510  0.07330  Biso   1.000  C  -0.596745
  C101     1.0000 0.77490  0.92670  0.15030  Biso   1.000  C  -0.596746
  C102     1.0000 0.47510  0.40030  0.82330  Biso   1.000  C  -0.596745
  C103     1.0000 0.27490  0.57330  0.84970  Biso   1.000  C  -0.596745
  C104     1.0000 0.07330  0.65030  0.72510  Biso   1.000  C  -0.596744
  C105     1.0000 0.02490  0.59970  0.32330  Biso   1.000  C  -0.596745
  C106     1.0000 0.92670  0.15030  0.77490  Biso   1.000  C  -0.596746
  C107     1.0000 0.67670  0.47510  0.59970  Biso   1.000  C  -0.596743
  C108     1.0000 0.59970  0.67670  0.47510  Biso   1.000  C  -0.596744
  C109     1.0000 0.40030  0.82330  0.47510  Biso   1.000  C  -0.596746
  C110     1.0000 0.67670  0.52490  0.90030  Biso   1.000  C  -0.596744
  C111     1.0000 0.90030  0.67670  0.52490  Biso   1.000  C  -0.596744
  C112     1.0000 0.32330  0.02490  0.59970  Biso   1.000  C  -0.596746
  C113     1.0000 0.82330  0.47510  0.40030  Biso   1.000  C  -0.596744
  C114     1.0000 0.59970  0.32330  0.02490  Biso   1.000  C  -0.596745
  C115     1.0000 0.15030  0.77490  0.92670  Biso   1.000  C  -0.596745
  C116     1.0000 0.84970  0.72510  0.92670  Biso   1.000  C  -0.596745
  C117     1.0000 0.72510  0.07330  0.65030  Biso   1.000  C  -0.596745
  C118     1.0000 0.72510  0.92670  0.84970  Biso   1.000  C  -0.596745
  C119     1.0000 0.57330  0.84970  0.27490  Biso   1.000  C  -0.596747
  C120     1.0000 0.92670  0.84970  0.72510  Biso   1.000  C  -0.596746
  C121     1.0000 0.97510  0.09970  0.17670  Biso   1.000  C  -0.596747
  C122     1.0000 0.34970  0.77490  0.07330  Biso   1.000  C  -0.596745
  C123     1.0000 0.02490  0.40030  0.17670  Biso   1.000  C  -0.596746
  C124     1.0000 0.15030  0.22510  0.57330  Biso   1.000  C  -0.596745
  C125     1.0000 0.27490  0.42670  0.65030  Biso   1.000  C  -0.596745
  C126     1.0000 0.97510  0.90030  0.32330  Biso   1.000  C  -0.596746
  C127     1.0000 0.77490  0.07330  0.34970  Biso   1.000  C  -0.596746
  C128     1.0000 0.57330  0.15030  0.22510  Biso   1.000  C  -0.596747
  C129     1.0000 0.52490  0.09970  0.82330  Biso   1.000  C  -0.596746
  C130     1.0000 0.42670  0.65030  0.27490  Biso   1.000  C  -0.596745
  C131     1.0000 0.17670  0.97510  0.09970  Biso   1.000  C  -0.596747
  C132     1.0000 0.09970  0.17670  0.97510  Biso   1.000  C  -0.596747
  C133     1.0000 0.90030  0.32330  0.97510  Biso   1.000  C  -0.596745
  C134     1.0000 0.17670  0.02490  0.40030  Biso   1.000  C  -0.596747
  C135     1.0000 0.40030  0.17670  0.02490  Biso   1.000  C  -0.596746
  C136     1.0000 0.82330  0.52490  0.09970  Biso   1.000  C  -0.596745
  C137     1.0000 0.32330  0.97510  0.90030  Biso   1.000  C  -0.596746
  C138     1.0000 0.09970  0.82330  0.52490  Biso   1.000  C  -0.596746
  C139     1.0000 0.65030  0.27490  0.42670  Biso   1.000  C  -0.596746
  C140     1.0000 0.34970  0.22510  0.42670  Biso   1.000  C  -0.596745
  C141     1.0000 0.22510  0.57330  0.15030  Biso   1.000  C  -0.596745
  C142     1.0000 0.22510  0.42670  0.34970  Biso   1.000  C  -0.596745
  C143     1.0000 0.07330  0.34970  0.77490  Biso   1.000  C  -0.596744
  C144     1.0000 0.42670  0.34970  0.22510  Biso   1.000  C  -0.596745
  C145     1.0000 0.44210  0.45340  0.63320  Biso   1.000  C  -0.121748
  C146     1.0000 0.70340  0.30790  0.61680  Biso   1.000  C  -0.121748
  C147     1.0000 0.55790  0.04660  0.63320  Biso   1.000  C  -0.121748
  C148     1.0000 0.79660  0.69210  0.11680  Biso   1.000  C  -0.121748
  C149     1.0000 0.80790  0.88320  0.29660  Biso   1.000  C  -0.121748
  C150     1.0000 0.44210  0.54660  0.86680  Biso   1.000  C  -0.121749
  C151     1.0000 0.30790  0.61680  0.70340  Biso   1.000  C  -0.121748
  C152     1.0000 0.11680  0.79660  0.69210  Biso   1.000  C  -0.121748
  C153     1.0000 0.05790  0.45340  0.36680  Biso   1.000  C  -0.121749
  C154     1.0000 0.88320  0.29660  0.80790  Biso   1.000  C  -0.121748
  C155     1.0000 0.63320  0.44210  0.45340  Biso   1.000  C  -0.121748
  C156     1.0000 0.45340  0.63320  0.44210  Biso   1.000  C  -0.121748
  C157     1.0000 0.54660  0.86680  0.44210  Biso   1.000  C  -0.121747
  C158     1.0000 0.63320  0.55790  0.04660  Biso   1.000  C  -0.121748
  C159     1.0000 0.04660  0.63320  0.55790  Biso   1.000  C  -0.121748
  C160     1.0000 0.36680  0.05790  0.45340  Biso   1.000  C  -0.121749
  C161     1.0000 0.86680  0.44210  0.54660  Biso   1.000  C  -0.121748
  C162     1.0000 0.45340  0.36680  0.05790  Biso   1.000  C  -0.121749
  C163     1.0000 0.29660  0.80790  0.88320  Biso   1.000  C  -0.121749
  C164     1.0000 0.70340  0.69210  0.88320  Biso   1.000  C  -0.121748
  C165     1.0000 0.69210  0.11680  0.79660  Biso   1.000  C  -0.121749
  C166     1.0000 0.69210  0.88320  0.70340  Biso   1.000  C  -0.121748
  C167     1.0000 0.61680  0.70340  0.30790  Biso   1.000  C  -0.121748
  C168     1.0000 0.88320  0.70340  0.69210  Biso   1.000  C  -0.121748
  C169     1.0000 0.94210  0.95340  0.13320  Biso   1.000  C  -0.121748
  C170     1.0000 0.20340  0.80790  0.11680  Biso   1.000  C  -0.121748
  C171     1.0000 0.05790  0.54660  0.13320  Biso   1.000  C  -0.121748
  C172     1.0000 0.29660  0.19210  0.61680  Biso   1.000  C  -0.121748
  C173     1.0000 0.30790  0.38320  0.79660  Biso   1.000  C  -0.121748
  C174     1.0000 0.94210  0.04660  0.36680  Biso   1.000  C  -0.121748
  C175     1.0000 0.80790  0.11680  0.20340  Biso   1.000  C  -0.121748
  C176     1.0000 0.61680  0.29660  0.19210  Biso   1.000  C  -0.121748
  C177     1.0000 0.55790  0.95340  0.86680  Biso   1.000  C  -0.121747
  C178     1.0000 0.38320  0.79660  0.30790  Biso   1.000  C  -0.121748
  C179     1.0000 0.13320  0.94210  0.95340  Biso   1.000  C  -0.121748
  C180     1.0000 0.95340  0.13320  0.94210  Biso   1.000  C  -0.121748
  C181     1.0000 0.04660  0.36680  0.94210  Biso   1.000  C  -0.121748
  C182     1.0000 0.13320  0.05790  0.54660  Biso   1.000  C  -0.121748
  C183     1.0000 0.54660  0.13320  0.05790  Biso   1.000  C  -0.121748
  C184     1.0000 0.86680  0.55790  0.95340  Biso   1.000  C  -0.121747
  C185     1.0000 0.36680  0.94210  0.04660  Biso   1.000  C  -0.121748
  C186     1.0000 0.95340  0.86680  0.55790  Biso   1.000  C  -0.121747
  C187     1.0000 0.79660  0.30790  0.38320  Biso   1.000  C  -0.121748
  C188     1.0000 0.20340  0.19210  0.38320  Biso   1.000  C  -0.121748
  C189     1.0000 0.19210  0.61680  0.29660  Biso   1.000  C  -0.121747
  C190     1.0000 0.19210  0.38320  0.20340  Biso   1.000  C  -0.121748
  C191     1.0000 0.11680  0.20340  0.80790  Biso   1.000  C  -0.121748
  C192     1.0000 0.38320  0.20340  0.19210  Biso   1.000  C  -0.121748
  H1       1.0000 0.50370  0.41610  0.55210  Biso   1.000  H  0.151987
  H2       1.0000 0.66610  0.24630  0.69790  Biso   1.000  H  0.151986
  H3       1.0000 0.49630  0.08390  0.55210  Biso   1.000  H  0.151987
  H4       1.0000 0.83390  0.75370  0.19790  Biso   1.000  H  0.151986
  H5       1.0000 0.74630  0.80210  0.33390  Biso   1.000  H  0.151986
  H6       1.0000 0.50370  0.58390  0.94790  Biso   1.000  H  0.151987
  H7       1.0000 0.24630  0.69790  0.66610  Biso   1.000  H  0.151986
  H8       1.0000 0.19790  0.83390  0.75370  Biso   1.000  H  0.151985
  H9       1.0000 0.99630  0.41610  0.44790  Biso   1.000  H  0.151987
  H10      1.0000 0.80210  0.33390  0.74630  Biso   1.000  H  0.151986
  H11      1.0000 0.55210  0.50370  0.41610  Biso   1.000  H  0.151986
  H12      1.0000 0.41610  0.55210  0.50370  Biso   1.000  H  0.151986
  H13      1.0000 0.58390  0.94790  0.50370  Biso   1.000  H  0.151985
  H14      1.0000 0.55210  0.49630  0.08390  Biso   1.000  H  0.151986
  H15      1.0000 0.08390  0.55210  0.49630  Biso   1.000  H  0.151987
  H16      1.0000 0.44790  0.99630  0.41610  Biso   1.000  H  0.151986
  H17      1.0000 0.94790  0.50370  0.58390  Biso   1.000  H  0.151987
  H18      1.0000 0.41610  0.44790  0.99630  Biso   1.000  H  0.151986
  H19      1.0000 0.33390  0.74630  0.80210  Biso   1.000  H  0.151986
  H20      1.0000 0.66610  0.75370  0.80210  Biso   1.000  H  0.151987
  H21      1.0000 0.75370  0.19790  0.83390  Biso   1.000  H  0.151987
  H22      1.0000 0.75370  0.80210  0.66610  Biso   1.000  H  0.151986
  H23      1.0000 0.69790  0.66610  0.24630  Biso   1.000  H  0.151986
  H24      1.0000 0.80210  0.66610  0.75370  Biso   1.000  H  0.151986
  H25      1.0000 0.00370  0.91610  0.05210  Biso   1.000  H  0.151986
  H26      1.0000 0.16610  0.74630  0.19790  Biso   1.000  H  0.151985
  H27      1.0000 0.99630  0.58390  0.05210  Biso   1.000  H  0.151986
  H28      1.0000 0.33390  0.25370  0.69790  Biso   1.000  H  0.151986
  H29      1.0000 0.24630  0.30210  0.83390  Biso   1.000  H  0.151986
  H30      1.0000 0.00370  0.08390  0.44790  Biso   1.000  H  0.151986
  H31      1.0000 0.74630  0.19790  0.16610  Biso   1.000  H  0.151986
  H32      1.0000 0.69790  0.33390  0.25370  Biso   1.000  H  0.151985
  H33      1.0000 0.49630  0.91610  0.94790  Biso   1.000  H  0.151986
  H34      1.0000 0.30210  0.83390  0.24630  Biso   1.000  H  0.151985
  H35      1.0000 0.05210  0.00370  0.91610  Biso   1.000  H  0.151986
  H36      1.0000 0.91610  0.05210  0.00370  Biso   1.000  H  0.151986
  H37      1.0000 0.08390  0.44790  0.00370  Biso   1.000  H  0.151986
  H38      1.0000 0.05210  0.99630  0.58390  Biso   1.000  H  0.151986
  H39      1.0000 0.58390  0.05210  0.99630  Biso   1.000  H  0.151986
  H40      1.0000 0.94790  0.49630  0.91610  Biso   1.000  H  0.151986
  H41      1.0000 0.44790  0.00370  0.08390  Biso   1.000  H  0.151985
  H42      1.0000 0.91610  0.94790  0.49630  Biso   1.000  H  0.151985
  H43      1.0000 0.83390  0.24630  0.30210  Biso   1.000  H  0.151986
  H44      1.0000 0.16610  0.25370  0.30210  Biso   1.000  H  0.151985
  H45      1.0000 0.25370  0.69790  0.33390  Biso   1.000  H  0.151986
  H46      1.0000 0.25370  0.30210  0.16610  Biso   1.000  H  0.151986
  H47      1.0000 0.19790  0.16610  0.74630  Biso   1.000  H  0.151986
  H48      1.0000 0.30210  0.16610  0.25370  Biso   1.000  H  0.151985
  H49      1.0000 0.48870  0.63110  0.64330  Biso   1.000  H  0.170531
  H50      1.0000 0.88110  0.26130  0.60670  Biso   1.000  H  0.170531
  H51      1.0000 0.51130  0.86890  0.64330  Biso   1.000  H  0.170532
  H52      1.0000 0.61890  0.73870  0.10670  Biso   1.000  H  0.170531
  H53      1.0000 0.76130  0.89330  0.11890  Biso   1.000  H  0.170532
  H54      1.0000 0.48870  0.36890  0.85670  Biso   1.000  H  0.170531
  H55      1.0000 0.26130  0.60670  0.88110  Biso   1.000  H  0.170532
  H56      1.0000 0.10670  0.61890  0.73870  Biso   1.000  H  0.170531
  H57      1.0000 0.01130  0.63110  0.35670  Biso   1.000  H  0.170531
  H58      1.0000 0.89330  0.11890  0.76130  Biso   1.000  H  0.170531
  H59      1.0000 0.64330  0.48870  0.63110  Biso   1.000  H  0.170531
  H60      1.0000 0.63110  0.64330  0.48870  Biso   1.000  H  0.170531
  H61      1.0000 0.36890  0.85670  0.48870  Biso   1.000  H  0.170531
  H62      1.0000 0.64330  0.51130  0.86890  Biso   1.000  H  0.170531
  H63      1.0000 0.86890  0.64330  0.51130  Biso   1.000  H  0.170531
  H64      1.0000 0.35670  0.01130  0.63110  Biso   1.000  H  0.170531
  H65      1.0000 0.85670  0.48870  0.36890  Biso   1.000  H  0.170531
  H66      1.0000 0.63110  0.35670  0.01130  Biso   1.000  H  0.170531
  H67      1.0000 0.11890  0.76130  0.89330  Biso   1.000  H  0.170531
  H68      1.0000 0.88110  0.73870  0.89330  Biso   1.000  H  0.170531
  H69      1.0000 0.73870  0.10670  0.61890  Biso   1.000  H  0.170531
  H70      1.0000 0.73870  0.89330  0.88110  Biso   1.000  H  0.170531
  H71      1.0000 0.60670  0.88110  0.26130  Biso   1.000  H  0.170531
  H72      1.0000 0.89330  0.88110  0.73870  Biso   1.000  H  0.170531
  H73      1.0000 0.98870  0.13110  0.14330  Biso   1.000  H  0.170532
  H74      1.0000 0.38110  0.76130  0.10670  Biso   1.000  H  0.170532
  H75      1.0000 0.01130  0.36890  0.14330  Biso   1.000  H  0.170532
  H76      1.0000 0.11890  0.23870  0.60670  Biso   1.000  H  0.170532
  H77      1.0000 0.26130  0.39330  0.61890  Biso   1.000  H  0.170531
  H78      1.0000 0.98870  0.86890  0.35670  Biso   1.000  H  0.170532
  H79      1.0000 0.76130  0.10670  0.38110  Biso   1.000  H  0.170532
  H80      1.0000 0.60670  0.11890  0.23870  Biso   1.000  H  0.170532
  H81      1.0000 0.51130  0.13110  0.85670  Biso   1.000  H  0.170532
  H82      1.0000 0.39330  0.61890  0.26130  Biso   1.000  H  0.170531
  H83      1.0000 0.14330  0.98870  0.13110  Biso   1.000  H  0.170531
  H84      1.0000 0.13110  0.14330  0.98870  Biso   1.000  H  0.170532
  H85      1.0000 0.86890  0.35670  0.98870  Biso   1.000  H  0.170532
  H86      1.0000 0.14330  0.01130  0.36890  Biso   1.000  H  0.170532
  H87      1.0000 0.36890  0.14330  0.01130  Biso   1.000  H  0.170532
  H88      1.0000 0.85670  0.51130  0.13110  Biso   1.000  H  0.170531
  H89      1.0000 0.35670  0.98870  0.86890  Biso   1.000  H  0.170532
  H90      1.0000 0.13110  0.85670  0.51130  Biso   1.000  H  0.170531
  H91      1.0000 0.61890  0.26130  0.39330  Biso   1.000  H  0.170531
  H92      1.0000 0.38110  0.23870  0.39330  Biso   1.000  H  0.170532
  H93      1.0000 0.23870  0.60670  0.11890  Biso   1.000  H  0.170532
  H94      1.0000 0.23870  0.39330  0.38110  Biso   1.000  H  0.170531
  H95      1.0000 0.10670  0.38110  0.76130  Biso   1.000  H  0.170531
  H96      1.0000 0.39330  0.38110  0.23870  Biso   1.000  H  0.170532
  H97      1.0000 0.50800  0.59790  0.71130  Biso   1.000  H  0.175167
  H98      1.0000 0.84790  0.24200  0.53870  Biso   1.000  H  0.175166
  H99      1.0000 0.49200  0.90210  0.71130  Biso   1.000  H  0.175167
  H100     1.0000 0.65210  0.75800  0.03870  Biso   1.000  H  0.175166
  H101     1.0000 0.74200  0.96130  0.15210  Biso   1.000  H  0.175167
  H102     1.0000 0.50800  0.40210  0.78870  Biso   1.000  H  0.175166
  H103     1.0000 0.24200  0.53870  0.84790  Biso   1.000  H  0.175166
  H104     1.0000 0.03870  0.65210  0.75800  Biso   1.000  H  0.175166
  H105     1.0000 0.99200  0.59790  0.28870  Biso   1.000  H  0.175166
  H106     1.0000 0.96130  0.15210  0.74200  Biso   1.000  H  0.175167
  H107     1.0000 0.71130  0.50800  0.59790  Biso   1.000  H  0.175166
  H108     1.0000 0.59790  0.71130  0.50800  Biso   1.000  H  0.175166
  H109     1.0000 0.40210  0.78870  0.50800  Biso   1.000  H  0.175167
  H110     1.0000 0.71130  0.49200  0.90210  Biso   1.000  H  0.175166
  H111     1.0000 0.90210  0.71130  0.49200  Biso   1.000  H  0.175166
  H112     1.0000 0.28870  0.99200  0.59790  Biso   1.000  H  0.175166
  H113     1.0000 0.78870  0.50800  0.40210  Biso   1.000  H  0.175166
  H114     1.0000 0.59790  0.28870  0.99200  Biso   1.000  H  0.175166
  H115     1.0000 0.15210  0.74200  0.96130  Biso   1.000  H  0.175166
  H116     1.0000 0.84790  0.75800  0.96130  Biso   1.000  H  0.175166
  H117     1.0000 0.75800  0.03870  0.65210  Biso   1.000  H  0.175165
  H118     1.0000 0.75800  0.96130  0.84790  Biso   1.000  H  0.175167
  H119     1.0000 0.53870  0.84790  0.24200  Biso   1.000  H  0.175166
  H120     1.0000 0.96130  0.84790  0.75800  Biso   1.000  H  0.175167
  H121     1.0000 0.00800  0.09790  0.21130  Biso   1.000  H  0.175166
  H122     1.0000 0.34790  0.74200  0.03870  Biso   1.000  H  0.175167
  H123     1.0000 0.99200  0.40210  0.21130  Biso   1.000  H  0.175167
  H124     1.0000 0.15210  0.25800  0.53870  Biso   1.000  H  0.175167
  H125     1.0000 0.24200  0.46130  0.65210  Biso   1.000  H  0.175166
  H126     1.0000 0.00800  0.90210  0.28870  Biso   1.000  H  0.175166
  H127     1.0000 0.74200  0.03870  0.34790  Biso   1.000  H  0.175166
  H128     1.0000 0.53870  0.15210  0.25800  Biso   1.000  H  0.175167
  H129     1.0000 0.49200  0.09790  0.78870  Biso   1.000  H  0.175167
  H130     1.0000 0.46130  0.65210  0.24200  Biso   1.000  H  0.175167
  H131     1.0000 0.21130  0.00800  0.09790  Biso   1.000  H  0.175167
  H132     1.0000 0.09790  0.21130  0.00800  Biso   1.000  H  0.175167
  H133     1.0000 0.90210  0.28870  0.00800  Biso   1.000  H  0.175167
  H134     1.0000 0.21130  0.99200  0.40210  Biso   1.000  H  0.175167
  H135     1.0000 0.40210  0.21130  0.99200  Biso   1.000  H  0.175167
  H136     1.0000 0.78870  0.49200  0.09790  Biso   1.000  H  0.175166
  H137     1.0000 0.28870  0.00800  0.90210  Biso   1.000  H  0.175167
  H138     1.0000 0.09790  0.78870  0.49200  Biso   1.000  H  0.175167
  H139     1.0000 0.65210  0.24200  0.46130  Biso   1.000  H  0.175167
  H140     1.0000 0.34790  0.25800  0.46130  Biso   1.000  H  0.175167
  H141     1.0000 0.25800  0.53870  0.15210  Biso   1.000  H  0.175167
  H142     1.0000 0.25800  0.46130  0.34790  Biso   1.000  H  0.175167
  H143     1.0000 0.03870  0.34790  0.74200  Biso   1.000  H  0.175167
  H144     1.0000 0.46130  0.34790  0.25800  Biso   1.000  H  0.175166
  H145     1.0000 0.43310  0.61340  0.69530  Biso   1.000  H  0.167979
  H146     1.0000 0.86340  0.31690  0.55470  Biso   1.000  H  0.167979
  H147     1.0000 0.56690  0.88660  0.69530  Biso   1.000  H  0.167980
  H148     1.0000 0.63660  0.68310  0.05470  Biso   1.000  H  0.167979
  H149     1.0000 0.81690  0.94530  0.13660  Biso   1.000  H  0.167979
  H150     1.0000 0.43310  0.38660  0.80470  Biso   1.000  H  0.167979
  H151     1.0000 0.31690  0.55470  0.86340  Biso   1.000  H  0.167979
  H152     1.0000 0.05470  0.63660  0.68310  Biso   1.000  H  0.167979
  H153     1.0000 0.06690  0.61340  0.30470  Biso   1.000  H  0.167979
  H154     1.0000 0.94530  0.13660  0.81690  Biso   1.000  H  0.167979
  H155     1.0000 0.69530  0.43310  0.61340  Biso   1.000  H  0.167979
  H156     1.0000 0.61340  0.69530  0.43310  Biso   1.000  H  0.167979
  H157     1.0000 0.38660  0.80470  0.43310  Biso   1.000  H  0.167979
  H158     1.0000 0.69530  0.56690  0.88660  Biso   1.000  H  0.167979
  H159     1.0000 0.88660  0.69530  0.56690  Biso   1.000  H  0.167979
  H160     1.0000 0.30470  0.06690  0.61340  Biso   1.000  H  0.167979
  H161     1.0000 0.80470  0.43310  0.38660  Biso   1.000  H  0.167979
  H162     1.0000 0.61340  0.30470  0.06690  Biso   1.000  H  0.167979
  H163     1.0000 0.13660  0.81690  0.94530  Biso   1.000  H  0.167979
  H164     1.0000 0.86340  0.68310  0.94530  Biso   1.000  H  0.167979
  H165     1.0000 0.68310  0.05470  0.63660  Biso   1.000  H  0.167979
  H166     1.0000 0.68310  0.94530  0.86340  Biso   1.000  H  0.167979
  H167     1.0000 0.55470  0.86340  0.31690  Biso   1.000  H  0.167979
  H168     1.0000 0.94530  0.86340  0.68310  Biso   1.000  H  0.167979
  H169     1.0000 0.93310  0.11340  0.19530  Biso   1.000  H  0.167980
  H170     1.0000 0.36340  0.81690  0.05470  Biso   1.000  H  0.167980
  H171     1.0000 0.06690  0.38660  0.19530  Biso   1.000  H  0.167979
  H172     1.0000 0.13660  0.18310  0.55470  Biso   1.000  H  0.167979
  H173     1.0000 0.31690  0.44530  0.63660  Biso   1.000  H  0.167979
  H174     1.0000 0.93310  0.88660  0.30470  Biso   1.000  H  0.167980
  H175     1.0000 0.81690  0.05470  0.36340  Biso   1.000  H  0.167979
  H176     1.0000 0.55470  0.13660  0.18310  Biso   1.000  H  0.167979
  H177     1.0000 0.56690  0.11340  0.80470  Biso   1.000  H  0.167979
  H178     1.0000 0.44530  0.63660  0.31690  Biso   1.000  H  0.167979
  H179     1.0000 0.19530  0.93310  0.11340  Biso   1.000  H  0.167979
  H180     1.0000 0.11340  0.19530  0.93310  Biso   1.000  H  0.167980
  H181     1.0000 0.88660  0.30470  0.93310  Biso   1.000  H  0.167979
  H182     1.0000 0.19530  0.06690  0.38660  Biso   1.000  H  0.167979
  H183     1.0000 0.38660  0.19530  0.06690  Biso   1.000  H  0.167980
  H184     1.0000 0.80470  0.56690  0.11340  Biso   1.000  H  0.167979
  H185     1.0000 0.30470  0.93310  0.88660  Biso   1.000  H  0.167980
  H186     1.0000 0.11340  0.80470  0.56690  Biso   1.000  H  0.167979
  H187     1.0000 0.63660  0.31690  0.44530  Biso   1.000  H  0.167979
  H188     1.0000 0.36340  0.18310  0.44530  Biso   1.000  H  0.167979
  H189     1.0000 0.18310  0.55470  0.13660  Biso   1.000  H  0.167979
  H190     1.0000 0.18310  0.44530  0.36340  Biso   1.000  H  0.167979
  H191     1.0000 0.05470  0.36340  0.81690  Biso   1.000  H  0.167979
  H192     1.0000 0.44530  0.36340  0.18310  Biso   1.000  H  0.167980
  H193     1.0000 0.58600  0.58600  0.58600  Biso   1.000  H  -0.175162
  H194     1.0000 0.83600  0.16400  0.66400  Biso   1.000  H  -0.175163
  H195     1.0000 0.41400  0.91400  0.58600  Biso   1.000  H  -0.175162
  H196     1.0000 0.66400  0.83600  0.16400  Biso   1.000  H  -0.175163
  H197     1.0000 0.58600  0.41400  0.91400  Biso   1.000  H  -0.175163
  H198     1.0000 0.16400  0.66400  0.83600  Biso   1.000  H  -0.175163
  H199     1.0000 0.91400  0.58600  0.41400  Biso   1.000  H  -0.175163
  H200     1.0000 0.83600  0.83600  0.83600  Biso   1.000  H  -0.175163
  H201     1.0000 0.08600  0.08600  0.08600  Biso   1.000  H  -0.175163
  H202     1.0000 0.33600  0.66400  0.16400  Biso   1.000  H  -0.175162
  H203     1.0000 0.91400  0.41400  0.08600  Biso   1.000  H  -0.175163
  H204     1.0000 0.16400  0.33600  0.66400  Biso   1.000  H  -0.175162
  H205     1.0000 0.08600  0.91400  0.41400  Biso   1.000  H  -0.175162
  H206     1.0000 0.66400  0.16400  0.33600  Biso   1.000  H  -0.175163
  H207     1.0000 0.41400  0.08600  0.91400  Biso   1.000  H  -0.175162
  H208     1.0000 0.33600  0.33600  0.33600  Biso   1.000  H  -0.175162
  H209     1.0000 0.41660  0.41570  0.64200  Biso   1.000  H  0.048724
  H210     1.0000 0.66570  0.33340  0.60800  Biso   1.000  H  0.048724
  H211     1.0000 0.58340  0.08430  0.64200  Biso   1.000  H  0.048726
  H212     1.0000 0.83430  0.66660  0.10800  Biso   1.000  H  0.048724
  H213     1.0000 0.83340  0.89200  0.33430  Biso   1.000  H  0.048724
  H214     1.0000 0.41660  0.58430  0.85800  Biso   1.000  H  0.048725
  H215     1.0000 0.33340  0.60800  0.66570  Biso   1.000  H  0.048724
  H216     1.0000 0.10800  0.83430  0.66660  Biso   1.000  H  0.048724
  H217     1.0000 0.08340  0.41570  0.35800  Biso   1.000  H  0.048724
  H218     1.0000 0.89200  0.33430  0.83340  Biso   1.000  H  0.048724
  H219     1.0000 0.64200  0.41660  0.41570  Biso   1.000  H  0.048724
  H220     1.0000 0.41570  0.64200  0.41660  Biso   1.000  H  0.048724
  H221     1.0000 0.58430  0.85800  0.41660  Biso   1.000  H  0.048725
  H222     1.0000 0.64200  0.58340  0.08430  Biso   1.000  H  0.048724
  H223     1.0000 0.08430  0.64200  0.58340  Biso   1.000  H  0.048724
  H224     1.0000 0.35800  0.08340  0.41570  Biso   1.000  H  0.048725
  H225     1.0000 0.85800  0.41660  0.58430  Biso   1.000  H  0.048725
  H226     1.0000 0.41570  0.35800  0.08340  Biso   1.000  H  0.048725
  H227     1.0000 0.33430  0.83340  0.89200  Biso   1.000  H  0.048725
  H228     1.0000 0.66570  0.66660  0.89200  Biso   1.000  H  0.048724
  H229     1.0000 0.66660  0.10800  0.83430  Biso   1.000  H  0.048725
  H230     1.0000 0.66660  0.89200  0.66570  Biso   1.000  H  0.048724
  H231     1.0000 0.60800  0.66570  0.33340  Biso   1.000  H  0.048725
  H232     1.0000 0.89200  0.66570  0.66660  Biso   1.000  H  0.048724
  H233     1.0000 0.91660  0.91570  0.14200  Biso   1.000  H  0.048725
  H234     1.0000 0.16570  0.83340  0.10800  Biso   1.000  H  0.048725
  H235     1.0000 0.08340  0.58430  0.14200  Biso   1.000  H  0.048724
  H236     1.0000 0.33430  0.16660  0.60800  Biso   1.000  H  0.048725
  H237     1.0000 0.33340  0.39200  0.83430  Biso   1.000  H  0.048725
  H238     1.0000 0.91660  0.08430  0.35800  Biso   1.000  H  0.048725
  H239     1.0000 0.83340  0.10800  0.16570  Biso   1.000  H  0.048725
  H240     1.0000 0.60800  0.33430  0.16660  Biso   1.000  H  0.048725
  H241     1.0000 0.58340  0.91570  0.85800  Biso   1.000  H  0.048725
  H242     1.0000 0.39200  0.83430  0.33340  Biso   1.000  H  0.048725
  H243     1.0000 0.14200  0.91660  0.91570  Biso   1.000  H  0.048725
  H244     1.0000 0.91570  0.14200  0.91660  Biso   1.000  H  0.048725
  H245     1.0000 0.08430  0.35800  0.91660  Biso   1.000  H  0.048725
  H246     1.0000 0.14200  0.08340  0.58430  Biso   1.000  H  0.048725
  H247     1.0000 0.58430  0.14200  0.08340  Biso   1.000  H  0.048725
  H248     1.0000 0.85800  0.58340  0.91570  Biso   1.000  H  0.048724
  H249     1.0000 0.35800  0.91660  0.08430  Biso   1.000  H  0.048725
  H250     1.0000 0.91570  0.85800  0.58340  Biso   1.000  H  0.048725
  H251     1.0000 0.83430  0.33340  0.39200  Biso   1.000  H  0.048725
  H252     1.0000 0.16570  0.16660  0.39200  Biso   1.000  H  0.048725
  H253     1.0000 0.16660  0.60800  0.33430  Biso   1.000  H  0.048725
  H254     1.0000 0.16660  0.39200  0.16570  Biso   1.000  H  0.048726
  H255     1.0000 0.10800  0.16570  0.83340  Biso   1.000  H  0.048725
  H256     1.0000 0.39200  0.16570  0.16660  Biso   1.000  H  0.048725
  N1       1.0000 0.43060  0.50770  0.67180  Biso   1.000  N  -0.329981
  N2       1.0000 0.75770  0.31940  0.57820  Biso   1.000  N  -0.329982
  N3       1.0000 0.56940  0.99230  0.67180  Biso   1.000  N  -0.329982
  N4       1.0000 0.74230  0.68060  0.07820  Biso   1.000  N  -0.329982
  N5       1.0000 0.81940  0.92180  0.24230  Biso   1.000  N  -0.329982
  N6       1.0000 0.43060  0.49230  0.82820  Biso   1.000  N  -0.329982
  N7       1.0000 0.31940  0.57820  0.75770  Biso   1.000  N  -0.329982
  N8       1.0000 0.07820  0.74230  0.68060  Biso   1.000  N  -0.329982
  N9       1.0000 0.06940  0.50770  0.32820  Biso   1.000  N  -0.329981
  N10      1.0000 0.92180  0.24230  0.81940  Biso   1.000  N  -0.329982
  N11      1.0000 0.67180  0.43060  0.50770  Biso   1.000  N  -0.329982
  N12      1.0000 0.50770  0.67180  0.43060  Biso   1.000  N  -0.329982
  N13      1.0000 0.49230  0.82820  0.43060  Biso   1.000  N  -0.329982
  N14      1.0000 0.67180  0.56940  0.99230  Biso   1.000  N  -0.329982
  N15      1.0000 0.99230  0.67180  0.56940  Biso   1.000  N  -0.329982
  N16      1.0000 0.32820  0.06940  0.50770  Biso   1.000  N  -0.329982
  N17      1.0000 0.82820  0.43060  0.49230  Biso   1.000  N  -0.329982
  N18      1.0000 0.50770  0.32820  0.06940  Biso   1.000  N  -0.329982
  N19      1.0000 0.24230  0.81940  0.92180  Biso   1.000  N  -0.329982
  N20      1.0000 0.75770  0.68060  0.92180  Biso   1.000  N  -0.329981
  N21      1.0000 0.68060  0.07820  0.74230  Biso   1.000  N  -0.329982
  N22      1.0000 0.68060  0.92180  0.75770  Biso   1.000  N  -0.329981
  N23      1.0000 0.57820  0.75770  0.31940  Biso   1.000  N  -0.329982
  N24      1.0000 0.92180  0.75770  0.68060  Biso   1.000  N  -0.329981
  N25      1.0000 0.93060  0.00770  0.17180  Biso   1.000  N  -0.329983
  N26      1.0000 0.25770  0.81940  0.07820  Biso   1.000  N  -0.329982
  N27      1.0000 0.06940  0.49230  0.17180  Biso   1.000  N  -0.329982
  N28      1.0000 0.24230  0.18060  0.57820  Biso   1.000  N  -0.329982
  N29      1.0000 0.31940  0.42180  0.74230  Biso   1.000  N  -0.329982
  N30      1.0000 0.93060  0.99230  0.32820  Biso   1.000  N  -0.329982
  N31      1.0000 0.81940  0.07820  0.25770  Biso   1.000  N  -0.329982
  N32      1.0000 0.57820  0.24230  0.18060  Biso   1.000  N  -0.329982
  N33      1.0000 0.56940  0.00770  0.82820  Biso   1.000  N  -0.329983
  N34      1.0000 0.42180  0.74230  0.31940  Biso   1.000  N  -0.329982
  N35      1.0000 0.17180  0.93060  0.00770  Biso   1.000  N  -0.329982
  N36      1.0000 0.00770  0.17180  0.93060  Biso   1.000  N  -0.329982
  N37      1.0000 0.99230  0.32820  0.93060  Biso   1.000  N  -0.329982
  N38      1.0000 0.17180  0.06940  0.49230  Biso   1.000  N  -0.329982
  N39      1.0000 0.49230  0.17180  0.06940  Biso   1.000  N  -0.329982
  N40      1.0000 0.82820  0.56940  0.00770  Biso   1.000  N  -0.329982
  N41      1.0000 0.32820  0.93060  0.99230  Biso   1.000  N  -0.329983
  N42      1.0000 0.00770  0.82820  0.56940  Biso   1.000  N  -0.329982
  N43      1.0000 0.74230  0.31940  0.42180  Biso   1.000  N  -0.329982
  N44      1.0000 0.25770  0.18060  0.42180  Biso   1.000  N  -0.329983
  N45      1.0000 0.18060  0.57820  0.24230  Biso   1.000  N  -0.329983
  N46      1.0000 0.18060  0.42180  0.25770  Biso   1.000  N  -0.329983
  N47      1.0000 0.07820  0.25770  0.81940  Biso   1.000  N  -0.329982
  N48      1.0000 0.42180  0.25770  0.18060  Biso   1.000  N  -0.329983
  N49      1.0000 0.50180  0.51740  0.59440  Biso   1.000  N  -0.255552
  N50      1.0000 0.76740  0.24820  0.65560  Biso   1.000  N  -0.255552
  N51      1.0000 0.49820  0.98260  0.59440  Biso   1.000  N  -0.255550
  N52      1.0000 0.73260  0.75180  0.15560  Biso   1.000  N  -0.255552
  N53      1.0000 0.74820  0.84440  0.23260  Biso   1.000  N  -0.255552
  N54      1.0000 0.50180  0.48260  0.90560  Biso   1.000  N  -0.255552
  N55      1.0000 0.24820  0.65560  0.76740  Biso   1.000  N  -0.255551
  N56      1.0000 0.15560  0.73260  0.75180  Biso   1.000  N  -0.255551
  N57      1.0000 0.99820  0.51740  0.40560  Biso   1.000  N  -0.255552
  N58      1.0000 0.84440  0.23260  0.74820  Biso   1.000  N  -0.255552
  N59      1.0000 0.59440  0.50180  0.51740  Biso   1.000  N  -0.255552
  N60      1.0000 0.51740  0.59440  0.50180  Biso   1.000  N  -0.255552
  N61      1.0000 0.48260  0.90560  0.50180  Biso   1.000  N  -0.255550
  N62      1.0000 0.59440  0.49820  0.98260  Biso   1.000  N  -0.255552
  N63      1.0000 0.98260  0.59440  0.49820  Biso   1.000  N  -0.255552
  N64      1.0000 0.40560  0.99820  0.51740  Biso   1.000  N  -0.255550
  N65      1.0000 0.90560  0.50180  0.48260  Biso   1.000  N  -0.255552
  N66      1.0000 0.51740  0.40560  0.99820  Biso   1.000  N  -0.255552
  N67      1.0000 0.23260  0.74820  0.84440  Biso   1.000  N  -0.255551
  N68      1.0000 0.76740  0.75180  0.84440  Biso   1.000  N  -0.255553
  N69      1.0000 0.75180  0.15560  0.73260  Biso   1.000  N  -0.255552
  N70      1.0000 0.75180  0.84440  0.76740  Biso   1.000  N  -0.255553
  N71      1.0000 0.65560  0.76740  0.24820  Biso   1.000  N  -0.255552
  N72      1.0000 0.84440  0.76740  0.75180  Biso   1.000  N  -0.255553
  N73      1.0000 0.00180  0.01740  0.09440  Biso   1.000  N  -0.255550
  N74      1.0000 0.26740  0.74820  0.15560  Biso   1.000  N  -0.255550
  N75      1.0000 0.99820  0.48260  0.09440  Biso   1.000  N  -0.255552
  N76      1.0000 0.23260  0.25180  0.65560  Biso   1.000  N  -0.255550
  N77      1.0000 0.24820  0.34440  0.73260  Biso   1.000  N  -0.255551
  N78      1.0000 0.00180  0.98260  0.40560  Biso   1.000  N  -0.255551
  N79      1.0000 0.74820  0.15560  0.26740  Biso   1.000  N  -0.255551
  N80      1.0000 0.65560  0.23260  0.25180  Biso   1.000  N  -0.255551
  N81      1.0000 0.49820  0.01740  0.90560  Biso   1.000  N  -0.255550
  N82      1.0000 0.34440  0.73260  0.24820  Biso   1.000  N  -0.255550
  N83      1.0000 0.09440  0.00180  0.01740  Biso   1.000  N  -0.255550
  N84      1.0000 0.01740  0.09440  0.00180  Biso   1.000  N  -0.255550
  N85      1.0000 0.98260  0.40560  0.00180  Biso   1.000  N  -0.255552
  N86      1.0000 0.09440  0.99820  0.48260  Biso   1.000  N  -0.255550
  N87      1.0000 0.48260  0.09440  0.99820  Biso   1.000  N  -0.255550
  N88      1.0000 0.90560  0.49820  0.01740  Biso   1.000  N  -0.255552
  N89      1.0000 0.40560  0.00180  0.98260  Biso   1.000  N  -0.255550
  N90      1.0000 0.01740  0.90560  0.49820  Biso   1.000  N  -0.255551
  N91      1.0000 0.73260  0.24820  0.34440  Biso   1.000  N  -0.255551
  N92      1.0000 0.26740  0.25180  0.34440  Biso   1.000  N  -0.255549
  N93      1.0000 0.25180  0.65560  0.23260  Biso   1.000  N  -0.255550
  N94      1.0000 0.25180  0.34440  0.26740  Biso   1.000  N  -0.255550
  N95      1.0000 0.15560  0.26740  0.74820  Biso   1.000  N  -0.255551
  N96      1.0000 0.34440  0.26740  0.25180  Biso   1.000  N  -0.255549
  Zn1      1.0000 0.37500  0.50000  0.75000  Biso   1.000  Zn  0.712301
  Zn2      1.0000 0.75000  0.37500  0.50000  Biso   1.000  Zn  0.712301
  Zn3      1.0000 0.62500  0.00000  0.75000  Biso   1.000  Zn  0.712302
  Zn4      1.0000 0.75000  0.62500  0.00000  Biso   1.000  Zn  0.712300
  Zn5      1.0000 0.87500  0.00000  0.25000  Biso   1.000  Zn  0.712304
  Zn6      1.0000 0.00000  0.75000  0.62500  Biso   1.000  Zn  0.712301
  Zn7      1.0000 0.12500  0.50000  0.25000  Biso   1.000  Zn  0.712303
  Zn8      1.0000 0.00000  0.25000  0.87500  Biso   1.000  Zn  0.712303
  Zn9      1.0000 0.50000  0.75000  0.37500  Biso   1.000  Zn  0.712303
  Zn10     1.0000 0.25000  0.12500  0.50000  Biso   1.000  Zn  0.712305
  Zn11     1.0000 0.50000  0.25000  0.12500  Biso   1.000  Zn  0.712304
  Zn12     1.0000 0.25000  0.87500  0.00000  Biso   1.000  Zn  0.712305
