data_image0
_cell_length_a       30.19
_cell_length_b       19.637
_cell_length_c       16.038
_cell_angle_alpha    90
_cell_angle_beta     108.829
_cell_angle_gamma    90

_symmetry_space_group_name_H-M    "P 1"
_symmetry_int_tables_number       1

loop_
  _symmetry_equiv_pos_as_xyz
  'x, y, z'

loop_
  _atom_site_label
  _atom_site_occupancy
  _atom_site_fract_x
  _atom_site_fract_y
  _atom_site_fract_z
  _atom_site_thermal_displace_type
  _atom_site_B_iso_or_equiv
  _atom_site_type_symbol
  _atom_site_charge
  C1       1.0000 0.45370  0.80220  0.59920  Biso   1.000  C  0.084627
  C2       1.0000 0.54630  0.80220  0.90080  Biso   1.000  C  0.084626
  C3       1.0000 0.95370  0.30220  0.59920  Biso   1.000  C  0.084628
  C4       1.0000 0.04630  0.30220  0.90080  Biso   1.000  C  0.084628
  C5       1.0000 0.54630  0.19780  0.40080  Biso   1.000  C  0.084628
  C6       1.0000 0.45370  0.19780  0.09920  Biso   1.000  C  0.084628
  C7       1.0000 0.04630  0.69780  0.40080  Biso   1.000  C  0.084627
  C8       1.0000 0.95370  0.69780  0.09920  Biso   1.000  C  0.084626
  C9       1.0000 0.47890  0.85160  0.67300  Biso   1.000  C  -0.084519
  C10      1.0000 0.52110  0.85160  0.82700  Biso   1.000  C  -0.084519
  C11      1.0000 0.97890  0.35160  0.67300  Biso   1.000  C  -0.084521
  C12      1.0000 0.02110  0.35160  0.82700  Biso   1.000  C  -0.084521
  C13      1.0000 0.52110  0.14840  0.32700  Biso   1.000  C  -0.084521
  C14      1.0000 0.47890  0.14840  0.17300  Biso   1.000  C  -0.084521
  C15      1.0000 0.02110  0.64840  0.32700  Biso   1.000  C  -0.084519
  C16      1.0000 0.97890  0.64840  0.17300  Biso   1.000  C  -0.084519
  C17      1.0000 0.48600  0.74820  0.58570  Biso   1.000  C  -0.075921
  C18      1.0000 0.51400  0.74820  0.91430  Biso   1.000  C  -0.075920
  C19      1.0000 0.98600  0.24820  0.58570  Biso   1.000  C  -0.075923
  C20      1.0000 0.01400  0.24820  0.91430  Biso   1.000  C  -0.075921
  C21      1.0000 0.51400  0.25180  0.41430  Biso   1.000  C  -0.075923
  C22      1.0000 0.48600  0.25180  0.08570  Biso   1.000  C  -0.075921
  C23      1.0000 0.01400  0.75180  0.41430  Biso   1.000  C  -0.075921
  C24      1.0000 0.98600  0.75180  0.08570  Biso   1.000  C  -0.075920
  C25      1.0000 0.43270  0.84380  0.51530  Biso   1.000  C  -0.082617
  C26      1.0000 0.56730  0.84380  0.98470  Biso   1.000  C  -0.082616
  C27      1.0000 0.93270  0.34380  0.51530  Biso   1.000  C  -0.082617
  C28      1.0000 0.06730  0.34380  0.98470  Biso   1.000  C  -0.082619
  C29      1.0000 0.56730  0.15620  0.48470  Biso   1.000  C  -0.082617
  C30      1.0000 0.43270  0.15620  0.01530  Biso   1.000  C  -0.082619
  C31      1.0000 0.06730  0.65620  0.48470  Biso   1.000  C  -0.082616
  C32      1.0000 0.93270  0.65620  0.01530  Biso   1.000  C  -0.082616
  C33      1.0000 0.41380  0.76670  0.62550  Biso   1.000  C  -0.087292
  C34      1.0000 0.58620  0.76670  0.87450  Biso   1.000  C  -0.087291
  C35      1.0000 0.91380  0.26670  0.62550  Biso   1.000  C  -0.087292
  C36      1.0000 0.08620  0.26670  0.87450  Biso   1.000  C  -0.087292
  C37      1.0000 0.58620  0.23330  0.37450  Biso   1.000  C  -0.087292
  C38      1.0000 0.41380  0.23330  0.12550  Biso   1.000  C  -0.087292
  C39      1.0000 0.08620  0.73330  0.37450  Biso   1.000  C  -0.087292
  C40      1.0000 0.91380  0.73330  0.12550  Biso   1.000  C  -0.087291
  C41      1.0000 0.55370  0.74410  0.53860  Biso   1.000  C  0.288442
  C42      1.0000 0.44630  0.74410  0.96140  Biso   1.000  C  0.288442
  C43      1.0000 0.05370  0.24410  0.53860  Biso   1.000  C  0.288444
  C44      1.0000 0.94630  0.24410  0.96140  Biso   1.000  C  0.288442
  C45      1.0000 0.44630  0.25590  0.46140  Biso   1.000  C  0.288443
  C46      1.0000 0.55370  0.25590  0.03860  Biso   1.000  C  0.288442
  C47      1.0000 0.94630  0.75590  0.46140  Biso   1.000  C  0.288441
  C48      1.0000 0.05370  0.75590  0.03860  Biso   1.000  C  0.288442
  C49      1.0000 0.58110  0.78190  0.49890  Biso   1.000  C  -0.218426
  C50      1.0000 0.41890  0.78190  0.00110  Biso   1.000  C  -0.218429
  C51      1.0000 0.08110  0.28190  0.49890  Biso   1.000  C  -0.218429
  C52      1.0000 0.91890  0.28190  0.00110  Biso   1.000  C  -0.218429
  C53      1.0000 0.41890  0.21810  0.50110  Biso   1.000  C  -0.218429
  C54      1.0000 0.58110  0.21810  0.99890  Biso   1.000  C  -0.218429
  C55      1.0000 0.91890  0.71810  0.50110  Biso   1.000  C  -0.218428
  C56      1.0000 0.08110  0.71810  0.99890  Biso   1.000  C  -0.218430
  C57      1.0000 0.61720  0.75150  0.48000  Biso   1.000  C  -0.067785
  C58      1.0000 0.38280  0.75150  0.02000  Biso   1.000  C  -0.067784
  C59      1.0000 0.11720  0.25150  0.48000  Biso   1.000  C  -0.067781
  C60      1.0000 0.88280  0.25150  0.02000  Biso   1.000  C  -0.067785
  C61      1.0000 0.38280  0.24850  0.52000  Biso   1.000  C  -0.067782
  C62      1.0000 0.61720  0.24850  0.98000  Biso   1.000  C  -0.067785
  C63      1.0000 0.88280  0.74850  0.52000  Biso   1.000  C  -0.067786
  C64      1.0000 0.11720  0.74850  0.98000  Biso   1.000  C  -0.067784
  C65      1.0000 0.62540  0.68140  0.49460  Biso   1.000  C  -0.053320
  C66      1.0000 0.37460  0.68140  0.00540  Biso   1.000  C  -0.053319
  C67      1.0000 0.12540  0.18140  0.49460  Biso   1.000  C  -0.053315
  C68      1.0000 0.87460  0.18140  0.00540  Biso   1.000  C  -0.053320
  C69      1.0000 0.37460  0.31860  0.50540  Biso   1.000  C  -0.053315
  C70      1.0000 0.62540  0.31860  0.99460  Biso   1.000  C  -0.053320
  C71      1.0000 0.87460  0.81860  0.50540  Biso   1.000  C  -0.053321
  C72      1.0000 0.12540  0.81860  0.99460  Biso   1.000  C  -0.053320
  C73      1.0000 0.59700  0.64540  0.52920  Biso   1.000  C  -0.069384
  C74      1.0000 0.40300  0.64540  0.97080  Biso   1.000  C  -0.069385
  C75      1.0000 0.09700  0.14540  0.52920  Biso   1.000  C  -0.069383
  C76      1.0000 0.90300  0.14540  0.97080  Biso   1.000  C  -0.069385
  C77      1.0000 0.40300  0.35460  0.47080  Biso   1.000  C  -0.069383
  C78      1.0000 0.59700  0.35460  0.02920  Biso   1.000  C  -0.069385
  C79      1.0000 0.90300  0.85460  0.47080  Biso   1.000  C  -0.069384
  C80      1.0000 0.09700  0.85460  0.02920  Biso   1.000  C  -0.069384
  C81      1.0000 0.56080  0.67720  0.55310  Biso   1.000  C  -0.263849
  C82      1.0000 0.43920  0.67720  0.94690  Biso   1.000  C  -0.263850
  C83      1.0000 0.06080  0.17720  0.55310  Biso   1.000  C  -0.263849
  C84      1.0000 0.93920  0.17720  0.94690  Biso   1.000  C  -0.263848
  C85      1.0000 0.43920  0.32280  0.44690  Biso   1.000  C  -0.263849
  C86      1.0000 0.56080  0.32280  0.05310  Biso   1.000  C  -0.263848
  C87      1.0000 0.93920  0.82280  0.44690  Biso   1.000  C  -0.263850
  C88      1.0000 0.06080  0.82280  0.05310  Biso   1.000  C  -0.263849
  C89      1.0000 0.66520  0.65150  0.47600  Biso   1.000  C  0.586444
  C90      1.0000 0.33480  0.65150  0.02400  Biso   1.000  C  0.586443
  C91      1.0000 0.16520  0.15150  0.47600  Biso   1.000  C  0.586444
  C92      1.0000 0.83480  0.15150  0.02400  Biso   1.000  C  0.586444
  C93      1.0000 0.33480  0.34850  0.52400  Biso   1.000  C  0.586443
  C94      1.0000 0.66520  0.34850  0.97600  Biso   1.000  C  0.586443
  C95      1.0000 0.83480  0.84850  0.52400  Biso   1.000  C  0.586443
  C96      1.0000 0.16520  0.84850  0.97600  Biso   1.000  C  0.586443
  C97      1.0000 0.38240  0.82400  0.36850  Biso   1.000  C  0.268324
  C98      1.0000 0.61760  0.82400  0.13150  Biso   1.000  C  0.268323
  C99      1.0000 0.88240  0.32400  0.36850  Biso   1.000  C  0.268324
  C100     1.0000 0.11760  0.32400  0.13150  Biso   1.000  C  0.268325
  C101     1.0000 0.61760  0.17600  0.63150  Biso   1.000  C  0.268324
  C102     1.0000 0.38240  0.17600  0.86850  Biso   1.000  C  0.268325
  C103     1.0000 0.11760  0.67600  0.63150  Biso   1.000  C  0.268324
  C104     1.0000 0.88240  0.67600  0.86850  Biso   1.000  C  0.268324
  C105     1.0000 0.36080  0.77140  0.30690  Biso   1.000  C  -0.225509
  C106     1.0000 0.63920  0.77140  0.19310  Biso   1.000  C  -0.225508
  C107     1.0000 0.86080  0.27140  0.30690  Biso   1.000  C  -0.225509
  C108     1.0000 0.13920  0.27140  0.19310  Biso   1.000  C  -0.225510
  C109     1.0000 0.63920  0.22860  0.69310  Biso   1.000  C  -0.225509
  C110     1.0000 0.36080  0.22860  0.80690  Biso   1.000  C  -0.225509
  C111     1.0000 0.13920  0.72860  0.69310  Biso   1.000  C  -0.225508
  C112     1.0000 0.86080  0.72860  0.80690  Biso   1.000  C  -0.225507
  C113     1.0000 0.33240  0.79490  0.22550  Biso   1.000  C  -0.073457
  C114     1.0000 0.66760  0.79490  0.27450  Biso   1.000  C  -0.073458
  C115     1.0000 0.83240  0.29490  0.22550  Biso   1.000  C  -0.073457
  C116     1.0000 0.16760  0.29490  0.27450  Biso   1.000  C  -0.073457
  C117     1.0000 0.66760  0.20510  0.77450  Biso   1.000  C  -0.073457
  C118     1.0000 0.33240  0.20510  0.72550  Biso   1.000  C  -0.073456
  C119     1.0000 0.16760  0.70510  0.77450  Biso   1.000  C  -0.073457
  C120     1.0000 0.83240  0.70510  0.72550  Biso   1.000  C  -0.073457
  C121     1.0000 0.32390  0.86160  0.20540  Biso   1.000  C  -0.066456
  C122     1.0000 0.67610  0.86160  0.29460  Biso   1.000  C  -0.066457
  C123     1.0000 0.82390  0.36160  0.20540  Biso   1.000  C  -0.066455
  C124     1.0000 0.17610  0.36160  0.29460  Biso   1.000  C  -0.066454
  C125     1.0000 0.67610  0.13840  0.79460  Biso   1.000  C  -0.066456
  C126     1.0000 0.32390  0.13840  0.70540  Biso   1.000  C  -0.066454
  C127     1.0000 0.17610  0.63840  0.79460  Biso   1.000  C  -0.066456
  C128     1.0000 0.82390  0.63840  0.70540  Biso   1.000  C  -0.066456
  C129     1.0000 0.34460  0.91110  0.26970  Biso   1.000  C  -0.093009
  C130     1.0000 0.65540  0.91110  0.23030  Biso   1.000  C  -0.093011
  C131     1.0000 0.84460  0.41110  0.26970  Biso   1.000  C  -0.093006
  C132     1.0000 0.15540  0.41110  0.23030  Biso   1.000  C  -0.093004
  C133     1.0000 0.65540  0.08890  0.73030  Biso   1.000  C  -0.093006
  C134     1.0000 0.34460  0.08890  0.76970  Biso   1.000  C  -0.093004
  C135     1.0000 0.15540  0.58890  0.73030  Biso   1.000  C  -0.093009
  C136     1.0000 0.84460  0.58890  0.76970  Biso   1.000  C  -0.093010
  C137     1.0000 0.37650  0.89130  0.35100  Biso   1.000  C  -0.253260
  C138     1.0000 0.62350  0.89130  0.14900  Biso   1.000  C  -0.253259
  C139     1.0000 0.87650  0.39130  0.35100  Biso   1.000  C  -0.253257
  C140     1.0000 0.12350  0.39130  0.14900  Biso   1.000  C  -0.253258
  C141     1.0000 0.62350  0.10870  0.64900  Biso   1.000  C  -0.253257
  C142     1.0000 0.37650  0.10870  0.85100  Biso   1.000  C  -0.253257
  C143     1.0000 0.12350  0.60870  0.64900  Biso   1.000  C  -0.253259
  C144     1.0000 0.87650  0.60870  0.85100  Biso   1.000  C  -0.253258
  C145     1.0000 0.29070  0.88730  0.11700  Biso   1.000  C  0.611897
  C146     1.0000 0.70930  0.88730  0.38300  Biso   1.000  C  0.611897
  C147     1.0000 0.79070  0.38730  0.11700  Biso   1.000  C  0.611899
  C148     1.0000 0.20930  0.38730  0.38300  Biso   1.000  C  0.611897
  C149     1.0000 0.70930  0.11270  0.88300  Biso   1.000  C  0.611899
  C150     1.0000 0.29070  0.11270  0.61700  Biso   1.000  C  0.611898
  C151     1.0000 0.20930  0.61270  0.88300  Biso   1.000  C  0.611897
  C152     1.0000 0.79070  0.61270  0.61700  Biso   1.000  C  0.611898
  C153     1.0000 0.35400  0.81290  0.67780  Biso   1.000  C  0.276214
  C154     1.0000 0.64600  0.81290  0.82220  Biso   1.000  C  0.276215
  C155     1.0000 0.85400  0.31290  0.67780  Biso   1.000  C  0.276215
  C156     1.0000 0.14600  0.31290  0.82220  Biso   1.000  C  0.276214
  C157     1.0000 0.64600  0.18710  0.32220  Biso   1.000  C  0.276215
  C158     1.0000 0.35400  0.18710  0.17780  Biso   1.000  C  0.276214
  C159     1.0000 0.14600  0.68710  0.32220  Biso   1.000  C  0.276214
  C160     1.0000 0.85400  0.68710  0.17780  Biso   1.000  C  0.276215
  C161     1.0000 0.32850  0.87080  0.67990  Biso   1.000  C  -0.237434
  C162     1.0000 0.67150  0.87080  0.82010  Biso   1.000  C  -0.237434
  C163     1.0000 0.82850  0.37080  0.67990  Biso   1.000  C  -0.237431
  C164     1.0000 0.17150  0.37080  0.82010  Biso   1.000  C  -0.237431
  C165     1.0000 0.67150  0.12920  0.32010  Biso   1.000  C  -0.237430
  C166     1.0000 0.32850  0.12920  0.17990  Biso   1.000  C  -0.237431
  C167     1.0000 0.17150  0.62920  0.32010  Biso   1.000  C  -0.237434
  C168     1.0000 0.82850  0.62920  0.17990  Biso   1.000  C  -0.237433
  C169     1.0000 0.30070  0.87130  0.73390  Biso   1.000  C  -0.092660
  C170     1.0000 0.69930  0.87130  0.76610  Biso   1.000  C  -0.092660
  C171     1.0000 0.80070  0.37130  0.73390  Biso   1.000  C  -0.092657
  C172     1.0000 0.19930  0.37130  0.76610  Biso   1.000  C  -0.092657
  C173     1.0000 0.69930  0.12870  0.26610  Biso   1.000  C  -0.092656
  C174     1.0000 0.30070  0.12870  0.23390  Biso   1.000  C  -0.092656
  C175     1.0000 0.19930  0.62870  0.26610  Biso   1.000  C  -0.092660
  C176     1.0000 0.80070  0.62870  0.23390  Biso   1.000  C  -0.092660
  C177     1.0000 0.29880  0.81540  0.78400  Biso   1.000  C  -0.055795
  C178     1.0000 0.70120  0.81540  0.71600  Biso   1.000  C  -0.055795
  C179     1.0000 0.79880  0.31540  0.78400  Biso   1.000  C  -0.055794
  C180     1.0000 0.20120  0.31540  0.71600  Biso   1.000  C  -0.055794
  C181     1.0000 0.70120  0.18460  0.21600  Biso   1.000  C  -0.055794
  C182     1.0000 0.29880  0.18460  0.28400  Biso   1.000  C  -0.055794
  C183     1.0000 0.20120  0.68460  0.21600  Biso   1.000  C  -0.055795
  C184     1.0000 0.79880  0.68460  0.28400  Biso   1.000  C  -0.055794
  C185     1.0000 0.32320  0.75850  0.77890  Biso   1.000  C  -0.077266
  C186     1.0000 0.67680  0.75850  0.72110  Biso   1.000  C  -0.077266
  C187     1.0000 0.82320  0.25850  0.77890  Biso   1.000  C  -0.077266
  C188     1.0000 0.17680  0.25850  0.72110  Biso   1.000  C  -0.077266
  C189     1.0000 0.67680  0.24150  0.22110  Biso   1.000  C  -0.077266
  C190     1.0000 0.32320  0.24150  0.27890  Biso   1.000  C  -0.077266
  C191     1.0000 0.17680  0.74150  0.22110  Biso   1.000  C  -0.077266
  C192     1.0000 0.82320  0.74150  0.27890  Biso   1.000  C  -0.077265
  C193     1.0000 0.34960  0.75480  0.72200  Biso   1.000  C  -0.251869
  C194     1.0000 0.65040  0.75480  0.77800  Biso   1.000  C  -0.251867
  C195     1.0000 0.84960  0.25480  0.72200  Biso   1.000  C  -0.251867
  C196     1.0000 0.15040  0.25480  0.77800  Biso   1.000  C  -0.251869
  C197     1.0000 0.65040  0.24520  0.27800  Biso   1.000  C  -0.251867
  C198     1.0000 0.34960  0.24520  0.22200  Biso   1.000  C  -0.251869
  C199     1.0000 0.15040  0.74520  0.27800  Biso   1.000  C  -0.251869
  C200     1.0000 0.84960  0.74520  0.22200  Biso   1.000  C  -0.251867
  C201     1.0000 0.27300  0.81960  0.85150  Biso   1.000  C  0.606136
  C202     1.0000 0.72700  0.81960  0.64850  Biso   1.000  C  0.606136
  C203     1.0000 0.77300  0.31960  0.85150  Biso   1.000  C  0.606137
  C204     1.0000 0.22700  0.31960  0.64850  Biso   1.000  C  0.606135
  C205     1.0000 0.72700  0.18040  0.14850  Biso   1.000  C  0.606137
  C206     1.0000 0.27300  0.18040  0.35150  Biso   1.000  C  0.606135
  C207     1.0000 0.22700  0.68040  0.14850  Biso   1.000  C  0.606136
  C208     1.0000 0.77300  0.68040  0.35150  Biso   1.000  C  0.606137
  C209     1.0000 0.74970  0.46610  0.35090  Biso   1.000  C  -0.019258
  C210     1.0000 0.25030  0.46610  0.14910  Biso   1.000  C  -0.019258
  C211     1.0000 0.24970  0.96610  0.35090  Biso   1.000  C  -0.019255
  C212     1.0000 0.75030  0.96610  0.14910  Biso   1.000  C  -0.019256
  C213     1.0000 0.25030  0.53390  0.64910  Biso   1.000  C  -0.019256
  C214     1.0000 0.74970  0.53390  0.85090  Biso   1.000  C  -0.019257
  C215     1.0000 0.75030  0.03390  0.64910  Biso   1.000  C  -0.019259
  C216     1.0000 0.24970  0.03390  0.85090  Biso   1.000  C  -0.019259
  C217     1.0000 0.75030  0.40020  0.35260  Biso   1.000  C  -0.105293
  C218     1.0000 0.24970  0.40020  0.14740  Biso   1.000  C  -0.105295
  C219     1.0000 0.25030  0.90020  0.35260  Biso   1.000  C  -0.105290
  C220     1.0000 0.74970  0.90020  0.14740  Biso   1.000  C  -0.105289
  C221     1.0000 0.24970  0.59980  0.64740  Biso   1.000  C  -0.105291
  C222     1.0000 0.75030  0.59980  0.85260  Biso   1.000  C  -0.105289
  C223     1.0000 0.74970  0.09980  0.64740  Biso   1.000  C  -0.105294
  C224     1.0000 0.25030  0.09980  0.85260  Biso   1.000  C  -0.105295
  C225     1.0000 0.74280  0.43780  0.47600  Biso   1.000  C  0.115577
  C226     1.0000 0.25720  0.43780  0.02400  Biso   1.000  C  0.115576
  C227     1.0000 0.24280  0.93780  0.47600  Biso   1.000  C  0.115578
  C228     1.0000 0.75720  0.93780  0.02400  Biso   1.000  C  0.115579
  C229     1.0000 0.25720  0.56220  0.52400  Biso   1.000  C  0.115578
  C230     1.0000 0.74280  0.56220  0.97600  Biso   1.000  C  0.115578
  C231     1.0000 0.75720  0.06220  0.52400  Biso   1.000  C  0.115576
  C232     1.0000 0.24280  0.06220  0.97600  Biso   1.000  C  0.115576
  C233     1.0000 0.74910  0.31570  0.46780  Biso   1.000  C  0.166693
  C234     1.0000 0.25090  0.31570  0.03220  Biso   1.000  C  0.166693
  C235     1.0000 0.24910  0.81570  0.46780  Biso   1.000  C  0.166693
  C236     1.0000 0.75090  0.81570  0.03220  Biso   1.000  C  0.166693
  C237     1.0000 0.25090  0.68430  0.53220  Biso   1.000  C  0.166694
  C238     1.0000 0.74910  0.68430  0.96780  Biso   1.000  C  0.166693
  C239     1.0000 0.75090  0.18430  0.53220  Biso   1.000  C  0.166693
  C240     1.0000 0.24910  0.18430  0.96780  Biso   1.000  C  0.166693
  C241     1.0000 0.77780  0.26670  0.44910  Biso   1.000  C  -0.139792
  C242     1.0000 0.22220  0.26670  0.05090  Biso   1.000  C  -0.139792
  C243     1.0000 0.27780  0.76670  0.44910  Biso   1.000  C  -0.139789
  C244     1.0000 0.72220  0.76670  0.05090  Biso   1.000  C  -0.139788
  C245     1.0000 0.22220  0.73330  0.55090  Biso   1.000  C  -0.139788
  C246     1.0000 0.77780  0.73330  0.94910  Biso   1.000  C  -0.139789
  C247     1.0000 0.72220  0.23330  0.55090  Biso   1.000  C  -0.139791
  C248     1.0000 0.27780  0.23330  0.94910  Biso   1.000  C  -0.139792
  C249     1.0000 0.72070  0.29750  0.51630  Biso   1.000  C  -0.161781
  C250     1.0000 0.27930  0.29750  0.98370  Biso   1.000  C  -0.161782
  C251     1.0000 0.22070  0.79750  0.51630  Biso   1.000  C  -0.161781
  C252     1.0000 0.77930  0.79750  0.98370  Biso   1.000  C  -0.161780
  C253     1.0000 0.27930  0.70250  0.48370  Biso   1.000  C  -0.161780
  C254     1.0000 0.72070  0.70250  0.01630  Biso   1.000  C  -0.161779
  C255     1.0000 0.77930  0.20250  0.48370  Biso   1.000  C  -0.161781
  C256     1.0000 0.22070  0.20250  0.01630  Biso   1.000  C  -0.161782
  Co1      1.0000 0.73651  0.59176  0.46045  Biso   1.000  Co  0.862254
  Co2      1.0000 0.26349  0.59176  0.03955  Biso   1.000  Co  0.862253
  Co3      1.0000 0.23651  0.09176  0.46045  Biso   1.000  Co  0.862262
  Co4      1.0000 0.76349  0.09176  0.03955  Biso   1.000  Co  0.862258
  Co5      1.0000 0.26349  0.40824  0.53955  Biso   1.000  Co  0.862258
  Co6      1.0000 0.73651  0.40824  0.96045  Biso   1.000  Co  0.862257
  Co7      1.0000 0.76349  0.90824  0.53955  Biso   1.000  Co  0.862250
  Co8      1.0000 0.23651  0.90824  0.96045  Biso   1.000  Co  0.862252
  Co9      1.0000 0.75000  0.75000  0.50000  Biso   1.000  Co  1.074433
  Co10     1.0000 0.25000  0.75000  0.00000  Biso   1.000  Co  1.074437
  Co11     1.0000 0.25000  0.25000  0.50000  Biso   1.000  Co  1.074433
  Co12     1.0000 0.75000  0.25000  0.00000  Biso   1.000  Co  1.074433
  H1       1.0000 0.45770  0.88450  0.68340  Biso   1.000  H  0.094895
  H2       1.0000 0.54230  0.88450  0.81660  Biso   1.000  H  0.094892
  H3       1.0000 0.95770  0.38450  0.68340  Biso   1.000  H  0.094898
  H4       1.0000 0.04230  0.38450  0.81660  Biso   1.000  H  0.094900
  H5       1.0000 0.54230  0.11550  0.31660  Biso   1.000  H  0.094898
  H6       1.0000 0.45770  0.11550  0.18340  Biso   1.000  H  0.094901
  H7       1.0000 0.04230  0.61550  0.31660  Biso   1.000  H  0.094895
  H8       1.0000 0.95770  0.61550  0.18340  Biso   1.000  H  0.094892
  H9       1.0000 0.50290  0.87540  0.65720  Biso   1.000  H  0.090242
  H10      1.0000 0.49710  0.87540  0.84280  Biso   1.000  H  0.090243
  H11      1.0000 0.00290  0.37540  0.65720  Biso   1.000  H  0.090248
  H12      1.0000 0.99710  0.37540  0.84280  Biso   1.000  H  0.090247
  H13      1.0000 0.49710  0.12460  0.34280  Biso   1.000  H  0.090248
  H14      1.0000 0.50290  0.12460  0.15720  Biso   1.000  H  0.090247
  H15      1.0000 0.99710  0.62460  0.34280  Biso   1.000  H  0.090241
  H16      1.0000 0.00290  0.62460  0.15720  Biso   1.000  H  0.090244
  H17      1.0000 0.46910  0.71600  0.54200  Biso   1.000  H  0.097248
  H18      1.0000 0.53090  0.71600  0.95800  Biso   1.000  H  0.097247
  H19      1.0000 0.96910  0.21600  0.54200  Biso   1.000  H  0.097252
  H20      1.0000 0.03090  0.21600  0.95800  Biso   1.000  H  0.097250
  H21      1.0000 0.53090  0.28400  0.45800  Biso   1.000  H  0.097251
  H22      1.0000 0.46910  0.28400  0.04200  Biso   1.000  H  0.097250
  H23      1.0000 0.03090  0.78400  0.45800  Biso   1.000  H  0.097248
  H24      1.0000 0.96910  0.78400  0.04200  Biso   1.000  H  0.097247
  H25      1.0000 0.50070  0.72460  0.64010  Biso   1.000  H  0.089738
  H26      1.0000 0.49930  0.72460  0.85990  Biso   1.000  H  0.089737
  H27      1.0000 0.00070  0.22460  0.64010  Biso   1.000  H  0.089742
  H28      1.0000 0.99930  0.22460  0.85990  Biso   1.000  H  0.089740
  H29      1.0000 0.49930  0.27540  0.35990  Biso   1.000  H  0.089741
  H30      1.0000 0.50070  0.27540  0.14010  Biso   1.000  H  0.089739
  H31      1.0000 0.99930  0.77540  0.35990  Biso   1.000  H  0.089737
  H32      1.0000 0.00070  0.77540  0.14010  Biso   1.000  H  0.089737
  H33      1.0000 0.45720  0.86730  0.50100  Biso   1.000  H  0.091166
  H34      1.0000 0.54280  0.86730  0.99900  Biso   1.000  H  0.091165
  H35      1.0000 0.95720  0.36730  0.50100  Biso   1.000  H  0.091169
  H36      1.0000 0.04280  0.36730  0.99900  Biso   1.000  H  0.091170
  H37      1.0000 0.54280  0.13270  0.49900  Biso   1.000  H  0.091169
  H38      1.0000 0.45720  0.13270  0.00100  Biso   1.000  H  0.091170
  H39      1.0000 0.04280  0.63270  0.49900  Biso   1.000  H  0.091165
  H40      1.0000 0.95720  0.63270  0.00100  Biso   1.000  H  0.091166
  H41      1.0000 0.41090  0.87700  0.52280  Biso   1.000  H  0.091922
  H42      1.0000 0.58910  0.87700  0.97720  Biso   1.000  H  0.091920
  H43      1.0000 0.91090  0.37700  0.52280  Biso   1.000  H  0.091924
  H44      1.0000 0.08910  0.37700  0.97720  Biso   1.000  H  0.091926
  H45      1.0000 0.58910  0.12300  0.47720  Biso   1.000  H  0.091924
  H46      1.0000 0.41090  0.12300  0.02280  Biso   1.000  H  0.091926
  H47      1.0000 0.08910  0.62300  0.47720  Biso   1.000  H  0.091922
  H48      1.0000 0.91090  0.62300  0.02280  Biso   1.000  H  0.091921
  H49      1.0000 0.42570  0.74580  0.68250  Biso   1.000  H  0.098583
  H50      1.0000 0.57430  0.74580  0.81750  Biso   1.000  H  0.098582
  H51      1.0000 0.92570  0.24580  0.68250  Biso   1.000  H  0.098584
  H52      1.0000 0.07430  0.24580  0.81750  Biso   1.000  H  0.098584
  H53      1.0000 0.57430  0.25420  0.31750  Biso   1.000  H  0.098584
  H54      1.0000 0.42570  0.25420  0.18250  Biso   1.000  H  0.098584
  H55      1.0000 0.07430  0.75420  0.31750  Biso   1.000  H  0.098583
  H56      1.0000 0.92570  0.75420  0.18250  Biso   1.000  H  0.098583
  H57      1.0000 0.39960  0.73230  0.58270  Biso   1.000  H  0.096194
  H58      1.0000 0.60040  0.73230  0.91730  Biso   1.000  H  0.096191
  H59      1.0000 0.89960  0.23230  0.58270  Biso   1.000  H  0.096195
  H60      1.0000 0.10040  0.23230  0.91730  Biso   1.000  H  0.096196
  H61      1.0000 0.60040  0.26770  0.41730  Biso   1.000  H  0.096195
  H62      1.0000 0.39960  0.26770  0.08270  Biso   1.000  H  0.096196
  H63      1.0000 0.10040  0.76770  0.41730  Biso   1.000  H  0.096194
  H64      1.0000 0.89960  0.76770  0.08270  Biso   1.000  H  0.096193
  H65      1.0000 0.57600  0.82830  0.48940  Biso   1.000  H  0.133066
  H66      1.0000 0.42400  0.82830  0.01060  Biso   1.000  H  0.133072
  H67      1.0000 0.07600  0.32830  0.48940  Biso   1.000  H  0.133077
  H68      1.0000 0.92400  0.32830  0.01060  Biso   1.000  H  0.133069
  H69      1.0000 0.42400  0.17170  0.51060  Biso   1.000  H  0.133077
  H70      1.0000 0.57600  0.17170  0.98940  Biso   1.000  H  0.133070
  H71      1.0000 0.92400  0.67170  0.51060  Biso   1.000  H  0.133065
  H72      1.0000 0.07600  0.67170  0.98940  Biso   1.000  H  0.133072
  H73      1.0000 0.63650  0.77710  0.45720  Biso   1.000  H  0.120421
  H74      1.0000 0.36350  0.77710  0.04280  Biso   1.000  H  0.120421
  H75      1.0000 0.13650  0.27710  0.45720  Biso   1.000  H  0.120423
  H76      1.0000 0.86350  0.27710  0.04280  Biso   1.000  H  0.120422
  H77      1.0000 0.36350  0.22290  0.54280  Biso   1.000  H  0.120423
  H78      1.0000 0.63650  0.22290  0.95720  Biso   1.000  H  0.120422
  H79      1.0000 0.86350  0.72290  0.54280  Biso   1.000  H  0.120421
  H80      1.0000 0.13650  0.72290  0.95720  Biso   1.000  H  0.120421
  H81      1.0000 0.60200  0.59880  0.53840  Biso   1.000  H  0.114985
  H82      1.0000 0.39800  0.59880  0.96160  Biso   1.000  H  0.114988
  H83      1.0000 0.10200  0.09880  0.53840  Biso   1.000  H  0.115001
  H84      1.0000 0.89800  0.09880  0.96160  Biso   1.000  H  0.114990
  H85      1.0000 0.39800  0.40120  0.46160  Biso   1.000  H  0.114999
  H86      1.0000 0.60200  0.40120  0.03840  Biso   1.000  H  0.114988
  H87      1.0000 0.89800  0.90120  0.46160  Biso   1.000  H  0.114981
  H88      1.0000 0.10200  0.90120  0.03840  Biso   1.000  H  0.114986
  H89      1.0000 0.54210  0.65180  0.57760  Biso   1.000  H  0.127328
  H90      1.0000 0.45790  0.65180  0.92240  Biso   1.000  H  0.127329
  H91      1.0000 0.04210  0.15180  0.57760  Biso   1.000  H  0.127338
  H92      1.0000 0.95790  0.15180  0.92240  Biso   1.000  H  0.127330
  H93      1.0000 0.45790  0.34820  0.42240  Biso   1.000  H  0.127336
  H94      1.0000 0.54210  0.34820  0.07760  Biso   1.000  H  0.127328
  H95      1.0000 0.95790  0.84820  0.42240  Biso   1.000  H  0.127326
  H96      1.0000 0.04210  0.84820  0.07760  Biso   1.000  H  0.127327
  H97      1.0000 0.36500  0.72530  0.32070  Biso   1.000  H  0.146009
  H98      1.0000 0.63500  0.72530  0.17930  Biso   1.000  H  0.146006
  H99      1.0000 0.86500  0.22530  0.32070  Biso   1.000  H  0.146009
  H100     1.0000 0.13500  0.22530  0.17930  Biso   1.000  H  0.146013
  H101     1.0000 0.63500  0.27470  0.67930  Biso   1.000  H  0.146008
  H102     1.0000 0.36500  0.27470  0.82070  Biso   1.000  H  0.146014
  H103     1.0000 0.13500  0.77470  0.67930  Biso   1.000  H  0.146010
  H104     1.0000 0.86500  0.77470  0.82070  Biso   1.000  H  0.146007
  H105     1.0000 0.31820  0.76250  0.18300  Biso   1.000  H  0.115531
  H106     1.0000 0.68180  0.76250  0.31700  Biso   1.000  H  0.115531
  H107     1.0000 0.81820  0.26250  0.18300  Biso   1.000  H  0.115532
  H108     1.0000 0.18180  0.26250  0.31700  Biso   1.000  H  0.115532
  H109     1.0000 0.68180  0.23750  0.81700  Biso   1.000  H  0.115532
  H110     1.0000 0.31820  0.23750  0.68300  Biso   1.000  H  0.115532
  H111     1.0000 0.18180  0.73750  0.81700  Biso   1.000  H  0.115532
  H112     1.0000 0.81820  0.73750  0.68300  Biso   1.000  H  0.115532
  H113     1.0000 0.33910  0.95710  0.25710  Biso   1.000  H  0.114236
  H114     1.0000 0.66090  0.95710  0.24290  Biso   1.000  H  0.114235
  H115     1.0000 0.83910  0.45710  0.25710  Biso   1.000  H  0.114239
  H116     1.0000 0.16090  0.45710  0.24290  Biso   1.000  H  0.114239
  H117     1.0000 0.66090  0.04290  0.74290  Biso   1.000  H  0.114239
  H118     1.0000 0.33910  0.04290  0.75710  Biso   1.000  H  0.114239
  H119     1.0000 0.16090  0.54290  0.74290  Biso   1.000  H  0.114236
  H120     1.0000 0.83910  0.54290  0.75710  Biso   1.000  H  0.114235
  H121     1.0000 0.39210  0.92370  0.39230  Biso   1.000  H  0.132585
  H122     1.0000 0.60790  0.92370  0.10770  Biso   1.000  H  0.132581
  H123     1.0000 0.89210  0.42370  0.39230  Biso   1.000  H  0.132585
  H124     1.0000 0.10790  0.42370  0.10770  Biso   1.000  H  0.132589
  H125     1.0000 0.60790  0.07630  0.60770  Biso   1.000  H  0.132584
  H126     1.0000 0.39210  0.07630  0.89230  Biso   1.000  H  0.132589
  H127     1.0000 0.10790  0.57630  0.60770  Biso   1.000  H  0.132584
  H128     1.0000 0.89210  0.57630  0.89230  Biso   1.000  H  0.132582
  H129     1.0000 0.32980  0.90900  0.64660  Biso   1.000  H  0.132629
  H130     1.0000 0.67020  0.90900  0.85340  Biso   1.000  H  0.132629
  H131     1.0000 0.82980  0.40900  0.64660  Biso   1.000  H  0.132631
  H132     1.0000 0.17020  0.40900  0.85340  Biso   1.000  H  0.132632
  H133     1.0000 0.67020  0.09100  0.35340  Biso   1.000  H  0.132631
  H134     1.0000 0.32980  0.09100  0.14660  Biso   1.000  H  0.132632
  H135     1.0000 0.17020  0.59100  0.35340  Biso   1.000  H  0.132629
  H136     1.0000 0.82980  0.59100  0.14660  Biso   1.000  H  0.132629
  H137     1.0000 0.28360  0.91010  0.73680  Biso   1.000  H  0.113804
  H138     1.0000 0.71640  0.91010  0.76320  Biso   1.000  H  0.113805
  H139     1.0000 0.78360  0.41010  0.73680  Biso   1.000  H  0.113807
  H140     1.0000 0.21640  0.41010  0.76320  Biso   1.000  H  0.113807
  H141     1.0000 0.71640  0.08990  0.26320  Biso   1.000  H  0.113807
  H142     1.0000 0.28360  0.08990  0.23680  Biso   1.000  H  0.113807
  H143     1.0000 0.21640  0.58990  0.26320  Biso   1.000  H  0.113804
  H144     1.0000 0.78360  0.58990  0.23680  Biso   1.000  H  0.113805
  H145     1.0000 0.32110  0.72020  0.81160  Biso   1.000  H  0.112209
  H146     1.0000 0.67890  0.72020  0.68840  Biso   1.000  H  0.112210
  H147     1.0000 0.82110  0.22020  0.81160  Biso   1.000  H  0.112211
  H148     1.0000 0.17890  0.22020  0.68840  Biso   1.000  H  0.112210
  H149     1.0000 0.67890  0.27980  0.18840  Biso   1.000  H  0.112211
  H150     1.0000 0.32110  0.27980  0.31160  Biso   1.000  H  0.112210
  H151     1.0000 0.17890  0.77980  0.18840  Biso   1.000  H  0.112209
  H152     1.0000 0.82110  0.77980  0.31160  Biso   1.000  H  0.112210
  H153     1.0000 0.36540  0.71510  0.71690  Biso   1.000  H  0.127363
  H154     1.0000 0.63460  0.71510  0.78310  Biso   1.000  H  0.127360
  H155     1.0000 0.86540  0.21510  0.71690  Biso   1.000  H  0.127362
  H156     1.0000 0.13460  0.21510  0.78310  Biso   1.000  H  0.127364
  H157     1.0000 0.63460  0.28490  0.28310  Biso   1.000  H  0.127362
  H158     1.0000 0.36540  0.28490  0.21690  Biso   1.000  H  0.127364
  H159     1.0000 0.13460  0.78490  0.28310  Biso   1.000  H  0.127363
  H160     1.0000 0.86540  0.78490  0.21690  Biso   1.000  H  0.127361
  H161     1.0000 0.75140  0.49230  0.30370  Biso   1.000  H  0.125802
  H162     1.0000 0.24860  0.49230  0.19630  Biso   1.000  H  0.125801
  H163     1.0000 0.25140  0.99230  0.30370  Biso   1.000  H  0.125801
  H164     1.0000 0.74860  0.99230  0.19630  Biso   1.000  H  0.125801
  H165     1.0000 0.24860  0.50770  0.69630  Biso   1.000  H  0.125801
  H166     1.0000 0.75140  0.50770  0.80370  Biso   1.000  H  0.125801
  H167     1.0000 0.74860  0.00770  0.69630  Biso   1.000  H  0.125801
  H168     1.0000 0.25140  0.00770  0.80370  Biso   1.000  H  0.125800
  H169     1.0000 0.75540  0.37150  0.31050  Biso   1.000  H  0.137543
  H170     1.0000 0.24460  0.37150  0.18950  Biso   1.000  H  0.137542
  H171     1.0000 0.25540  0.87150  0.31050  Biso   1.000  H  0.137544
  H172     1.0000 0.74460  0.87150  0.18950  Biso   1.000  H  0.137545
  H173     1.0000 0.24460  0.62850  0.68950  Biso   1.000  H  0.137544
  H174     1.0000 0.75540  0.62850  0.81050  Biso   1.000  H  0.137545
  H175     1.0000 0.74460  0.12850  0.68950  Biso   1.000  H  0.137543
  H176     1.0000 0.25540  0.12850  0.81050  Biso   1.000  H  0.137541
  H177     1.0000 0.73850  0.43960  0.53090  Biso   1.000  H  0.115654
  H178     1.0000 0.26150  0.43960  0.96910  Biso   1.000  H  0.115653
  H179     1.0000 0.23850  0.93960  0.53090  Biso   1.000  H  0.115655
  H180     1.0000 0.76150  0.93960  0.96910  Biso   1.000  H  0.115656
  H181     1.0000 0.26150  0.56040  0.46910  Biso   1.000  H  0.115654
  H182     1.0000 0.73850  0.56040  0.03090  Biso   1.000  H  0.115655
  H183     1.0000 0.76150  0.06040  0.46910  Biso   1.000  H  0.115653
  H184     1.0000 0.23850  0.06040  0.03090  Biso   1.000  H  0.115652
  H185     1.0000 0.79580  0.27730  0.41350  Biso   1.000  H  0.122762
  H186     1.0000 0.20420  0.27730  0.08650  Biso   1.000  H  0.122761
  H187     1.0000 0.29580  0.77730  0.41350  Biso   1.000  H  0.122763
  H188     1.0000 0.70420  0.77730  0.08650  Biso   1.000  H  0.122763
  H189     1.0000 0.20420  0.72270  0.58650  Biso   1.000  H  0.122763
  H190     1.0000 0.79580  0.72270  0.91350  Biso   1.000  H  0.122763
  H191     1.0000 0.70420  0.22270  0.58650  Biso   1.000  H  0.122762
  H192     1.0000 0.29580  0.22270  0.91350  Biso   1.000  H  0.122761
  H193     1.0000 0.70000  0.32940  0.52570  Biso   1.000  H  0.123646
  H194     1.0000 0.30000  0.32940  0.97430  Biso   1.000  H  0.123646
  H195     1.0000 0.20000  0.82940  0.52570  Biso   1.000  H  0.123649
  H196     1.0000 0.80000  0.82940  0.97430  Biso   1.000  H  0.123648
  H197     1.0000 0.30000  0.67060  0.47430  Biso   1.000  H  0.123648
  H198     1.0000 0.70000  0.67060  0.02570  Biso   1.000  H  0.123647
  H199     1.0000 0.80000  0.17060  0.47430  Biso   1.000  H  0.123646
  H200     1.0000 0.20000  0.17060  0.02570  Biso   1.000  H  0.123646
  N1       1.0000 0.74330  0.49270  0.42750  Biso   1.000  N  -0.305370
  N2       1.0000 0.25670  0.49270  0.07250  Biso   1.000  N  -0.305371
  N3       1.0000 0.24330  0.99270  0.42750  Biso   1.000  N  -0.305375
  N4       1.0000 0.75670  0.99270  0.07250  Biso   1.000  N  -0.305373
  N5       1.0000 0.25670  0.50730  0.57250  Biso   1.000  N  -0.305375
  N6       1.0000 0.74330  0.50730  0.92750  Biso   1.000  N  -0.305373
  N7       1.0000 0.75670  0.00730  0.57250  Biso   1.000  N  -0.305370
  N8       1.0000 0.24330  0.00730  0.92750  Biso   1.000  N  -0.305371
  N9       1.0000 0.74750  0.38170  0.43440  Biso   1.000  N  0.025345
  N10      1.0000 0.25250  0.38170  0.06560  Biso   1.000  N  0.025344
  N11      1.0000 0.24750  0.88170  0.43440  Biso   1.000  N  0.025346
  N12      1.0000 0.75250  0.88170  0.06560  Biso   1.000  N  0.025346
  N13      1.0000 0.25250  0.61830  0.56560  Biso   1.000  N  0.025345
  N14      1.0000 0.74750  0.61830  0.93440  Biso   1.000  N  0.025347
  N15      1.0000 0.75250  0.11830  0.56560  Biso   1.000  N  0.025345
  N16      1.0000 0.24750  0.11830  0.93440  Biso   1.000  N  0.025344
  O1       1.0000 0.50000  0.81160  0.75000  Biso   1.000  O  -0.216538
  O2       1.0000 1.00000  0.31160  0.75000  Biso   1.000  O  -0.216536
  O3       1.0000 0.50000  0.18840  0.25000  Biso   1.000  O  -0.216536
  O4       1.0000 0.00000  0.68840  0.25000  Biso   1.000  O  -0.216538
  O5       1.0000 0.52074  0.78210  0.55840  Biso   1.000  O  -0.200105
  O6       1.0000 0.47926  0.78210  0.94160  Biso   1.000  O  -0.200107
  O7       1.0000 0.02074  0.28210  0.55840  Biso   1.000  O  -0.200105
  O8       1.0000 0.97926  0.28210  0.94160  Biso   1.000  O  -0.200105
  O9       1.0000 0.47926  0.21790  0.44160  Biso   1.000  O  -0.200105
  O10      1.0000 0.52074  0.21790  0.05840  Biso   1.000  O  -0.200105
  O11      1.0000 0.97926  0.71790  0.44160  Biso   1.000  O  -0.200106
  O12      1.0000 0.02074  0.71790  0.05840  Biso   1.000  O  -0.200107
  O13      1.0000 0.67298  0.58700  0.48550  Biso   1.000  O  -0.558735
  O14      1.0000 0.32702  0.58700  0.01450  Biso   1.000  O  -0.558737
  O15      1.0000 0.17298  0.08700  0.48550  Biso   1.000  O  -0.558733
  O16      1.0000 0.82702  0.08700  0.01450  Biso   1.000  O  -0.558730
  O17      1.0000 0.32702  0.41300  0.51450  Biso   1.000  O  -0.558734
  O18      1.0000 0.67298  0.41300  0.98550  Biso   1.000  O  -0.558731
  O19      1.0000 0.82702  0.91300  0.51450  Biso   1.000  O  -0.558735
  O20      1.0000 0.17298  0.91300  0.98550  Biso   1.000  O  -0.558738
  O21      1.0000 0.69202  0.68600  0.44700  Biso   1.000  O  -0.583740
  O22      1.0000 0.30798  0.68600  0.05300  Biso   1.000  O  -0.583741
  O23      1.0000 0.19202  0.18600  0.44700  Biso   1.000  O  -0.583742
  O24      1.0000 0.80798  0.18600  0.05300  Biso   1.000  O  -0.583741
  O25      1.0000 0.30798  0.31400  0.55300  Biso   1.000  O  -0.583742
  O26      1.0000 0.69202  0.31400  0.94700  Biso   1.000  O  -0.583741
  O27      1.0000 0.80798  0.81400  0.55300  Biso   1.000  O  -0.583740
  O28      1.0000 0.19202  0.81400  0.94700  Biso   1.000  O  -0.583741
  O29      1.0000 0.41051  0.79790  0.44790  Biso   1.000  O  -0.203978
  O30      1.0000 0.58949  0.79790  0.05210  Biso   1.000  O  -0.203977
  O31      1.0000 0.91051  0.29790  0.44790  Biso   1.000  O  -0.203976
  O32      1.0000 0.08949  0.29790  0.05210  Biso   1.000  O  -0.203976
  O33      1.0000 0.58949  0.20210  0.55210  Biso   1.000  O  -0.203976
  O34      1.0000 0.41051  0.20210  0.94790  Biso   1.000  O  -0.203976
  O35      1.0000 0.08949  0.70210  0.55210  Biso   1.000  O  -0.203978
  O36      1.0000 0.91051  0.70210  0.94790  Biso   1.000  O  -0.203976
  O37      1.0000 0.27430  0.94200  0.10780  Biso   1.000  O  -0.520032
  O38      1.0000 0.72570  0.94200  0.39220  Biso   1.000  O  -0.520029
  O39      1.0000 0.77430  0.44200  0.10780  Biso   1.000  O  -0.520025
  O40      1.0000 0.22570  0.44200  0.39220  Biso   1.000  O  -0.520028
  O41      1.0000 0.72570  0.05800  0.89220  Biso   1.000  O  -0.520025
  O42      1.0000 0.27430  0.05800  0.60780  Biso   1.000  O  -0.520028
  O43      1.0000 0.22570  0.55800  0.89220  Biso   1.000  O  -0.520031
  O44      1.0000 0.77430  0.55800  0.60780  Biso   1.000  O  -0.520029
  O45      1.0000 0.28218  0.84480  0.05350  Biso   1.000  O  -0.621285
  O46      1.0000 0.71782  0.84480  0.44650  Biso   1.000  O  -0.621284
  O47      1.0000 0.78218  0.34480  0.05350  Biso   1.000  O  -0.621285
  O48      1.0000 0.21782  0.34480  0.44650  Biso   1.000  O  -0.621288
  O49      1.0000 0.71782  0.15520  0.94650  Biso   1.000  O  -0.621286
  O50      1.0000 0.28218  0.15520  0.55350  Biso   1.000  O  -0.621288
  O51      1.0000 0.21782  0.65520  0.94650  Biso   1.000  O  -0.621285
  O52      1.0000 0.78218  0.65520  0.55350  Biso   1.000  O  -0.621284
  O53      1.0000 0.38082  0.81990  0.62400  Biso   1.000  O  -0.201231
  O54      1.0000 0.61918  0.81990  0.87600  Biso   1.000  O  -0.201230
  O55      1.0000 0.88082  0.31990  0.62400  Biso   1.000  O  -0.201229
  O56      1.0000 0.11918  0.31990  0.87600  Biso   1.000  O  -0.201229
  O57      1.0000 0.61918  0.18010  0.37600  Biso   1.000  O  -0.201228
  O58      1.0000 0.38082  0.18010  0.12400  Biso   1.000  O  -0.201229
  O59      1.0000 0.11918  0.68010  0.37600  Biso   1.000  O  -0.201231
  O60      1.0000 0.88082  0.68010  0.12400  Biso   1.000  O  -0.201230
  O61      1.0000 0.27061  0.76690  0.89330  Biso   1.000  O  -0.569780
  O62      1.0000 0.72939  0.76690  0.60670  Biso   1.000  O  -0.569779
  O63      1.0000 0.77061  0.26690  0.89330  Biso   1.000  O  -0.569779
  O64      1.0000 0.22939  0.26690  0.60670  Biso   1.000  O  -0.569781
  O65      1.0000 0.72939  0.23310  0.10670  Biso   1.000  O  -0.569779
  O66      1.0000 0.27061  0.23310  0.39330  Biso   1.000  O  -0.569780
  O67      1.0000 0.22939  0.73310  0.10670  Biso   1.000  O  -0.569780
  O68      1.0000 0.77061  0.73310  0.39330  Biso   1.000  O  -0.569778
  O69      1.0000 0.25593  0.87670  0.85970  Biso   1.000  O  -0.566303
  O70      1.0000 0.74407  0.87670  0.64030  Biso   1.000  O  -0.566300
  O71      1.0000 0.75593  0.37670  0.85970  Biso   1.000  O  -0.566300
  O72      1.0000 0.24407  0.37670  0.64030  Biso   1.000  O  -0.566303
  O73      1.0000 0.74407  0.12330  0.14030  Biso   1.000  O  -0.566300
  O74      1.0000 0.25593  0.12330  0.35970  Biso   1.000  O  -0.566303
  O75      1.0000 0.24407  0.62330  0.14030  Biso   1.000  O  -0.566303
  O76      1.0000 0.75593  0.62330  0.35970  Biso   1.000  O  -0.566301
