data_image0
_cell_length_a       32.0319
_cell_length_b       32.0319
_cell_length_c       32.0319
_cell_angle_alpha    60
_cell_angle_beta     60
_cell_angle_gamma    60

_symmetry_space_group_name_H-M    "P 1"
_symmetry_int_tables_number       1

loop_
  _symmetry_equiv_pos_as_xyz
  'x, y, z'

loop_
  _atom_site_label
  _atom_site_occupancy
  _atom_site_fract_x
  _atom_site_fract_y
  _atom_site_fract_z
  _atom_site_thermal_displace_type
  _atom_site_B_iso_or_equiv
  _atom_site_type_symbol
  _atom_site_charge
  C1       1.0000 0.62850  0.96370  0.16510  Biso   1.000  C  0.599372
  C2       1.0000 0.63520  0.00796  0.11506  Biso   1.000  C  -0.029130
  C3       1.0000 0.60094  0.05750  0.11062  Biso   1.000  C  -0.094891
  C4       1.0000 0.60694  0.09604  0.06330  Biso   1.000  C  -0.186666
  C5       1.0000 0.64722  0.08502  0.02044  Biso   1.000  C  0.264056
  C6       1.0000 0.68148  0.03548  0.02488  Biso   1.000  C  -0.189647
  C7       1.0000 0.67543  0.99697  0.07217  Biso   1.000  C  -0.089438
  C8       1.0000 0.67216  0.12304  0.92670  Biso   1.000  C  0.589325
  C9       1.0000 0.96370  0.62850  0.24270  Biso   1.000  C  0.599366
  C10      1.0000 0.00796  0.63520  0.24178  Biso   1.000  C  -0.029126
  C11      1.0000 0.05750  0.60094  0.23094  Biso   1.000  C  -0.094902
  C12      1.0000 0.09604  0.60694  0.23372  Biso   1.000  C  -0.186681
  C13      1.0000 0.08502  0.64722  0.24732  Biso   1.000  C  0.264063
  C14      1.0000 0.03548  0.68148  0.25816  Biso   1.000  C  -0.189640
  C15      1.0000 0.99697  0.67543  0.25543  Biso   1.000  C  -0.089434
  C16      1.0000 0.12304  0.67216  0.27810  Biso   1.000  C  0.589304
  C17      1.0000 0.16510  0.24270  0.62850  Biso   1.000  C  0.599371
  C18      1.0000 0.11506  0.24178  0.63520  Biso   1.000  C  -0.029121
  C19      1.0000 0.11062  0.23094  0.60094  Biso   1.000  C  -0.094915
  C20      1.0000 0.06330  0.23372  0.60694  Biso   1.000  C  -0.186666
  C21      1.0000 0.02044  0.24732  0.64722  Biso   1.000  C  0.264055
  C22      1.0000 0.02488  0.25816  0.68148  Biso   1.000  C  -0.189633
  C23      1.0000 0.07217  0.25543  0.67543  Biso   1.000  C  -0.089436
  C24      1.0000 0.92670  0.27810  0.67216  Biso   1.000  C  0.589314
  C25      1.0000 0.24270  0.16510  0.96370  Biso   1.000  C  0.599365
  C26      1.0000 0.24178  0.11506  0.00796  Biso   1.000  C  -0.029121
  C27      1.0000 0.23094  0.11062  0.05750  Biso   1.000  C  -0.094898
  C28      1.0000 0.23372  0.06330  0.09604  Biso   1.000  C  -0.186663
  C29      1.0000 0.24732  0.02044  0.08502  Biso   1.000  C  0.264067
  C30      1.0000 0.25816  0.02488  0.03548  Biso   1.000  C  -0.189650
  C31      1.0000 0.25543  0.07217  0.99697  Biso   1.000  C  -0.089432
  C32      1.0000 0.27810  0.92670  0.12304  Biso   1.000  C  0.589328
  C33      1.0000 0.62850  0.16510  0.24270  Biso   1.000  C  0.599371
  C34      1.0000 0.63520  0.11506  0.24178  Biso   1.000  C  -0.029121
  C35      1.0000 0.60094  0.11062  0.23094  Biso   1.000  C  -0.094915
  C36      1.0000 0.60694  0.06330  0.23372  Biso   1.000  C  -0.186665
  C37      1.0000 0.64722  0.02044  0.24732  Biso   1.000  C  0.264055
  C38      1.0000 0.68148  0.02488  0.25816  Biso   1.000  C  -0.189633
  C39      1.0000 0.67543  0.07217  0.25543  Biso   1.000  C  -0.089436
  C40      1.0000 0.67216  0.92670  0.27810  Biso   1.000  C  0.589314
  C41      1.0000 0.96370  0.24270  0.16510  Biso   1.000  C  0.599365
  C42      1.0000 0.00796  0.24178  0.11506  Biso   1.000  C  -0.029121
  C43      1.0000 0.05750  0.23094  0.11062  Biso   1.000  C  -0.094898
  C44      1.0000 0.09604  0.23372  0.06330  Biso   1.000  C  -0.186662
  C45      1.0000 0.08502  0.24732  0.02044  Biso   1.000  C  0.264066
  C46      1.0000 0.03548  0.25816  0.02488  Biso   1.000  C  -0.189651
  C47      1.0000 0.99697  0.25543  0.07217  Biso   1.000  C  -0.089432
  C48      1.0000 0.12304  0.27810  0.92670  Biso   1.000  C  0.589327
  C49      1.0000 0.16510  0.62850  0.96370  Biso   1.000  C  0.599372
  C50      1.0000 0.11506  0.63520  0.00796  Biso   1.000  C  -0.029130
  C51      1.0000 0.11062  0.60094  0.05750  Biso   1.000  C  -0.094891
  C52      1.0000 0.06330  0.60694  0.09604  Biso   1.000  C  -0.186666
  C53      1.0000 0.02044  0.64722  0.08502  Biso   1.000  C  0.264055
  C54      1.0000 0.02488  0.68148  0.03548  Biso   1.000  C  -0.189647
  C55      1.0000 0.07217  0.67543  0.99697  Biso   1.000  C  -0.089438
  C56      1.0000 0.92670  0.67216  0.12304  Biso   1.000  C  0.589325
  C57      1.0000 0.24270  0.96370  0.62850  Biso   1.000  C  0.599367
  C58      1.0000 0.24178  0.00796  0.63520  Biso   1.000  C  -0.029126
  C59      1.0000 0.23094  0.05750  0.60094  Biso   1.000  C  -0.094902
  C60      1.0000 0.23372  0.09604  0.60694  Biso   1.000  C  -0.186681
  C61      1.0000 0.24732  0.08502  0.64722  Biso   1.000  C  0.264062
  C62      1.0000 0.25816  0.03548  0.68148  Biso   1.000  C  -0.189640
  C63      1.0000 0.25543  0.99697  0.67543  Biso   1.000  C  -0.089434
  C64      1.0000 0.27810  0.12304  0.67216  Biso   1.000  C  0.589303
  C65      1.0000 0.62850  0.24270  0.96370  Biso   1.000  C  0.599367
  C66      1.0000 0.63520  0.24178  0.00796  Biso   1.000  C  -0.029126
  C67      1.0000 0.60094  0.23094  0.05750  Biso   1.000  C  -0.094901
  C68      1.0000 0.60694  0.23372  0.09604  Biso   1.000  C  -0.186681
  C69      1.0000 0.64722  0.24732  0.08502  Biso   1.000  C  0.264062
  C70      1.0000 0.68148  0.25816  0.03548  Biso   1.000  C  -0.189640
  C71      1.0000 0.67543  0.25543  0.99697  Biso   1.000  C  -0.089435
  C72      1.0000 0.67216  0.27810  0.12304  Biso   1.000  C  0.589303
  C73      1.0000 0.96370  0.16510  0.62850  Biso   1.000  C  0.599372
  C74      1.0000 0.00796  0.11506  0.63520  Biso   1.000  C  -0.029130
  C75      1.0000 0.05750  0.11062  0.60094  Biso   1.000  C  -0.094890
  C76      1.0000 0.09604  0.06330  0.60694  Biso   1.000  C  -0.186666
  C77      1.0000 0.08502  0.02044  0.64722  Biso   1.000  C  0.264055
  C78      1.0000 0.03548  0.02488  0.68148  Biso   1.000  C  -0.189647
  C79      1.0000 0.99697  0.07217  0.67543  Biso   1.000  C  -0.089439
  C80      1.0000 0.12304  0.92670  0.67216  Biso   1.000  C  0.589325
  C81      1.0000 0.16510  0.96370  0.24270  Biso   1.000  C  0.599365
  C82      1.0000 0.11506  0.00796  0.24178  Biso   1.000  C  -0.029121
  C83      1.0000 0.11062  0.05750  0.23094  Biso   1.000  C  -0.094898
  C84      1.0000 0.06330  0.09604  0.23372  Biso   1.000  C  -0.186662
  C85      1.0000 0.02044  0.08502  0.24732  Biso   1.000  C  0.264066
  C86      1.0000 0.02488  0.03548  0.25816  Biso   1.000  C  -0.189651
  C87      1.0000 0.07217  0.99697  0.25543  Biso   1.000  C  -0.089434
  C88      1.0000 0.92670  0.12304  0.27810  Biso   1.000  C  0.589327
  C89      1.0000 0.24270  0.62850  0.16510  Biso   1.000  C  0.599371
  C90      1.0000 0.24178  0.63520  0.11506  Biso   1.000  C  -0.029122
  C91      1.0000 0.23094  0.60094  0.11062  Biso   1.000  C  -0.094914
  C92      1.0000 0.23372  0.60694  0.06330  Biso   1.000  C  -0.186666
  C93      1.0000 0.24732  0.64722  0.02044  Biso   1.000  C  0.264055
  C94      1.0000 0.25816  0.68148  0.02488  Biso   1.000  C  -0.189633
  C95      1.0000 0.25543  0.67543  0.07217  Biso   1.000  C  -0.089436
  C96      1.0000 0.27810  0.67216  0.92670  Biso   1.000  C  0.589314
  C97      1.0000 0.53630  0.87150  0.33490  Biso   1.000  C  0.599371
  C98      1.0000 0.49204  0.86480  0.38494  Biso   1.000  C  -0.029130
  C99      1.0000 0.44250  0.89906  0.38938  Biso   1.000  C  -0.094891
  C100     1.0000 0.40396  0.89306  0.43670  Biso   1.000  C  -0.186667
  C101     1.0000 0.41498  0.85278  0.47956  Biso   1.000  C  0.264056
  C102     1.0000 0.46452  0.81852  0.47512  Biso   1.000  C  -0.189647
  C103     1.0000 0.50303  0.82457  0.42783  Biso   1.000  C  -0.089438
  C104     1.0000 0.37696  0.82784  0.57330  Biso   1.000  C  0.589324
  C105     1.0000 0.87150  0.53630  0.25730  Biso   1.000  C  0.599366
  C106     1.0000 0.86480  0.49204  0.25822  Biso   1.000  C  -0.029126
  C107     1.0000 0.89906  0.44250  0.26906  Biso   1.000  C  -0.094902
  C108     1.0000 0.89306  0.40396  0.26628  Biso   1.000  C  -0.186682
  C109     1.0000 0.85278  0.41498  0.25268  Biso   1.000  C  0.264063
  C110     1.0000 0.81852  0.46452  0.24184  Biso   1.000  C  -0.189640
  C111     1.0000 0.82457  0.50303  0.24457  Biso   1.000  C  -0.089434
  C112     1.0000 0.82784  0.37696  0.22190  Biso   1.000  C  0.589303
  C113     1.0000 0.25730  0.33490  0.87150  Biso   1.000  C  0.599370
  C114     1.0000 0.25822  0.38494  0.86480  Biso   1.000  C  -0.029121
  C115     1.0000 0.26906  0.38938  0.89906  Biso   1.000  C  -0.094915
  C116     1.0000 0.26628  0.43670  0.89306  Biso   1.000  C  -0.186666
  C117     1.0000 0.25268  0.47956  0.85278  Biso   1.000  C  0.264055
  C118     1.0000 0.24184  0.47512  0.81852  Biso   1.000  C  -0.189632
  C119     1.0000 0.24457  0.42783  0.82457  Biso   1.000  C  -0.089437
  C120     1.0000 0.22190  0.57330  0.82784  Biso   1.000  C  0.589314
  C121     1.0000 0.33490  0.25730  0.53630  Biso   1.000  C  0.599364
  C122     1.0000 0.38494  0.25822  0.49204  Biso   1.000  C  -0.029121
  C123     1.0000 0.38938  0.26906  0.44250  Biso   1.000  C  -0.094898
  C124     1.0000 0.43670  0.26628  0.40396  Biso   1.000  C  -0.186663
  C125     1.0000 0.47956  0.25268  0.41498  Biso   1.000  C  0.264066
  C126     1.0000 0.47512  0.24184  0.46452  Biso   1.000  C  -0.189650
  C127     1.0000 0.42783  0.24457  0.50303  Biso   1.000  C  -0.089433
  C128     1.0000 0.57330  0.22190  0.37696  Biso   1.000  C  0.589326
  C129     1.0000 0.33490  0.87150  0.25730  Biso   1.000  C  0.599370
  C130     1.0000 0.38494  0.86480  0.25822  Biso   1.000  C  -0.029121
  C131     1.0000 0.38938  0.89906  0.26906  Biso   1.000  C  -0.094915
  C132     1.0000 0.43670  0.89306  0.26628  Biso   1.000  C  -0.186666
  C133     1.0000 0.47956  0.85278  0.25268  Biso   1.000  C  0.264055
  C134     1.0000 0.47512  0.81852  0.24184  Biso   1.000  C  -0.189633
  C135     1.0000 0.42783  0.82457  0.24457  Biso   1.000  C  -0.089437
  C136     1.0000 0.57330  0.82784  0.22190  Biso   1.000  C  0.589313
  C137     1.0000 0.25730  0.53630  0.33490  Biso   1.000  C  0.599365
  C138     1.0000 0.25822  0.49204  0.38494  Biso   1.000  C  -0.029121
  C139     1.0000 0.26906  0.44250  0.38938  Biso   1.000  C  -0.094898
  C140     1.0000 0.26628  0.40396  0.43670  Biso   1.000  C  -0.186663
  C141     1.0000 0.25268  0.41498  0.47956  Biso   1.000  C  0.264066
  C142     1.0000 0.24184  0.46452  0.47512  Biso   1.000  C  -0.189651
  C143     1.0000 0.24457  0.50303  0.42783  Biso   1.000  C  -0.089432
  C144     1.0000 0.22190  0.37696  0.57330  Biso   1.000  C  0.589326
  C145     1.0000 0.87150  0.33490  0.53630  Biso   1.000  C  0.599371
  C146     1.0000 0.86480  0.38494  0.49204  Biso   1.000  C  -0.029130
  C147     1.0000 0.89906  0.38938  0.44250  Biso   1.000  C  -0.094891
  C148     1.0000 0.89306  0.43670  0.40396  Biso   1.000  C  -0.186666
  C149     1.0000 0.85278  0.47956  0.41498  Biso   1.000  C  0.264055
  C150     1.0000 0.81852  0.47512  0.46452  Biso   1.000  C  -0.189647
  C151     1.0000 0.82457  0.42783  0.50303  Biso   1.000  C  -0.089438
  C152     1.0000 0.82784  0.57330  0.37696  Biso   1.000  C  0.589324
  C153     1.0000 0.53630  0.25730  0.87150  Biso   1.000  C  0.599366
  C154     1.0000 0.49204  0.25822  0.86480  Biso   1.000  C  -0.029126
  C155     1.0000 0.44250  0.26906  0.89906  Biso   1.000  C  -0.094902
  C156     1.0000 0.40396  0.26628  0.89306  Biso   1.000  C  -0.186681
  C157     1.0000 0.41498  0.25268  0.85278  Biso   1.000  C  0.264062
  C158     1.0000 0.46452  0.24184  0.81852  Biso   1.000  C  -0.189640
  C159     1.0000 0.50303  0.24457  0.82457  Biso   1.000  C  -0.089434
  C160     1.0000 0.37696  0.22190  0.82784  Biso   1.000  C  0.589303
  C161     1.0000 0.25730  0.87150  0.53630  Biso   1.000  C  0.599365
  C162     1.0000 0.25822  0.86480  0.49204  Biso   1.000  C  -0.029126
  C163     1.0000 0.26906  0.89906  0.44250  Biso   1.000  C  -0.094901
  C164     1.0000 0.26628  0.89306  0.40396  Biso   1.000  C  -0.186682
  C165     1.0000 0.25268  0.85278  0.41498  Biso   1.000  C  0.264062
  C166     1.0000 0.24184  0.81852  0.46452  Biso   1.000  C  -0.189640
  C167     1.0000 0.24457  0.82457  0.50303  Biso   1.000  C  -0.089435
  C168     1.0000 0.22190  0.82784  0.37696  Biso   1.000  C  0.589303
  C169     1.0000 0.33490  0.53630  0.87150  Biso   1.000  C  0.599371
  C170     1.0000 0.38494  0.49204  0.86480  Biso   1.000  C  -0.029130
  C171     1.0000 0.38938  0.44250  0.89906  Biso   1.000  C  -0.094890
  C172     1.0000 0.43670  0.40396  0.89306  Biso   1.000  C  -0.186666
  C173     1.0000 0.47956  0.41498  0.85278  Biso   1.000  C  0.264055
  C174     1.0000 0.47512  0.46452  0.81852  Biso   1.000  C  -0.189647
  C175     1.0000 0.42783  0.50303  0.82457  Biso   1.000  C  -0.089439
  C176     1.0000 0.57330  0.37696  0.82784  Biso   1.000  C  0.589324
  C177     1.0000 0.53630  0.33490  0.25730  Biso   1.000  C  0.599365
  C178     1.0000 0.49204  0.38494  0.25822  Biso   1.000  C  -0.029122
  C179     1.0000 0.44250  0.38938  0.26906  Biso   1.000  C  -0.094897
  C180     1.0000 0.40396  0.43670  0.26628  Biso   1.000  C  -0.186663
  C181     1.0000 0.41498  0.47956  0.25268  Biso   1.000  C  0.264066
  C182     1.0000 0.46452  0.47512  0.24184  Biso   1.000  C  -0.189651
  C183     1.0000 0.50303  0.42783  0.24457  Biso   1.000  C  -0.089434
  C184     1.0000 0.37696  0.57330  0.22190  Biso   1.000  C  0.589326
  C185     1.0000 0.87150  0.25730  0.33490  Biso   1.000  C  0.599370
  C186     1.0000 0.86480  0.25822  0.38494  Biso   1.000  C  -0.029122
  C187     1.0000 0.89906  0.26906  0.38938  Biso   1.000  C  -0.094914
  C188     1.0000 0.89306  0.26628  0.43670  Biso   1.000  C  -0.186666
  C189     1.0000 0.85278  0.25268  0.47956  Biso   1.000  C  0.264055
  C190     1.0000 0.81852  0.24184  0.47512  Biso   1.000  C  -0.189633
  C191     1.0000 0.82457  0.24457  0.42783  Biso   1.000  C  -0.089437
  C192     1.0000 0.82784  0.22190  0.57330  Biso   1.000  C  0.589313
  C193     1.0000 0.37150  0.03630  0.83490  Biso   1.000  C  0.599372
  C194     1.0000 0.36480  0.99204  0.88494  Biso   1.000  C  -0.029130
  C195     1.0000 0.39906  0.94250  0.88938  Biso   1.000  C  -0.094891
  C196     1.0000 0.39306  0.90396  0.93670  Biso   1.000  C  -0.186666
  C197     1.0000 0.35278  0.91498  0.97956  Biso   1.000  C  0.264055
  C198     1.0000 0.31852  0.96452  0.97512  Biso   1.000  C  -0.189645
  C199     1.0000 0.32457  0.00303  0.92783  Biso   1.000  C  -0.089438
  C200     1.0000 0.32784  0.87696  0.07330  Biso   1.000  C  0.589322
  C201     1.0000 0.03630  0.37150  0.75730  Biso   1.000  C  0.599366
  C202     1.0000 0.99204  0.36480  0.75822  Biso   1.000  C  -0.029126
  C203     1.0000 0.94250  0.39906  0.76906  Biso   1.000  C  -0.094902
  C204     1.0000 0.90396  0.39306  0.76628  Biso   1.000  C  -0.186682
  C205     1.0000 0.91498  0.35278  0.75268  Biso   1.000  C  0.264063
  C206     1.0000 0.96452  0.31852  0.74184  Biso   1.000  C  -0.189641
  C207     1.0000 0.00303  0.32457  0.74457  Biso   1.000  C  -0.089434
  C208     1.0000 0.87696  0.32784  0.72190  Biso   1.000  C  0.589301
  C209     1.0000 0.83490  0.75730  0.37150  Biso   1.000  C  0.599371
  C210     1.0000 0.88494  0.75822  0.36480  Biso   1.000  C  -0.029121
  C211     1.0000 0.88938  0.76906  0.39906  Biso   1.000  C  -0.094915
  C212     1.0000 0.93670  0.76628  0.39306  Biso   1.000  C  -0.186666
  C213     1.0000 0.97956  0.75268  0.35278  Biso   1.000  C  0.264055
  C214     1.0000 0.97512  0.74184  0.31852  Biso   1.000  C  -0.189633
  C215     1.0000 0.92783  0.74457  0.32457  Biso   1.000  C  -0.089437
  C216     1.0000 0.07330  0.72190  0.32784  Biso   1.000  C  0.589312
  C217     1.0000 0.75730  0.83490  0.03630  Biso   1.000  C  0.599365
  C218     1.0000 0.75822  0.88494  0.99204  Biso   1.000  C  -0.029122
  C219     1.0000 0.76906  0.88938  0.94250  Biso   1.000  C  -0.094898
  C220     1.0000 0.76628  0.93670  0.90396  Biso   1.000  C  -0.186663
  C221     1.0000 0.75268  0.97956  0.91498  Biso   1.000  C  0.264066
  C222     1.0000 0.74184  0.97512  0.96452  Biso   1.000  C  -0.189649
  C223     1.0000 0.74457  0.92783  0.00303  Biso   1.000  C  -0.089432
  C224     1.0000 0.72190  0.07330  0.87696  Biso   1.000  C  0.589325
  C225     1.0000 0.37150  0.83490  0.75730  Biso   1.000  C  0.599371
  C226     1.0000 0.36480  0.88494  0.75822  Biso   1.000  C  -0.029121
  C227     1.0000 0.39906  0.88938  0.76906  Biso   1.000  C  -0.094915
  C228     1.0000 0.39306  0.93670  0.76628  Biso   1.000  C  -0.186665
  C229     1.0000 0.35278  0.97956  0.75268  Biso   1.000  C  0.264054
  C230     1.0000 0.31852  0.97512  0.74184  Biso   1.000  C  -0.189633
  C231     1.0000 0.32457  0.92783  0.74457  Biso   1.000  C  -0.089437
  C232     1.0000 0.32784  0.07330  0.72190  Biso   1.000  C  0.589311
  C233     1.0000 0.03630  0.75730  0.83490  Biso   1.000  C  0.599365
  C234     1.0000 0.99204  0.75822  0.88494  Biso   1.000  C  -0.029122
  C235     1.0000 0.94250  0.76906  0.88938  Biso   1.000  C  -0.094898
  C236     1.0000 0.90396  0.76628  0.93670  Biso   1.000  C  -0.186662
  C237     1.0000 0.91498  0.75268  0.97956  Biso   1.000  C  0.264065
  C238     1.0000 0.96452  0.74184  0.97512  Biso   1.000  C  -0.189650
  C239     1.0000 0.00303  0.74457  0.92783  Biso   1.000  C  -0.089432
  C240     1.0000 0.87696  0.72190  0.07330  Biso   1.000  C  0.589324
  C241     1.0000 0.83490  0.37150  0.03630  Biso   1.000  C  0.599372
  C242     1.0000 0.88494  0.36480  0.99204  Biso   1.000  C  -0.029130
  C243     1.0000 0.88938  0.39906  0.94250  Biso   1.000  C  -0.094891
  C244     1.0000 0.93670  0.39306  0.90396  Biso   1.000  C  -0.186666
  C245     1.0000 0.97956  0.35278  0.91498  Biso   1.000  C  0.264055
  C246     1.0000 0.97512  0.31852  0.96452  Biso   1.000  C  -0.189646
  C247     1.0000 0.92783  0.32457  0.00303  Biso   1.000  C  -0.089438
  C248     1.0000 0.07330  0.32784  0.87696  Biso   1.000  C  0.589322
  C249     1.0000 0.75730  0.03630  0.37150  Biso   1.000  C  0.599366
  C250     1.0000 0.75822  0.99204  0.36480  Biso   1.000  C  -0.029126
  C251     1.0000 0.76906  0.94250  0.39906  Biso   1.000  C  -0.094902
  C252     1.0000 0.76628  0.90396  0.39306  Biso   1.000  C  -0.186681
  C253     1.0000 0.75268  0.91498  0.35278  Biso   1.000  C  0.264062
  C254     1.0000 0.74184  0.96452  0.31852  Biso   1.000  C  -0.189641
  C255     1.0000 0.74457  0.00303  0.32457  Biso   1.000  C  -0.089434
  C256     1.0000 0.72190  0.87696  0.32784  Biso   1.000  C  0.589301
  C257     1.0000 0.37150  0.75730  0.03630  Biso   1.000  C  0.599367
  C258     1.0000 0.36480  0.75822  0.99204  Biso   1.000  C  -0.029126
  C259     1.0000 0.39906  0.76906  0.94250  Biso   1.000  C  -0.094901
  C260     1.0000 0.39306  0.76628  0.90396  Biso   1.000  C  -0.186681
  C261     1.0000 0.35278  0.75268  0.91498  Biso   1.000  C  0.264062
  C262     1.0000 0.31852  0.74184  0.96452  Biso   1.000  C  -0.189641
  C263     1.0000 0.32457  0.74457  0.00303  Biso   1.000  C  -0.089435
  C264     1.0000 0.32784  0.72190  0.87696  Biso   1.000  C  0.589301
  C265     1.0000 0.03630  0.83490  0.37150  Biso   1.000  C  0.599372
  C266     1.0000 0.99204  0.88494  0.36480  Biso   1.000  C  -0.029130
  C267     1.0000 0.94250  0.88938  0.39906  Biso   1.000  C  -0.094890
  C268     1.0000 0.90396  0.93670  0.39306  Biso   1.000  C  -0.186666
  C269     1.0000 0.91498  0.97956  0.35278  Biso   1.000  C  0.264055
  C270     1.0000 0.96452  0.97512  0.31852  Biso   1.000  C  -0.189646
  C271     1.0000 0.00303  0.92783  0.32457  Biso   1.000  C  -0.089439
  C272     1.0000 0.87696  0.07330  0.32784  Biso   1.000  C  0.589322
  C273     1.0000 0.83490  0.03630  0.75730  Biso   1.000  C  0.599365
  C274     1.0000 0.88494  0.99204  0.75822  Biso   1.000  C  -0.029122
  C275     1.0000 0.88938  0.94250  0.76906  Biso   1.000  C  -0.094897
  C276     1.0000 0.93670  0.90396  0.76628  Biso   1.000  C  -0.186662
  C277     1.0000 0.97956  0.91498  0.75268  Biso   1.000  C  0.264065
  C278     1.0000 0.97512  0.96452  0.74184  Biso   1.000  C  -0.189649
  C279     1.0000 0.92783  0.00303  0.74457  Biso   1.000  C  -0.089434
  C280     1.0000 0.07330  0.87696  0.72190  Biso   1.000  C  0.589324
  C281     1.0000 0.75730  0.37150  0.83490  Biso   1.000  C  0.599371
  C282     1.0000 0.75822  0.36480  0.88494  Biso   1.000  C  -0.029122
  C283     1.0000 0.76906  0.39906  0.88938  Biso   1.000  C  -0.094914
  C284     1.0000 0.76628  0.39306  0.93670  Biso   1.000  C  -0.186666
  C285     1.0000 0.75268  0.35278  0.97956  Biso   1.000  C  0.264054
  C286     1.0000 0.74184  0.31852  0.97512  Biso   1.000  C  -0.189633
  C287     1.0000 0.74457  0.32457  0.92783  Biso   1.000  C  -0.089437
  C288     1.0000 0.72190  0.32784  0.07330  Biso   1.000  C  0.589311
  C289     1.0000 0.46370  0.12850  0.66510  Biso   1.000  C  0.599371
  C290     1.0000 0.50796  0.13520  0.61506  Biso   1.000  C  -0.029130
  C291     1.0000 0.55750  0.10094  0.61062  Biso   1.000  C  -0.094891
  C292     1.0000 0.59604  0.10694  0.56330  Biso   1.000  C  -0.186667
  C293     1.0000 0.58502  0.14722  0.52044  Biso   1.000  C  0.264055
  C294     1.0000 0.53548  0.18148  0.52488  Biso   1.000  C  -0.189645
  C295     1.0000 0.49697  0.17543  0.57217  Biso   1.000  C  -0.089438
  C296     1.0000 0.62304  0.17216  0.42670  Biso   1.000  C  0.589321
  C297     1.0000 0.12850  0.46370  0.74270  Biso   1.000  C  0.599365
  C298     1.0000 0.13520  0.50796  0.74178  Biso   1.000  C  -0.029126
  C299     1.0000 0.10094  0.55750  0.73094  Biso   1.000  C  -0.094902
  C300     1.0000 0.10694  0.59604  0.73372  Biso   1.000  C  -0.186682
  C301     1.0000 0.14722  0.58502  0.74732  Biso   1.000  C  0.264063
  C302     1.0000 0.18148  0.53548  0.75816  Biso   1.000  C  -0.189641
  C303     1.0000 0.17543  0.49697  0.75543  Biso   1.000  C  -0.089434
  C304     1.0000 0.17216  0.62304  0.77810  Biso   1.000  C  0.589301
  C305     1.0000 0.74270  0.66510  0.12850  Biso   1.000  C  0.599370
  C306     1.0000 0.74178  0.61506  0.13520  Biso   1.000  C  -0.029121
  C307     1.0000 0.73094  0.61062  0.10094  Biso   1.000  C  -0.094915
  C308     1.0000 0.73372  0.56330  0.10694  Biso   1.000  C  -0.186666
  C309     1.0000 0.74732  0.52044  0.14722  Biso   1.000  C  0.264055
  C310     1.0000 0.75816  0.52488  0.18148  Biso   1.000  C  -0.189633
  C311     1.0000 0.75543  0.57217  0.17543  Biso   1.000  C  -0.089437
  C312     1.0000 0.77810  0.42670  0.17216  Biso   1.000  C  0.589311
  C313     1.0000 0.66510  0.74270  0.46370  Biso   1.000  C  0.599364
  C314     1.0000 0.61506  0.74178  0.50796  Biso   1.000  C  -0.029121
  C315     1.0000 0.61062  0.73094  0.55750  Biso   1.000  C  -0.094898
  C316     1.0000 0.56330  0.73372  0.59604  Biso   1.000  C  -0.186663
  C317     1.0000 0.52044  0.74732  0.58502  Biso   1.000  C  0.264066
  C318     1.0000 0.52488  0.75816  0.53548  Biso   1.000  C  -0.189649
  C319     1.0000 0.57217  0.75543  0.49697  Biso   1.000  C  -0.089432
  C320     1.0000 0.42670  0.77810  0.62304  Biso   1.000  C  0.589323
  C321     1.0000 0.66510  0.12850  0.74270  Biso   1.000  C  0.599370
  C322     1.0000 0.61506  0.13520  0.74178  Biso   1.000  C  -0.029122
  C323     1.0000 0.61062  0.10094  0.73094  Biso   1.000  C  -0.094915
  C324     1.0000 0.56330  0.10694  0.73372  Biso   1.000  C  -0.186666
  C325     1.0000 0.52044  0.14722  0.74732  Biso   1.000  C  0.264054
  C326     1.0000 0.52488  0.18148  0.75816  Biso   1.000  C  -0.189633
  C327     1.0000 0.57217  0.17543  0.75543  Biso   1.000  C  -0.089437
  C328     1.0000 0.42670  0.17216  0.77810  Biso   1.000  C  0.589311
  C329     1.0000 0.74270  0.46370  0.66510  Biso   1.000  C  0.599365
  C330     1.0000 0.74178  0.50796  0.61506  Biso   1.000  C  -0.029122
  C331     1.0000 0.73094  0.55750  0.61062  Biso   1.000  C  -0.094898
  C332     1.0000 0.73372  0.59604  0.56330  Biso   1.000  C  -0.186663
  C333     1.0000 0.74732  0.58502  0.52044  Biso   1.000  C  0.264065
  C334     1.0000 0.75816  0.53548  0.52488  Biso   1.000  C  -0.189650
  C335     1.0000 0.75543  0.49697  0.57217  Biso   1.000  C  -0.089432
  C336     1.0000 0.77810  0.62304  0.42670  Biso   1.000  C  0.589323
  C337     1.0000 0.12850  0.66510  0.46370  Biso   1.000  C  0.599371
  C338     1.0000 0.13520  0.61506  0.50796  Biso   1.000  C  -0.029130
  C339     1.0000 0.10094  0.61062  0.55750  Biso   1.000  C  -0.094891
  C340     1.0000 0.10694  0.56330  0.59604  Biso   1.000  C  -0.186666
  C341     1.0000 0.14722  0.52044  0.58502  Biso   1.000  C  0.264055
  C342     1.0000 0.18148  0.52488  0.53548  Biso   1.000  C  -0.189646
  C343     1.0000 0.17543  0.57217  0.49697  Biso   1.000  C  -0.089438
  C344     1.0000 0.17216  0.42670  0.62304  Biso   1.000  C  0.589321
  C345     1.0000 0.46370  0.74270  0.12850  Biso   1.000  C  0.599366
  C346     1.0000 0.50796  0.74178  0.13520  Biso   1.000  C  -0.029126
  C347     1.0000 0.55750  0.73094  0.10094  Biso   1.000  C  -0.094902
  C348     1.0000 0.59604  0.73372  0.10694  Biso   1.000  C  -0.186681
  C349     1.0000 0.58502  0.74732  0.14722  Biso   1.000  C  0.264062
  C350     1.0000 0.53548  0.75816  0.18148  Biso   1.000  C  -0.189641
  C351     1.0000 0.49697  0.75543  0.17543  Biso   1.000  C  -0.089434
  C352     1.0000 0.62304  0.77810  0.17216  Biso   1.000  C  0.589300
  C353     1.0000 0.74270  0.12850  0.46370  Biso   1.000  C  0.599366
  C354     1.0000 0.74178  0.13520  0.50796  Biso   1.000  C  -0.029126
  C355     1.0000 0.73094  0.10094  0.55750  Biso   1.000  C  -0.094901
  C356     1.0000 0.73372  0.10694  0.59604  Biso   1.000  C  -0.186682
  C357     1.0000 0.74732  0.14722  0.58502  Biso   1.000  C  0.264062
  C358     1.0000 0.75816  0.18148  0.53548  Biso   1.000  C  -0.189641
  C359     1.0000 0.75543  0.17543  0.49697  Biso   1.000  C  -0.089436
  C360     1.0000 0.77810  0.17216  0.62304  Biso   1.000  C  0.589300
  C361     1.0000 0.66510  0.46370  0.12850  Biso   1.000  C  0.599371
  C362     1.0000 0.61506  0.50796  0.13520  Biso   1.000  C  -0.029131
  C363     1.0000 0.61062  0.55750  0.10094  Biso   1.000  C  -0.094891
  C364     1.0000 0.56330  0.59604  0.10694  Biso   1.000  C  -0.186666
  C365     1.0000 0.52044  0.58502  0.14722  Biso   1.000  C  0.264055
  C366     1.0000 0.52488  0.53548  0.18148  Biso   1.000  C  -0.189646
  C367     1.0000 0.57217  0.49697  0.17543  Biso   1.000  C  -0.089439
  C368     1.0000 0.42670  0.62304  0.17216  Biso   1.000  C  0.589321
  C369     1.0000 0.46370  0.66510  0.74270  Biso   1.000  C  0.599364
  C370     1.0000 0.50796  0.61506  0.74178  Biso   1.000  C  -0.029122
  C371     1.0000 0.55750  0.61062  0.73094  Biso   1.000  C  -0.094897
  C372     1.0000 0.59604  0.56330  0.73372  Biso   1.000  C  -0.186663
  C373     1.0000 0.58502  0.52044  0.74732  Biso   1.000  C  0.264065
  C374     1.0000 0.53548  0.52488  0.75816  Biso   1.000  C  -0.189649
  C375     1.0000 0.49697  0.57217  0.75543  Biso   1.000  C  -0.089434
  C376     1.0000 0.62304  0.42670  0.77810  Biso   1.000  C  0.589323
  C377     1.0000 0.12850  0.74270  0.66510  Biso   1.000  C  0.599370
  C378     1.0000 0.13520  0.74178  0.61506  Biso   1.000  C  -0.029122
  C379     1.0000 0.10094  0.73094  0.61062  Biso   1.000  C  -0.094914
  C380     1.0000 0.10694  0.73372  0.56330  Biso   1.000  C  -0.186666
  C381     1.0000 0.14722  0.74732  0.52044  Biso   1.000  C  0.264054
  C382     1.0000 0.18148  0.75816  0.52488  Biso   1.000  C  -0.189633
  C383     1.0000 0.17543  0.75543  0.57217  Biso   1.000  C  -0.089437
  C384     1.0000 0.17216  0.77810  0.42670  Biso   1.000  C  0.589311
  C385     1.0000 0.69623  0.16143  0.83857  Biso   1.000  C  0.682606
  C386     1.0000 0.16143  0.69623  0.30377  Biso   1.000  C  0.682601
  C387     1.0000 0.83857  0.30377  0.69623  Biso   1.000  C  0.682601
  C388     1.0000 0.30377  0.83857  0.16143  Biso   1.000  C  0.682606
  C389     1.0000 0.69623  0.83857  0.30377  Biso   1.000  C  0.682601
  C390     1.0000 0.16143  0.30377  0.83857  Biso   1.000  C  0.682606
  C391     1.0000 0.83857  0.69623  0.16143  Biso   1.000  C  0.682606
  C392     1.0000 0.30377  0.16143  0.69623  Biso   1.000  C  0.682601
  C393     1.0000 0.69623  0.30377  0.16143  Biso   1.000  C  0.682601
  C394     1.0000 0.16143  0.83857  0.69623  Biso   1.000  C  0.682606
  C395     1.0000 0.83857  0.16143  0.30377  Biso   1.000  C  0.682606
  C396     1.0000 0.30377  0.69623  0.83857  Biso   1.000  C  0.682601
  C397     1.0000 0.33857  0.80377  0.66143  Biso   1.000  C  0.682606
  C398     1.0000 0.80377  0.33857  0.19623  Biso   1.000  C  0.682601
  C399     1.0000 0.19623  0.66143  0.80377  Biso   1.000  C  0.682601
  C400     1.0000 0.66143  0.19623  0.33857  Biso   1.000  C  0.682606
  C401     1.0000 0.66143  0.80377  0.19623  Biso   1.000  C  0.682601
  C402     1.0000 0.19623  0.33857  0.66143  Biso   1.000  C  0.682606
  C403     1.0000 0.80377  0.66143  0.33857  Biso   1.000  C  0.682606
  C404     1.0000 0.33857  0.19623  0.80377  Biso   1.000  C  0.682601
  C405     1.0000 0.19623  0.80377  0.33857  Biso   1.000  C  0.682601
  C406     1.0000 0.66143  0.33857  0.80377  Biso   1.000  C  0.682606
  C407     1.0000 0.33857  0.66143  0.19623  Biso   1.000  C  0.682606
  C408     1.0000 0.80377  0.19623  0.66143  Biso   1.000  C  0.682601
  Cd1      1.0000 0.62364  0.87636  0.25000  Biso   1.000  Cd  0.908973
  Cd2      1.0000 0.87636  0.62364  0.25000  Biso   1.000  Cd  0.908979
  Cd3      1.0000 0.25000  0.25000  0.62364  Biso   1.000  Cd  0.908969
  Cd4      1.0000 0.25000  0.25000  0.87636  Biso   1.000  Cd  0.908969
  Cd5      1.0000 0.62364  0.25000  0.25000  Biso   1.000  Cd  0.908969
  Cd6      1.0000 0.87636  0.25000  0.25000  Biso   1.000  Cd  0.908969
  Cd7      1.0000 0.25000  0.62364  0.87636  Biso   1.000  Cd  0.908973
  Cd8      1.0000 0.25000  0.87636  0.62364  Biso   1.000  Cd  0.908979
  Cd9      1.0000 0.62364  0.25000  0.87636  Biso   1.000  Cd  0.908979
  Cd10     1.0000 0.87636  0.25000  0.62364  Biso   1.000  Cd  0.908973
  Cd11     1.0000 0.25000  0.87636  0.25000  Biso   1.000  Cd  0.908969
  Cd12     1.0000 0.25000  0.62364  0.25000  Biso   1.000  Cd  0.908969
  Cd13     1.0000 0.37636  0.12364  0.75000  Biso   1.000  Cd  0.908973
  Cd14     1.0000 0.12364  0.37636  0.75000  Biso   1.000  Cd  0.908979
  Cd15     1.0000 0.75000  0.75000  0.37636  Biso   1.000  Cd  0.908969
  Cd16     1.0000 0.75000  0.75000  0.12364  Biso   1.000  Cd  0.908969
  Cd17     1.0000 0.37636  0.75000  0.75000  Biso   1.000  Cd  0.908969
  Cd18     1.0000 0.12364  0.75000  0.75000  Biso   1.000  Cd  0.908969
  Cd19     1.0000 0.75000  0.37636  0.12364  Biso   1.000  Cd  0.908973
  Cd20     1.0000 0.75000  0.12364  0.37636  Biso   1.000  Cd  0.908979
  Cd21     1.0000 0.37636  0.75000  0.12364  Biso   1.000  Cd  0.908979
  Cd22     1.0000 0.12364  0.75000  0.37636  Biso   1.000  Cd  0.908973
  Cd23     1.0000 0.75000  0.12364  0.75000  Biso   1.000  Cd  0.908969
  Cd24     1.0000 0.75000  0.37636  0.75000  Biso   1.000  Cd  0.908969
  H1       1.0000 0.63040  0.15920  0.97300  Biso   1.000  H  0.306120
  H2       1.0000 0.57370  0.06490  0.13970  Biso   1.000  H  0.118805
  H3       1.0000 0.58380  0.12960  0.06020  Biso   1.000  H  0.132504
  H4       1.0000 0.70870  0.02810  0.99590  Biso   1.000  H  0.122265
  H5       1.0000 0.69860  0.96340  0.07520  Biso   1.000  H  0.121810
  H6       1.0000 0.15920  0.63040  0.23740  Biso   1.000  H  0.306115
  H7       1.0000 0.06490  0.57370  0.22170  Biso   1.000  H  0.118794
  H8       1.0000 0.12960  0.58380  0.22640  Biso   1.000  H  0.132506
  H9       1.0000 0.02810  0.70870  0.26730  Biso   1.000  H  0.122264
  H10      1.0000 0.96340  0.69860  0.26280  Biso   1.000  H  0.121805
  H11      1.0000 0.97300  0.23740  0.63040  Biso   1.000  H  0.306118
  H12      1.0000 0.13970  0.22170  0.57370  Biso   1.000  H  0.118802
  H13      1.0000 0.06020  0.22640  0.58380  Biso   1.000  H  0.132496
  H14      1.0000 0.99590  0.26730  0.70870  Biso   1.000  H  0.122263
  H15      1.0000 0.07520  0.26280  0.69860  Biso   1.000  H  0.121810
  H16      1.0000 0.23740  0.97300  0.15920  Biso   1.000  H  0.306121
  H17      1.0000 0.22170  0.13970  0.06490  Biso   1.000  H  0.118793
  H18      1.0000 0.22640  0.06020  0.12960  Biso   1.000  H  0.132497
  H19      1.0000 0.26730  0.99590  0.02810  Biso   1.000  H  0.122266
  H20      1.0000 0.26280  0.07520  0.96340  Biso   1.000  H  0.121807
  H21      1.0000 0.63040  0.97300  0.23740  Biso   1.000  H  0.306118
  H22      1.0000 0.57370  0.13970  0.22170  Biso   1.000  H  0.118801
  H23      1.0000 0.58380  0.06020  0.22640  Biso   1.000  H  0.132494
  H24      1.0000 0.70870  0.99590  0.26730  Biso   1.000  H  0.122263
  H25      1.0000 0.69860  0.07520  0.26280  Biso   1.000  H  0.121810
  H26      1.0000 0.15920  0.23740  0.97300  Biso   1.000  H  0.306121
  H27      1.0000 0.06490  0.22170  0.13970  Biso   1.000  H  0.118793
  H28      1.0000 0.12960  0.22640  0.06020  Biso   1.000  H  0.132495
  H29      1.0000 0.02810  0.26730  0.99590  Biso   1.000  H  0.122266
  H30      1.0000 0.96340  0.26280  0.07520  Biso   1.000  H  0.121807
  H31      1.0000 0.97300  0.63040  0.15920  Biso   1.000  H  0.306120
  H32      1.0000 0.13970  0.57370  0.06490  Biso   1.000  H  0.118804
  H33      1.0000 0.06020  0.58380  0.12960  Biso   1.000  H  0.132502
  H34      1.0000 0.99590  0.70870  0.02810  Biso   1.000  H  0.122265
  H35      1.0000 0.07520  0.69860  0.96340  Biso   1.000  H  0.121810
  H36      1.0000 0.23740  0.15920  0.63040  Biso   1.000  H  0.306115
  H37      1.0000 0.22170  0.06490  0.57370  Biso   1.000  H  0.118793
  H38      1.0000 0.22640  0.12960  0.58380  Biso   1.000  H  0.132504
  H39      1.0000 0.26730  0.02810  0.70870  Biso   1.000  H  0.122264
  H40      1.0000 0.26280  0.96340  0.69860  Biso   1.000  H  0.121805
  H41      1.0000 0.63040  0.23740  0.15920  Biso   1.000  H  0.306115
  H42      1.0000 0.57370  0.22170  0.06490  Biso   1.000  H  0.118791
  H43      1.0000 0.58380  0.22640  0.12960  Biso   1.000  H  0.132504
  H44      1.0000 0.70870  0.26730  0.02810  Biso   1.000  H  0.122264
  H45      1.0000 0.69860  0.26280  0.96340  Biso   1.000  H  0.121805
  H46      1.0000 0.15920  0.97300  0.63040  Biso   1.000  H  0.306120
  H47      1.0000 0.06490  0.13970  0.57370  Biso   1.000  H  0.118802
  H48      1.0000 0.12960  0.06020  0.58380  Biso   1.000  H  0.132502
  H49      1.0000 0.02810  0.99590  0.70870  Biso   1.000  H  0.122265
  H50      1.0000 0.96340  0.07520  0.69860  Biso   1.000  H  0.121810
  H51      1.0000 0.97300  0.15920  0.23740  Biso   1.000  H  0.306121
  H52      1.0000 0.13970  0.06490  0.22170  Biso   1.000  H  0.118790
  H53      1.0000 0.06020  0.12960  0.22640  Biso   1.000  H  0.132495
  H54      1.0000 0.99590  0.02810  0.26730  Biso   1.000  H  0.122266
  H55      1.0000 0.07520  0.96340  0.26280  Biso   1.000  H  0.121807
  H56      1.0000 0.23740  0.63040  0.97300  Biso   1.000  H  0.306118
  H57      1.0000 0.22170  0.57370  0.13970  Biso   1.000  H  0.118799
  H58      1.0000 0.22640  0.58380  0.06020  Biso   1.000  H  0.132494
  H59      1.0000 0.26730  0.70870  0.99590  Biso   1.000  H  0.122263
  H60      1.0000 0.26280  0.69860  0.07520  Biso   1.000  H  0.121809
  H61      1.0000 0.34080  0.86960  0.52700  Biso   1.000  H  0.306120
  H62      1.0000 0.43510  0.92630  0.36030  Biso   1.000  H  0.118804
  H63      1.0000 0.37040  0.91620  0.43980  Biso   1.000  H  0.132503
  H64      1.0000 0.47190  0.79130  0.50410  Biso   1.000  H  0.122265
  H65      1.0000 0.53660  0.80140  0.42480  Biso   1.000  H  0.121810
  H66      1.0000 0.86960  0.34080  0.26260  Biso   1.000  H  0.306115
  H67      1.0000 0.92630  0.43510  0.27830  Biso   1.000  H  0.118793
  H68      1.0000 0.91620  0.37040  0.27360  Biso   1.000  H  0.132504
  H69      1.0000 0.79130  0.47190  0.23270  Biso   1.000  H  0.122264
  H70      1.0000 0.80140  0.53660  0.23720  Biso   1.000  H  0.121805
  H71      1.0000 0.26260  0.52700  0.86960  Biso   1.000  H  0.306118
  H72      1.0000 0.27830  0.36030  0.92630  Biso   1.000  H  0.118800
  H73      1.0000 0.27360  0.43980  0.91620  Biso   1.000  H  0.132495
  H74      1.0000 0.23270  0.50410  0.79130  Biso   1.000  H  0.122263
  H75      1.0000 0.23720  0.42480  0.80140  Biso   1.000  H  0.121810
  H76      1.0000 0.52700  0.26260  0.34080  Biso   1.000  H  0.306121
  H77      1.0000 0.36030  0.27830  0.43510  Biso   1.000  H  0.118791
  H78      1.0000 0.43980  0.27360  0.37040  Biso   1.000  H  0.132496
  H79      1.0000 0.50410  0.23270  0.47190  Biso   1.000  H  0.122266
  H80      1.0000 0.42480  0.23720  0.53660  Biso   1.000  H  0.121807
  H81      1.0000 0.52700  0.86960  0.26260  Biso   1.000  H  0.306118
  H82      1.0000 0.36030  0.92630  0.27830  Biso   1.000  H  0.118800
  H83      1.0000 0.43980  0.91620  0.27360  Biso   1.000  H  0.132493
  H84      1.0000 0.50410  0.79130  0.23270  Biso   1.000  H  0.122263
  H85      1.0000 0.42480  0.80140  0.23720  Biso   1.000  H  0.121810
  H86      1.0000 0.26260  0.34080  0.52700  Biso   1.000  H  0.306121
  H87      1.0000 0.27830  0.43510  0.36030  Biso   1.000  H  0.118791
  H88      1.0000 0.27360  0.37040  0.43980  Biso   1.000  H  0.132494
  H89      1.0000 0.23270  0.47190  0.50410  Biso   1.000  H  0.122266
  H90      1.0000 0.23720  0.53660  0.42480  Biso   1.000  H  0.121807
  H91      1.0000 0.86960  0.52700  0.34080  Biso   1.000  H  0.306120
  H92      1.0000 0.92630  0.36030  0.43510  Biso   1.000  H  0.118803
  H93      1.0000 0.91620  0.43980  0.37040  Biso   1.000  H  0.132501
  H94      1.0000 0.79130  0.50410  0.47190  Biso   1.000  H  0.122265
  H95      1.0000 0.80140  0.42480  0.53660  Biso   1.000  H  0.121810
  H96      1.0000 0.34080  0.26260  0.86960  Biso   1.000  H  0.306115
  H97      1.0000 0.43510  0.27830  0.92630  Biso   1.000  H  0.118792
  H98      1.0000 0.37040  0.27360  0.91620  Biso   1.000  H  0.132503
  H99      1.0000 0.47190  0.23270  0.79130  Biso   1.000  H  0.122264
  H100     1.0000 0.53660  0.23720  0.80140  Biso   1.000  H  0.121805
  H101     1.0000 0.26260  0.86960  0.34080  Biso   1.000  H  0.306115
  H102     1.0000 0.27830  0.92630  0.43510  Biso   1.000  H  0.118790
  H103     1.0000 0.27360  0.91620  0.37040  Biso   1.000  H  0.132503
  H104     1.0000 0.23270  0.79130  0.47190  Biso   1.000  H  0.122264
  H105     1.0000 0.23720  0.80140  0.53660  Biso   1.000  H  0.121805
  H106     1.0000 0.52700  0.34080  0.86960  Biso   1.000  H  0.306120
  H107     1.0000 0.36030  0.43510  0.92630  Biso   1.000  H  0.118801
  H108     1.0000 0.43980  0.37040  0.91620  Biso   1.000  H  0.132501
  H109     1.0000 0.50410  0.47190  0.79130  Biso   1.000  H  0.122265
  H110     1.0000 0.42480  0.53660  0.80140  Biso   1.000  H  0.121810
  H111     1.0000 0.34080  0.52700  0.26260  Biso   1.000  H  0.306121
  H112     1.0000 0.43510  0.36030  0.27830  Biso   1.000  H  0.118789
  H113     1.0000 0.37040  0.43980  0.27360  Biso   1.000  H  0.132494
  H114     1.0000 0.47190  0.50410  0.23270  Biso   1.000  H  0.122266
  H115     1.0000 0.53660  0.42480  0.23720  Biso   1.000  H  0.121807
  H116     1.0000 0.86960  0.26260  0.52700  Biso   1.000  H  0.306118
  H117     1.0000 0.92630  0.27830  0.36030  Biso   1.000  H  0.118798
  H118     1.0000 0.91620  0.27360  0.43980  Biso   1.000  H  0.132493
  H119     1.0000 0.79130  0.23270  0.50410  Biso   1.000  H  0.122263
  H120     1.0000 0.80140  0.23720  0.42480  Biso   1.000  H  0.121809
  H121     1.0000 0.36960  0.84080  0.02700  Biso   1.000  H  0.306120
  H122     1.0000 0.42630  0.93510  0.86030  Biso   1.000  H  0.118805
  H123     1.0000 0.41620  0.87040  0.93980  Biso   1.000  H  0.132504
  H124     1.0000 0.29130  0.97190  0.00410  Biso   1.000  H  0.122259
  H125     1.0000 0.30140  0.03660  0.92480  Biso   1.000  H  0.121807
  H126     1.0000 0.84080  0.36960  0.76260  Biso   1.000  H  0.306115
  H127     1.0000 0.93510  0.42630  0.77830  Biso   1.000  H  0.118794
  H128     1.0000 0.87040  0.41620  0.77360  Biso   1.000  H  0.132506
  H129     1.0000 0.97190  0.29130  0.73270  Biso   1.000  H  0.122260
  H130     1.0000 0.03660  0.30140  0.73720  Biso   1.000  H  0.121801
  H131     1.0000 0.02700  0.76260  0.36960  Biso   1.000  H  0.306118
  H132     1.0000 0.86030  0.77830  0.42630  Biso   1.000  H  0.118802
  H133     1.0000 0.93980  0.77360  0.41620  Biso   1.000  H  0.132495
  H134     1.0000 0.00410  0.73270  0.29130  Biso   1.000  H  0.122259
  H135     1.0000 0.92480  0.73720  0.30140  Biso   1.000  H  0.121806
  H136     1.0000 0.76260  0.02700  0.84080  Biso   1.000  H  0.306121
  H137     1.0000 0.77830  0.86030  0.93510  Biso   1.000  H  0.118793
  H138     1.0000 0.77360  0.93980  0.87040  Biso   1.000  H  0.132497
  H139     1.0000 0.73270  0.00410  0.97190  Biso   1.000  H  0.122260
  H140     1.0000 0.73720  0.92480  0.03660  Biso   1.000  H  0.121803
  H141     1.0000 0.36960  0.02700  0.76260  Biso   1.000  H  0.306118
  H142     1.0000 0.42630  0.86030  0.77830  Biso   1.000  H  0.118801
  H143     1.0000 0.41620  0.93980  0.77360  Biso   1.000  H  0.132494
  H144     1.0000 0.29130  0.00410  0.73270  Biso   1.000  H  0.122259
  H145     1.0000 0.30140  0.92480  0.73720  Biso   1.000  H  0.121806
  H146     1.0000 0.84080  0.76260  0.02700  Biso   1.000  H  0.306121
  H147     1.0000 0.93510  0.77830  0.86030  Biso   1.000  H  0.118793
  H148     1.0000 0.87040  0.77360  0.93980  Biso   1.000  H  0.132495
  H149     1.0000 0.97190  0.73270  0.00410  Biso   1.000  H  0.122260
  H150     1.0000 0.03660  0.73720  0.92480  Biso   1.000  H  0.121803
  H151     1.0000 0.02700  0.36960  0.84080  Biso   1.000  H  0.306120
  H152     1.0000 0.86030  0.42630  0.93510  Biso   1.000  H  0.118805
  H153     1.0000 0.93980  0.41620  0.87040  Biso   1.000  H  0.132502
  H154     1.0000 0.00410  0.29130  0.97190  Biso   1.000  H  0.122259
  H155     1.0000 0.92480  0.30140  0.03660  Biso   1.000  H  0.121807
  H156     1.0000 0.76260  0.84080  0.36960  Biso   1.000  H  0.306115
  H157     1.0000 0.77830  0.93510  0.42630  Biso   1.000  H  0.118793
  H158     1.0000 0.77360  0.87040  0.41620  Biso   1.000  H  0.132504
  H159     1.0000 0.73270  0.97190  0.29130  Biso   1.000  H  0.122259
  H160     1.0000 0.73720  0.03660  0.30140  Biso   1.000  H  0.121801
  H161     1.0000 0.36960  0.76260  0.84080  Biso   1.000  H  0.306115
  H162     1.0000 0.42630  0.77830  0.93510  Biso   1.000  H  0.118791
  H163     1.0000 0.41620  0.77360  0.87040  Biso   1.000  H  0.132504
  H164     1.0000 0.29130  0.73270  0.97190  Biso   1.000  H  0.122259
  H165     1.0000 0.30140  0.73720  0.03660  Biso   1.000  H  0.121801
  H166     1.0000 0.84080  0.02700  0.36960  Biso   1.000  H  0.306120
  H167     1.0000 0.93510  0.86030  0.42630  Biso   1.000  H  0.118802
  H168     1.0000 0.87040  0.93980  0.41620  Biso   1.000  H  0.132502
  H169     1.0000 0.97190  0.00410  0.29130  Biso   1.000  H  0.122258
  H170     1.0000 0.03660  0.92480  0.30140  Biso   1.000  H  0.121807
  H171     1.0000 0.02700  0.84080  0.76260  Biso   1.000  H  0.306121
  H172     1.0000 0.86030  0.93510  0.77830  Biso   1.000  H  0.118791
  H173     1.0000 0.93980  0.87040  0.77360  Biso   1.000  H  0.132495
  H174     1.0000 0.00410  0.97190  0.73270  Biso   1.000  H  0.122260
  H175     1.0000 0.92480  0.03660  0.73720  Biso   1.000  H  0.121803
  H176     1.0000 0.76260  0.36960  0.02700  Biso   1.000  H  0.306118
  H177     1.0000 0.77830  0.42630  0.86030  Biso   1.000  H  0.118799
  H178     1.0000 0.77360  0.41620  0.93980  Biso   1.000  H  0.132494
  H179     1.0000 0.73270  0.29130  0.00410  Biso   1.000  H  0.122259
  H180     1.0000 0.73720  0.30140  0.92480  Biso   1.000  H  0.121806
  H181     1.0000 0.65920  0.13040  0.47300  Biso   1.000  H  0.306120
  H182     1.0000 0.56490  0.07370  0.63970  Biso   1.000  H  0.118804
  H183     1.0000 0.62960  0.08380  0.56020  Biso   1.000  H  0.132503
  H184     1.0000 0.52810  0.20870  0.49590  Biso   1.000  H  0.122259
  H185     1.0000 0.46340  0.19860  0.57520  Biso   1.000  H  0.121807
  H186     1.0000 0.13040  0.65920  0.73740  Biso   1.000  H  0.306115
  H187     1.0000 0.07370  0.56490  0.72170  Biso   1.000  H  0.118793
  H188     1.0000 0.08380  0.62960  0.72640  Biso   1.000  H  0.132504
  H189     1.0000 0.20870  0.52810  0.76730  Biso   1.000  H  0.122260
  H190     1.0000 0.19860  0.46340  0.76280  Biso   1.000  H  0.121801
  H191     1.0000 0.73740  0.47300  0.13040  Biso   1.000  H  0.306118
  H192     1.0000 0.72170  0.63970  0.07370  Biso   1.000  H  0.118800
  H193     1.0000 0.72640  0.56020  0.08380  Biso   1.000  H  0.132495
  H194     1.0000 0.76730  0.49590  0.20870  Biso   1.000  H  0.122259
  H195     1.0000 0.76280  0.57520  0.19860  Biso   1.000  H  0.121806
  H196     1.0000 0.47300  0.73740  0.65920  Biso   1.000  H  0.306121
  H197     1.0000 0.63970  0.72170  0.56490  Biso   1.000  H  0.118791
  H198     1.0000 0.56020  0.72640  0.62960  Biso   1.000  H  0.132496
  H199     1.0000 0.49590  0.76730  0.52810  Biso   1.000  H  0.122260
  H200     1.0000 0.57520  0.76280  0.46340  Biso   1.000  H  0.121803
  H201     1.0000 0.47300  0.13040  0.73740  Biso   1.000  H  0.306118
  H202     1.0000 0.63970  0.07370  0.72170  Biso   1.000  H  0.118800
  H203     1.0000 0.56020  0.08380  0.72640  Biso   1.000  H  0.132493
  H204     1.0000 0.49590  0.20870  0.76730  Biso   1.000  H  0.122259
  H205     1.0000 0.57520  0.19860  0.76280  Biso   1.000  H  0.121806
  H206     1.0000 0.73740  0.65920  0.47300  Biso   1.000  H  0.306121
  H207     1.0000 0.72170  0.56490  0.63970  Biso   1.000  H  0.118791
  H208     1.0000 0.72640  0.62960  0.56020  Biso   1.000  H  0.132494
  H209     1.0000 0.76730  0.52810  0.49590  Biso   1.000  H  0.122260
  H210     1.0000 0.76280  0.46340  0.57520  Biso   1.000  H  0.121803
  H211     1.0000 0.13040  0.47300  0.65920  Biso   1.000  H  0.306120
  H212     1.0000 0.07370  0.63970  0.56490  Biso   1.000  H  0.118803
  H213     1.0000 0.08380  0.56020  0.62960  Biso   1.000  H  0.132501
  H214     1.0000 0.20870  0.49590  0.52810  Biso   1.000  H  0.122258
  H215     1.0000 0.19860  0.57520  0.46340  Biso   1.000  H  0.121807
  H216     1.0000 0.65920  0.73740  0.13040  Biso   1.000  H  0.306115
  H217     1.0000 0.56490  0.72170  0.07370  Biso   1.000  H  0.118792
  H218     1.0000 0.62960  0.72640  0.08380  Biso   1.000  H  0.132503
  H219     1.0000 0.52810  0.76730  0.20870  Biso   1.000  H  0.122259
  H220     1.0000 0.46340  0.76280  0.19860  Biso   1.000  H  0.121801
  H221     1.0000 0.73740  0.13040  0.65920  Biso   1.000  H  0.306115
  H222     1.0000 0.72170  0.07370  0.56490  Biso   1.000  H  0.118790
  H223     1.0000 0.72640  0.08380  0.62960  Biso   1.000  H  0.132503
  H224     1.0000 0.76730  0.20870  0.52810  Biso   1.000  H  0.122259
  H225     1.0000 0.76280  0.19860  0.46340  Biso   1.000  H  0.121801
  H226     1.0000 0.47300  0.65920  0.13040  Biso   1.000  H  0.306120
  H227     1.0000 0.63970  0.56490  0.07370  Biso   1.000  H  0.118801
  H228     1.0000 0.56020  0.62960  0.08380  Biso   1.000  H  0.132501
  H229     1.0000 0.49590  0.52810  0.20870  Biso   1.000  H  0.122258
  H230     1.0000 0.57520  0.46340  0.19860  Biso   1.000  H  0.121807
  H231     1.0000 0.65920  0.47300  0.73740  Biso   1.000  H  0.306121
  H232     1.0000 0.56490  0.63970  0.72170  Biso   1.000  H  0.118789
  H233     1.0000 0.62960  0.56020  0.72640  Biso   1.000  H  0.132494
  H234     1.0000 0.52810  0.49590  0.76730  Biso   1.000  H  0.122260
  H235     1.0000 0.46340  0.57520  0.76280  Biso   1.000  H  0.121803
  H236     1.0000 0.13040  0.73740  0.47300  Biso   1.000  H  0.306118
  H237     1.0000 0.07370  0.72170  0.63970  Biso   1.000  H  0.118798
  H238     1.0000 0.08380  0.72640  0.56020  Biso   1.000  H  0.132493
  H239     1.0000 0.20870  0.76730  0.49590  Biso   1.000  H  0.122258
  H240     1.0000 0.19860  0.76280  0.57520  Biso   1.000  H  0.121806
  N1       1.0000 0.64765  0.12833  0.97155  Biso   1.000  N  -0.389572
  N2       1.0000 0.67072  0.16604  0.88590  Biso   1.000  N  -0.546255
  N3       1.0000 0.12833  0.64765  0.25247  Biso   1.000  N  -0.389554
  N4       1.0000 0.16604  0.67072  0.27734  Biso   1.000  N  -0.546244
  N5       1.0000 0.97155  0.25247  0.64765  Biso   1.000  N  -0.389573
  N6       1.0000 0.88590  0.27734  0.67072  Biso   1.000  N  -0.546250
  N7       1.0000 0.25247  0.97155  0.12833  Biso   1.000  N  -0.389578
  N8       1.0000 0.27734  0.88590  0.16604  Biso   1.000  N  -0.546256
  N9       1.0000 0.64765  0.97155  0.25247  Biso   1.000  N  -0.389573
  N10      1.0000 0.67072  0.88590  0.27734  Biso   1.000  N  -0.546250
  N11      1.0000 0.12833  0.25247  0.97155  Biso   1.000  N  -0.389578
  N12      1.0000 0.16604  0.27734  0.88590  Biso   1.000  N  -0.546256
  N13      1.0000 0.97155  0.64765  0.12833  Biso   1.000  N  -0.389572
  N14      1.0000 0.88590  0.67072  0.16604  Biso   1.000  N  -0.546255
  N15      1.0000 0.25247  0.12833  0.64765  Biso   1.000  N  -0.389554
  N16      1.0000 0.27734  0.16604  0.67072  Biso   1.000  N  -0.546244
  N17      1.0000 0.64765  0.25247  0.12833  Biso   1.000  N  -0.389554
  N18      1.0000 0.67072  0.27734  0.16604  Biso   1.000  N  -0.546244
  N19      1.0000 0.12833  0.97155  0.64765  Biso   1.000  N  -0.389572
  N20      1.0000 0.16604  0.88590  0.67072  Biso   1.000  N  -0.546255
  N21      1.0000 0.97155  0.12833  0.25247  Biso   1.000  N  -0.389578
  N22      1.0000 0.88590  0.16604  0.27734  Biso   1.000  N  -0.546256
  N23      1.0000 0.25247  0.64765  0.97155  Biso   1.000  N  -0.389573
  N24      1.0000 0.27734  0.67072  0.88590  Biso   1.000  N  -0.546250
  N25      1.0000 0.37167  0.85235  0.52845  Biso   1.000  N  -0.389572
  N26      1.0000 0.33396  0.82928  0.61410  Biso   1.000  N  -0.546255
  N27      1.0000 0.85235  0.37167  0.24753  Biso   1.000  N  -0.389554
  N28      1.0000 0.82928  0.33396  0.22266  Biso   1.000  N  -0.546244
  N29      1.0000 0.24753  0.52845  0.85235  Biso   1.000  N  -0.389573
  N30      1.0000 0.22266  0.61410  0.82928  Biso   1.000  N  -0.546249
  N31      1.0000 0.52845  0.24753  0.37167  Biso   1.000  N  -0.389578
  N32      1.0000 0.61410  0.22266  0.33396  Biso   1.000  N  -0.546256
  N33      1.0000 0.52845  0.85235  0.24753  Biso   1.000  N  -0.389573
  N34      1.0000 0.61410  0.82928  0.22266  Biso   1.000  N  -0.546249
  N35      1.0000 0.24753  0.37167  0.52845  Biso   1.000  N  -0.389578
  N36      1.0000 0.22266  0.33396  0.61410  Biso   1.000  N  -0.546256
  N37      1.0000 0.85235  0.52845  0.37167  Biso   1.000  N  -0.389572
  N38      1.0000 0.82928  0.61410  0.33396  Biso   1.000  N  -0.546255
  N39      1.0000 0.37167  0.24753  0.85235  Biso   1.000  N  -0.389554
  N40      1.0000 0.33396  0.22266  0.82928  Biso   1.000  N  -0.546244
  N41      1.0000 0.24753  0.85235  0.37167  Biso   1.000  N  -0.389554
  N42      1.0000 0.22266  0.82928  0.33396  Biso   1.000  N  -0.546244
  N43      1.0000 0.52845  0.37167  0.85235  Biso   1.000  N  -0.389572
  N44      1.0000 0.61410  0.33396  0.82928  Biso   1.000  N  -0.546255
  N45      1.0000 0.37167  0.52845  0.24753  Biso   1.000  N  -0.389578
  N46      1.0000 0.33396  0.61410  0.22266  Biso   1.000  N  -0.546256
  N47      1.0000 0.85235  0.24753  0.52845  Biso   1.000  N  -0.389573
  N48      1.0000 0.82928  0.22266  0.61410  Biso   1.000  N  -0.546249
  N49      1.0000 0.35235  0.87167  0.02845  Biso   1.000  N  -0.389572
  N50      1.0000 0.32928  0.83396  0.11410  Biso   1.000  N  -0.546255
  N51      1.0000 0.87167  0.35235  0.74753  Biso   1.000  N  -0.389554
  N52      1.0000 0.83396  0.32928  0.72266  Biso   1.000  N  -0.546244
  N53      1.0000 0.02845  0.74753  0.35235  Biso   1.000  N  -0.389573
  N54      1.0000 0.11410  0.72266  0.32928  Biso   1.000  N  -0.546249
  N55      1.0000 0.74753  0.02845  0.87167  Biso   1.000  N  -0.389578
  N56      1.0000 0.72266  0.11410  0.83396  Biso   1.000  N  -0.546256
  N57      1.0000 0.35235  0.02845  0.74753  Biso   1.000  N  -0.389572
  N58      1.0000 0.32928  0.11410  0.72266  Biso   1.000  N  -0.546249
  N59      1.0000 0.87167  0.74753  0.02845  Biso   1.000  N  -0.389578
  N60      1.0000 0.83396  0.72266  0.11410  Biso   1.000  N  -0.546256
  N61      1.0000 0.02845  0.35235  0.87167  Biso   1.000  N  -0.389571
  N62      1.0000 0.11410  0.32928  0.83396  Biso   1.000  N  -0.546255
  N63      1.0000 0.74753  0.87167  0.35235  Biso   1.000  N  -0.389554
  N64      1.0000 0.72266  0.83396  0.32928  Biso   1.000  N  -0.546244
  N65      1.0000 0.35235  0.74753  0.87167  Biso   1.000  N  -0.389554
  N66      1.0000 0.32928  0.72266  0.83396  Biso   1.000  N  -0.546244
  N67      1.0000 0.87167  0.02845  0.35235  Biso   1.000  N  -0.389571
  N68      1.0000 0.83396  0.11410  0.32928  Biso   1.000  N  -0.546255
  N69      1.0000 0.02845  0.87167  0.74753  Biso   1.000  N  -0.389578
  N70      1.0000 0.11410  0.83396  0.72266  Biso   1.000  N  -0.546256
  N71      1.0000 0.74753  0.35235  0.02845  Biso   1.000  N  -0.389572
  N72      1.0000 0.72266  0.32928  0.11410  Biso   1.000  N  -0.546249
  N73      1.0000 0.62833  0.14765  0.47155  Biso   1.000  N  -0.389571
  N74      1.0000 0.66604  0.17072  0.38590  Biso   1.000  N  -0.546254
  N75      1.0000 0.14765  0.62833  0.75247  Biso   1.000  N  -0.389554
  N76      1.0000 0.17072  0.66604  0.77734  Biso   1.000  N  -0.546244
  N77      1.0000 0.75247  0.47155  0.14765  Biso   1.000  N  -0.389572
  N78      1.0000 0.77734  0.38590  0.17072  Biso   1.000  N  -0.546249
  N79      1.0000 0.47155  0.75247  0.62833  Biso   1.000  N  -0.389578
  N80      1.0000 0.38590  0.77734  0.66604  Biso   1.000  N  -0.546256
  N81      1.0000 0.47155  0.14765  0.75247  Biso   1.000  N  -0.389572
  N82      1.0000 0.38590  0.17072  0.77734  Biso   1.000  N  -0.546249
  N83      1.0000 0.75247  0.62833  0.47155  Biso   1.000  N  -0.389578
  N84      1.0000 0.77734  0.66604  0.38590  Biso   1.000  N  -0.546256
  N85      1.0000 0.14765  0.47155  0.62833  Biso   1.000  N  -0.389571
  N86      1.0000 0.17072  0.38590  0.66604  Biso   1.000  N  -0.546254
  N87      1.0000 0.62833  0.75247  0.14765  Biso   1.000  N  -0.389554
  N88      1.0000 0.66604  0.77734  0.17072  Biso   1.000  N  -0.546244
  N89      1.0000 0.75247  0.14765  0.62833  Biso   1.000  N  -0.389554
  N90      1.0000 0.77734  0.17072  0.66604  Biso   1.000  N  -0.546244
  N91      1.0000 0.47155  0.62833  0.14765  Biso   1.000  N  -0.389571
  N92      1.0000 0.38590  0.66604  0.17072  Biso   1.000  N  -0.546254
  N93      1.0000 0.62833  0.47155  0.75247  Biso   1.000  N  -0.389578
  N94      1.0000 0.66604  0.38590  0.77734  Biso   1.000  N  -0.546256
  N95      1.0000 0.14765  0.75247  0.47155  Biso   1.000  N  -0.389572
  N96      1.0000 0.17072  0.77734  0.38590  Biso   1.000  N  -0.546249
  N97      1.0000 0.69784  0.07596  0.92404  Biso   1.000  N  -0.519765
  N98      1.0000 0.07596  0.69784  0.30216  Biso   1.000  N  -0.519756
  N99      1.0000 0.92404  0.30216  0.69784  Biso   1.000  N  -0.519756
  N100     1.0000 0.30216  0.92404  0.07596  Biso   1.000  N  -0.519765
  N101     1.0000 0.69784  0.92404  0.30216  Biso   1.000  N  -0.519756
  N102     1.0000 0.07596  0.30216  0.92404  Biso   1.000  N  -0.519765
  N103     1.0000 0.92404  0.69784  0.07596  Biso   1.000  N  -0.519765
  N104     1.0000 0.30216  0.07596  0.69784  Biso   1.000  N  -0.519756
  N105     1.0000 0.69784  0.30216  0.07596  Biso   1.000  N  -0.519756
  N106     1.0000 0.07596  0.92404  0.69784  Biso   1.000  N  -0.519765
  N107     1.0000 0.92404  0.07596  0.30216  Biso   1.000  N  -0.519765
  N108     1.0000 0.30216  0.69784  0.92404  Biso   1.000  N  -0.519756
  N109     1.0000 0.42404  0.80216  0.57596  Biso   1.000  N  -0.519765
  N110     1.0000 0.80216  0.42404  0.19784  Biso   1.000  N  -0.519756
  N111     1.0000 0.19784  0.57596  0.80216  Biso   1.000  N  -0.519756
  N112     1.0000 0.57596  0.19784  0.42404  Biso   1.000  N  -0.519765
  N113     1.0000 0.57596  0.80216  0.19784  Biso   1.000  N  -0.519756
  N114     1.0000 0.19784  0.42404  0.57596  Biso   1.000  N  -0.519764
  N115     1.0000 0.80216  0.57596  0.42404  Biso   1.000  N  -0.519764
  N116     1.0000 0.42404  0.19784  0.80216  Biso   1.000  N  -0.519756
  N117     1.0000 0.19784  0.80216  0.42404  Biso   1.000  N  -0.519756
  N118     1.0000 0.57596  0.42404  0.80216  Biso   1.000  N  -0.519764
  N119     1.0000 0.42404  0.57596  0.19784  Biso   1.000  N  -0.519764
  N120     1.0000 0.80216  0.19784  0.57596  Biso   1.000  N  -0.519756
  Na1      1.0000 0.75000  0.25000  0.75000  Biso   1.000  Na  0.905095
  Na2      1.0000 0.25000  0.75000  0.25000  Biso   1.000  Na  0.905095
  Na3      1.0000 0.75000  0.75000  0.25000  Biso   1.000  Na  0.905095
  Na4      1.0000 0.25000  0.25000  0.75000  Biso   1.000  Na  0.905095
  Na5      1.0000 0.75000  0.25000  0.25000  Biso   1.000  Na  0.905095
  Na6      1.0000 0.25000  0.75000  0.75000  Biso   1.000  Na  0.905095
  O1       1.0000 0.65966  0.92262  0.16574  Biso   1.000  O  -0.500739
  O2       1.0000 0.59551  0.97309  0.20191  Biso   1.000  O  -0.562265
  O3       1.0000 0.92262  0.65966  0.25198  Biso   1.000  O  -0.500752
  O4       1.0000 0.97309  0.59551  0.22949  Biso   1.000  O  -0.562268
  O5       1.0000 0.16574  0.25198  0.65966  Biso   1.000  O  -0.500743
  O6       1.0000 0.20191  0.22949  0.59551  Biso   1.000  O  -0.562270
  O7       1.0000 0.25198  0.16574  0.92262  Biso   1.000  O  -0.500744
  O8       1.0000 0.22949  0.20191  0.97309  Biso   1.000  O  -0.562265
  O9       1.0000 0.65966  0.16574  0.25198  Biso   1.000  O  -0.500743
  O10      1.0000 0.59551  0.20191  0.22949  Biso   1.000  O  -0.562270
  O11      1.0000 0.92262  0.25198  0.16574  Biso   1.000  O  -0.500744
  O12      1.0000 0.97309  0.22949  0.20191  Biso   1.000  O  -0.562265
  O13      1.0000 0.16574  0.65966  0.92262  Biso   1.000  O  -0.500739
  O14      1.0000 0.20191  0.59551  0.97309  Biso   1.000  O  -0.562265
  O15      1.0000 0.25198  0.92262  0.65966  Biso   1.000  O  -0.500753
  O16      1.0000 0.22949  0.97309  0.59551  Biso   1.000  O  -0.562268
  O17      1.0000 0.65966  0.25198  0.92262  Biso   1.000  O  -0.500752
  O18      1.0000 0.59551  0.22949  0.97309  Biso   1.000  O  -0.562268
  O19      1.0000 0.92262  0.16574  0.65966  Biso   1.000  O  -0.500739
  O20      1.0000 0.97309  0.20191  0.59551  Biso   1.000  O  -0.562265
  O21      1.0000 0.16574  0.92262  0.25198  Biso   1.000  O  -0.500744
  O22      1.0000 0.20191  0.97309  0.22949  Biso   1.000  O  -0.562265
  O23      1.0000 0.25198  0.65966  0.16574  Biso   1.000  O  -0.500743
  O24      1.0000 0.22949  0.59551  0.20191  Biso   1.000  O  -0.562270
  O25      1.0000 0.57738  0.84034  0.33426  Biso   1.000  O  -0.500739
  O26      1.0000 0.52691  0.90449  0.29809  Biso   1.000  O  -0.562265
  O27      1.0000 0.84034  0.57738  0.24802  Biso   1.000  O  -0.500752
  O28      1.0000 0.90449  0.52691  0.27051  Biso   1.000  O  -0.562267
  O29      1.0000 0.24802  0.33426  0.84034  Biso   1.000  O  -0.500743
  O30      1.0000 0.27051  0.29809  0.90449  Biso   1.000  O  -0.562270
  O31      1.0000 0.33426  0.24802  0.57738  Biso   1.000  O  -0.500744
  O32      1.0000 0.29809  0.27051  0.52691  Biso   1.000  O  -0.562264
  O33      1.0000 0.33426  0.84034  0.24802  Biso   1.000  O  -0.500743
  O34      1.0000 0.29809  0.90449  0.27051  Biso   1.000  O  -0.562270
  O35      1.0000 0.24802  0.57738  0.33426  Biso   1.000  O  -0.500744
  O36      1.0000 0.27051  0.52691  0.29809  Biso   1.000  O  -0.562265
  O37      1.0000 0.84034  0.33426  0.57738  Biso   1.000  O  -0.500739
  O38      1.0000 0.90449  0.29809  0.52691  Biso   1.000  O  -0.562265
  O39      1.0000 0.57738  0.24802  0.84034  Biso   1.000  O  -0.500752
  O40      1.0000 0.52691  0.27051  0.90449  Biso   1.000  O  -0.562267
  O41      1.0000 0.24802  0.84034  0.57738  Biso   1.000  O  -0.500752
  O42      1.0000 0.27051  0.90449  0.52691  Biso   1.000  O  -0.562267
  O43      1.0000 0.33426  0.57738  0.84034  Biso   1.000  O  -0.500739
  O44      1.0000 0.29809  0.52691  0.90449  Biso   1.000  O  -0.562265
  O45      1.0000 0.57738  0.33426  0.24802  Biso   1.000  O  -0.500744
  O46      1.0000 0.52691  0.29809  0.27051  Biso   1.000  O  -0.562265
  O47      1.0000 0.84034  0.24802  0.33426  Biso   1.000  O  -0.500743
  O48      1.0000 0.90449  0.27051  0.29809  Biso   1.000  O  -0.562270
  O49      1.0000 0.34034  0.07738  0.83426  Biso   1.000  O  -0.500739
  O50      1.0000 0.40449  0.02691  0.79809  Biso   1.000  O  -0.562265
  O51      1.0000 0.07738  0.34034  0.74802  Biso   1.000  O  -0.500752
  O52      1.0000 0.02691  0.40449  0.77051  Biso   1.000  O  -0.562268
  O53      1.0000 0.83426  0.74802  0.34034  Biso   1.000  O  -0.500743
  O54      1.0000 0.79809  0.77051  0.40449  Biso   1.000  O  -0.562270
  O55      1.0000 0.74802  0.83426  0.07738  Biso   1.000  O  -0.500744
  O56      1.0000 0.77051  0.79809  0.02691  Biso   1.000  O  -0.562265
  O57      1.0000 0.34034  0.83426  0.74802  Biso   1.000  O  -0.500743
  O58      1.0000 0.40449  0.79809  0.77051  Biso   1.000  O  -0.562270
  O59      1.0000 0.07738  0.74802  0.83426  Biso   1.000  O  -0.500744
  O60      1.0000 0.02691  0.77051  0.79809  Biso   1.000  O  -0.562265
  O61      1.0000 0.83426  0.34034  0.07738  Biso   1.000  O  -0.500739
  O62      1.0000 0.79809  0.40449  0.02691  Biso   1.000  O  -0.562265
  O63      1.0000 0.74802  0.07738  0.34034  Biso   1.000  O  -0.500752
  O64      1.0000 0.77051  0.02691  0.40449  Biso   1.000  O  -0.562267
  O65      1.0000 0.34034  0.74802  0.07738  Biso   1.000  O  -0.500752
  O66      1.0000 0.40449  0.77051  0.02691  Biso   1.000  O  -0.562268
  O67      1.0000 0.07738  0.83426  0.34034  Biso   1.000  O  -0.500739
  O68      1.0000 0.02691  0.79809  0.40449  Biso   1.000  O  -0.562265
  O69      1.0000 0.83426  0.07738  0.74802  Biso   1.000  O  -0.500744
  O70      1.0000 0.79809  0.02691  0.77051  Biso   1.000  O  -0.562265
  O71      1.0000 0.74802  0.34034  0.83426  Biso   1.000  O  -0.500743
  O72      1.0000 0.77051  0.40449  0.79809  Biso   1.000  O  -0.562270
  O73      1.0000 0.42262  0.15966  0.66574  Biso   1.000  O  -0.500739
  O74      1.0000 0.47309  0.09551  0.70191  Biso   1.000  O  -0.562265
  O75      1.0000 0.15966  0.42262  0.75198  Biso   1.000  O  -0.500752
  O76      1.0000 0.09551  0.47309  0.72949  Biso   1.000  O  -0.562267
  O77      1.0000 0.75198  0.66574  0.15966  Biso   1.000  O  -0.500743
  O78      1.0000 0.72949  0.70191  0.09551  Biso   1.000  O  -0.562270
  O79      1.0000 0.66574  0.75198  0.42262  Biso   1.000  O  -0.500744
  O80      1.0000 0.70191  0.72949  0.47309  Biso   1.000  O  -0.562264
  O81      1.0000 0.66574  0.15966  0.75198  Biso   1.000  O  -0.500743
  O82      1.0000 0.70191  0.09551  0.72949  Biso   1.000  O  -0.562270
  O83      1.0000 0.75198  0.42262  0.66574  Biso   1.000  O  -0.500744
  O84      1.0000 0.72949  0.47309  0.70191  Biso   1.000  O  -0.562265
  O85      1.0000 0.15966  0.66574  0.42262  Biso   1.000  O  -0.500739
  O86      1.0000 0.09551  0.70191  0.47309  Biso   1.000  O  -0.562265
  O87      1.0000 0.42262  0.75198  0.15966  Biso   1.000  O  -0.500752
  O88      1.0000 0.47309  0.72949  0.09551  Biso   1.000  O  -0.562267
  O89      1.0000 0.75198  0.15966  0.42262  Biso   1.000  O  -0.500753
  O90      1.0000 0.72949  0.09551  0.47309  Biso   1.000  O  -0.562268
  O91      1.0000 0.66574  0.42262  0.15966  Biso   1.000  O  -0.500739
  O92      1.0000 0.70191  0.47309  0.09551  Biso   1.000  O  -0.562265
  O93      1.0000 0.42262  0.66574  0.75198  Biso   1.000  O  -0.500744
  O94      1.0000 0.47309  0.70191  0.72949  Biso   1.000  O  -0.562265
  O95      1.0000 0.15966  0.75198  0.66574  Biso   1.000  O  -0.500743
  O96      1.0000 0.09551  0.72949  0.70191  Biso   1.000  O  -0.562270
  O97      1.0000 0.69642  0.19998  0.80002  Biso   1.000  O  -0.629336
  O98      1.0000 0.19998  0.69642  0.30358  Biso   1.000  O  -0.629327
  O99      1.0000 0.80002  0.30358  0.69642  Biso   1.000  O  -0.629327
  O100     1.0000 0.30358  0.80002  0.19998  Biso   1.000  O  -0.629336
  O101     1.0000 0.69642  0.80002  0.30358  Biso   1.000  O  -0.629327
  O102     1.0000 0.19998  0.30358  0.80002  Biso   1.000  O  -0.629336
  O103     1.0000 0.80002  0.69642  0.19998  Biso   1.000  O  -0.629336
  O104     1.0000 0.30358  0.19998  0.69642  Biso   1.000  O  -0.629327
  O105     1.0000 0.69642  0.30358  0.19998  Biso   1.000  O  -0.629327
  O106     1.0000 0.19998  0.80002  0.69642  Biso   1.000  O  -0.629336
  O107     1.0000 0.80002  0.19998  0.30358  Biso   1.000  O  -0.629336
  O108     1.0000 0.30358  0.69642  0.80002  Biso   1.000  O  -0.629327
  O109     1.0000 0.30002  0.80358  0.69998  Biso   1.000  O  -0.629336
  O110     1.0000 0.80358  0.30002  0.19642  Biso   1.000  O  -0.629327
  O111     1.0000 0.19642  0.69998  0.80358  Biso   1.000  O  -0.629327
  O112     1.0000 0.69998  0.19642  0.30002  Biso   1.000  O  -0.629336
  O113     1.0000 0.69998  0.80358  0.19642  Biso   1.000  O  -0.629327
  O114     1.0000 0.19642  0.30002  0.69998  Biso   1.000  O  -0.629336
  O115     1.0000 0.80358  0.69998  0.30002  Biso   1.000  O  -0.629336
  O116     1.0000 0.30002  0.19642  0.80358  Biso   1.000  O  -0.629327
  O117     1.0000 0.19642  0.80358  0.30002  Biso   1.000  O  -0.629327
  O118     1.0000 0.69998  0.30002  0.80358  Biso   1.000  O  -0.629336
  O119     1.0000 0.30002  0.69998  0.19642  Biso   1.000  O  -0.629336
  O120     1.0000 0.80358  0.19642  0.69998  Biso   1.000  O  -0.629327
