data_image0
_cell_length_a       24.9329
_cell_length_b       24.9329
_cell_length_c       24.9329
_cell_angle_alpha    109.471
_cell_angle_beta     109.471
_cell_angle_gamma    109.471

_symmetry_space_group_name_H-M    "P 1"
_symmetry_int_tables_number       1

loop_
  _symmetry_equiv_pos_as_xyz
  'x, y, z'

loop_
  _atom_site_label
  _atom_site_occupancy
  _atom_site_fract_x
  _atom_site_fract_y
  _atom_site_fract_z
  _atom_site_thermal_displace_type
  _atom_site_B_iso_or_equiv
  _atom_site_type_symbol
  _atom_site_charge
  C1       1.0000 0.17510  0.14290  0.23620  Biso   1.000  C  0.053341
  C2       1.0000 0.23910  0.18860  0.29250  Biso   1.000  C  0.070281
  C3       1.0000 0.13020  0.08960  0.23940  Biso   1.000  C  -0.128864
  C4       1.0000 0.15180  0.07960  0.29060  Biso   1.000  C  -0.078133
  C5       1.0000 0.25660  0.17470  0.34570  Biso   1.000  C  -0.155316
  C6       1.0000 0.21300  0.12060  0.34040  Biso   1.000  C  -0.068117
  C7       1.0000 0.08990  0.10740  0.12230  Biso   1.000  C  0.643587
  C8       1.0000 0.31130  0.29920  0.23350  Biso   1.000  C  -0.140739
  C9       1.0000 0.18840  0.21120  0.12320  Biso   1.000  C  -0.129433
  C10      1.0000 0.26810  0.24990  0.23660  Biso   1.000  C  0.067758
  C11      1.0000 0.15730  0.15210  0.18240  Biso   1.000  C  -0.103980
  C12      1.0000 0.23020  0.25770  0.12250  Biso   1.000  C  -0.091061
  C13      1.0000 0.20410  0.20400  0.18130  Biso   1.000  C  0.033587
  C14      1.0000 0.29410  0.30340  0.17950  Biso   1.000  C  -0.083695
  C15      1.0000 0.28500  0.24170  0.29370  Biso   1.000  C  -0.150701
  C16      1.0000 0.35070  0.29010  0.35460  Biso   1.000  C  0.639229
  C17      1.0000 0.40670  0.93890  0.26380  Biso   1.000  C  0.053309
  C18      1.0000 0.39610  0.94660  0.20750  Biso   1.000  C  0.070240
  C19      1.0000 0.35020  0.89080  0.26060  Biso   1.000  C  -0.128820
  C20      1.0000 0.28900  0.86120  0.20940  Biso   1.000  C  -0.078154
  C21      1.0000 0.32900  0.91090  0.15430  Biso   1.000  C  -0.155304
  C22      1.0000 0.28020  0.87260  0.15960  Biso   1.000  C  -0.068048
  C23      1.0000 0.48510  0.96760  0.37770  Biso   1.000  C  0.643548
  C24      1.0000 0.56570  0.07780  0.26650  Biso   1.000  C  -0.140716
  C25      1.0000 0.58800  0.06520  0.37680  Biso   1.000  C  -0.129394
  C26      1.0000 0.51330  0.03150  0.26340  Biso   1.000  C  0.067743
  C27      1.0000 0.46970  0.97490  0.31760  Biso   1.000  C  -0.103917
  C28      1.0000 0.63520  0.10770  0.37750  Biso   1.000  C  -0.091081
  C29      1.0000 0.52270  0.02280  0.31870  Biso   1.000  C  0.033560
  C30      1.0000 0.62390  0.11460  0.32050  Biso   1.000  C  -0.083710
  C31      1.0000 0.44800  0.99130  0.20630  Biso   1.000  C  -0.150623
  C32      1.0000 0.43550  0.99610  0.14540  Biso   1.000  C  0.639162
  C33      1.0000 0.09330  0.35710  0.53220  Biso   1.000  C  0.053285
  C34      1.0000 0.10390  0.31140  0.55050  Biso   1.000  C  0.070239
  C35      1.0000 0.14980  0.41040  0.54060  Biso   1.000  C  -0.128825
  C36      1.0000 0.21100  0.42040  0.57220  Biso   1.000  C  -0.078168
  C37      1.0000 0.17100  0.32530  0.58190  Biso   1.000  C  -0.155256
  C38      1.0000 0.21980  0.37940  0.59240  Biso   1.000  C  -0.068086
  C39      1.0000 0.01490  0.39260  0.48250  Biso   1.000  C  0.643568
  C40      1.0000 0.93430  0.20080  0.51210  Biso   1.000  C  -0.140696
  C41      1.0000 0.91200  0.28880  0.47720  Biso   1.000  C  -0.129433
  C42      1.0000 0.98670  0.25010  0.51820  Biso   1.000  C  0.067705
  C43      1.0000 0.03030  0.34790  0.50520  Biso   1.000  C  -0.103953
  C44      1.0000 0.86480  0.24230  0.47250  Biso   1.000  C  -0.091049
  C45      1.0000 0.97730  0.29600  0.50010  Biso   1.000  C  0.033601
  C46      1.0000 0.87610  0.19660  0.49070  Biso   1.000  C  -0.083690
  C47      1.0000 0.05200  0.25830  0.54330  Biso   1.000  C  -0.150621
  C48      1.0000 0.06450  0.20990  0.56060  Biso   1.000  C  0.639145
  C49      1.0000 0.32490  0.56110  0.96780  Biso   1.000  C  0.053274
  C50      1.0000 0.26090  0.55340  0.94950  Biso   1.000  C  0.070310
  C51      1.0000 0.36980  0.60920  0.95940  Biso   1.000  C  -0.128809
  C52      1.0000 0.34820  0.63880  0.92780  Biso   1.000  C  -0.078174
  C53      1.0000 0.24340  0.58910  0.91810  Biso   1.000  C  -0.155341
  C54      1.0000 0.28700  0.62740  0.90760  Biso   1.000  C  -0.068047
  C55      1.0000 0.41010  0.53240  0.01750  Biso   1.000  C  0.643576
  C56      1.0000 0.18870  0.42220  0.98790  Biso   1.000  C  -0.140747
  C57      1.0000 0.31160  0.43480  0.02280  Biso   1.000  C  -0.129383
  C58      1.0000 0.23190  0.46850  0.98180  Biso   1.000  C  0.067736
  C59      1.0000 0.34270  0.52510  0.99480  Biso   1.000  C  -0.103941
  C60      1.0000 0.26980  0.39230  0.02750  Biso   1.000  C  -0.091074
  C61      1.0000 0.29590  0.47720  0.99990  Biso   1.000  C  0.033591
  C62      1.0000 0.20590  0.38540  0.00930  Biso   1.000  C  -0.083700
  C63      1.0000 0.21500  0.50870  0.95670  Biso   1.000  C  -0.150636
  C64      1.0000 0.14930  0.50390  0.93940  Biso   1.000  C  0.639133
  C65      1.0000 0.03220  0.09330  0.85710  Biso   1.000  C  0.053284
  C66      1.0000 0.05050  0.10390  0.81140  Biso   1.000  C  0.070239
  C67      1.0000 0.04060  0.14980  0.91040  Biso   1.000  C  -0.128825
  C68      1.0000 0.07220  0.21100  0.92040  Biso   1.000  C  -0.078168
  C69      1.0000 0.08190  0.17100  0.82530  Biso   1.000  C  -0.155257
  C70      1.0000 0.09240  0.21980  0.87940  Biso   1.000  C  -0.068086
  C71      1.0000 0.98250  0.01490  0.89260  Biso   1.000  C  0.643568
  C72      1.0000 0.01210  0.93430  0.70080  Biso   1.000  C  -0.140696
  C73      1.0000 0.97720  0.91200  0.78880  Biso   1.000  C  -0.129433
  C74      1.0000 0.01820  0.98670  0.75010  Biso   1.000  C  0.067705
  C75      1.0000 0.00520  0.03030  0.84790  Biso   1.000  C  -0.103953
  C76      1.0000 0.97250  0.86480  0.74230  Biso   1.000  C  -0.091049
  C77      1.0000 0.00010  0.97730  0.79600  Biso   1.000  C  0.033601
  C78      1.0000 0.99070  0.87610  0.69660  Biso   1.000  C  -0.083690
  C79      1.0000 0.04330  0.05200  0.75830  Biso   1.000  C  -0.150621
  C80      1.0000 0.06060  0.06450  0.70990  Biso   1.000  C  0.639145
  C81      1.0000 0.46780  0.32490  0.06110  Biso   1.000  C  0.053274
  C82      1.0000 0.44950  0.26090  0.05340  Biso   1.000  C  0.070310
  C83      1.0000 0.45940  0.36980  0.10920  Biso   1.000  C  -0.128809
  C84      1.0000 0.42780  0.34820  0.13880  Biso   1.000  C  -0.078174
  C85      1.0000 0.41810  0.24340  0.08910  Biso   1.000  C  -0.155341
  C86      1.0000 0.40760  0.28700  0.12740  Biso   1.000  C  -0.068047
  C87      1.0000 0.51750  0.41010  0.03240  Biso   1.000  C  0.643576
  C88      1.0000 0.48790  0.18870  0.92220  Biso   1.000  C  -0.140747
  C89      1.0000 0.52280  0.31160  0.93480  Biso   1.000  C  -0.129383
  C90      1.0000 0.48180  0.23190  0.96850  Biso   1.000  C  0.067736
  C91      1.0000 0.49480  0.34270  0.02510  Biso   1.000  C  -0.103941
  C92      1.0000 0.52750  0.26980  0.89230  Biso   1.000  C  -0.091074
  C93      1.0000 0.49990  0.29590  0.97720  Biso   1.000  C  0.033591
  C94      1.0000 0.50930  0.20590  0.88540  Biso   1.000  C  -0.083700
  C95      1.0000 0.45670  0.21500  0.00870  Biso   1.000  C  -0.150636
  C96      1.0000 0.43940  0.14930  0.00390  Biso   1.000  C  0.639133
  C97      1.0000 0.73620  0.17510  0.64290  Biso   1.000  C  0.053341
  C98      1.0000 0.79250  0.23910  0.68860  Biso   1.000  C  0.070281
  C99      1.0000 0.73940  0.13020  0.58960  Biso   1.000  C  -0.128864
  C100     1.0000 0.79060  0.15180  0.57960  Biso   1.000  C  -0.078133
  C101     1.0000 0.84570  0.25660  0.67470  Biso   1.000  C  -0.155317
  C102     1.0000 0.84040  0.21300  0.62060  Biso   1.000  C  -0.068117
  C103     1.0000 0.62230  0.08990  0.60740  Biso   1.000  C  0.643587
  C104     1.0000 0.73350  0.31130  0.79920  Biso   1.000  C  -0.140739
  C105     1.0000 0.62320  0.18840  0.71120  Biso   1.000  C  -0.129433
  C106     1.0000 0.73660  0.26810  0.74990  Biso   1.000  C  0.067758
  C107     1.0000 0.68240  0.15730  0.65210  Biso   1.000  C  -0.103980
  C108     1.0000 0.62250  0.23020  0.75770  Biso   1.000  C  -0.091061
  C109     1.0000 0.68130  0.20410  0.70400  Biso   1.000  C  0.033587
  C110     1.0000 0.67950  0.29410  0.80340  Biso   1.000  C  -0.083695
  C111     1.0000 0.79370  0.28500  0.74170  Biso   1.000  C  -0.150701
  C112     1.0000 0.85460  0.35070  0.79010  Biso   1.000  C  0.639229
  C113     1.0000 0.76380  0.40670  0.43890  Biso   1.000  C  0.053308
  C114     1.0000 0.70750  0.39610  0.44660  Biso   1.000  C  0.070240
  C115     1.0000 0.76060  0.35020  0.39080  Biso   1.000  C  -0.128820
  C116     1.0000 0.70940  0.28900  0.36120  Biso   1.000  C  -0.078154
  C117     1.0000 0.65430  0.32900  0.41090  Biso   1.000  C  -0.155304
  C118     1.0000 0.65960  0.28020  0.37260  Biso   1.000  C  -0.068048
  C119     1.0000 0.87770  0.48510  0.46760  Biso   1.000  C  0.643548
  C120     1.0000 0.76650  0.56570  0.57780  Biso   1.000  C  -0.140716
  C121     1.0000 0.87680  0.58800  0.56520  Biso   1.000  C  -0.129394
  C122     1.0000 0.76340  0.51330  0.53150  Biso   1.000  C  0.067743
  C123     1.0000 0.81760  0.46970  0.47490  Biso   1.000  C  -0.103917
  C124     1.0000 0.87750  0.63520  0.60770  Biso   1.000  C  -0.091081
  C125     1.0000 0.81870  0.52270  0.52280  Biso   1.000  C  0.033560
  C126     1.0000 0.82050  0.62390  0.61460  Biso   1.000  C  -0.083710
  C127     1.0000 0.70630  0.44800  0.49130  Biso   1.000  C  -0.150623
  C128     1.0000 0.64540  0.43550  0.49610  Biso   1.000  C  0.639162
  C129     1.0000 0.93890  0.76380  0.90670  Biso   1.000  C  0.053309
  C130     1.0000 0.94660  0.70750  0.89610  Biso   1.000  C  0.070240
  C131     1.0000 0.89080  0.76060  0.85020  Biso   1.000  C  -0.128820
  C132     1.0000 0.86120  0.70940  0.78900  Biso   1.000  C  -0.078154
  C133     1.0000 0.91090  0.65430  0.82900  Biso   1.000  C  -0.155304
  C134     1.0000 0.87260  0.65960  0.78020  Biso   1.000  C  -0.068048
  C135     1.0000 0.96760  0.87770  0.98510  Biso   1.000  C  0.643548
  C136     1.0000 0.07780  0.76650  0.06570  Biso   1.000  C  -0.140715
  C137     1.0000 0.06520  0.87680  0.08800  Biso   1.000  C  -0.129394
  C138     1.0000 0.03150  0.76340  0.01330  Biso   1.000  C  0.067743
  C139     1.0000 0.97490  0.81760  0.96970  Biso   1.000  C  -0.103917
  C140     1.0000 0.10770  0.87750  0.13520  Biso   1.000  C  -0.091082
  C141     1.0000 0.02280  0.81870  0.02270  Biso   1.000  C  0.033560
  C142     1.0000 0.11460  0.82050  0.12390  Biso   1.000  C  -0.083709
  C143     1.0000 0.99130  0.70630  0.94800  Biso   1.000  C  -0.150623
  C144     1.0000 0.99610  0.64540  0.93550  Biso   1.000  C  0.639162
  C145     1.0000 0.14290  0.73620  0.67510  Biso   1.000  C  0.053341
  C146     1.0000 0.18860  0.79250  0.73910  Biso   1.000  C  0.070281
  C147     1.0000 0.08960  0.73940  0.63020  Biso   1.000  C  -0.128864
  C148     1.0000 0.07960  0.79060  0.65180  Biso   1.000  C  -0.078133
  C149     1.0000 0.17470  0.84570  0.75660  Biso   1.000  C  -0.155317
  C150     1.0000 0.12060  0.84040  0.71300  Biso   1.000  C  -0.068117
  C151     1.0000 0.10740  0.62230  0.58990  Biso   1.000  C  0.643587
  C152     1.0000 0.29920  0.73350  0.81130  Biso   1.000  C  -0.140739
  C153     1.0000 0.21120  0.62320  0.68840  Biso   1.000  C  -0.129433
  C154     1.0000 0.24990  0.73660  0.76810  Biso   1.000  C  0.067758
  C155     1.0000 0.15210  0.68240  0.65730  Biso   1.000  C  -0.103980
  C156     1.0000 0.25770  0.62250  0.73020  Biso   1.000  C  -0.091061
  C157     1.0000 0.20400  0.68130  0.70410  Biso   1.000  C  0.033587
  C158     1.0000 0.30340  0.67950  0.79410  Biso   1.000  C  -0.083695
  C159     1.0000 0.24170  0.79370  0.78500  Biso   1.000  C  -0.150701
  C160     1.0000 0.29010  0.85460  0.85070  Biso   1.000  C  0.639229
  C161     1.0000 0.56110  0.46780  0.82490  Biso   1.000  C  0.053274
  C162     1.0000 0.55340  0.44950  0.76090  Biso   1.000  C  0.070310
  C163     1.0000 0.60920  0.45940  0.86980  Biso   1.000  C  -0.128809
  C164     1.0000 0.63880  0.42780  0.84820  Biso   1.000  C  -0.078174
  C165     1.0000 0.58910  0.41810  0.74340  Biso   1.000  C  -0.155341
  C166     1.0000 0.62740  0.40760  0.78700  Biso   1.000  C  -0.068048
  C167     1.0000 0.53240  0.51750  0.91010  Biso   1.000  C  0.643576
  C168     1.0000 0.42220  0.48790  0.68870  Biso   1.000  C  -0.140747
  C169     1.0000 0.43480  0.52280  0.81160  Biso   1.000  C  -0.129383
  C170     1.0000 0.46850  0.48180  0.73190  Biso   1.000  C  0.067736
  C171     1.0000 0.52510  0.49480  0.84270  Biso   1.000  C  -0.103941
  C172     1.0000 0.39230  0.52750  0.76980  Biso   1.000  C  -0.091074
  C173     1.0000 0.47720  0.49990  0.79590  Biso   1.000  C  0.033591
  C174     1.0000 0.38540  0.50930  0.70590  Biso   1.000  C  -0.083700
  C175     1.0000 0.50870  0.45670  0.71500  Biso   1.000  C  -0.150636
  C176     1.0000 0.50390  0.43940  0.64930  Biso   1.000  C  0.639133
  C177     1.0000 0.35710  0.03220  0.59330  Biso   1.000  C  0.053284
  C178     1.0000 0.31140  0.05050  0.60390  Biso   1.000  C  0.070239
  C179     1.0000 0.41040  0.04060  0.64980  Biso   1.000  C  -0.128825
  C180     1.0000 0.42040  0.07220  0.71100  Biso   1.000  C  -0.078168
  C181     1.0000 0.32530  0.08190  0.67100  Biso   1.000  C  -0.155257
  C182     1.0000 0.37940  0.09240  0.71980  Biso   1.000  C  -0.068086
  C183     1.0000 0.39260  0.98250  0.51490  Biso   1.000  C  0.643568
  C184     1.0000 0.20080  0.01210  0.43430  Biso   1.000  C  -0.140696
  C185     1.0000 0.28880  0.97720  0.41200  Biso   1.000  C  -0.129433
  C186     1.0000 0.25010  0.01820  0.48670  Biso   1.000  C  0.067705
  C187     1.0000 0.34790  0.00520  0.53030  Biso   1.000  C  -0.103953
  C188     1.0000 0.24230  0.97250  0.36480  Biso   1.000  C  -0.091049
  C189     1.0000 0.29600  0.00010  0.47730  Biso   1.000  C  0.033601
  C190     1.0000 0.19660  0.99070  0.37610  Biso   1.000  C  -0.083690
  C191     1.0000 0.25830  0.04330  0.55200  Biso   1.000  C  -0.150621
  C192     1.0000 0.20990  0.06060  0.56450  Biso   1.000  C  0.639145
  C193     1.0000 0.43890  0.90670  0.76380  Biso   1.000  C  0.053309
  C194     1.0000 0.44660  0.89610  0.70750  Biso   1.000  C  0.070240
  C195     1.0000 0.39080  0.85020  0.76060  Biso   1.000  C  -0.128820
  C196     1.0000 0.36120  0.78900  0.70940  Biso   1.000  C  -0.078154
  C197     1.0000 0.41090  0.82900  0.65430  Biso   1.000  C  -0.155304
  C198     1.0000 0.37260  0.78020  0.65960  Biso   1.000  C  -0.068048
  C199     1.0000 0.46760  0.98510  0.87770  Biso   1.000  C  0.643548
  C200     1.0000 0.57780  0.06570  0.76650  Biso   1.000  C  -0.140716
  C201     1.0000 0.56520  0.08800  0.87680  Biso   1.000  C  -0.129394
  C202     1.0000 0.53150  0.01330  0.76340  Biso   1.000  C  0.067743
  C203     1.0000 0.47490  0.96970  0.81760  Biso   1.000  C  -0.103917
  C204     1.0000 0.60770  0.13520  0.87750  Biso   1.000  C  -0.091081
  C205     1.0000 0.52280  0.02270  0.81870  Biso   1.000  C  0.033560
  C206     1.0000 0.61460  0.12390  0.82050  Biso   1.000  C  -0.083710
  C207     1.0000 0.49130  0.94800  0.70630  Biso   1.000  C  -0.150623
  C208     1.0000 0.49610  0.93550  0.64540  Biso   1.000  C  0.639162
  C209     1.0000 0.64290  0.67510  0.73620  Biso   1.000  C  0.053341
  C210     1.0000 0.68860  0.73910  0.79250  Biso   1.000  C  0.070281
  C211     1.0000 0.58960  0.63020  0.73940  Biso   1.000  C  -0.128863
  C212     1.0000 0.57960  0.65180  0.79060  Biso   1.000  C  -0.078133
  C213     1.0000 0.67470  0.75660  0.84570  Biso   1.000  C  -0.155317
  C214     1.0000 0.62060  0.71300  0.84040  Biso   1.000  C  -0.068117
  C215     1.0000 0.60740  0.58990  0.62230  Biso   1.000  C  0.643587
  C216     1.0000 0.79920  0.81130  0.73350  Biso   1.000  C  -0.140739
  C217     1.0000 0.71120  0.68840  0.62320  Biso   1.000  C  -0.129433
  C218     1.0000 0.74990  0.76810  0.73660  Biso   1.000  C  0.067758
  C219     1.0000 0.65210  0.65730  0.68240  Biso   1.000  C  -0.103980
  C220     1.0000 0.75770  0.73020  0.62250  Biso   1.000  C  -0.091061
  C221     1.0000 0.70400  0.70410  0.68130  Biso   1.000  C  0.033587
  C222     1.0000 0.80340  0.79410  0.67950  Biso   1.000  C  -0.083695
  C223     1.0000 0.74170  0.78500  0.79370  Biso   1.000  C  -0.150701
  C224     1.0000 0.79010  0.85070  0.85460  Biso   1.000  C  0.639229
  C225     1.0000 0.06110  0.82490  0.46780  Biso   1.000  C  0.053274
  C226     1.0000 0.05340  0.76090  0.44950  Biso   1.000  C  0.070310
  C227     1.0000 0.10920  0.86980  0.45940  Biso   1.000  C  -0.128809
  C228     1.0000 0.13880  0.84820  0.42780  Biso   1.000  C  -0.078174
  C229     1.0000 0.08910  0.74340  0.41810  Biso   1.000  C  -0.155341
  C230     1.0000 0.12740  0.78700  0.40760  Biso   1.000  C  -0.068047
  C231     1.0000 0.03240  0.91010  0.51750  Biso   1.000  C  0.643576
  C232     1.0000 0.92220  0.68870  0.48790  Biso   1.000  C  -0.140747
  C233     1.0000 0.93480  0.81160  0.52280  Biso   1.000  C  -0.129383
  C234     1.0000 0.96850  0.73190  0.48180  Biso   1.000  C  0.067736
  C235     1.0000 0.02510  0.84270  0.49480  Biso   1.000  C  -0.103941
  C236     1.0000 0.89230  0.76980  0.52750  Biso   1.000  C  -0.091074
  C237     1.0000 0.97720  0.79590  0.49990  Biso   1.000  C  0.033591
  C238     1.0000 0.88540  0.70590  0.50930  Biso   1.000  C  -0.083700
  C239     1.0000 0.00870  0.71500  0.45670  Biso   1.000  C  -0.150636
  C240     1.0000 0.00390  0.64930  0.43940  Biso   1.000  C  0.639133
  C241     1.0000 0.85710  0.59330  0.03220  Biso   1.000  C  0.053284
  C242     1.0000 0.81140  0.60390  0.05050  Biso   1.000  C  0.070239
  C243     1.0000 0.91040  0.64980  0.04060  Biso   1.000  C  -0.128824
  C244     1.0000 0.92040  0.71100  0.07220  Biso   1.000  C  -0.078168
  C245     1.0000 0.82530  0.67100  0.08190  Biso   1.000  C  -0.155257
  C246     1.0000 0.87940  0.71980  0.09240  Biso   1.000  C  -0.068086
  C247     1.0000 0.89260  0.51490  0.98250  Biso   1.000  C  0.643568
  C248     1.0000 0.70080  0.43430  0.01210  Biso   1.000  C  -0.140696
  C249     1.0000 0.78880  0.41200  0.97720  Biso   1.000  C  -0.129433
  C250     1.0000 0.75010  0.48670  0.01820  Biso   1.000  C  0.067705
  C251     1.0000 0.84790  0.53030  0.00520  Biso   1.000  C  -0.103953
  C252     1.0000 0.74230  0.36480  0.97250  Biso   1.000  C  -0.091049
  C253     1.0000 0.79600  0.47730  0.00010  Biso   1.000  C  0.033601
  C254     1.0000 0.69660  0.37610  0.99070  Biso   1.000  C  -0.083690
  C255     1.0000 0.75830  0.55200  0.04330  Biso   1.000  C  -0.150621
  C256     1.0000 0.70990  0.56450  0.06060  Biso   1.000  C  0.639145
  C257     1.0000 0.67510  0.23620  0.14290  Biso   1.000  C  0.053341
  C258     1.0000 0.73910  0.29250  0.18860  Biso   1.000  C  0.070281
  C259     1.0000 0.63020  0.23940  0.08960  Biso   1.000  C  -0.128864
  C260     1.0000 0.65180  0.29060  0.07960  Biso   1.000  C  -0.078133
  C261     1.0000 0.75660  0.34570  0.17470  Biso   1.000  C  -0.155317
  C262     1.0000 0.71300  0.34040  0.12060  Biso   1.000  C  -0.068117
  C263     1.0000 0.58990  0.12230  0.10740  Biso   1.000  C  0.643587
  C264     1.0000 0.81130  0.23350  0.29920  Biso   1.000  C  -0.140739
  C265     1.0000 0.68840  0.12320  0.21120  Biso   1.000  C  -0.129433
  C266     1.0000 0.76810  0.23660  0.24990  Biso   1.000  C  0.067758
  C267     1.0000 0.65730  0.18240  0.15210  Biso   1.000  C  -0.103980
  C268     1.0000 0.73020  0.12250  0.25770  Biso   1.000  C  -0.091061
  C269     1.0000 0.70410  0.18130  0.20400  Biso   1.000  C  0.033587
  C270     1.0000 0.79410  0.17950  0.30340  Biso   1.000  C  -0.083695
  C271     1.0000 0.78500  0.29370  0.24170  Biso   1.000  C  -0.150701
  C272     1.0000 0.85070  0.35460  0.29010  Biso   1.000  C  0.639229
  C273     1.0000 0.90670  0.26380  0.93890  Biso   1.000  C  0.053308
  C274     1.0000 0.89610  0.20750  0.94660  Biso   1.000  C  0.070240
  C275     1.0000 0.85020  0.26060  0.89080  Biso   1.000  C  -0.128820
  C276     1.0000 0.78900  0.20940  0.86120  Biso   1.000  C  -0.078154
  C277     1.0000 0.82900  0.15430  0.91090  Biso   1.000  C  -0.155304
  C278     1.0000 0.78020  0.15960  0.87260  Biso   1.000  C  -0.068048
  C279     1.0000 0.98510  0.37770  0.96760  Biso   1.000  C  0.643548
  C280     1.0000 0.06570  0.26650  0.07780  Biso   1.000  C  -0.140715
  C281     1.0000 0.08800  0.37680  0.06520  Biso   1.000  C  -0.129394
  C282     1.0000 0.01330  0.26340  0.03150  Biso   1.000  C  0.067743
  C283     1.0000 0.96970  0.31760  0.97490  Biso   1.000  C  -0.103917
  C284     1.0000 0.13520  0.37750  0.10770  Biso   1.000  C  -0.091081
  C285     1.0000 0.02270  0.31870  0.02280  Biso   1.000  C  0.033560
  C286     1.0000 0.12390  0.32050  0.11460  Biso   1.000  C  -0.083710
  C287     1.0000 0.94800  0.20630  0.99130  Biso   1.000  C  -0.150623
  C288     1.0000 0.93550  0.14540  0.99610  Biso   1.000  C  0.639162
  C289     1.0000 0.59330  0.53220  0.35710  Biso   1.000  C  0.053285
  C290     1.0000 0.60390  0.55050  0.31140  Biso   1.000  C  0.070239
  C291     1.0000 0.64980  0.54060  0.41040  Biso   1.000  C  -0.128825
  C292     1.0000 0.71100  0.57220  0.42040  Biso   1.000  C  -0.078168
  C293     1.0000 0.67100  0.58190  0.32530  Biso   1.000  C  -0.155257
  C294     1.0000 0.71980  0.59240  0.37940  Biso   1.000  C  -0.068086
  C295     1.0000 0.51490  0.48250  0.39260  Biso   1.000  C  0.643568
  C296     1.0000 0.43430  0.51210  0.20080  Biso   1.000  C  -0.140696
  C297     1.0000 0.41200  0.47720  0.28880  Biso   1.000  C  -0.129433
  C298     1.0000 0.48670  0.51820  0.25010  Biso   1.000  C  0.067705
  C299     1.0000 0.53030  0.50520  0.34790  Biso   1.000  C  -0.103953
  C300     1.0000 0.36480  0.47250  0.24230  Biso   1.000  C  -0.091049
  C301     1.0000 0.47730  0.50010  0.29600  Biso   1.000  C  0.033601
  C302     1.0000 0.37610  0.49070  0.19660  Biso   1.000  C  -0.083690
  C303     1.0000 0.55200  0.54330  0.25830  Biso   1.000  C  -0.150621
  C304     1.0000 0.56450  0.56060  0.20990  Biso   1.000  C  0.639145
  C305     1.0000 0.82490  0.96780  0.56110  Biso   1.000  C  0.053274
  C306     1.0000 0.76090  0.94950  0.55340  Biso   1.000  C  0.070310
  C307     1.0000 0.86980  0.95940  0.60920  Biso   1.000  C  -0.128809
  C308     1.0000 0.84820  0.92780  0.63880  Biso   1.000  C  -0.078174
  C309     1.0000 0.74340  0.91810  0.58910  Biso   1.000  C  -0.155341
  C310     1.0000 0.78700  0.90760  0.62740  Biso   1.000  C  -0.068047
  C311     1.0000 0.91010  0.01750  0.53240  Biso   1.000  C  0.643576
  C312     1.0000 0.68870  0.98790  0.42220  Biso   1.000  C  -0.140747
  C313     1.0000 0.81160  0.02280  0.43480  Biso   1.000  C  -0.129383
  C314     1.0000 0.73190  0.98180  0.46850  Biso   1.000  C  0.067736
  C315     1.0000 0.84270  0.99480  0.52510  Biso   1.000  C  -0.103941
  C316     1.0000 0.76980  0.02750  0.39230  Biso   1.000  C  -0.091074
  C317     1.0000 0.79590  0.99990  0.47720  Biso   1.000  C  0.033591
  C318     1.0000 0.70590  0.00930  0.38540  Biso   1.000  C  -0.083700
  C319     1.0000 0.71500  0.95670  0.50870  Biso   1.000  C  -0.150636
  C320     1.0000 0.64930  0.93940  0.50390  Biso   1.000  C  0.639133
  C321     1.0000 0.53220  0.85710  0.09330  Biso   1.000  C  0.053284
  C322     1.0000 0.55050  0.81140  0.10390  Biso   1.000  C  0.070239
  C323     1.0000 0.54060  0.91040  0.14980  Biso   1.000  C  -0.128825
  C324     1.0000 0.57220  0.92040  0.21100  Biso   1.000  C  -0.078168
  C325     1.0000 0.58190  0.82530  0.17100  Biso   1.000  C  -0.155257
  C326     1.0000 0.59240  0.87940  0.21980  Biso   1.000  C  -0.068086
  C327     1.0000 0.48250  0.89260  0.01490  Biso   1.000  C  0.643568
  C328     1.0000 0.51210  0.70080  0.93430  Biso   1.000  C  -0.140696
  C329     1.0000 0.47720  0.78880  0.91200  Biso   1.000  C  -0.129433
  C330     1.0000 0.51820  0.75010  0.98670  Biso   1.000  C  0.067705
  C331     1.0000 0.50520  0.84790  0.03030  Biso   1.000  C  -0.103953
  C332     1.0000 0.47250  0.74230  0.86480  Biso   1.000  C  -0.091049
  C333     1.0000 0.50010  0.79600  0.97730  Biso   1.000  C  0.033601
  C334     1.0000 0.49070  0.69660  0.87610  Biso   1.000  C  -0.083690
  C335     1.0000 0.54330  0.75830  0.05200  Biso   1.000  C  -0.150621
  C336     1.0000 0.56060  0.70990  0.06450  Biso   1.000  C  0.639145
  C337     1.0000 0.96780  0.06110  0.32490  Biso   1.000  C  0.053274
  C338     1.0000 0.94950  0.05340  0.26090  Biso   1.000  C  0.070310
  C339     1.0000 0.95940  0.10920  0.36980  Biso   1.000  C  -0.128809
  C340     1.0000 0.92780  0.13880  0.34820  Biso   1.000  C  -0.078174
  C341     1.0000 0.91810  0.08910  0.24340  Biso   1.000  C  -0.155341
  C342     1.0000 0.90760  0.12740  0.28700  Biso   1.000  C  -0.068047
  C343     1.0000 0.01750  0.03240  0.41010  Biso   1.000  C  0.643576
  C344     1.0000 0.98790  0.92220  0.18870  Biso   1.000  C  -0.140747
  C345     1.0000 0.02280  0.93480  0.31160  Biso   1.000  C  -0.129383
  C346     1.0000 0.98180  0.96850  0.23190  Biso   1.000  C  0.067736
  C347     1.0000 0.99480  0.02510  0.34270  Biso   1.000  C  -0.103941
  C348     1.0000 0.02750  0.89230  0.26980  Biso   1.000  C  -0.091075
  C349     1.0000 0.99990  0.97720  0.29590  Biso   1.000  C  0.033591
  C350     1.0000 0.00930  0.88540  0.20590  Biso   1.000  C  -0.083700
  C351     1.0000 0.95670  0.00870  0.21500  Biso   1.000  C  -0.150636
  C352     1.0000 0.93940  0.00390  0.14930  Biso   1.000  C  0.639133
  C353     1.0000 0.23620  0.64290  0.17510  Biso   1.000  C  0.053341
  C354     1.0000 0.29250  0.68860  0.23910  Biso   1.000  C  0.070281
  C355     1.0000 0.23940  0.58960  0.13020  Biso   1.000  C  -0.128864
  C356     1.0000 0.29060  0.57960  0.15180  Biso   1.000  C  -0.078133
  C357     1.0000 0.34570  0.67470  0.25660  Biso   1.000  C  -0.155316
  C358     1.0000 0.34040  0.62060  0.21300  Biso   1.000  C  -0.068117
  C359     1.0000 0.12230  0.60740  0.08990  Biso   1.000  C  0.643587
  C360     1.0000 0.23350  0.79920  0.31130  Biso   1.000  C  -0.140739
  C361     1.0000 0.12320  0.71120  0.18840  Biso   1.000  C  -0.129433
  C362     1.0000 0.23660  0.74990  0.26810  Biso   1.000  C  0.067758
  C363     1.0000 0.18240  0.65210  0.15730  Biso   1.000  C  -0.103980
  C364     1.0000 0.12250  0.75770  0.23020  Biso   1.000  C  -0.091061
  C365     1.0000 0.18130  0.70400  0.20410  Biso   1.000  C  0.033587
  C366     1.0000 0.17950  0.80340  0.29410  Biso   1.000  C  -0.083695
  C367     1.0000 0.29370  0.74170  0.28500  Biso   1.000  C  -0.150701
  C368     1.0000 0.35460  0.79010  0.35070  Biso   1.000  C  0.639229
  C369     1.0000 0.26380  0.43890  0.40670  Biso   1.000  C  0.053308
  C370     1.0000 0.20750  0.44660  0.39610  Biso   1.000  C  0.070240
  C371     1.0000 0.26060  0.39080  0.35020  Biso   1.000  C  -0.128820
  C372     1.0000 0.20940  0.36120  0.28900  Biso   1.000  C  -0.078154
  C373     1.0000 0.15430  0.41090  0.32900  Biso   1.000  C  -0.155304
  C374     1.0000 0.15960  0.37260  0.28020  Biso   1.000  C  -0.068048
  C375     1.0000 0.37770  0.46760  0.48510  Biso   1.000  C  0.643548
  C376     1.0000 0.26650  0.57780  0.56570  Biso   1.000  C  -0.140716
  C377     1.0000 0.37680  0.56520  0.58800  Biso   1.000  C  -0.129394
  C378     1.0000 0.26340  0.53150  0.51330  Biso   1.000  C  0.067743
  C379     1.0000 0.31760  0.47490  0.46970  Biso   1.000  C  -0.103917
  C380     1.0000 0.37750  0.60770  0.63520  Biso   1.000  C  -0.091081
  C381     1.0000 0.31870  0.52280  0.52270  Biso   1.000  C  0.033560
  C382     1.0000 0.32050  0.61460  0.62390  Biso   1.000  C  -0.083710
  C383     1.0000 0.20630  0.49130  0.44800  Biso   1.000  C  -0.150623
  C384     1.0000 0.14540  0.49610  0.43550  Biso   1.000  C  0.639162
  H1       1.0000 0.08670  0.06270  0.20600  Biso   1.000  H  0.110554
  H2       1.0000 0.12380  0.04410  0.29090  Biso   1.000  H  0.099995
  H3       1.0000 0.29770  0.20290  0.38340  Biso   1.000  H  0.108682
  H4       1.0000 0.22670  0.11140  0.37410  Biso   1.000  H  0.098127
  H5       1.0000 0.35310  0.32980  0.26990  Biso   1.000  H  0.119414
  H6       1.0000 0.14730  0.18150  0.08580  Biso   1.000  H  0.117383
  H7       1.0000 0.21910  0.26180  0.08510  Biso   1.000  H  0.108089
  H8       1.0000 0.32400  0.33680  0.17840  Biso   1.000  H  0.097455
  H9       1.0000 0.35670  0.88070  0.29400  Biso   1.000  H  0.110492
  H10      1.0000 0.25320  0.83290  0.20910  Biso   1.000  H  0.099991
  H11      1.0000 0.31950  0.91430  0.11660  Biso   1.000  H  0.108689
  H12      1.0000 0.23730  0.85260  0.12590  Biso   1.000  H  0.098123
  H13      1.0000 0.55990  0.08320  0.23010  Biso   1.000  H  0.119401
  H14      1.0000 0.59570  0.06150  0.41420  Biso   1.000  H  0.117371
  H15      1.0000 0.67670  0.13400  0.41490  Biso   1.000  H  0.108120
  H16      1.0000 0.65840  0.14560  0.32160  Biso   1.000  H  0.097451
  H17      1.0000 0.14330  0.43730  0.52400  Biso   1.000  H  0.110532
  H18      1.0000 0.24680  0.45590  0.57970  Biso   1.000  H  0.099990
  H19      1.0000 0.18050  0.29710  0.59480  Biso   1.000  H  0.108677
  H20      1.0000 0.26270  0.38860  0.61530  Biso   1.000  H  0.098134
  H21      1.0000 0.94010  0.17020  0.52330  Biso   1.000  H  0.119389
  H22      1.0000 0.90430  0.31850  0.46580  Biso   1.000  H  0.117380
  H23      1.0000 0.82330  0.23820  0.45730  Biso   1.000  H  0.108108
  H24      1.0000 0.84160  0.16320  0.48720  Biso   1.000  H  0.097438
  H25      1.0000 0.41330  0.61930  0.97600  Biso   1.000  H  0.110524
  H26      1.0000 0.37620  0.66710  0.92030  Biso   1.000  H  0.099994
  H27      1.0000 0.20230  0.58570  0.90520  Biso   1.000  H  0.108693
  H28      1.0000 0.27330  0.64740  0.88470  Biso   1.000  H  0.098107
  H29      1.0000 0.14690  0.41680  0.97670  Biso   1.000  H  0.119416
  H30      1.0000 0.35270  0.43850  0.03420  Biso   1.000  H  0.117367
  H31      1.0000 0.28090  0.36600  0.04270  Biso   1.000  H  0.108093
  H32      1.0000 0.17600  0.35440  0.01280  Biso   1.000  H  0.097452
  H33      1.0000 0.02400  0.14330  0.93730  Biso   1.000  H  0.110532
  H34      1.0000 0.07970  0.24680  0.95590  Biso   1.000  H  0.099990
  H35      1.0000 0.09480  0.18050  0.79710  Biso   1.000  H  0.108678
  H36      1.0000 0.11530  0.26270  0.88860  Biso   1.000  H  0.098134
  H37      1.0000 0.02330  0.94010  0.67020  Biso   1.000  H  0.119389
  H38      1.0000 0.96580  0.90430  0.81850  Biso   1.000  H  0.117380
  H39      1.0000 0.95730  0.82330  0.73820  Biso   1.000  H  0.108108
  H40      1.0000 0.98720  0.84160  0.66320  Biso   1.000  H  0.097438
  H41      1.0000 0.47600  0.41330  0.11930  Biso   1.000  H  0.110524
  H42      1.0000 0.42030  0.37620  0.16710  Biso   1.000  H  0.099994
  H43      1.0000 0.40520  0.20230  0.08570  Biso   1.000  H  0.108693
  H44      1.0000 0.38470  0.27330  0.14740  Biso   1.000  H  0.098107
  H45      1.0000 0.47670  0.14690  0.91680  Biso   1.000  H  0.119416
  H46      1.0000 0.53420  0.35270  0.93850  Biso   1.000  H  0.117367
  H47      1.0000 0.54270  0.28090  0.86600  Biso   1.000  H  0.108093
  H48      1.0000 0.51280  0.17600  0.85440  Biso   1.000  H  0.097452
  H49      1.0000 0.70600  0.08670  0.56270  Biso   1.000  H  0.110554
  H50      1.0000 0.79090  0.12380  0.54410  Biso   1.000  H  0.099995
  H51      1.0000 0.88340  0.29770  0.70290  Biso   1.000  H  0.108682
  H52      1.0000 0.87410  0.22670  0.61140  Biso   1.000  H  0.098127
  H53      1.0000 0.76990  0.35310  0.82980  Biso   1.000  H  0.119414
  H54      1.0000 0.58580  0.14730  0.68150  Biso   1.000  H  0.117383
  H55      1.0000 0.58510  0.21910  0.76180  Biso   1.000  H  0.108089
  H56      1.0000 0.67840  0.32400  0.83680  Biso   1.000  H  0.097455
  H57      1.0000 0.79400  0.35670  0.38070  Biso   1.000  H  0.110492
  H58      1.0000 0.70910  0.25320  0.33290  Biso   1.000  H  0.099991
  H59      1.0000 0.61660  0.31950  0.41430  Biso   1.000  H  0.108689
  H60      1.0000 0.62590  0.23730  0.35260  Biso   1.000  H  0.098123
  H61      1.0000 0.73010  0.55990  0.58320  Biso   1.000  H  0.119401
  H62      1.0000 0.91420  0.59570  0.56150  Biso   1.000  H  0.117372
  H63      1.0000 0.91490  0.67670  0.63400  Biso   1.000  H  0.108120
  H64      1.0000 0.82160  0.65840  0.64560  Biso   1.000  H  0.097451
  H65      1.0000 0.88070  0.79400  0.85670  Biso   1.000  H  0.110492
  H66      1.0000 0.83290  0.70910  0.75320  Biso   1.000  H  0.099991
  H67      1.0000 0.91430  0.61660  0.81950  Biso   1.000  H  0.108688
  H68      1.0000 0.85260  0.62590  0.73730  Biso   1.000  H  0.098123
  H69      1.0000 0.08320  0.73010  0.05990  Biso   1.000  H  0.119401
  H70      1.0000 0.06150  0.91420  0.09570  Biso   1.000  H  0.117371
  H71      1.0000 0.13400  0.91490  0.17670  Biso   1.000  H  0.108120
  H72      1.0000 0.14560  0.82160  0.15840  Biso   1.000  H  0.097451
  H73      1.0000 0.06270  0.70600  0.58670  Biso   1.000  H  0.110554
  H74      1.0000 0.04410  0.79090  0.62380  Biso   1.000  H  0.099995
  H75      1.0000 0.20290  0.88340  0.79770  Biso   1.000  H  0.108682
  H76      1.0000 0.11140  0.87410  0.72670  Biso   1.000  H  0.098127
  H77      1.0000 0.32980  0.76990  0.85310  Biso   1.000  H  0.119414
  H78      1.0000 0.18150  0.58580  0.64730  Biso   1.000  H  0.117383
  H79      1.0000 0.26180  0.58510  0.71910  Biso   1.000  H  0.108089
  H80      1.0000 0.33680  0.67840  0.82400  Biso   1.000  H  0.097454
  H81      1.0000 0.61930  0.47600  0.91330  Biso   1.000  H  0.110524
  H82      1.0000 0.66710  0.42030  0.87620  Biso   1.000  H  0.099994
  H83      1.0000 0.58570  0.40520  0.70230  Biso   1.000  H  0.108693
  H84      1.0000 0.64740  0.38470  0.77330  Biso   1.000  H  0.098107
  H85      1.0000 0.41680  0.47670  0.64690  Biso   1.000  H  0.119416
  H86      1.0000 0.43850  0.53420  0.85270  Biso   1.000  H  0.117367
  H87      1.0000 0.36600  0.54270  0.78090  Biso   1.000  H  0.108093
  H88      1.0000 0.35440  0.51280  0.67600  Biso   1.000  H  0.097452
  H89      1.0000 0.43730  0.02400  0.64330  Biso   1.000  H  0.110532
  H90      1.0000 0.45590  0.07970  0.74680  Biso   1.000  H  0.099990
  H91      1.0000 0.29710  0.09480  0.68050  Biso   1.000  H  0.108678
  H92      1.0000 0.38860  0.11530  0.76270  Biso   1.000  H  0.098134
  H93      1.0000 0.17020  0.02330  0.44010  Biso   1.000  H  0.119389
  H94      1.0000 0.31850  0.96580  0.40430  Biso   1.000  H  0.117380
  H95      1.0000 0.23820  0.95730  0.32330  Biso   1.000  H  0.108108
  H96      1.0000 0.16320  0.98720  0.34160  Biso   1.000  H  0.097438
  H97      1.0000 0.38070  0.85670  0.79400  Biso   1.000  H  0.110492
  H98      1.0000 0.33290  0.75320  0.70910  Biso   1.000  H  0.099991
  H99      1.0000 0.41430  0.81950  0.61660  Biso   1.000  H  0.108689
  H100     1.0000 0.35260  0.73730  0.62590  Biso   1.000  H  0.098123
  H101     1.0000 0.58320  0.05990  0.73010  Biso   1.000  H  0.119401
  H102     1.0000 0.56150  0.09570  0.91420  Biso   1.000  H  0.117372
  H103     1.0000 0.63400  0.17670  0.91490  Biso   1.000  H  0.108120
  H104     1.0000 0.64560  0.15840  0.82160  Biso   1.000  H  0.097451
  H105     1.0000 0.56270  0.58670  0.70600  Biso   1.000  H  0.110554
  H106     1.0000 0.54410  0.62380  0.79090  Biso   1.000  H  0.099995
  H107     1.0000 0.70290  0.79770  0.88340  Biso   1.000  H  0.108682
  H108     1.0000 0.61140  0.72670  0.87410  Biso   1.000  H  0.098127
  H109     1.0000 0.82980  0.85310  0.76990  Biso   1.000  H  0.119414
  H110     1.0000 0.68150  0.64730  0.58580  Biso   1.000  H  0.117383
  H111     1.0000 0.76180  0.71910  0.58510  Biso   1.000  H  0.108089
  H112     1.0000 0.83680  0.82400  0.67840  Biso   1.000  H  0.097455
  H113     1.0000 0.11930  0.91330  0.47600  Biso   1.000  H  0.110524
  H114     1.0000 0.16710  0.87620  0.42030  Biso   1.000  H  0.099994
  H115     1.0000 0.08570  0.70230  0.40520  Biso   1.000  H  0.108693
  H116     1.0000 0.14740  0.77330  0.38470  Biso   1.000  H  0.098107
  H117     1.0000 0.91680  0.64690  0.47670  Biso   1.000  H  0.119416
  H118     1.0000 0.93850  0.85270  0.53420  Biso   1.000  H  0.117367
  H119     1.0000 0.86600  0.78090  0.54270  Biso   1.000  H  0.108093
  H120     1.0000 0.85440  0.67600  0.51280  Biso   1.000  H  0.097452
  H121     1.0000 0.93730  0.64330  0.02400  Biso   1.000  H  0.110532
  H122     1.0000 0.95590  0.74680  0.07970  Biso   1.000  H  0.099990
  H123     1.0000 0.79710  0.68050  0.09480  Biso   1.000  H  0.108678
  H124     1.0000 0.88860  0.76270  0.11530  Biso   1.000  H  0.098134
  H125     1.0000 0.67020  0.44010  0.02330  Biso   1.000  H  0.119389
  H126     1.0000 0.81850  0.40430  0.96580  Biso   1.000  H  0.117380
  H127     1.0000 0.73820  0.32330  0.95730  Biso   1.000  H  0.108108
  H128     1.0000 0.66320  0.34160  0.98720  Biso   1.000  H  0.097438
  H129     1.0000 0.58670  0.20600  0.06270  Biso   1.000  H  0.110554
  H130     1.0000 0.62380  0.29090  0.04410  Biso   1.000  H  0.099995
  H131     1.0000 0.79770  0.38340  0.20290  Biso   1.000  H  0.108682
  H132     1.0000 0.72670  0.37410  0.11140  Biso   1.000  H  0.098127
  H133     1.0000 0.85310  0.26990  0.32980  Biso   1.000  H  0.119414
  H134     1.0000 0.64730  0.08580  0.18150  Biso   1.000  H  0.117383
  H135     1.0000 0.71910  0.08510  0.26180  Biso   1.000  H  0.108089
  H136     1.0000 0.82400  0.17840  0.33680  Biso   1.000  H  0.097455
  H137     1.0000 0.85670  0.29400  0.88070  Biso   1.000  H  0.110492
  H138     1.0000 0.75320  0.20910  0.83290  Biso   1.000  H  0.099991
  H139     1.0000 0.81950  0.11660  0.91430  Biso   1.000  H  0.108688
  H140     1.0000 0.73730  0.12590  0.85260  Biso   1.000  H  0.098123
  H141     1.0000 0.05990  0.23010  0.08320  Biso   1.000  H  0.119401
  H142     1.0000 0.09570  0.41420  0.06150  Biso   1.000  H  0.117372
  H143     1.0000 0.17670  0.41490  0.13400  Biso   1.000  H  0.108120
  H144     1.0000 0.15840  0.32160  0.14560  Biso   1.000  H  0.097451
  H145     1.0000 0.64330  0.52400  0.43730  Biso   1.000  H  0.110532
  H146     1.0000 0.74680  0.57970  0.45590  Biso   1.000  H  0.099990
  H147     1.0000 0.68050  0.59480  0.29710  Biso   1.000  H  0.108677
  H148     1.0000 0.76270  0.61530  0.38860  Biso   1.000  H  0.098134
  H149     1.0000 0.44010  0.52330  0.17020  Biso   1.000  H  0.119389
  H150     1.0000 0.40430  0.46580  0.31850  Biso   1.000  H  0.117380
  H151     1.0000 0.32330  0.45730  0.23820  Biso   1.000  H  0.108108
  H152     1.0000 0.34160  0.48720  0.16320  Biso   1.000  H  0.097438
  H153     1.0000 0.91330  0.97600  0.61930  Biso   1.000  H  0.110524
  H154     1.0000 0.87620  0.92030  0.66710  Biso   1.000  H  0.099994
  H155     1.0000 0.70230  0.90520  0.58570  Biso   1.000  H  0.108693
  H156     1.0000 0.77330  0.88470  0.64740  Biso   1.000  H  0.098107
  H157     1.0000 0.64690  0.97670  0.41680  Biso   1.000  H  0.119416
  H158     1.0000 0.85270  0.03420  0.43850  Biso   1.000  H  0.117367
  H159     1.0000 0.78090  0.04270  0.36600  Biso   1.000  H  0.108093
  H160     1.0000 0.67600  0.01280  0.35440  Biso   1.000  H  0.097452
  H161     1.0000 0.52400  0.93730  0.14330  Biso   1.000  H  0.110532
  H162     1.0000 0.57970  0.95590  0.24680  Biso   1.000  H  0.099990
  H163     1.0000 0.59480  0.79710  0.18050  Biso   1.000  H  0.108678
  H164     1.0000 0.61530  0.88860  0.26270  Biso   1.000  H  0.098134
  H165     1.0000 0.52330  0.67020  0.94010  Biso   1.000  H  0.119389
  H166     1.0000 0.46580  0.81850  0.90430  Biso   1.000  H  0.117380
  H167     1.0000 0.45730  0.73820  0.82330  Biso   1.000  H  0.108108
  H168     1.0000 0.48720  0.66320  0.84160  Biso   1.000  H  0.097438
  H169     1.0000 0.97600  0.11930  0.41330  Biso   1.000  H  0.110524
  H170     1.0000 0.92030  0.16710  0.37620  Biso   1.000  H  0.099994
  H171     1.0000 0.90520  0.08570  0.20230  Biso   1.000  H  0.108693
  H172     1.0000 0.88470  0.14740  0.27330  Biso   1.000  H  0.098107
  H173     1.0000 0.97670  0.91680  0.14690  Biso   1.000  H  0.119416
  H174     1.0000 0.03420  0.93850  0.35270  Biso   1.000  H  0.117367
  H175     1.0000 0.04270  0.86600  0.28090  Biso   1.000  H  0.108093
  H176     1.0000 0.01280  0.85440  0.17600  Biso   1.000  H  0.097452
  H177     1.0000 0.20600  0.56270  0.08670  Biso   1.000  H  0.110554
  H178     1.0000 0.29090  0.54410  0.12380  Biso   1.000  H  0.099995
  H179     1.0000 0.38340  0.70290  0.29770  Biso   1.000  H  0.108682
  H180     1.0000 0.37410  0.61140  0.22670  Biso   1.000  H  0.098127
  H181     1.0000 0.26990  0.82980  0.35310  Biso   1.000  H  0.119414
  H182     1.0000 0.08580  0.68150  0.14730  Biso   1.000  H  0.117382
  H183     1.0000 0.08510  0.76180  0.21910  Biso   1.000  H  0.108089
  H184     1.0000 0.17840  0.83680  0.32400  Biso   1.000  H  0.097454
  H185     1.0000 0.29400  0.38070  0.35670  Biso   1.000  H  0.110492
  H186     1.0000 0.20910  0.33290  0.25320  Biso   1.000  H  0.099991
  H187     1.0000 0.11660  0.41430  0.31950  Biso   1.000  H  0.108689
  H188     1.0000 0.12590  0.35260  0.23730  Biso   1.000  H  0.098123
  H189     1.0000 0.23010  0.58320  0.55990  Biso   1.000  H  0.119401
  H190     1.0000 0.41420  0.56150  0.59570  Biso   1.000  H  0.117371
  H191     1.0000 0.41490  0.63400  0.67670  Biso   1.000  H  0.108120
  H192     1.0000 0.32160  0.64560  0.65840  Biso   1.000  H  0.097451
  O1       1.0000 0.05136  0.13005  0.11631  Biso   1.000  O  -0.582563
  O2       1.0000 0.40154  0.29745  0.35025  Biso   1.000  O  -0.539658
  O3       1.0000 0.35110  0.31960  0.40770  Biso   1.000  O  -0.551293
  O4       1.0000 0.07564  0.05189  0.08713  Biso   1.000  O  -0.519574
  O5       1.0000 0.51374  0.93505  0.38369  Biso   1.000  O  -0.582561
  O6       1.0000 0.44720  0.05129  0.14975  Biso   1.000  O  -0.539609
  O7       1.0000 0.41190  0.94340  0.09230  Biso   1.000  O  -0.551307
  O8       1.0000 0.46476  0.98851  0.41287  Biso   1.000  O  -0.519574
  O9       1.0000 0.98626  0.36995  0.42131  Biso   1.000  O  -0.582553
  O10      1.0000 0.05280  0.20255  0.60409  Biso   1.000  O  -0.539607
  O11      1.0000 0.08810  0.18040  0.53150  Biso   1.000  O  -0.551285
  O12      1.0000 0.03524  0.44811  0.52375  Biso   1.000  O  -0.519561
  O13      1.0000 0.44864  0.56495  0.07869  Biso   1.000  O  -0.582571
  O14      1.0000 0.09846  0.44871  0.89591  Biso   1.000  O  -0.539609
  O15      1.0000 0.14890  0.55660  0.96850  Biso   1.000  O  -0.551267
  O16      1.0000 0.42436  0.51149  0.97625  Biso   1.000  O  -0.519563
  O17      1.0000 0.92131  0.98626  0.86995  Biso   1.000  O  -0.582553
  O18      1.0000 0.10409  0.05280  0.70255  Biso   1.000  O  -0.539607
  O19      1.0000 0.03150  0.08810  0.68040  Biso   1.000  O  -0.551285
  O20      1.0000 0.02375  0.03524  0.94811  Biso   1.000  O  -0.519560
  O21      1.0000 0.57869  0.44864  0.06495  Biso   1.000  O  -0.582571
  O22      1.0000 0.39591  0.09846  0.94871  Biso   1.000  O  -0.539609
  O23      1.0000 0.46850  0.14890  0.05660  Biso   1.000  O  -0.551268
  O24      1.0000 0.47625  0.42436  0.01149  Biso   1.000  O  -0.519563
  O25      1.0000 0.61631  0.05136  0.63005  Biso   1.000  O  -0.582563
  O26      1.0000 0.85025  0.40154  0.79745  Biso   1.000  O  -0.539659
  O27      1.0000 0.90770  0.35110  0.81960  Biso   1.000  O  -0.551293
  O28      1.0000 0.58713  0.07564  0.55189  Biso   1.000  O  -0.519574
  O29      1.0000 0.88369  0.51374  0.43505  Biso   1.000  O  -0.582561
  O30      1.0000 0.64975  0.44720  0.55129  Biso   1.000  O  -0.539609
  O31      1.0000 0.59230  0.41190  0.44340  Biso   1.000  O  -0.551307
  O32      1.0000 0.91287  0.46476  0.48851  Biso   1.000  O  -0.519574
  O33      1.0000 0.93505  0.88369  0.01374  Biso   1.000  O  -0.582561
  O34      1.0000 0.05129  0.64975  0.94720  Biso   1.000  O  -0.539609
  O35      1.0000 0.94340  0.59230  0.91190  Biso   1.000  O  -0.551307
  O36      1.0000 0.98851  0.91287  0.96476  Biso   1.000  O  -0.519573
  O37      1.0000 0.13005  0.61631  0.55136  Biso   1.000  O  -0.582562
  O38      1.0000 0.29745  0.85025  0.90154  Biso   1.000  O  -0.539658
  O39      1.0000 0.31960  0.90770  0.85110  Biso   1.000  O  -0.551293
  O40      1.0000 0.05189  0.58713  0.57564  Biso   1.000  O  -0.519574
  O41      1.0000 0.56495  0.57869  0.94864  Biso   1.000  O  -0.582571
  O42      1.0000 0.44871  0.39591  0.59846  Biso   1.000  O  -0.539609
  O43      1.0000 0.55660  0.46850  0.64890  Biso   1.000  O  -0.551267
  O44      1.0000 0.51149  0.47625  0.92436  Biso   1.000  O  -0.519563
  O45      1.0000 0.36995  0.92131  0.48626  Biso   1.000  O  -0.582553
  O46      1.0000 0.20255  0.10409  0.55280  Biso   1.000  O  -0.539607
  O47      1.0000 0.18040  0.03150  0.58810  Biso   1.000  O  -0.551285
  O48      1.0000 0.44811  0.02375  0.53524  Biso   1.000  O  -0.519561
  O49      1.0000 0.43505  0.01374  0.88369  Biso   1.000  O  -0.582561
  O50      1.0000 0.55129  0.94720  0.64975  Biso   1.000  O  -0.539609
  O51      1.0000 0.44340  0.91190  0.59230  Biso   1.000  O  -0.551307
  O52      1.0000 0.48851  0.96476  0.91287  Biso   1.000  O  -0.519573
  O53      1.0000 0.63005  0.55136  0.61631  Biso   1.000  O  -0.582563
  O54      1.0000 0.79745  0.90154  0.85025  Biso   1.000  O  -0.539658
  O55      1.0000 0.81960  0.85110  0.90770  Biso   1.000  O  -0.551293
  O56      1.0000 0.55189  0.57564  0.58713  Biso   1.000  O  -0.519574
  O57      1.0000 0.06495  0.94864  0.57869  Biso   1.000  O  -0.582571
  O58      1.0000 0.94871  0.59846  0.39591  Biso   1.000  O  -0.539609
  O59      1.0000 0.05660  0.64890  0.46850  Biso   1.000  O  -0.551267
  O60      1.0000 0.01149  0.92436  0.47625  Biso   1.000  O  -0.519563
  O61      1.0000 0.86995  0.48626  0.92131  Biso   1.000  O  -0.582553
  O62      1.0000 0.70255  0.55280  0.10409  Biso   1.000  O  -0.539607
  O63      1.0000 0.68040  0.58810  0.03150  Biso   1.000  O  -0.551285
  O64      1.0000 0.94811  0.53524  0.02375  Biso   1.000  O  -0.519560
  O65      1.0000 0.55136  0.11631  0.13005  Biso   1.000  O  -0.582563
  O66      1.0000 0.90154  0.35025  0.29745  Biso   1.000  O  -0.539659
  O67      1.0000 0.85110  0.40770  0.31960  Biso   1.000  O  -0.551293
  O68      1.0000 0.57564  0.08713  0.05189  Biso   1.000  O  -0.519574
  O69      1.0000 0.01374  0.38369  0.93505  Biso   1.000  O  -0.582561
  O70      1.0000 0.94720  0.14975  0.05129  Biso   1.000  O  -0.539610
  O71      1.0000 0.91190  0.09230  0.94340  Biso   1.000  O  -0.551307
  O72      1.0000 0.96476  0.41287  0.98851  Biso   1.000  O  -0.519574
  O73      1.0000 0.48626  0.42131  0.36995  Biso   1.000  O  -0.582553
  O74      1.0000 0.55280  0.60409  0.20255  Biso   1.000  O  -0.539607
  O75      1.0000 0.58810  0.53150  0.18040  Biso   1.000  O  -0.551285
  O76      1.0000 0.53524  0.52375  0.44811  Biso   1.000  O  -0.519560
  O77      1.0000 0.94864  0.07869  0.56495  Biso   1.000  O  -0.582571
  O78      1.0000 0.59846  0.89591  0.44871  Biso   1.000  O  -0.539609
  O79      1.0000 0.64890  0.96850  0.55660  Biso   1.000  O  -0.551267
  O80      1.0000 0.92436  0.97625  0.51149  Biso   1.000  O  -0.519563
  O81      1.0000 0.42131  0.86995  0.98626  Biso   1.000  O  -0.582553
  O82      1.0000 0.60409  0.70255  0.05280  Biso   1.000  O  -0.539607
  O83      1.0000 0.53150  0.68040  0.08810  Biso   1.000  O  -0.551285
  O84      1.0000 0.52375  0.94811  0.03524  Biso   1.000  O  -0.519560
  O85      1.0000 0.07869  0.06495  0.44864  Biso   1.000  O  -0.582571
  O86      1.0000 0.89591  0.94871  0.09846  Biso   1.000  O  -0.539609
  O87      1.0000 0.96850  0.05660  0.14890  Biso   1.000  O  -0.551267
  O88      1.0000 0.97625  0.01149  0.42436  Biso   1.000  O  -0.519563
  O89      1.0000 0.11631  0.63005  0.05136  Biso   1.000  O  -0.582563
  O90      1.0000 0.35025  0.79745  0.40154  Biso   1.000  O  -0.539658
  O91      1.0000 0.40770  0.81960  0.35110  Biso   1.000  O  -0.551293
  O92      1.0000 0.08713  0.55189  0.07564  Biso   1.000  O  -0.519574
  O93      1.0000 0.38369  0.43505  0.51374  Biso   1.000  O  -0.582561
  O94      1.0000 0.14975  0.55129  0.44720  Biso   1.000  O  -0.539609
  O95      1.0000 0.09230  0.44340  0.41190  Biso   1.000  O  -0.551307
  O96      1.0000 0.41287  0.48851  0.46476  Biso   1.000  O  -0.519574
  O97      1.0000 0.91686  0.00000  0.00000  Biso   1.000  O  -1.033256
  O98      1.0000 0.50000  0.91686  0.50000  Biso   1.000  O  -1.033252
  O99      1.0000 1.00000  0.50000  0.41686  Biso   1.000  O  -1.033252
  O100     1.0000 0.58314  0.58314  0.08314  Biso   1.000  O  -1.033271
  O101     1.0000 0.41686  0.00000  0.00000  Biso   1.000  O  -1.033256
  O102     1.0000 0.50000  0.41686  0.50000  Biso   1.000  O  -1.033252
  O103     1.0000 0.08314  0.08314  0.58314  Biso   1.000  O  -1.033271
  O104     1.0000 1.00000  0.50000  0.91686  Biso   1.000  O  -1.033252
  Zn1      1.0000 0.94745  0.08192  0.07819  Biso   1.000  Zn  0.983605
  Zn2      1.0000 0.50373  0.86926  0.42181  Biso   1.000  Zn  0.983589
  Zn3      1.0000 0.99627  0.41808  0.36553  Biso   1.000  Zn  0.983631
  Zn4      1.0000 0.55255  0.63074  0.13447  Biso   1.000  Zn  0.983605
  Zn5      1.0000 0.86553  0.99627  0.91808  Biso   1.000  Zn  0.983629
  Zn6      1.0000 0.63447  0.55255  0.13074  Biso   1.000  Zn  0.983605
  Zn7      1.0000 0.57819  0.94745  0.58192  Biso   1.000  Zn  0.983597
  Zn8      1.0000 0.92181  0.50373  0.36926  Biso   1.000  Zn  0.983588
  Zn9      1.0000 0.86926  0.92181  0.00373  Biso   1.000  Zn  0.983587
  Zn10     1.0000 0.08192  0.57819  0.44745  Biso   1.000  Zn  0.983597
  Zn11     1.0000 0.63074  0.63447  0.05255  Biso   1.000  Zn  0.983605
  Zn12     1.0000 0.41808  0.86553  0.49627  Biso   1.000  Zn  0.983629
  Zn13     1.0000 0.36926  0.00373  0.92181  Biso   1.000  Zn  0.983588
  Zn14     1.0000 0.58192  0.44745  0.57819  Biso   1.000  Zn  0.983598
  Zn15     1.0000 0.13074  0.05255  0.63447  Biso   1.000  Zn  0.983605
  Zn16     1.0000 0.91808  0.49627  0.86553  Biso   1.000  Zn  0.983631
  Zn17     1.0000 0.44745  0.07819  0.08192  Biso   1.000  Zn  0.983604
  Zn18     1.0000 0.00373  0.42181  0.86926  Biso   1.000  Zn  0.983588
  Zn19     1.0000 0.49627  0.36553  0.41808  Biso   1.000  Zn  0.983630
  Zn20     1.0000 0.05255  0.13447  0.63074  Biso   1.000  Zn  0.983605
  Zn21     1.0000 0.36553  0.91808  0.99627  Biso   1.000  Zn  0.983628
  Zn22     1.0000 0.13447  0.13074  0.55255  Biso   1.000  Zn  0.983605
  Zn23     1.0000 0.07819  0.58192  0.94745  Biso   1.000  Zn  0.983597
  Zn24     1.0000 0.42181  0.36926  0.50373  Biso   1.000  Zn  0.983589
  Zn25     1.0000 0.99422  0.00000  0.00000  Biso   1.000  Zn  0.949276
  Zn26     1.0000 0.50000  0.99422  0.50000  Biso   1.000  Zn  0.949277
  Zn27     1.0000 0.00000  0.50000  0.49422  Biso   1.000  Zn  0.949277
  Zn28     1.0000 0.50578  0.50578  0.00578  Biso   1.000  Zn  0.949294
  Zn29     1.0000 0.49422  0.00000  0.00000  Biso   1.000  Zn  0.949276
  Zn30     1.0000 0.50000  0.49422  0.50000  Biso   1.000  Zn  0.949277
  Zn31     1.0000 0.00578  0.00578  0.50578  Biso   1.000  Zn  0.949294
  Zn32     1.0000 0.00000  0.50000  0.99422  Biso   1.000  Zn  0.949277
