data_image0
_cell_length_a       34.2174
_cell_length_b       40.7361
_cell_length_c       20.3474
_cell_angle_alpha    90
_cell_angle_beta     90
_cell_angle_gamma    90

_symmetry_space_group_name_H-M    "P 1"
_symmetry_int_tables_number       1

loop_
  _symmetry_equiv_pos_as_xyz
  'x, y, z'

loop_
  _atom_site_label
  _atom_site_occupancy
  _atom_site_fract_x
  _atom_site_fract_y
  _atom_site_fract_z
  _atom_site_thermal_displace_type
  _atom_site_B_iso_or_equiv
  _atom_site_type_symbol
  _atom_site_charge
  C1       1.0000 0.13650  0.18280  0.34830  Biso   1.000  C  -0.175890
  C2       1.0000 0.86350  0.81720  0.84830  Biso   1.000  C  -0.175890
  C3       1.0000 0.86350  0.18280  0.34830  Biso   1.000  C  -0.175890
  C4       1.0000 0.13650  0.81720  0.84830  Biso   1.000  C  -0.175890
  C5       1.0000 0.63650  0.68280  0.34830  Biso   1.000  C  -0.175890
  C6       1.0000 0.36350  0.31720  0.84830  Biso   1.000  C  -0.175890
  C7       1.0000 0.36350  0.68280  0.34830  Biso   1.000  C  -0.175890
  C8       1.0000 0.63650  0.31720  0.84830  Biso   1.000  C  -0.175890
  C9       1.0000 0.13010  0.15700  0.30490  Biso   1.000  C  0.104646
  C10      1.0000 0.86990  0.84300  0.80490  Biso   1.000  C  0.104646
  C11      1.0000 0.86990  0.15700  0.30490  Biso   1.000  C  0.104646
  C12      1.0000 0.13010  0.84300  0.80490  Biso   1.000  C  0.104646
  C13      1.0000 0.63010  0.65700  0.30490  Biso   1.000  C  0.104646
  C14      1.0000 0.36990  0.34300  0.80490  Biso   1.000  C  0.104646
  C15      1.0000 0.36990  0.65700  0.30490  Biso   1.000  C  0.104646
  C16      1.0000 0.63010  0.34300  0.80490  Biso   1.000  C  0.104646
  C17      1.0000 0.00000  0.03490  0.47860  Biso   1.000  C  0.079540
  C18      1.0000 0.00000  0.96510  0.97860  Biso   1.000  C  0.079540
  C19      1.0000 0.50000  0.53490  0.47860  Biso   1.000  C  0.079540
  C20      1.0000 0.50000  0.46510  0.97860  Biso   1.000  C  0.079540
  C21      1.0000 0.25550  0.93940  0.95930  Biso   1.000  C  0.177155
  C22      1.0000 0.74450  0.06060  0.45930  Biso   1.000  C  0.177155
  C23      1.0000 0.74450  0.93940  0.95930  Biso   1.000  C  0.177155
  C24      1.0000 0.25550  0.06060  0.45930  Biso   1.000  C  0.177155
  C25      1.0000 0.75550  0.43940  0.95930  Biso   1.000  C  0.177155
  C26      1.0000 0.24450  0.56060  0.45930  Biso   1.000  C  0.177155
  C27      1.0000 0.24450  0.43940  0.95930  Biso   1.000  C  0.177155
  C28      1.0000 0.75550  0.56060  0.45930  Biso   1.000  C  0.177155
  C29      1.0000 0.17070  0.06390  0.88680  Biso   1.000  C  0.092315
  C30      1.0000 0.82930  0.93610  0.38680  Biso   1.000  C  0.092315
  C31      1.0000 0.82930  0.06390  0.88680  Biso   1.000  C  0.092315
  C32      1.0000 0.17070  0.93610  0.38680  Biso   1.000  C  0.092315
  C33      1.0000 0.67070  0.56390  0.88680  Biso   1.000  C  0.092315
  C34      1.0000 0.32930  0.43610  0.38680  Biso   1.000  C  0.092315
  C35      1.0000 0.32930  0.56390  0.88680  Biso   1.000  C  0.092315
  C36      1.0000 0.67070  0.43610  0.38680  Biso   1.000  C  0.092315
  C37      1.0000 0.18810  0.11170  0.93160  Biso   1.000  C  0.075960
  C38      1.0000 0.81190  0.88830  0.43160  Biso   1.000  C  0.075960
  C39      1.0000 0.81190  0.11170  0.93160  Biso   1.000  C  0.075960
  C40      1.0000 0.18810  0.88830  0.43160  Biso   1.000  C  0.075960
  C41      1.0000 0.68810  0.61170  0.93160  Biso   1.000  C  0.075960
  C42      1.0000 0.31190  0.38830  0.43160  Biso   1.000  C  0.075960
  C43      1.0000 0.31190  0.61170  0.93160  Biso   1.000  C  0.075960
  C44      1.0000 0.68810  0.38830  0.43160  Biso   1.000  C  0.075960
  C45      1.0000 0.13790  0.06150  0.92510  Biso   1.000  C  -0.182731
  C46      1.0000 0.86210  0.93850  0.42510  Biso   1.000  C  -0.182731
  C47      1.0000 0.86210  0.06150  0.92510  Biso   1.000  C  -0.182731
  C48      1.0000 0.13790  0.93850  0.42510  Biso   1.000  C  -0.182731
  C49      1.0000 0.63790  0.56150  0.92510  Biso   1.000  C  -0.182731
  C50      1.0000 0.36210  0.43850  0.42510  Biso   1.000  C  -0.182731
  C51      1.0000 0.36210  0.56150  0.92510  Biso   1.000  C  -0.182731
  C52      1.0000 0.63790  0.43850  0.42510  Biso   1.000  C  -0.182731
  C53      1.0000 0.19050  0.13440  0.34180  Biso   1.000  C  0.077943
  C54      1.0000 0.80950  0.86560  0.84180  Biso   1.000  C  0.077943
  C55      1.0000 0.80950  0.13440  0.34180  Biso   1.000  C  0.077943
  C56      1.0000 0.19050  0.86560  0.84180  Biso   1.000  C  0.077943
  C57      1.0000 0.69050  0.63440  0.34180  Biso   1.000  C  0.077943
  C58      1.0000 0.30950  0.36560  0.84180  Biso   1.000  C  0.077943
  C59      1.0000 0.30950  0.63440  0.34180  Biso   1.000  C  0.077943
  C60      1.0000 0.69050  0.36560  0.84180  Biso   1.000  C  0.077943
  C61      1.0000 0.38310  0.21080  0.61420  Biso   1.000  C  0.118159
  C62      1.0000 0.61690  0.78920  0.11420  Biso   1.000  C  0.118159
  C63      1.0000 0.61690  0.21080  0.61420  Biso   1.000  C  0.118159
  C64      1.0000 0.38310  0.78920  0.11420  Biso   1.000  C  0.118159
  C65      1.0000 0.88310  0.71080  0.61420  Biso   1.000  C  0.118159
  C66      1.0000 0.11690  0.28920  0.11420  Biso   1.000  C  0.118159
  C67      1.0000 0.11690  0.71080  0.61420  Biso   1.000  C  0.118159
  C68      1.0000 0.88310  0.28920  0.11420  Biso   1.000  C  0.118159
  C69      1.0000 0.25250  0.99820  0.96100  Biso   1.000  C  -0.177986
  C70      1.0000 0.74750  0.00180  0.46100  Biso   1.000  C  -0.177986
  C71      1.0000 0.74750  0.99820  0.96100  Biso   1.000  C  -0.177986
  C72      1.0000 0.25250  0.00180  0.46100  Biso   1.000  C  -0.177986
  C73      1.0000 0.75250  0.49820  0.96100  Biso   1.000  C  -0.177986
  C74      1.0000 0.24750  0.50180  0.46100  Biso   1.000  C  -0.177986
  C75      1.0000 0.24750  0.49820  0.96100  Biso   1.000  C  -0.177986
  C76      1.0000 0.75250  0.50180  0.46100  Biso   1.000  C  -0.177986
  C77      1.0000 0.15500  0.11220  0.97180  Biso   1.000  C  -0.187801
  C78      1.0000 0.84500  0.88780  0.47180  Biso   1.000  C  -0.187801
  C79      1.0000 0.84500  0.11220  0.97180  Biso   1.000  C  -0.187801
  C80      1.0000 0.15500  0.88780  0.47180  Biso   1.000  C  -0.187801
  C81      1.0000 0.65500  0.61220  0.97180  Biso   1.000  C  -0.187801
  C82      1.0000 0.34500  0.38780  0.47180  Biso   1.000  C  -0.187801
  C83      1.0000 0.34500  0.61220  0.97180  Biso   1.000  C  -0.187801
  C84      1.0000 0.65500  0.38780  0.47180  Biso   1.000  C  -0.187801
  C85      1.0000 0.34760  0.19380  0.59440  Biso   1.000  C  0.229125
  C86      1.0000 0.65240  0.80620  0.09440  Biso   1.000  C  0.229125
  C87      1.0000 0.65240  0.19380  0.59440  Biso   1.000  C  0.229125
  C88      1.0000 0.34760  0.80620  0.09440  Biso   1.000  C  0.229125
  C89      1.0000 0.84760  0.69380  0.59440  Biso   1.000  C  0.229125
  C90      1.0000 0.15240  0.30620  0.09440  Biso   1.000  C  0.229125
  C91      1.0000 0.15240  0.69380  0.59440  Biso   1.000  C  0.229125
  C92      1.0000 0.84760  0.30620  0.09440  Biso   1.000  C  0.229125
  C93      1.0000 0.00000  0.04980  0.41990  Biso   1.000  C  -0.174420
  C94      1.0000 0.00000  0.95020  0.91990  Biso   1.000  C  -0.174420
  C95      1.0000 0.50000  0.54980  0.41990  Biso   1.000  C  -0.174420
  C96      1.0000 0.50000  0.45020  0.91990  Biso   1.000  C  -0.174420
  C97      1.0000 0.25520  0.97000  0.92690  Biso   1.000  C  0.113159
  C98      1.0000 0.74480  0.03000  0.42690  Biso   1.000  C  0.113159
  C99      1.0000 0.74480  0.97000  0.92690  Biso   1.000  C  0.113159
  C100     1.0000 0.25520  0.03000  0.42690  Biso   1.000  C  0.113159
  C101     1.0000 0.75520  0.47000  0.92690  Biso   1.000  C  0.113159
  C102     1.0000 0.24480  0.53000  0.42690  Biso   1.000  C  0.113159
  C103     1.0000 0.24480  0.47000  0.92690  Biso   1.000  C  0.113159
  C104     1.0000 0.75520  0.53000  0.42690  Biso   1.000  C  0.113159
  C105     1.0000 0.00000  0.27630  0.29260  Biso   1.000  C  0.068217
  C106     1.0000 0.00000  0.72370  0.79260  Biso   1.000  C  0.068217
  C107     1.0000 0.50000  0.77630  0.29260  Biso   1.000  C  0.068217
  C108     1.0000 0.50000  0.22370  0.79260  Biso   1.000  C  0.068217
  C109     1.0000 0.00000  0.98480  0.43410  Biso   1.000  C  0.080144
  C110     1.0000 0.00000  0.01520  0.93410  Biso   1.000  C  0.080144
  C111     1.0000 0.50000  0.48480  0.43410  Biso   1.000  C  0.080144
  C112     1.0000 0.50000  0.51520  0.93410  Biso   1.000  C  0.080144
  C113     1.0000 0.00000  0.28670  0.47560  Biso   1.000  C  0.232044
  C114     1.0000 0.00000  0.71330  0.97560  Biso   1.000  C  0.232044
  C115     1.0000 0.50000  0.78670  0.47560  Biso   1.000  C  0.232044
  C116     1.0000 0.50000  0.21330  0.97560  Biso   1.000  C  0.232044
  C117     1.0000 0.25310  0.24860  0.81270  Biso   1.000  C  -0.167054
  C118     1.0000 0.74690  0.75140  0.31270  Biso   1.000  C  -0.167054
  C119     1.0000 0.74690  0.24860  0.81270  Biso   1.000  C  -0.167054
  C120     1.0000 0.25310  0.75140  0.31270  Biso   1.000  C  -0.167054
  C121     1.0000 0.75310  0.74860  0.81270  Biso   1.000  C  -0.167054
  C122     1.0000 0.24690  0.25140  0.31270  Biso   1.000  C  -0.167054
  C123     1.0000 0.24690  0.74860  0.81270  Biso   1.000  C  -0.167054
  C124     1.0000 0.75310  0.25140  0.31270  Biso   1.000  C  -0.167054
  C125     1.0000 0.15700  0.13280  0.30300  Biso   1.000  C  -0.173215
  C126     1.0000 0.84300  0.86720  0.80300  Biso   1.000  C  -0.173215
  C127     1.0000 0.84300  0.13280  0.30300  Biso   1.000  C  -0.173215
  C128     1.0000 0.15700  0.86720  0.80300  Biso   1.000  C  -0.173215
  C129     1.0000 0.65700  0.63280  0.30300  Biso   1.000  C  -0.173215
  C130     1.0000 0.34300  0.36720  0.80300  Biso   1.000  C  -0.173215
  C131     1.0000 0.34300  0.63280  0.30300  Biso   1.000  C  -0.173215
  C132     1.0000 0.65700  0.36720  0.80300  Biso   1.000  C  -0.173215
  C133     1.0000 0.09450  0.08310  0.00940  Biso   1.000  C  0.213552
  C134     1.0000 0.90550  0.91690  0.50940  Biso   1.000  C  0.213552
  C135     1.0000 0.90550  0.08310  0.00940  Biso   1.000  C  0.213552
  C136     1.0000 0.09450  0.91690  0.50940  Biso   1.000  C  0.213552
  C137     1.0000 0.59450  0.58310  0.00940  Biso   1.000  C  0.213552
  C138     1.0000 0.40550  0.41690  0.50940  Biso   1.000  C  0.213552
  C139     1.0000 0.40550  0.58310  0.00940  Biso   1.000  C  0.213552
  C140     1.0000 0.59450  0.41690  0.50940  Biso   1.000  C  0.213552
  C141     1.0000 0.87700  0.95780  0.15470  Biso   1.000  C  0.108400
  C142     1.0000 0.12300  0.04220  0.65470  Biso   1.000  C  0.108400
  C143     1.0000 0.12300  0.95780  0.15470  Biso   1.000  C  0.108400
  C144     1.0000 0.87700  0.04220  0.65470  Biso   1.000  C  0.108400
  C145     1.0000 0.37700  0.45780  0.15470  Biso   1.000  C  0.108400
  C146     1.0000 0.62300  0.54220  0.65470  Biso   1.000  C  0.108400
  C147     1.0000 0.62300  0.45780  0.15470  Biso   1.000  C  0.108400
  C148     1.0000 0.37700  0.54220  0.65470  Biso   1.000  C  0.108400
  C149     1.0000 0.34530  0.11970  0.96960  Biso   1.000  C  -0.182169
  C150     1.0000 0.65470  0.88030  0.46960  Biso   1.000  C  -0.182169
  C151     1.0000 0.65470  0.11970  0.96960  Biso   1.000  C  -0.182169
  C152     1.0000 0.34530  0.88030  0.46960  Biso   1.000  C  -0.182169
  C153     1.0000 0.84530  0.61970  0.96960  Biso   1.000  C  -0.182169
  C154     1.0000 0.15470  0.38030  0.46960  Biso   1.000  C  -0.182169
  C155     1.0000 0.15470  0.61970  0.96960  Biso   1.000  C  -0.182169
  C156     1.0000 0.84530  0.38030  0.46960  Biso   1.000  C  -0.182169
  C157     1.0000 0.24990  0.22180  0.91240  Biso   1.000  C  -0.183733
  C158     1.0000 0.75010  0.77820  0.41240  Biso   1.000  C  -0.183733
  C159     1.0000 0.75010  0.22180  0.91240  Biso   1.000  C  -0.183733
  C160     1.0000 0.24990  0.77820  0.41240  Biso   1.000  C  -0.183733
  C161     1.0000 0.74990  0.72180  0.91240  Biso   1.000  C  -0.183733
  C162     1.0000 0.25010  0.27820  0.41240  Biso   1.000  C  -0.183733
  C163     1.0000 0.25010  0.72180  0.91240  Biso   1.000  C  -0.183733
  C164     1.0000 0.74990  0.27820  0.41240  Biso   1.000  C  -0.183733
  C165     1.0000 0.00000  0.20610  0.79210  Biso   1.000  C  0.107500
  C166     1.0000 0.00000  0.79390  0.29210  Biso   1.000  C  0.107500
  C167     1.0000 0.50000  0.70610  0.79210  Biso   1.000  C  0.107500
  C168     1.0000 0.50000  0.29390  0.29210  Biso   1.000  C  0.107500
  C169     1.0000 0.41160  0.21480  0.57110  Biso   1.000  C  -0.186356
  C170     1.0000 0.58840  0.78520  0.07110  Biso   1.000  C  -0.186356
  C171     1.0000 0.58840  0.21480  0.57110  Biso   1.000  C  -0.186357
  C172     1.0000 0.41160  0.78520  0.07110  Biso   1.000  C  -0.186357
  C173     1.0000 0.91160  0.71480  0.57110  Biso   1.000  C  -0.186356
  C174     1.0000 0.08840  0.28520  0.07110  Biso   1.000  C  -0.186356
  C175     1.0000 0.08840  0.71480  0.57110  Biso   1.000  C  -0.186357
  C176     1.0000 0.91160  0.28520  0.07110  Biso   1.000  C  -0.186357
  C177     1.0000 0.32980  0.19090  0.38550  Biso   1.000  C  0.070211
  C178     1.0000 0.67020  0.80910  0.88550  Biso   1.000  C  0.070211
  C179     1.0000 0.67020  0.19090  0.38550  Biso   1.000  C  0.070211
  C180     1.0000 0.32980  0.80910  0.88550  Biso   1.000  C  0.070211
  C181     1.0000 0.82980  0.69090  0.38550  Biso   1.000  C  0.070211
  C182     1.0000 0.17020  0.30910  0.88550  Biso   1.000  C  0.070211
  C183     1.0000 0.17020  0.69090  0.38550  Biso   1.000  C  0.070211
  C184     1.0000 0.82980  0.30910  0.88550  Biso   1.000  C  0.070211
  C185     1.0000 0.39860  0.01060  0.71520  Biso   1.000  C  -0.170062
  C186     1.0000 0.60140  0.98940  0.21520  Biso   1.000  C  -0.170062
  C187     1.0000 0.60140  0.01060  0.71520  Biso   1.000  C  -0.170062
  C188     1.0000 0.39860  0.98940  0.21520  Biso   1.000  C  -0.170062
  C189     1.0000 0.89860  0.51060  0.71520  Biso   1.000  C  -0.170062
  C190     1.0000 0.10140  0.48940  0.21520  Biso   1.000  C  -0.170062
  C191     1.0000 0.10140  0.51060  0.71520  Biso   1.000  C  -0.170062
  C192     1.0000 0.89860  0.48940  0.21520  Biso   1.000  C  -0.170062
  C193     1.0000 0.50000  0.08740  0.30990  Biso   1.000  C  0.076717
  C194     1.0000 0.50000  0.91260  0.80990  Biso   1.000  C  0.076717
  C195     1.0000 0.00000  0.58740  0.30990  Biso   1.000  C  0.076717
  C196     1.0000 0.00000  0.41260  0.80990  Biso   1.000  C  0.076717
  C197     1.0000 0.00000  0.24240  0.90160  Biso   1.000  C  -0.177610
  C198     1.0000 0.00000  0.75760  0.40160  Biso   1.000  C  -0.177610
  C199     1.0000 0.50000  0.74240  0.90160  Biso   1.000  C  -0.177610
  C200     1.0000 0.50000  0.25760  0.40160  Biso   1.000  C  -0.177610
  C201     1.0000 0.08120  0.22650  0.69920  Biso   1.000  C  0.058680
  C202     1.0000 0.91880  0.77350  0.19920  Biso   1.000  C  0.058680
  C203     1.0000 0.91880  0.22650  0.69920  Biso   1.000  C  0.058680
  C204     1.0000 0.08120  0.77350  0.19920  Biso   1.000  C  0.058680
  C205     1.0000 0.58120  0.72650  0.69920  Biso   1.000  C  0.058680
  C206     1.0000 0.41880  0.27350  0.19920  Biso   1.000  C  0.058680
  C207     1.0000 0.41880  0.72650  0.69920  Biso   1.000  C  0.058680
  C208     1.0000 0.58120  0.27350  0.19920  Biso   1.000  C  0.058680
  C209     1.0000 0.43020  0.99140  0.70160  Biso   1.000  C  0.102322
  C210     1.0000 0.56980  0.00860  0.20160  Biso   1.000  C  0.102322
  C211     1.0000 0.56980  0.99140  0.70160  Biso   1.000  C  0.102319
  C212     1.0000 0.43020  0.00860  0.20160  Biso   1.000  C  0.102319
  C213     1.0000 0.93020  0.49140  0.70160  Biso   1.000  C  0.102322
  C214     1.0000 0.06980  0.50860  0.20160  Biso   1.000  C  0.102322
  C215     1.0000 0.06980  0.49140  0.70160  Biso   1.000  C  0.102319
  C216     1.0000 0.93020  0.50860  0.20160  Biso   1.000  C  0.102319
  C217     1.0000 0.17040  0.18350  0.38730  Biso   1.000  C  0.061142
  C218     1.0000 0.82960  0.81650  0.88730  Biso   1.000  C  0.061142
  C219     1.0000 0.82960  0.18350  0.38730  Biso   1.000  C  0.061142
  C220     1.0000 0.17040  0.81650  0.88730  Biso   1.000  C  0.061142
  C221     1.0000 0.67040  0.68350  0.38730  Biso   1.000  C  0.061142
  C222     1.0000 0.32960  0.31650  0.88730  Biso   1.000  C  0.061142
  C223     1.0000 0.32960  0.68350  0.38730  Biso   1.000  C  0.061142
  C224     1.0000 0.67040  0.31650  0.88730  Biso   1.000  C  0.061142
  C225     1.0000 0.15960  0.18750  0.59750  Biso   1.000  C  0.221909
  C226     1.0000 0.84040  0.81250  0.09750  Biso   1.000  C  0.221909
  C227     1.0000 0.84040  0.18750  0.59750  Biso   1.000  C  0.221909
  C228     1.0000 0.15960  0.81250  0.09750  Biso   1.000  C  0.221909
  C229     1.0000 0.65960  0.68750  0.59750  Biso   1.000  C  0.221909
  C230     1.0000 0.34040  0.31250  0.09750  Biso   1.000  C  0.221909
  C231     1.0000 0.34040  0.68750  0.59750  Biso   1.000  C  0.221909
  C232     1.0000 0.65960  0.31250  0.09750  Biso   1.000  C  0.221909
  C233     1.0000 0.25320  0.27730  0.84510  Biso   1.000  C  0.057449
  C234     1.0000 0.74680  0.72270  0.34510  Biso   1.000  C  0.057449
  C235     1.0000 0.74680  0.27730  0.84510  Biso   1.000  C  0.057449
  C236     1.0000 0.25320  0.72270  0.34510  Biso   1.000  C  0.057449
  C237     1.0000 0.75320  0.77730  0.84510  Biso   1.000  C  0.057449
  C238     1.0000 0.24680  0.22270  0.34510  Biso   1.000  C  0.057449
  C239     1.0000 0.24680  0.77730  0.84510  Biso   1.000  C  0.057449
  C240     1.0000 0.75320  0.22270  0.34510  Biso   1.000  C  0.057449
  C241     1.0000 0.00000  0.04560  0.29690  Biso   1.000  C  0.222278
  C242     1.0000 0.00000  0.95440  0.79690  Biso   1.000  C  0.222279
  C243     1.0000 0.50000  0.54560  0.29690  Biso   1.000  C  0.222279
  C244     1.0000 0.50000  0.45440  0.79690  Biso   1.000  C  0.222279
  C245     1.0000 0.00000  0.03270  0.36300  Biso   1.000  C  0.116322
  C246     1.0000 0.00000  0.96730  0.86300  Biso   1.000  C  0.116322
  C247     1.0000 0.50000  0.53270  0.36300  Biso   1.000  C  0.116322
  C248     1.0000 0.50000  0.46730  0.86300  Biso   1.000  C  0.116322
  C249     1.0000 0.09470  0.15880  0.26320  Biso   1.000  C  0.207722
  C250     1.0000 0.90530  0.84120  0.76320  Biso   1.000  C  0.207722
  C251     1.0000 0.90530  0.15880  0.26320  Biso   1.000  C  0.207722
  C252     1.0000 0.09470  0.84120  0.76320  Biso   1.000  C  0.207722
  C253     1.0000 0.59470  0.65880  0.26320  Biso   1.000  C  0.207722
  C254     1.0000 0.40530  0.34120  0.76320  Biso   1.000  C  0.207722
  C255     1.0000 0.40530  0.65880  0.26320  Biso   1.000  C  0.207722
  C256     1.0000 0.59470  0.34120  0.76320  Biso   1.000  C  0.207722
  C257     1.0000 0.00000  0.19450  0.97760  Biso   1.000  C  0.216323
  C258     1.0000 0.00000  0.80550  0.47760  Biso   1.000  C  0.216323
  C259     1.0000 0.50000  0.69450  0.97760  Biso   1.000  C  0.216323
  C260     1.0000 0.50000  0.30550  0.47760  Biso   1.000  C  0.216323
  C261     1.0000 0.05980  0.21980  0.59480  Biso   1.000  C  0.107258
  C262     1.0000 0.94020  0.78020  0.09480  Biso   1.000  C  0.107258
  C263     1.0000 0.94020  0.21980  0.59480  Biso   1.000  C  0.107258
  C264     1.0000 0.05980  0.78020  0.09480  Biso   1.000  C  0.107258
  C265     1.0000 0.55980  0.71980  0.59480  Biso   1.000  C  0.107258
  C266     1.0000 0.44020  0.28020  0.09480  Biso   1.000  C  0.107258
  C267     1.0000 0.44020  0.71980  0.59480  Biso   1.000  C  0.107258
  C268     1.0000 0.55980  0.28020  0.09480  Biso   1.000  C  0.107258
  C269     1.0000 0.09180  0.20400  0.57420  Biso   1.000  C  -0.183194
  C270     1.0000 0.90820  0.79600  0.07420  Biso   1.000  C  -0.183194
  C271     1.0000 0.90820  0.20400  0.57420  Biso   1.000  C  -0.183194
  C272     1.0000 0.09180  0.79600  0.07420  Biso   1.000  C  -0.183194
  C273     1.0000 0.59180  0.70400  0.57420  Biso   1.000  C  -0.183194
  C274     1.0000 0.40820  0.29600  0.07420  Biso   1.000  C  -0.183194
  C275     1.0000 0.40820  0.70400  0.57420  Biso   1.000  C  -0.183194
  C276     1.0000 0.59180  0.29600  0.07420  Biso   1.000  C  -0.183194
  C277     1.0000 0.11660  0.21280  0.68220  Biso   1.000  C  -0.177891
  C278     1.0000 0.88340  0.78720  0.18220  Biso   1.000  C  -0.177891
  C279     1.0000 0.88340  0.21280  0.68220  Biso   1.000  C  -0.177891
  C280     1.0000 0.11660  0.78720  0.18220  Biso   1.000  C  -0.177891
  C281     1.0000 0.61660  0.71280  0.68220  Biso   1.000  C  -0.177891
  C282     1.0000 0.38340  0.28720  0.18220  Biso   1.000  C  -0.177891
  C283     1.0000 0.38340  0.71280  0.68220  Biso   1.000  C  -0.177891
  C284     1.0000 0.61660  0.28720  0.18220  Biso   1.000  C  -0.177891
  C285     1.0000 0.91940  0.98290  0.07580  Biso   1.000  C  0.088556
  C286     1.0000 0.08060  0.01710  0.57580  Biso   1.000  C  0.088556
  C287     1.0000 0.08060  0.98290  0.07580  Biso   1.000  C  0.088556
  C288     1.0000 0.91940  0.01710  0.57580  Biso   1.000  C  0.088556
  C289     1.0000 0.41940  0.48290  0.07580  Biso   1.000  C  0.088556
  C290     1.0000 0.58060  0.51710  0.57580  Biso   1.000  C  0.088556
  C291     1.0000 0.58060  0.48290  0.07580  Biso   1.000  C  0.088556
  C292     1.0000 0.41940  0.51710  0.57580  Biso   1.000  C  0.088556
  C293     1.0000 0.84040  0.94170  0.17490  Biso   1.000  C  0.195913
  C294     1.0000 0.15960  0.05830  0.67490  Biso   1.000  C  0.195913
  C295     1.0000 0.15960  0.94170  0.17490  Biso   1.000  C  0.195913
  C296     1.0000 0.84040  0.05830  0.67490  Biso   1.000  C  0.195913
  C297     1.0000 0.34040  0.44170  0.17490  Biso   1.000  C  0.195913
  C298     1.0000 0.65960  0.55830  0.67490  Biso   1.000  C  0.195913
  C299     1.0000 0.65960  0.44170  0.17490  Biso   1.000  C  0.195913
  C300     1.0000 0.34040  0.55830  0.67490  Biso   1.000  C  0.195913
  C301     1.0000 0.24960  0.25250  0.94350  Biso   1.000  C  0.103596
  C302     1.0000 0.75040  0.74750  0.44350  Biso   1.000  C  0.103596
  C303     1.0000 0.75040  0.25250  0.94350  Biso   1.000  C  0.103596
  C304     1.0000 0.24960  0.74750  0.44350  Biso   1.000  C  0.103596
  C305     1.0000 0.74960  0.75250  0.94350  Biso   1.000  C  0.103596
  C306     1.0000 0.25040  0.24750  0.44350  Biso   1.000  C  0.103596
  C307     1.0000 0.25040  0.75250  0.94350  Biso   1.000  C  0.103596
  C308     1.0000 0.74960  0.24750  0.44350  Biso   1.000  C  0.103596
  C309     1.0000 0.34690  0.14400  0.29820  Biso   1.000  C  -0.181717
  C310     1.0000 0.65310  0.85600  0.79820  Biso   1.000  C  -0.181717
  C311     1.0000 0.65310  0.14400  0.29820  Biso   1.000  C  -0.181717
  C312     1.0000 0.34690  0.85600  0.79820  Biso   1.000  C  -0.181717
  C313     1.0000 0.84690  0.64400  0.29820  Biso   1.000  C  -0.181717
  C314     1.0000 0.15310  0.35600  0.79820  Biso   1.000  C  -0.181717
  C315     1.0000 0.15310  0.64400  0.29820  Biso   1.000  C  -0.181717
  C316     1.0000 0.84690  0.35600  0.79820  Biso   1.000  C  -0.181717
  C317     1.0000 0.12900  0.08530  0.96800  Biso   1.000  C  0.106470
  C318     1.0000 0.87100  0.91470  0.46800  Biso   1.000  C  0.106470
  C319     1.0000 0.87100  0.08530  0.96800  Biso   1.000  C  0.106470
  C320     1.0000 0.12900  0.91470  0.46800  Biso   1.000  C  0.106470
  C321     1.0000 0.62900  0.58530  0.96800  Biso   1.000  C  0.106470
  C322     1.0000 0.37100  0.41470  0.46800  Biso   1.000  C  0.106470
  C323     1.0000 0.37100  0.58530  0.96800  Biso   1.000  C  0.106470
  C324     1.0000 0.62900  0.41470  0.46800  Biso   1.000  C  0.106470
  C325     1.0000 0.25130  0.21860  0.84870  Biso   1.000  C  0.105323
  C326     1.0000 0.74870  0.78140  0.34870  Biso   1.000  C  0.105323
  C327     1.0000 0.74870  0.21860  0.84870  Biso   1.000  C  0.105323
  C328     1.0000 0.25130  0.78140  0.34870  Biso   1.000  C  0.105323
  C329     1.0000 0.75130  0.71860  0.84870  Biso   1.000  C  0.105323
  C330     1.0000 0.24870  0.28140  0.34870  Biso   1.000  C  0.105323
  C331     1.0000 0.24870  0.71860  0.84870  Biso   1.000  C  0.105323
  C332     1.0000 0.75130  0.28140  0.34870  Biso   1.000  C  0.105323
  C333     1.0000 0.94200  0.97460  0.17920  Biso   1.000  C  0.075007
  C334     1.0000 0.05800  0.02540  0.67920  Biso   1.000  C  0.075007
  C335     1.0000 0.05800  0.97460  0.17920  Biso   1.000  C  0.075007
  C336     1.0000 0.94200  0.02540  0.67920  Biso   1.000  C  0.075007
  C337     1.0000 0.44200  0.47460  0.17920  Biso   1.000  C  0.075007
  C338     1.0000 0.55800  0.52540  0.67920  Biso   1.000  C  0.075007
  C339     1.0000 0.55800  0.47460  0.17920  Biso   1.000  C  0.075007
  C340     1.0000 0.44200  0.52540  0.67920  Biso   1.000  C  0.075007
  C341     1.0000 0.12150  0.20040  0.61780  Biso   1.000  C  0.108634
  C342     1.0000 0.87850  0.79960  0.11780  Biso   1.000  C  0.108634
  C343     1.0000 0.87850  0.20040  0.61780  Biso   1.000  C  0.108634
  C344     1.0000 0.12150  0.79960  0.11780  Biso   1.000  C  0.108634
  C345     1.0000 0.62150  0.70040  0.61780  Biso   1.000  C  0.108634
  C346     1.0000 0.37850  0.29960  0.11780  Biso   1.000  C  0.108634
  C347     1.0000 0.37850  0.70040  0.61780  Biso   1.000  C  0.108634
  C348     1.0000 0.62150  0.29960  0.11780  Biso   1.000  C  0.108634
  C349     1.0000 0.25490  0.00150  0.82810  Biso   1.000  C  0.063282
  C350     1.0000 0.74510  0.99850  0.32810  Biso   1.000  C  0.063282
  C351     1.0000 0.74510  0.00150  0.82810  Biso   1.000  C  0.063282
  C352     1.0000 0.25490  0.99850  0.32810  Biso   1.000  C  0.063282
  C353     1.0000 0.75490  0.50150  0.82810  Biso   1.000  C  0.063282
  C354     1.0000 0.24510  0.49850  0.32810  Biso   1.000  C  0.063282
  C355     1.0000 0.24510  0.50150  0.82810  Biso   1.000  C  0.063282
  C356     1.0000 0.75490  0.49850  0.32810  Biso   1.000  C  0.063282
  C357     1.0000 0.40620  0.09520  0.01360  Biso   1.000  C  0.217723
  C358     1.0000 0.59380  0.90480  0.51360  Biso   1.000  C  0.217723
  C359     1.0000 0.59380  0.09520  0.01360  Biso   1.000  C  0.217722
  C360     1.0000 0.40620  0.90480  0.51360  Biso   1.000  C  0.217722
  C361     1.0000 0.90620  0.59520  0.01360  Biso   1.000  C  0.217723
  C362     1.0000 0.09380  0.40480  0.51360  Biso   1.000  C  0.217723
  C363     1.0000 0.09380  0.59520  0.01360  Biso   1.000  C  0.217722
  C364     1.0000 0.90620  0.40480  0.51360  Biso   1.000  C  0.217722
  C365     1.0000 0.00000  0.22140  0.33780  Biso   1.000  C  0.068074
  C366     1.0000 0.00000  0.77860  0.83780  Biso   1.000  C  0.068074
  C367     1.0000 0.50000  0.72140  0.33780  Biso   1.000  C  0.068074
  C368     1.0000 0.50000  0.27860  0.83780  Biso   1.000  C  0.068074
  C369     1.0000 0.25270  0.18620  0.81370  Biso   1.000  C  0.242511
  C370     1.0000 0.74730  0.81380  0.31370  Biso   1.000  C  0.242511
  C371     1.0000 0.74730  0.18620  0.81370  Biso   1.000  C  0.242511
  C372     1.0000 0.25270  0.81380  0.31370  Biso   1.000  C  0.242511
  C373     1.0000 0.75270  0.68620  0.81370  Biso   1.000  C  0.242511
  C374     1.0000 0.24730  0.31380  0.31370  Biso   1.000  C  0.242511
  C375     1.0000 0.24730  0.68620  0.81370  Biso   1.000  C  0.242511
  C376     1.0000 0.75270  0.31380  0.31370  Biso   1.000  C  0.242511
  C377     1.0000 0.88350  0.96810  0.09170  Biso   1.000  C  -0.178942
  C378     1.0000 0.11650  0.03190  0.59170  Biso   1.000  C  -0.178942
  C379     1.0000 0.11650  0.96810  0.09170  Biso   1.000  C  -0.178942
  C380     1.0000 0.88350  0.03190  0.59170  Biso   1.000  C  -0.178942
  C381     1.0000 0.38350  0.46810  0.09170  Biso   1.000  C  -0.178942
  C382     1.0000 0.61650  0.53190  0.59170  Biso   1.000  C  -0.178942
  C383     1.0000 0.61650  0.46810  0.09170  Biso   1.000  C  -0.178942
  C384     1.0000 0.38350  0.53190  0.59170  Biso   1.000  C  -0.178942
  C385     1.0000 0.36330  0.19410  0.34700  Biso   1.000  C  -0.174716
  C386     1.0000 0.63670  0.80590  0.84700  Biso   1.000  C  -0.174716
  C387     1.0000 0.63670  0.19410  0.34700  Biso   1.000  C  -0.174716
  C388     1.0000 0.36330  0.80590  0.84700  Biso   1.000  C  -0.174716
  C389     1.0000 0.86330  0.69410  0.34700  Biso   1.000  C  -0.174716
  C390     1.0000 0.13670  0.30590  0.84700  Biso   1.000  C  -0.174716
  C391     1.0000 0.13670  0.69410  0.34700  Biso   1.000  C  -0.174716
  C392     1.0000 0.86330  0.30590  0.84700  Biso   1.000  C  -0.174716
  C393     1.0000 0.00000  0.99870  0.36960  Biso   1.000  C  -0.181972
  C394     1.0000 0.00000  0.00130  0.86960  Biso   1.000  C  -0.181972
  C395     1.0000 0.50000  0.49870  0.36960  Biso   1.000  C  -0.181972
  C396     1.0000 0.50000  0.50130  0.86960  Biso   1.000  C  -0.181972
  C397     1.0000 0.25160  0.02890  0.92890  Biso   1.000  C  0.076544
  C398     1.0000 0.74840  0.97110  0.42890  Biso   1.000  C  0.076544
  C399     1.0000 0.74840  0.02890  0.92890  Biso   1.000  C  0.076544
  C400     1.0000 0.25160  0.97110  0.42890  Biso   1.000  C  0.076544
  C401     1.0000 0.75160  0.52890  0.92890  Biso   1.000  C  0.076544
  C402     1.0000 0.24840  0.47110  0.42890  Biso   1.000  C  0.076544
  C403     1.0000 0.24840  0.52890  0.92890  Biso   1.000  C  0.076544
  C404     1.0000 0.75160  0.47110  0.42890  Biso   1.000  C  0.076544
  C405     1.0000 0.33160  0.06730  0.89490  Biso   1.000  C  0.095666
  C406     1.0000 0.66840  0.93270  0.39490  Biso   1.000  C  0.095666
  C407     1.0000 0.66840  0.06730  0.89490  Biso   1.000  C  0.095666
  C408     1.0000 0.33160  0.93270  0.39490  Biso   1.000  C  0.095666
  C409     1.0000 0.83160  0.56730  0.89490  Biso   1.000  C  0.095666
  C410     1.0000 0.16840  0.43270  0.39490  Biso   1.000  C  0.095666
  C411     1.0000 0.16840  0.56730  0.89490  Biso   1.000  C  0.095666
  C412     1.0000 0.83160  0.43270  0.39490  Biso   1.000  C  0.095666
  C413     1.0000 0.00000  0.29340  0.35500  Biso   1.000  C  -0.174552
  C414     1.0000 0.00000  0.70660  0.85500  Biso   1.000  C  -0.174552
  C415     1.0000 0.50000  0.79340  0.35500  Biso   1.000  C  -0.174552
  C416     1.0000 0.50000  0.20660  0.85500  Biso   1.000  C  -0.174552
  C417     1.0000 0.25610  0.97170  0.85640  Biso   1.000  C  -0.180464
  C418     1.0000 0.74390  0.02830  0.35640  Biso   1.000  C  -0.180464
  C419     1.0000 0.74390  0.97170  0.85640  Biso   1.000  C  -0.180464
  C420     1.0000 0.25610  0.02830  0.35640  Biso   1.000  C  -0.180464
  C421     1.0000 0.75610  0.47170  0.85640  Biso   1.000  C  -0.180464
  C422     1.0000 0.24390  0.52830  0.35640  Biso   1.000  C  -0.180464
  C423     1.0000 0.24390  0.47170  0.85640  Biso   1.000  C  -0.180464
  C424     1.0000 0.75610  0.52830  0.35640  Biso   1.000  C  -0.180464
  C425     1.0000 0.40650  0.17410  0.26060  Biso   1.000  C  0.201356
  C426     1.0000 0.59350  0.82590  0.76060  Biso   1.000  C  0.201356
  C427     1.0000 0.59350  0.17410  0.26060  Biso   1.000  C  0.201356
  C428     1.0000 0.40650  0.82590  0.76060  Biso   1.000  C  0.201356
  C429     1.0000 0.90650  0.67410  0.26060  Biso   1.000  C  0.201356
  C430     1.0000 0.09350  0.32590  0.76060  Biso   1.000  C  0.201356
  C431     1.0000 0.09350  0.67410  0.26060  Biso   1.000  C  0.201356
  C432     1.0000 0.90650  0.32590  0.76060  Biso   1.000  C  0.201356
  C433     1.0000 0.00000  0.25590  0.84140  Biso   1.000  C  0.060802
  C434     1.0000 0.00000  0.74410  0.34140  Biso   1.000  C  0.060802
  C435     1.0000 0.50000  0.75590  0.84140  Biso   1.000  C  0.060802
  C436     1.0000 0.50000  0.24410  0.34140  Biso   1.000  C  0.060802
  C437     1.0000 0.38360  0.03170  0.67410  Biso   1.000  C  0.122099
  C438     1.0000 0.61640  0.96830  0.17410  Biso   1.000  C  0.122099
  C439     1.0000 0.61640  0.03170  0.67410  Biso   1.000  C  0.122099
  C440     1.0000 0.38360  0.96830  0.17410  Biso   1.000  C  0.122099
  C441     1.0000 0.88360  0.53170  0.67410  Biso   1.000  C  0.122099
  C442     1.0000 0.11640  0.46830  0.17410  Biso   1.000  C  0.122099
  C443     1.0000 0.11640  0.53170  0.67410  Biso   1.000  C  0.122099
  C444     1.0000 0.88360  0.46830  0.17410  Biso   1.000  C  0.122099
  C445     1.0000 0.00000  0.20720  0.91020  Biso   1.000  C  0.102772
  C446     1.0000 0.00000  0.79280  0.41020  Biso   1.000  C  0.102772
  C447     1.0000 0.50000  0.70720  0.91020  Biso   1.000  C  0.102772
  C448     1.0000 0.50000  0.29280  0.41020  Biso   1.000  C  0.102772
  C449     1.0000 0.00000  0.19170  0.85370  Biso   1.000  C  -0.174153
  C450     1.0000 0.00000  0.80830  0.35370  Biso   1.000  C  -0.174153
  C451     1.0000 0.50000  0.69170  0.85370  Biso   1.000  C  -0.174153
  C452     1.0000 0.50000  0.30830  0.35370  Biso   1.000  C  -0.174153
  C453     1.0000 0.43580  0.01650  0.60240  Biso   1.000  C  0.067337
  C454     1.0000 0.56420  0.98350  0.10240  Biso   1.000  C  0.067337
  C455     1.0000 0.56420  0.01650  0.60240  Biso   1.000  C  0.067337
  C456     1.0000 0.43580  0.98350  0.10240  Biso   1.000  C  0.067337
  C457     1.0000 0.93580  0.51650  0.60240  Biso   1.000  C  0.067337
  C458     1.0000 0.06420  0.48350  0.10240  Biso   1.000  C  0.067337
  C459     1.0000 0.06420  0.51650  0.60240  Biso   1.000  C  0.067337
  C460     1.0000 0.93580  0.48350  0.10240  Biso   1.000  C  0.067337
  C461     1.0000 0.37210  0.09350  0.97160  Biso   1.000  C  0.106724
  C462     1.0000 0.62790  0.90650  0.47160  Biso   1.000  C  0.106724
  C463     1.0000 0.62790  0.09350  0.97160  Biso   1.000  C  0.106724
  C464     1.0000 0.37210  0.90650  0.47160  Biso   1.000  C  0.106724
  C465     1.0000 0.87210  0.59350  0.97160  Biso   1.000  C  0.106724
  C466     1.0000 0.12790  0.40650  0.47160  Biso   1.000  C  0.106724
  C467     1.0000 0.12790  0.59350  0.97160  Biso   1.000  C  0.106724
  C468     1.0000 0.87210  0.40650  0.47160  Biso   1.000  C  0.106724
  C469     1.0000 0.37160  0.17000  0.30180  Biso   1.000  C  0.100061
  C470     1.0000 0.62840  0.83000  0.80180  Biso   1.000  C  0.100061
  C471     1.0000 0.62840  0.17000  0.30180  Biso   1.000  C  0.100061
  C472     1.0000 0.37160  0.83000  0.80180  Biso   1.000  C  0.100061
  C473     1.0000 0.87160  0.67000  0.30180  Biso   1.000  C  0.100061
  C474     1.0000 0.12840  0.33000  0.80180  Biso   1.000  C  0.100061
  C475     1.0000 0.12840  0.67000  0.30180  Biso   1.000  C  0.100061
  C476     1.0000 0.87160  0.33000  0.80180  Biso   1.000  C  0.100061
  C477     1.0000 0.34890  0.05190  0.68760  Biso   1.000  C  0.202932
  C478     1.0000 0.65110  0.94810  0.18760  Biso   1.000  C  0.202932
  C479     1.0000 0.65110  0.05190  0.68760  Biso   1.000  C  0.202932
  C480     1.0000 0.34890  0.94810  0.18760  Biso   1.000  C  0.202932
  C481     1.0000 0.84890  0.55190  0.68760  Biso   1.000  C  0.202932
  C482     1.0000 0.15110  0.44810  0.18760  Biso   1.000  C  0.202932
  C483     1.0000 0.15110  0.55190  0.68760  Biso   1.000  C  0.202932
  C484     1.0000 0.84890  0.44810  0.18760  Biso   1.000  C  0.202932
  C485     1.0000 0.00000  0.23750  0.39990  Biso   1.000  C  -0.162440
  C486     1.0000 0.00000  0.76250  0.89990  Biso   1.000  C  -0.162440
  C487     1.0000 0.50000  0.73750  0.39990  Biso   1.000  C  -0.162440
  C488     1.0000 0.50000  0.26250  0.89990  Biso   1.000  C  -0.162440
  C489     1.0000 0.38770  0.22230  0.67830  Biso   1.000  C  -0.176216
  C490     1.0000 0.61230  0.77770  0.17830  Biso   1.000  C  -0.176216
  C491     1.0000 0.61230  0.22230  0.67830  Biso   1.000  C  -0.176216
  C492     1.0000 0.38770  0.77770  0.17830  Biso   1.000  C  -0.176216
  C493     1.0000 0.88770  0.72230  0.67830  Biso   1.000  C  -0.176216
  C494     1.0000 0.11230  0.27770  0.17830  Biso   1.000  C  -0.176216
  C495     1.0000 0.11230  0.72230  0.67830  Biso   1.000  C  -0.176216
  C496     1.0000 0.88770  0.27770  0.17830  Biso   1.000  C  -0.176216
  C497     1.0000 0.40250  0.03330  0.61620  Biso   1.000  C  -0.154382
  C498     1.0000 0.59750  0.96670  0.11620  Biso   1.000  C  -0.154382
  C499     1.0000 0.59750  0.03330  0.61620  Biso   1.000  C  -0.154382
  C500     1.0000 0.40250  0.96670  0.11620  Biso   1.000  C  -0.154382
  C501     1.0000 0.90250  0.53330  0.61620  Biso   1.000  C  -0.154382
  C502     1.0000 0.09750  0.46670  0.11620  Biso   1.000  C  -0.154382
  C503     1.0000 0.09750  0.53330  0.61620  Biso   1.000  C  -0.154382
  C504     1.0000 0.90250  0.46670  0.11620  Biso   1.000  C  -0.154382
  C505     1.0000 0.31300  0.11700  0.92870  Biso   1.000  C  0.069076
  C506     1.0000 0.68700  0.88300  0.42870  Biso   1.000  C  0.069076
  C507     1.0000 0.68700  0.11700  0.92870  Biso   1.000  C  0.069076
  C508     1.0000 0.31300  0.88300  0.42870  Biso   1.000  C  0.069076
  C509     1.0000 0.81300  0.61700  0.92870  Biso   1.000  C  0.069076
  C510     1.0000 0.18700  0.38300  0.42870  Biso   1.000  C  0.069076
  C511     1.0000 0.18700  0.61700  0.92870  Biso   1.000  C  0.069076
  C512     1.0000 0.81300  0.38300  0.42870  Biso   1.000  C  0.069076
  C513     1.0000 0.41990  0.23920  0.69510  Biso   1.000  C  0.070622
  C514     1.0000 0.58010  0.76080  0.19510  Biso   1.000  C  0.070622
  C515     1.0000 0.58010  0.23920  0.69510  Biso   1.000  C  0.070622
  C516     1.0000 0.41990  0.76080  0.19510  Biso   1.000  C  0.070622
  C517     1.0000 0.91990  0.73920  0.69510  Biso   1.000  C  0.070622
  C518     1.0000 0.08010  0.26080  0.19510  Biso   1.000  C  0.070622
  C519     1.0000 0.08010  0.73920  0.69510  Biso   1.000  C  0.070622
  C520     1.0000 0.91990  0.26080  0.19510  Biso   1.000  C  0.070622
  C521     1.0000 0.44250  0.23490  0.59270  Biso   1.000  C  0.098646
  C522     1.0000 0.55750  0.76510  0.09270  Biso   1.000  C  0.098646
  C523     1.0000 0.55750  0.23490  0.59270  Biso   1.000  C  0.098646
  C524     1.0000 0.44250  0.76510  0.09270  Biso   1.000  C  0.098646
  C525     1.0000 0.94250  0.73490  0.59270  Biso   1.000  C  0.098646
  C526     1.0000 0.05750  0.26510  0.09270  Biso   1.000  C  0.098646
  C527     1.0000 0.05750  0.73490  0.59270  Biso   1.000  C  0.098646
  C528     1.0000 0.94250  0.26510  0.09270  Biso   1.000  C  0.098646
  C529     1.0000 0.36480  0.06710  0.93290  Biso   1.000  C  -0.173993
  C530     1.0000 0.63520  0.93290  0.43290  Biso   1.000  C  -0.173993
  C531     1.0000 0.63520  0.06710  0.93290  Biso   1.000  C  -0.173993
  C532     1.0000 0.36480  0.93290  0.43290  Biso   1.000  C  -0.173993
  C533     1.0000 0.86480  0.56710  0.93290  Biso   1.000  C  -0.173993
  C534     1.0000 0.13520  0.43290  0.43290  Biso   1.000  C  -0.173993
  C535     1.0000 0.13520  0.56710  0.93290  Biso   1.000  C  -0.173993
  C536     1.0000 0.86480  0.43290  0.43290  Biso   1.000  C  -0.173993
  C537     1.0000 0.90760  0.96120  0.19770  Biso   1.000  C  -0.174232
  C538     1.0000 0.09240  0.03880  0.69770  Biso   1.000  C  -0.174232
  C539     1.0000 0.09240  0.96120  0.19770  Biso   1.000  C  -0.174232
  C540     1.0000 0.90760  0.03880  0.69770  Biso   1.000  C  -0.174232
  C541     1.0000 0.40760  0.46120  0.19770  Biso   1.000  C  -0.174232
  C542     1.0000 0.59240  0.53880  0.69770  Biso   1.000  C  -0.174232
  C543     1.0000 0.59240  0.46120  0.19770  Biso   1.000  C  -0.174232
  C544     1.0000 0.40760  0.53880  0.69770  Biso   1.000  C  -0.174232
  C545     1.0000 0.31450  0.14230  0.33910  Biso   1.000  C  0.092348
  C546     1.0000 0.68550  0.85770  0.83910  Biso   1.000  C  0.092348
  C547     1.0000 0.68550  0.14230  0.33910  Biso   1.000  C  0.092348
  C548     1.0000 0.31450  0.85770  0.83910  Biso   1.000  C  0.092348
  C549     1.0000 0.81450  0.64230  0.33910  Biso   1.000  C  0.092348
  C550     1.0000 0.18550  0.35770  0.83910  Biso   1.000  C  0.092348
  C551     1.0000 0.18550  0.64230  0.33910  Biso   1.000  C  0.092348
  C552     1.0000 0.81450  0.35770  0.83910  Biso   1.000  C  0.092348
  C553     1.0000 0.00000  0.27130  0.40960  Biso   1.000  C  0.093511
  C554     1.0000 0.00000  0.72870  0.90960  Biso   1.000  C  0.093511
  C555     1.0000 0.50000  0.77130  0.40960  Biso   1.000  C  0.093511
  C556     1.0000 0.50000  0.22870  0.90960  Biso   1.000  C  0.093511
  Cd1      1.0000 0.00000  0.02190  0.08984  Biso   1.000  Cd  0.580440
  Cd2      1.0000 0.00000  0.97810  0.58984  Biso   1.000  Cd  0.580440
  Cd3      1.0000 0.50000  0.52190  0.08984  Biso   1.000  Cd  0.580440
  Cd4      1.0000 0.50000  0.47810  0.58984  Biso   1.000  Cd  0.580440
  Cd5      1.0000 0.00000  0.12005  0.13765  Biso   1.000  Cd  0.569164
  Cd6      1.0000 0.00000  0.87995  0.63765  Biso   1.000  Cd  0.569164
  Cd7      1.0000 0.50000  0.62005  0.13765  Biso   1.000  Cd  0.569164
  Cd8      1.0000 0.50000  0.37995  0.63765  Biso   1.000  Cd  0.569164
  Cd9      1.0000 0.25180  0.08255  0.81815  Biso   1.000  Cd  0.581291
  Cd10     1.0000 0.74820  0.91745  0.31815  Biso   1.000  Cd  0.581291
  Cd11     1.0000 0.74820  0.08255  0.81815  Biso   1.000  Cd  0.581291
  Cd12     1.0000 0.25180  0.91745  0.31815  Biso   1.000  Cd  0.581291
  Cd13     1.0000 0.75180  0.58255  0.81815  Biso   1.000  Cd  0.581291
  Cd14     1.0000 0.24820  0.41745  0.31815  Biso   1.000  Cd  0.581291
  Cd15     1.0000 0.24820  0.58255  0.81815  Biso   1.000  Cd  0.581291
  Cd16     1.0000 0.75180  0.41745  0.31815  Biso   1.000  Cd  0.581291
  Cd17     1.0000 0.25232  0.16757  0.45613  Biso   1.000  Cd  0.572528
  Cd18     1.0000 0.74768  0.83243  0.95613  Biso   1.000  Cd  0.572528
  Cd19     1.0000 0.74768  0.16757  0.45613  Biso   1.000  Cd  0.572528
  Cd20     1.0000 0.25232  0.83243  0.95613  Biso   1.000  Cd  0.572528
  Cd21     1.0000 0.75232  0.66757  0.45613  Biso   1.000  Cd  0.572528
  Cd22     1.0000 0.24768  0.33243  0.95613  Biso   1.000  Cd  0.572528
  Cd23     1.0000 0.24768  0.66757  0.45613  Biso   1.000  Cd  0.572528
  Cd24     1.0000 0.75232  0.33243  0.95613  Biso   1.000  Cd  0.572528
  Cd25     1.0000 0.74197  0.87691  0.13692  Biso   1.000  Cd  0.567156
  Cd26     1.0000 0.25803  0.12309  0.63692  Biso   1.000  Cd  0.567156
  Cd27     1.0000 0.25803  0.87691  0.13692  Biso   1.000  Cd  0.567156
  Cd28     1.0000 0.74197  0.12309  0.63692  Biso   1.000  Cd  0.567156
  Cd29     1.0000 0.24197  0.37691  0.13692  Biso   1.000  Cd  0.567156
  Cd30     1.0000 0.75803  0.62309  0.63692  Biso   1.000  Cd  0.567156
  Cd31     1.0000 0.75803  0.37691  0.13692  Biso   1.000  Cd  0.567156
  Cd32     1.0000 0.24197  0.62309  0.63692  Biso   1.000  Cd  0.567156
  Cd33     1.0000 0.00000  0.21793  0.18333  Biso   1.000  Cd  0.573351
  Cd34     1.0000 0.00000  0.78207  0.68333  Biso   1.000  Cd  0.573351
  Cd35     1.0000 0.50000  0.71793  0.18333  Biso   1.000  Cd  0.573351
  Cd36     1.0000 0.50000  0.28207  0.68333  Biso   1.000  Cd  0.573351
  Cd37     1.0000 0.00000  0.26391  0.68435  Biso   1.000  Cd  0.566461
  Cd38     1.0000 0.00000  0.73609  0.18435  Biso   1.000  Cd  0.566461
  Cd39     1.0000 0.50000  0.76391  0.68435  Biso   1.000  Cd  0.566461
  Cd40     1.0000 0.50000  0.23609  0.18435  Biso   1.000  Cd  0.566461
  Cd41     1.0000 0.50000  0.13829  0.13243  Biso   1.000  Cd  0.561789
  Cd42     1.0000 0.50000  0.86171  0.63243  Biso   1.000  Cd  0.561789
  Cd43     1.0000 0.00000  0.63829  0.13243  Biso   1.000  Cd  0.561789
  Cd44     1.0000 0.00000  0.36171  0.63243  Biso   1.000  Cd  0.561789
  Cd45     1.0000 0.50000  0.04104  0.11486  Biso   1.000  Cd  0.603188
  Cd46     1.0000 0.50000  0.95896  0.61486  Biso   1.000  Cd  0.603188
  Cd47     1.0000 0.00000  0.54104  0.11486  Biso   1.000  Cd  0.603188
  Cd48     1.0000 0.00000  0.45896  0.61486  Biso   1.000  Cd  0.603188
  H1       1.0000 0.11830  0.19970  0.35150  Biso   1.000  H  0.126628
  H2       1.0000 0.88170  0.80030  0.85150  Biso   1.000  H  0.126628
  H3       1.0000 0.88170  0.19970  0.35150  Biso   1.000  H  0.126628
  H4       1.0000 0.11830  0.80030  0.85150  Biso   1.000  H  0.126628
  H5       1.0000 0.61830  0.69970  0.35150  Biso   1.000  H  0.126628
  H6       1.0000 0.38170  0.30030  0.85150  Biso   1.000  H  0.126628
  H7       1.0000 0.38170  0.69970  0.35150  Biso   1.000  H  0.126628
  H8       1.0000 0.61830  0.30030  0.85150  Biso   1.000  H  0.126628
  H9       1.0000 0.00000  0.04820  0.51570  Biso   1.000  H  0.085272
  H10      1.0000 0.00000  0.95180  0.01570  Biso   1.000  H  0.085272
  H11      1.0000 0.50000  0.54820  0.51570  Biso   1.000  H  0.085272
  H12      1.0000 0.50000  0.45180  0.01570  Biso   1.000  H  0.085272
  H13      1.0000 0.17530  0.04730  0.85630  Biso   1.000  H  0.072587
  H14      1.0000 0.82470  0.95270  0.35630  Biso   1.000  H  0.072587
  H15      1.0000 0.82470  0.04730  0.85630  Biso   1.000  H  0.072587
  H16      1.0000 0.17530  0.95270  0.35630  Biso   1.000  H  0.072587
  H17      1.0000 0.67530  0.54730  0.85630  Biso   1.000  H  0.072587
  H18      1.0000 0.32470  0.45270  0.35630  Biso   1.000  H  0.072587
  H19      1.0000 0.32470  0.54730  0.85630  Biso   1.000  H  0.072587
  H20      1.0000 0.67530  0.45270  0.35630  Biso   1.000  H  0.072587
  H21      1.0000 0.20540  0.12920  0.93450  Biso   1.000  H  0.082000
  H22      1.0000 0.79460  0.87080  0.43450  Biso   1.000  H  0.082000
  H23      1.0000 0.79460  0.12920  0.93450  Biso   1.000  H  0.082000
  H24      1.0000 0.20540  0.87080  0.43450  Biso   1.000  H  0.082000
  H25      1.0000 0.70540  0.62920  0.93450  Biso   1.000  H  0.082000
  H26      1.0000 0.29460  0.37080  0.43450  Biso   1.000  H  0.082000
  H27      1.0000 0.29460  0.62920  0.93450  Biso   1.000  H  0.082000
  H28      1.0000 0.70540  0.37080  0.43450  Biso   1.000  H  0.082000
  H29      1.0000 0.12170  0.04320  0.92130  Biso   1.000  H  0.130622
  H30      1.0000 0.87830  0.95680  0.42130  Biso   1.000  H  0.130622
  H31      1.0000 0.87830  0.04320  0.92130  Biso   1.000  H  0.130622
  H32      1.0000 0.12170  0.95680  0.42130  Biso   1.000  H  0.130622
  H33      1.0000 0.62170  0.54320  0.92130  Biso   1.000  H  0.130622
  H34      1.0000 0.37830  0.45680  0.42130  Biso   1.000  H  0.130622
  H35      1.0000 0.37830  0.54320  0.92130  Biso   1.000  H  0.130622
  H36      1.0000 0.62170  0.45680  0.42130  Biso   1.000  H  0.130622
  H37      1.0000 0.20910  0.11790  0.33800  Biso   1.000  H  0.086232
  H38      1.0000 0.79090  0.88210  0.83800  Biso   1.000  H  0.086232
  H39      1.0000 0.79090  0.11790  0.33800  Biso   1.000  H  0.086232
  H40      1.0000 0.20910  0.88210  0.83800  Biso   1.000  H  0.086232
  H41      1.0000 0.70910  0.61790  0.33800  Biso   1.000  H  0.086232
  H42      1.0000 0.29090  0.38210  0.83800  Biso   1.000  H  0.086232
  H43      1.0000 0.29090  0.61790  0.33800  Biso   1.000  H  0.086232
  H44      1.0000 0.70910  0.38210  0.83800  Biso   1.000  H  0.086232
  H45      1.0000 0.25130  0.99750  0.00670  Biso   1.000  H  0.135814
  H46      1.0000 0.74870  0.00250  0.50670  Biso   1.000  H  0.135814
  H47      1.0000 0.74870  0.99750  0.00670  Biso   1.000  H  0.135814
  H48      1.0000 0.25130  0.00250  0.50670  Biso   1.000  H  0.135814
  H49      1.0000 0.75130  0.49750  0.00670  Biso   1.000  H  0.135814
  H50      1.0000 0.24870  0.50250  0.50670  Biso   1.000  H  0.135814
  H51      1.0000 0.24870  0.49750  0.00670  Biso   1.000  H  0.135814
  H52      1.0000 0.75130  0.50250  0.50670  Biso   1.000  H  0.135814
  H53      1.0000 0.15030  0.12960  0.00020  Biso   1.000  H  0.137684
  H54      1.0000 0.84970  0.87040  0.50020  Biso   1.000  H  0.137684
  H55      1.0000 0.84970  0.12960  0.00020  Biso   1.000  H  0.137684
  H56      1.0000 0.15030  0.87040  0.50020  Biso   1.000  H  0.137684
  H57      1.0000 0.65030  0.62960  0.00020  Biso   1.000  H  0.137684
  H58      1.0000 0.34970  0.37040  0.50020  Biso   1.000  H  0.137684
  H59      1.0000 0.34970  0.62960  0.00020  Biso   1.000  H  0.137684
  H60      1.0000 0.65030  0.37040  0.50020  Biso   1.000  H  0.137684
  H61      1.0000 0.00000  0.07260  0.41830  Biso   1.000  H  0.132403
  H62      1.0000 0.00000  0.92740  0.91830  Biso   1.000  H  0.132403
  H63      1.0000 0.50000  0.57260  0.41830  Biso   1.000  H  0.132403
  H64      1.0000 0.50000  0.42740  0.91830  Biso   1.000  H  0.132403
  H65      1.0000 0.00000  0.28880  0.25440  Biso   1.000  H  0.096096
  H66      1.0000 0.00000  0.71120  0.75440  Biso   1.000  H  0.096096
  H67      1.0000 0.50000  0.78880  0.25440  Biso   1.000  H  0.096096
  H68      1.0000 0.50000  0.21120  0.75440  Biso   1.000  H  0.096096
  H69      1.0000 0.00000  0.96210  0.43850  Biso   1.000  H  0.095744
  H70      1.0000 0.00000  0.03790  0.93850  Biso   1.000  H  0.095744
  H71      1.0000 0.50000  0.46210  0.43850  Biso   1.000  H  0.095744
  H72      1.0000 0.50000  0.53790  0.93850  Biso   1.000  H  0.095744
  H73      1.0000 0.25430  0.24820  0.76710  Biso   1.000  H  0.137060
  H74      1.0000 0.74570  0.75180  0.26710  Biso   1.000  H  0.137060
  H75      1.0000 0.74570  0.24820  0.76710  Biso   1.000  H  0.137060
  H76      1.0000 0.25430  0.75180  0.26710  Biso   1.000  H  0.137060
  H77      1.0000 0.75430  0.74820  0.76710  Biso   1.000  H  0.137060
  H78      1.0000 0.24570  0.25180  0.26710  Biso   1.000  H  0.137060
  H79      1.0000 0.24570  0.74820  0.76710  Biso   1.000  H  0.137060
  H80      1.0000 0.75430  0.25180  0.26710  Biso   1.000  H  0.137060
  H81      1.0000 0.15310  0.11490  0.27550  Biso   1.000  H  0.132916
  H82      1.0000 0.84690  0.88510  0.77550  Biso   1.000  H  0.132916
  H83      1.0000 0.84690  0.11490  0.27550  Biso   1.000  H  0.132916
  H84      1.0000 0.15310  0.88510  0.77550  Biso   1.000  H  0.132916
  H85      1.0000 0.65310  0.61490  0.27550  Biso   1.000  H  0.132916
  H86      1.0000 0.34690  0.38510  0.77550  Biso   1.000  H  0.132916
  H87      1.0000 0.34690  0.61490  0.27550  Biso   1.000  H  0.132916
  H88      1.0000 0.65310  0.38510  0.77550  Biso   1.000  H  0.132916
  H89      1.0000 0.34920  0.13830  0.99510  Biso   1.000  H  0.137568
  H90      1.0000 0.65080  0.86170  0.49510  Biso   1.000  H  0.137568
  H91      1.0000 0.65080  0.13830  0.99510  Biso   1.000  H  0.137568
  H92      1.0000 0.34920  0.86170  0.49510  Biso   1.000  H  0.137568
  H93      1.0000 0.84920  0.63830  0.99510  Biso   1.000  H  0.137568
  H94      1.0000 0.15080  0.36170  0.49510  Biso   1.000  H  0.137568
  H95      1.0000 0.15080  0.63830  0.99510  Biso   1.000  H  0.137568
  H96      1.0000 0.84920  0.36170  0.49510  Biso   1.000  H  0.137568
  H97      1.0000 0.24910  0.20290  0.93820  Biso   1.000  H  0.126578
  H98      1.0000 0.75090  0.79710  0.43820  Biso   1.000  H  0.126578
  H99      1.0000 0.75090  0.20290  0.93820  Biso   1.000  H  0.126578
  H100     1.0000 0.24910  0.79710  0.43820  Biso   1.000  H  0.126578
  H101     1.0000 0.74910  0.70290  0.93820  Biso   1.000  H  0.126578
  H102     1.0000 0.25090  0.29710  0.43820  Biso   1.000  H  0.126578
  H103     1.0000 0.25090  0.70290  0.93820  Biso   1.000  H  0.126578
  H104     1.0000 0.74910  0.29710  0.43820  Biso   1.000  H  0.126578
  H105     1.0000 0.00000  0.19290  0.75480  Biso   1.000  H  0.088640
  H106     1.0000 0.00000  0.80710  0.25480  Biso   1.000  H  0.088640
  H107     1.0000 0.50000  0.69290  0.75480  Biso   1.000  H  0.088640
  H108     1.0000 0.50000  0.30710  0.25480  Biso   1.000  H  0.088640
  H109     1.0000 0.41130  0.20510  0.52970  Biso   1.000  H  0.142713
  H110     1.0000 0.58870  0.79490  0.02970  Biso   1.000  H  0.142713
  H111     1.0000 0.58870  0.20510  0.52970  Biso   1.000  H  0.142713
  H112     1.0000 0.41130  0.79490  0.02970  Biso   1.000  H  0.142713
  H113     1.0000 0.91130  0.70510  0.52970  Biso   1.000  H  0.142713
  H114     1.0000 0.08870  0.29490  0.02970  Biso   1.000  H  0.142713
  H115     1.0000 0.08870  0.70510  0.52970  Biso   1.000  H  0.142713
  H116     1.0000 0.91130  0.29490  0.02970  Biso   1.000  H  0.142713
  H117     1.0000 0.32380  0.20760  0.41490  Biso   1.000  H  0.079505
  H118     1.0000 0.67620  0.79240  0.91490  Biso   1.000  H  0.079505
  H119     1.0000 0.67620  0.20760  0.41490  Biso   1.000  H  0.079505
  H120     1.0000 0.32380  0.79240  0.91490  Biso   1.000  H  0.079505
  H121     1.0000 0.82380  0.70760  0.41490  Biso   1.000  H  0.079505
  H122     1.0000 0.17620  0.29240  0.91490  Biso   1.000  H  0.079505
  H123     1.0000 0.17620  0.70760  0.41490  Biso   1.000  H  0.079505
  H124     1.0000 0.82380  0.29240  0.91490  Biso   1.000  H  0.079505
  H125     1.0000 0.38700  0.00860  0.75640  Biso   1.000  H  0.123498
  H126     1.0000 0.61300  0.99140  0.25640  Biso   1.000  H  0.123498
  H127     1.0000 0.61300  0.00860  0.75640  Biso   1.000  H  0.123498
  H128     1.0000 0.38700  0.99140  0.25640  Biso   1.000  H  0.123498
  H129     1.0000 0.88700  0.50860  0.75640  Biso   1.000  H  0.123498
  H130     1.0000 0.11300  0.49140  0.25640  Biso   1.000  H  0.123498
  H131     1.0000 0.11300  0.50860  0.75640  Biso   1.000  H  0.123498
  H132     1.0000 0.88700  0.49140  0.25640  Biso   1.000  H  0.123498
  H133     1.0000 0.00000  0.25590  0.93840  Biso   1.000  H  0.125935
  H134     1.0000 0.00000  0.74410  0.43840  Biso   1.000  H  0.125935
  H135     1.0000 0.50000  0.75590  0.93840  Biso   1.000  H  0.125935
  H136     1.0000 0.50000  0.24410  0.43840  Biso   1.000  H  0.125935
  H137     1.0000 0.07750  0.23420  0.74180  Biso   1.000  H  0.090973
  H138     1.0000 0.92250  0.76580  0.24180  Biso   1.000  H  0.090973
  H139     1.0000 0.92250  0.23420  0.74180  Biso   1.000  H  0.090973
  H140     1.0000 0.07750  0.76580  0.24180  Biso   1.000  H  0.090973
  H141     1.0000 0.57750  0.73420  0.74180  Biso   1.000  H  0.090973
  H142     1.0000 0.42250  0.26580  0.24180  Biso   1.000  H  0.090973
  H143     1.0000 0.42250  0.73420  0.74180  Biso   1.000  H  0.090973
  H144     1.0000 0.57750  0.26580  0.24180  Biso   1.000  H  0.090973
  H145     1.0000 0.43830  0.97580  0.73210  Biso   1.000  H  0.091824
  H146     1.0000 0.56170  0.02420  0.23210  Biso   1.000  H  0.091824
  H147     1.0000 0.56170  0.97580  0.73210  Biso   1.000  H  0.091824
  H148     1.0000 0.43830  0.02420  0.23210  Biso   1.000  H  0.091824
  H149     1.0000 0.93830  0.47580  0.73210  Biso   1.000  H  0.091824
  H150     1.0000 0.06170  0.52420  0.23210  Biso   1.000  H  0.091824
  H151     1.0000 0.06170  0.47580  0.73210  Biso   1.000  H  0.091824
  H152     1.0000 0.93830  0.52420  0.23210  Biso   1.000  H  0.091824
  H153     1.0000 0.17470  0.20100  0.41560  Biso   1.000  H  0.090376
  H154     1.0000 0.82530  0.79900  0.91560  Biso   1.000  H  0.090376
  H155     1.0000 0.82530  0.20100  0.41560  Biso   1.000  H  0.090376
  H156     1.0000 0.17470  0.79900  0.91560  Biso   1.000  H  0.090376
  H157     1.0000 0.67470  0.70100  0.41560  Biso   1.000  H  0.090376
  H158     1.0000 0.32530  0.29900  0.91560  Biso   1.000  H  0.090376
  H159     1.0000 0.32530  0.70100  0.41560  Biso   1.000  H  0.090376
  H160     1.0000 0.67470  0.29900  0.91560  Biso   1.000  H  0.090376
  H161     1.0000 0.25440  0.29650  0.82040  Biso   1.000  H  0.090096
  H162     1.0000 0.74560  0.70350  0.32040  Biso   1.000  H  0.090096
  H163     1.0000 0.74560  0.29650  0.82040  Biso   1.000  H  0.090096
  H164     1.0000 0.25440  0.70350  0.32040  Biso   1.000  H  0.090096
  H165     1.0000 0.75440  0.79650  0.82040  Biso   1.000  H  0.090096
  H166     1.0000 0.24560  0.20350  0.32040  Biso   1.000  H  0.090096
  H167     1.0000 0.24560  0.79650  0.82040  Biso   1.000  H  0.090096
  H168     1.0000 0.75440  0.20350  0.32040  Biso   1.000  H  0.090096
  H169     1.0000 0.04150  0.22480  0.56250  Biso   1.000  H  0.065177
  H170     1.0000 0.95850  0.77520  0.06250  Biso   1.000  H  0.065177
  H171     1.0000 0.95850  0.22480  0.56250  Biso   1.000  H  0.065177
  H172     1.0000 0.04150  0.77520  0.06250  Biso   1.000  H  0.065177
  H173     1.0000 0.54150  0.72480  0.56250  Biso   1.000  H  0.065177
  H174     1.0000 0.45850  0.27520  0.06250  Biso   1.000  H  0.065177
  H175     1.0000 0.45850  0.72480  0.56250  Biso   1.000  H  0.065177
  H176     1.0000 0.54150  0.27520  0.06250  Biso   1.000  H  0.065177
  H177     1.0000 0.09360  0.19580  0.53160  Biso   1.000  H  0.134895
  H178     1.0000 0.90640  0.80420  0.03160  Biso   1.000  H  0.134895
  H179     1.0000 0.90640  0.19580  0.53160  Biso   1.000  H  0.134895
  H180     1.0000 0.09360  0.80420  0.03160  Biso   1.000  H  0.134895
  H181     1.0000 0.59360  0.69580  0.53160  Biso   1.000  H  0.134895
  H182     1.0000 0.40640  0.30420  0.03160  Biso   1.000  H  0.134895
  H183     1.0000 0.40640  0.69580  0.53160  Biso   1.000  H  0.134895
  H184     1.0000 0.59360  0.30420  0.03160  Biso   1.000  H  0.134895
  H185     1.0000 0.13690  0.21180  0.71250  Biso   1.000  H  0.141049
  H186     1.0000 0.86310  0.78820  0.21250  Biso   1.000  H  0.141049
  H187     1.0000 0.86310  0.21180  0.71250  Biso   1.000  H  0.141049
  H188     1.0000 0.13690  0.78820  0.21250  Biso   1.000  H  0.141049
  H189     1.0000 0.63690  0.71180  0.71250  Biso   1.000  H  0.141049
  H190     1.0000 0.36310  0.28820  0.21250  Biso   1.000  H  0.141049
  H191     1.0000 0.36310  0.71180  0.71250  Biso   1.000  H  0.141049
  H192     1.0000 0.63690  0.28820  0.21250  Biso   1.000  H  0.141049
  H193     1.0000 0.92340  0.99020  0.03290  Biso   1.000  H  0.082358
  H194     1.0000 0.07660  0.00980  0.53290  Biso   1.000  H  0.082358
  H195     1.0000 0.07660  0.99020  0.03290  Biso   1.000  H  0.082358
  H196     1.0000 0.92340  0.00980  0.53290  Biso   1.000  H  0.082358
  H197     1.0000 0.42340  0.49020  0.03290  Biso   1.000  H  0.082358
  H198     1.0000 0.57660  0.50980  0.53290  Biso   1.000  H  0.082358
  H199     1.0000 0.57660  0.49020  0.03290  Biso   1.000  H  0.082358
  H200     1.0000 0.42340  0.50980  0.53290  Biso   1.000  H  0.082358
  H201     1.0000 0.24790  0.25320  0.98910  Biso   1.000  H  0.095955
  H202     1.0000 0.75210  0.74680  0.48910  Biso   1.000  H  0.095955
  H203     1.0000 0.75210  0.25320  0.98910  Biso   1.000  H  0.095955
  H204     1.0000 0.24790  0.74680  0.48910  Biso   1.000  H  0.095955
  H205     1.0000 0.74790  0.75320  0.98910  Biso   1.000  H  0.095955
  H206     1.0000 0.25210  0.24680  0.48910  Biso   1.000  H  0.095955
  H207     1.0000 0.25210  0.75320  0.98910  Biso   1.000  H  0.095955
  H208     1.0000 0.74790  0.24680  0.48910  Biso   1.000  H  0.095955
  H209     1.0000 0.35180  0.12720  0.26820  Biso   1.000  H  0.131851
  H210     1.0000 0.64820  0.87280  0.76820  Biso   1.000  H  0.131851
  H211     1.0000 0.64820  0.12720  0.26820  Biso   1.000  H  0.131851
  H212     1.0000 0.35180  0.87280  0.76820  Biso   1.000  H  0.131851
  H213     1.0000 0.85180  0.62720  0.26820  Biso   1.000  H  0.131851
  H214     1.0000 0.14820  0.37280  0.76820  Biso   1.000  H  0.131851
  H215     1.0000 0.14820  0.62720  0.26820  Biso   1.000  H  0.131851
  H216     1.0000 0.85180  0.37280  0.76820  Biso   1.000  H  0.131851
  H217     1.0000 0.96260  0.97530  0.20900  Biso   1.000  H  0.083178
  H218     1.0000 0.03740  0.02470  0.70900  Biso   1.000  H  0.083178
  H219     1.0000 0.03740  0.97530  0.20900  Biso   1.000  H  0.083178
  H220     1.0000 0.96260  0.02470  0.70900  Biso   1.000  H  0.083178
  H221     1.0000 0.46260  0.47530  0.20900  Biso   1.000  H  0.083178
  H222     1.0000 0.53740  0.52470  0.70900  Biso   1.000  H  0.083178
  H223     1.0000 0.53740  0.47530  0.20900  Biso   1.000  H  0.083178
  H224     1.0000 0.46260  0.52470  0.70900  Biso   1.000  H  0.083178
  H225     1.0000 0.25530  0.00250  0.78240  Biso   1.000  H  0.101789
  H226     1.0000 0.74470  0.99750  0.28240  Biso   1.000  H  0.101789
  H227     1.0000 0.74470  0.00250  0.78240  Biso   1.000  H  0.101789
  H228     1.0000 0.25530  0.99750  0.28240  Biso   1.000  H  0.101789
  H229     1.0000 0.75530  0.50250  0.78240  Biso   1.000  H  0.101789
  H230     1.0000 0.24470  0.49750  0.28240  Biso   1.000  H  0.101789
  H231     1.0000 0.24470  0.50250  0.78240  Biso   1.000  H  0.101789
  H232     1.0000 0.75530  0.49750  0.28240  Biso   1.000  H  0.101789
  H233     1.0000 0.00000  0.19870  0.33250  Biso   1.000  H  0.124450
  H234     1.0000 0.00000  0.80130  0.83250  Biso   1.000  H  0.124450
  H235     1.0000 0.50000  0.69870  0.33250  Biso   1.000  H  0.124450
  H236     1.0000 0.50000  0.30130  0.83250  Biso   1.000  H  0.124450
  H237     1.0000 0.86430  0.96530  0.05970  Biso   1.000  H  0.135236
  H238     1.0000 0.13570  0.03470  0.55970  Biso   1.000  H  0.135236
  H239     1.0000 0.13570  0.96530  0.05970  Biso   1.000  H  0.135236
  H240     1.0000 0.86430  0.03470  0.55970  Biso   1.000  H  0.135236
  H241     1.0000 0.36430  0.46530  0.05970  Biso   1.000  H  0.135236
  H242     1.0000 0.63570  0.53470  0.55970  Biso   1.000  H  0.135236
  H243     1.0000 0.63570  0.46530  0.05970  Biso   1.000  H  0.135236
  H244     1.0000 0.36430  0.53470  0.55970  Biso   1.000  H  0.135236
  H245     1.0000 0.37970  0.21210  0.35180  Biso   1.000  H  0.131281
  H246     1.0000 0.62030  0.78790  0.85180  Biso   1.000  H  0.131281
  H247     1.0000 0.62030  0.21210  0.35180  Biso   1.000  H  0.131281
  H248     1.0000 0.37970  0.78790  0.85180  Biso   1.000  H  0.131281
  H249     1.0000 0.87970  0.71210  0.35180  Biso   1.000  H  0.131281
  H250     1.0000 0.12030  0.28790  0.85180  Biso   1.000  H  0.131281
  H251     1.0000 0.12030  0.71210  0.35180  Biso   1.000  H  0.131281
  H252     1.0000 0.87970  0.28790  0.85180  Biso   1.000  H  0.131281
  H253     1.0000 0.00000  0.98530  0.33270  Biso   1.000  H  0.128366
  H254     1.0000 0.00000  0.01470  0.83270  Biso   1.000  H  0.128366
  H255     1.0000 0.50000  0.48530  0.33270  Biso   1.000  H  0.128366
  H256     1.0000 0.50000  0.51470  0.83270  Biso   1.000  H  0.128366
  H257     1.0000 0.24990  0.04790  0.95390  Biso   1.000  H  0.097768
  H258     1.0000 0.75010  0.95210  0.45390  Biso   1.000  H  0.097768
  H259     1.0000 0.75010  0.04790  0.95390  Biso   1.000  H  0.097768
  H260     1.0000 0.24990  0.95210  0.45390  Biso   1.000  H  0.097768
  H261     1.0000 0.74990  0.54790  0.95390  Biso   1.000  H  0.097768
  H262     1.0000 0.25010  0.45210  0.45390  Biso   1.000  H  0.097768
  H263     1.0000 0.25010  0.54790  0.95390  Biso   1.000  H  0.097768
  H264     1.0000 0.74990  0.45210  0.45390  Biso   1.000  H  0.097768
  H265     1.0000 0.32730  0.04900  0.86850  Biso   1.000  H  0.069898
  H266     1.0000 0.67270  0.95100  0.36850  Biso   1.000  H  0.069898
  H267     1.0000 0.67270  0.04900  0.86850  Biso   1.000  H  0.069898
  H268     1.0000 0.32730  0.95100  0.36850  Biso   1.000  H  0.069898
  H269     1.0000 0.82730  0.54900  0.86850  Biso   1.000  H  0.069898
  H270     1.0000 0.17270  0.45100  0.36850  Biso   1.000  H  0.069898
  H271     1.0000 0.17270  0.54900  0.86850  Biso   1.000  H  0.069898
  H272     1.0000 0.82730  0.45100  0.36850  Biso   1.000  H  0.069898
  H273     1.0000 0.00000  0.31620  0.35900  Biso   1.000  H  0.155293
  H274     1.0000 0.00000  0.68380  0.85900  Biso   1.000  H  0.155293
  H275     1.0000 0.50000  0.81620  0.35900  Biso   1.000  H  0.155293
  H276     1.0000 0.50000  0.18380  0.85900  Biso   1.000  H  0.155293
  H277     1.0000 0.25750  0.95280  0.83110  Biso   1.000  H  0.140398
  H278     1.0000 0.74250  0.04720  0.33110  Biso   1.000  H  0.140398
  H279     1.0000 0.74250  0.95280  0.83110  Biso   1.000  H  0.140398
  H280     1.0000 0.25750  0.04720  0.33110  Biso   1.000  H  0.140398
  H281     1.0000 0.75750  0.45280  0.83110  Biso   1.000  H  0.140398
  H282     1.0000 0.24250  0.54720  0.33110  Biso   1.000  H  0.140398
  H283     1.0000 0.24250  0.45280  0.83110  Biso   1.000  H  0.140398
  H284     1.0000 0.75750  0.54720  0.33110  Biso   1.000  H  0.140398
  H285     1.0000 0.00000  0.27860  0.83730  Biso   1.000  H  0.099733
  H286     1.0000 0.00000  0.72140  0.33730  Biso   1.000  H  0.099733
  H287     1.0000 0.50000  0.77860  0.83730  Biso   1.000  H  0.099733
  H288     1.0000 0.50000  0.22140  0.33730  Biso   1.000  H  0.099733
  H289     1.0000 0.00000  0.16880  0.85520  Biso   1.000  H  0.119153
  H290     1.0000 0.00000  0.83120  0.35520  Biso   1.000  H  0.119153
  H291     1.0000 0.50000  0.66880  0.85520  Biso   1.000  H  0.119153
  H292     1.0000 0.50000  0.33120  0.35520  Biso   1.000  H  0.119153
  H293     1.0000 0.44890  0.02010  0.56300  Biso   1.000  H  0.089512
  H294     1.0000 0.55110  0.97990  0.06300  Biso   1.000  H  0.089512
  H295     1.0000 0.55110  0.02010  0.56300  Biso   1.000  H  0.089511
  H296     1.0000 0.44890  0.97990  0.06300  Biso   1.000  H  0.089511
  H297     1.0000 0.94890  0.52010  0.56300  Biso   1.000  H  0.089512
  H298     1.0000 0.05110  0.47990  0.06300  Biso   1.000  H  0.089512
  H299     1.0000 0.05110  0.52010  0.56300  Biso   1.000  H  0.089511
  H300     1.0000 0.94890  0.47990  0.06300  Biso   1.000  H  0.089511
  H301     1.0000 0.00000  0.22420  0.43710  Biso   1.000  H  0.119274
  H302     1.0000 0.00000  0.77580  0.93710  Biso   1.000  H  0.119274
  H303     1.0000 0.50000  0.72420  0.43710  Biso   1.000  H  0.119274
  H304     1.0000 0.50000  0.27580  0.93710  Biso   1.000  H  0.119274
  H305     1.0000 0.36840  0.21820  0.70940  Biso   1.000  H  0.137968
  H306     1.0000 0.63160  0.78180  0.20940  Biso   1.000  H  0.137968
  H307     1.0000 0.63160  0.21820  0.70940  Biso   1.000  H  0.137968
  H308     1.0000 0.36840  0.78180  0.20940  Biso   1.000  H  0.137968
  H309     1.0000 0.86840  0.71820  0.70940  Biso   1.000  H  0.137968
  H310     1.0000 0.13160  0.28180  0.20940  Biso   1.000  H  0.137968
  H311     1.0000 0.13160  0.71820  0.70940  Biso   1.000  H  0.137968
  H312     1.0000 0.86840  0.28180  0.20940  Biso   1.000  H  0.137968
  H313     1.0000 0.39230  0.04690  0.58370  Biso   1.000  H  0.125621
  H314     1.0000 0.60770  0.95310  0.08370  Biso   1.000  H  0.125621
  H315     1.0000 0.60770  0.04690  0.58370  Biso   1.000  H  0.125621
  H316     1.0000 0.39230  0.95310  0.08370  Biso   1.000  H  0.125621
  H317     1.0000 0.89230  0.54690  0.58370  Biso   1.000  H  0.125621
  H318     1.0000 0.10770  0.45310  0.08370  Biso   1.000  H  0.125621
  H319     1.0000 0.10770  0.54690  0.58370  Biso   1.000  H  0.125621
  H320     1.0000 0.89230  0.45310  0.08370  Biso   1.000  H  0.125621
  H321     1.0000 0.29550  0.13440  0.92650  Biso   1.000  H  0.080846
  H322     1.0000 0.70450  0.86560  0.42650  Biso   1.000  H  0.080846
  H323     1.0000 0.70450  0.13440  0.92650  Biso   1.000  H  0.080846
  H324     1.0000 0.29550  0.86560  0.42650  Biso   1.000  H  0.080846
  H325     1.0000 0.79550  0.63440  0.92650  Biso   1.000  H  0.080846
  H326     1.0000 0.20450  0.36560  0.42650  Biso   1.000  H  0.080846
  H327     1.0000 0.20450  0.63440  0.92650  Biso   1.000  H  0.080846
  H328     1.0000 0.79550  0.36560  0.42650  Biso   1.000  H  0.080846
  H329     1.0000 0.42260  0.24580  0.73860  Biso   1.000  H  0.082369
  H330     1.0000 0.57740  0.75420  0.23860  Biso   1.000  H  0.082369
  H331     1.0000 0.57740  0.24580  0.73860  Biso   1.000  H  0.082369
  H332     1.0000 0.42260  0.75420  0.23860  Biso   1.000  H  0.082369
  H333     1.0000 0.92260  0.74580  0.73860  Biso   1.000  H  0.082369
  H334     1.0000 0.07740  0.25420  0.23860  Biso   1.000  H  0.082369
  H335     1.0000 0.07740  0.74580  0.73860  Biso   1.000  H  0.082369
  H336     1.0000 0.92260  0.25420  0.23860  Biso   1.000  H  0.082369
  H337     1.0000 0.46100  0.24030  0.56100  Biso   1.000  H  0.066226
  H338     1.0000 0.53900  0.75970  0.06100  Biso   1.000  H  0.066226
  H339     1.0000 0.53900  0.24030  0.56100  Biso   1.000  H  0.066226
  H340     1.0000 0.46100  0.75970  0.06100  Biso   1.000  H  0.066226
  H341     1.0000 0.96100  0.74030  0.56100  Biso   1.000  H  0.066226
  H342     1.0000 0.03900  0.25970  0.06100  Biso   1.000  H  0.066226
  H343     1.0000 0.03900  0.74030  0.56100  Biso   1.000  H  0.066226
  H344     1.0000 0.96100  0.25970  0.06100  Biso   1.000  H  0.066226
  H345     1.0000 0.38180  0.04930  0.93220  Biso   1.000  H  0.134331
  H346     1.0000 0.61820  0.95070  0.43220  Biso   1.000  H  0.134331
  H347     1.0000 0.61820  0.04930  0.93220  Biso   1.000  H  0.134331
  H348     1.0000 0.38180  0.95070  0.43220  Biso   1.000  H  0.134331
  H349     1.0000 0.88180  0.54930  0.93220  Biso   1.000  H  0.134331
  H350     1.0000 0.11820  0.45070  0.43220  Biso   1.000  H  0.134331
  H351     1.0000 0.11820  0.54930  0.93220  Biso   1.000  H  0.134331
  H352     1.0000 0.88180  0.45070  0.43220  Biso   1.000  H  0.134331
  H353     1.0000 0.90460  0.95410  0.24090  Biso   1.000  H  0.127002
  H354     1.0000 0.09540  0.04590  0.74090  Biso   1.000  H  0.127002
  H355     1.0000 0.09540  0.95410  0.24090  Biso   1.000  H  0.127002
  H356     1.0000 0.90460  0.04590  0.74090  Biso   1.000  H  0.127002
  H357     1.0000 0.40460  0.45410  0.24090  Biso   1.000  H  0.127002
  H358     1.0000 0.59540  0.54590  0.74090  Biso   1.000  H  0.127002
  H359     1.0000 0.59540  0.45410  0.24090  Biso   1.000  H  0.127002
  H360     1.0000 0.40460  0.54590  0.74090  Biso   1.000  H  0.127002
  H361     1.0000 0.29800  0.12420  0.33550  Biso   1.000  H  0.080542
  H362     1.0000 0.70200  0.87580  0.83550  Biso   1.000  H  0.080542
  H363     1.0000 0.70200  0.12420  0.33550  Biso   1.000  H  0.080542
  H364     1.0000 0.29800  0.87580  0.83550  Biso   1.000  H  0.080542
  H365     1.0000 0.79800  0.62420  0.33550  Biso   1.000  H  0.080542
  H366     1.0000 0.20200  0.37580  0.83550  Biso   1.000  H  0.080542
  H367     1.0000 0.20200  0.62420  0.33550  Biso   1.000  H  0.080542
  H368     1.0000 0.79800  0.37580  0.83550  Biso   1.000  H  0.080542
  N1       1.0000 0.19680  0.15880  0.38420  Biso   1.000  N  -0.222683
  N2       1.0000 0.80320  0.84120  0.88420  Biso   1.000  N  -0.222683
  N3       1.0000 0.80320  0.15880  0.38420  Biso   1.000  N  -0.222683
  N4       1.0000 0.19680  0.84120  0.88420  Biso   1.000  N  -0.222683
  N5       1.0000 0.69680  0.65880  0.38420  Biso   1.000  N  -0.222683
  N6       1.0000 0.30320  0.34120  0.88420  Biso   1.000  N  -0.222683
  N7       1.0000 0.30320  0.65880  0.38420  Biso   1.000  N  -0.222683
  N8       1.0000 0.69680  0.34120  0.88420  Biso   1.000  N  -0.222683
  N9       1.0000 0.25140  0.28010  0.91140  Biso   1.000  N  -0.201976
  N10      1.0000 0.74860  0.71990  0.41140  Biso   1.000  N  -0.201976
  N11      1.0000 0.74860  0.28010  0.91140  Biso   1.000  N  -0.201976
  N12      1.0000 0.25140  0.71990  0.41140  Biso   1.000  N  -0.201976
  N13      1.0000 0.75140  0.78010  0.91140  Biso   1.000  N  -0.201976
  N14      1.0000 0.24860  0.21990  0.41140  Biso   1.000  N  -0.201976
  N15      1.0000 0.24860  0.78010  0.91140  Biso   1.000  N  -0.201976
  N16      1.0000 0.75140  0.21990  0.41140  Biso   1.000  N  -0.201976
  N17      1.0000 0.30600  0.09030  0.89220  Biso   1.000  N  -0.216996
  N18      1.0000 0.69400  0.90970  0.39220  Biso   1.000  N  -0.216996
  N19      1.0000 0.69400  0.09030  0.89220  Biso   1.000  N  -0.216996
  N20      1.0000 0.30600  0.90970  0.39220  Biso   1.000  N  -0.216996
  N21      1.0000 0.80600  0.59030  0.89220  Biso   1.000  N  -0.216996
  N22      1.0000 0.19400  0.40970  0.39220  Biso   1.000  N  -0.216996
  N23      1.0000 0.19400  0.59030  0.89220  Biso   1.000  N  -0.216996
  N24      1.0000 0.80600  0.40970  0.39220  Biso   1.000  N  -0.216996
  N25      1.0000 0.25310  0.03140  0.86320  Biso   1.000  N  -0.213204
  N26      1.0000 0.74690  0.96860  0.36320  Biso   1.000  N  -0.213204
  N27      1.0000 0.74690  0.03140  0.86320  Biso   1.000  N  -0.213204
  N28      1.0000 0.25310  0.96860  0.36320  Biso   1.000  N  -0.213204
  N29      1.0000 0.75310  0.53140  0.86320  Biso   1.000  N  -0.213204
  N30      1.0000 0.24690  0.46860  0.36320  Biso   1.000  N  -0.213204
  N31      1.0000 0.24690  0.53140  0.86320  Biso   1.000  N  -0.213204
  N32      1.0000 0.75310  0.46860  0.36320  Biso   1.000  N  -0.213204
  N33      1.0000 0.30600  0.16490  0.38220  Biso   1.000  N  -0.218400
  N34      1.0000 0.69400  0.83510  0.88220  Biso   1.000  N  -0.218400
  N35      1.0000 0.69400  0.16490  0.38220  Biso   1.000  N  -0.218400
  N36      1.0000 0.30600  0.83510  0.88220  Biso   1.000  N  -0.218400
  N37      1.0000 0.80600  0.66490  0.38220  Biso   1.000  N  -0.218400
  N38      1.0000 0.19400  0.33510  0.88220  Biso   1.000  N  -0.218400
  N39      1.0000 0.19400  0.66490  0.38220  Biso   1.000  N  -0.218400
  N40      1.0000 0.80600  0.33510  0.88220  Biso   1.000  N  -0.218400
  N41      1.0000 0.00000  0.24350  0.28630  Biso   1.000  N  -0.216907
  N42      1.0000 0.00000  0.75650  0.78630  Biso   1.000  N  -0.216907
  N43      1.0000 0.50000  0.74350  0.28630  Biso   1.000  N  -0.216907
  N44      1.0000 0.50000  0.25650  0.78630  Biso   1.000  N  -0.216907
  N45      1.0000 0.00000  0.04690  0.19380  Biso   1.000  N  -0.013535
  N46      1.0000 0.00000  0.95310  0.69380  Biso   1.000  N  -0.013535
  N47      1.0000 0.50000  0.54690  0.19380  Biso   1.000  N  -0.013535
  N48      1.0000 0.50000  0.45310  0.69380  Biso   1.000  N  -0.013535
  N49      1.0000 0.00000  0.00330  0.48800  Biso   1.000  N  -0.203045
  N50      1.0000 0.00000  0.99670  0.98800  Biso   1.000  N  -0.203045
  N51      1.0000 0.50000  0.50330  0.48800  Biso   1.000  N  -0.203045
  N52      1.0000 0.50000  0.49670  0.98800  Biso   1.000  N  -0.203045
  N53      1.0000 0.25500  0.18500  0.74870  Biso   1.000  N  -0.263197
  N54      1.0000 0.74500  0.81500  0.24870  Biso   1.000  N  -0.263197
  N55      1.0000 0.74500  0.18500  0.74870  Biso   1.000  N  -0.263197
  N56      1.0000 0.25500  0.81500  0.24870  Biso   1.000  N  -0.263197
  N57      1.0000 0.75500  0.68500  0.74870  Biso   1.000  N  -0.263197
  N58      1.0000 0.24500  0.31500  0.24870  Biso   1.000  N  -0.263197
  N59      1.0000 0.24500  0.68500  0.74870  Biso   1.000  N  -0.263197
  N60      1.0000 0.75500  0.31500  0.24870  Biso   1.000  N  -0.263197
  N61      1.0000 0.50000  0.11420  0.28010  Biso   1.000  N  -0.181059
  N62      1.0000 0.50000  0.88580  0.78010  Biso   1.000  N  -0.181059
  N63      1.0000 0.00000  0.61420  0.28010  Biso   1.000  N  -0.181059
  N64      1.0000 0.00000  0.38580  0.78010  Biso   1.000  N  -0.181059
  N65      1.0000 0.25620  0.90900  0.92810  Biso   1.000  N  -0.273813
  N66      1.0000 0.74380  0.09100  0.42810  Biso   1.000  N  -0.273813
  N67      1.0000 0.74380  0.90900  0.92810  Biso   1.000  N  -0.273813
  N68      1.0000 0.25620  0.09100  0.42810  Biso   1.000  N  -0.273813
  N69      1.0000 0.75620  0.40900  0.92810  Biso   1.000  N  -0.273813
  N70      1.0000 0.24380  0.59100  0.42810  Biso   1.000  N  -0.273813
  N71      1.0000 0.24380  0.40900  0.92810  Biso   1.000  N  -0.273813
  N72      1.0000 0.75620  0.59100  0.42810  Biso   1.000  N  -0.273813
  N73      1.0000 0.25730  0.90370  0.03280  Biso   1.000  N  -0.003899
  N74      1.0000 0.74270  0.09630  0.53280  Biso   1.000  N  -0.003899
  N75      1.0000 0.74270  0.90370  0.03280  Biso   1.000  N  -0.003899
  N76      1.0000 0.25730  0.09630  0.53280  Biso   1.000  N  -0.003899
  N77      1.0000 0.75730  0.40370  0.03280  Biso   1.000  N  -0.003899
  N78      1.0000 0.24270  0.59630  0.53280  Biso   1.000  N  -0.003899
  N79      1.0000 0.24270  0.40370  0.03280  Biso   1.000  N  -0.003899
  N80      1.0000 0.75730  0.59630  0.53280  Biso   1.000  N  -0.003899
  N81      1.0000 0.50000  0.05380  0.27100  Biso   1.000  N  -0.260037
  N82      1.0000 0.50000  0.94620  0.77100  Biso   1.000  N  -0.260037
  N83      1.0000 0.00000  0.55380  0.27100  Biso   1.000  N  -0.260037
  N84      1.0000 0.00000  0.44620  0.77100  Biso   1.000  N  -0.260037
  N85      1.0000 0.00000  0.26680  0.52890  Biso   1.000  N  -0.286629
  N86      1.0000 0.00000  0.73320  0.02890  Biso   1.000  N  -0.286629
  N87      1.0000 0.50000  0.76680  0.52890  Biso   1.000  N  -0.286629
  N88      1.0000 0.50000  0.23320  0.02890  Biso   1.000  N  -0.286629
  N89      1.0000 0.50000  0.01510  0.01250  Biso   1.000  N  -0.019570
  N90      1.0000 0.50000  0.98490  0.51250  Biso   1.000  N  -0.019571
  N91      1.0000 0.00000  0.51510  0.01250  Biso   1.000  N  -0.019571
  N92      1.0000 0.00000  0.48490  0.51250  Biso   1.000  N  -0.019571
  N93      1.0000 0.00000  0.02650  0.24410  Biso   1.000  N  -0.316447
  N94      1.0000 0.00000  0.97350  0.74410  Biso   1.000  N  -0.316447
  N95      1.0000 0.50000  0.52650  0.24410  Biso   1.000  N  -0.316447
  N96      1.0000 0.50000  0.47350  0.74410  Biso   1.000  N  -0.316447
  N97      1.0000 0.00000  0.21310  0.02890  Biso   1.000  N  -0.261915
  N98      1.0000 0.00000  0.78690  0.52890  Biso   1.000  N  -0.261915
  N99      1.0000 0.50000  0.71310  0.02890  Biso   1.000  N  -0.261915
  N100     1.0000 0.50000  0.28690  0.52890  Biso   1.000  N  -0.261915
  N101     1.0000 0.04610  0.17830  0.21650  Biso   1.000  N  -0.064927
  N102     1.0000 0.95390  0.82170  0.71650  Biso   1.000  N  -0.064927
  N103     1.0000 0.95390  0.17830  0.21650  Biso   1.000  N  -0.064927
  N104     1.0000 0.04610  0.82170  0.71650  Biso   1.000  N  -0.064927
  N105     1.0000 0.54610  0.67830  0.21650  Biso   1.000  N  -0.064927
  N106     1.0000 0.45390  0.32170  0.71650  Biso   1.000  N  -0.064927
  N107     1.0000 0.45390  0.67830  0.21650  Biso   1.000  N  -0.064927
  N108     1.0000 0.54610  0.32170  0.71650  Biso   1.000  N  -0.064927
  N109     1.0000 0.04810  0.09360  0.07470  Biso   1.000  N  -0.027858
  N110     1.0000 0.95190  0.90640  0.57470  Biso   1.000  N  -0.027858
  N111     1.0000 0.95190  0.09360  0.07470  Biso   1.000  N  -0.027858
  N112     1.0000 0.04810  0.90640  0.57470  Biso   1.000  N  -0.027858
  N113     1.0000 0.54810  0.59360  0.07470  Biso   1.000  N  -0.027858
  N114     1.0000 0.45190  0.40640  0.57470  Biso   1.000  N  -0.027858
  N115     1.0000 0.45190  0.59360  0.07470  Biso   1.000  N  -0.027858
  N116     1.0000 0.54810  0.40640  0.57470  Biso   1.000  N  -0.027858
  N117     1.0000 0.25500  0.15160  0.73750  Biso   1.000  N  -0.039164
  N118     1.0000 0.74500  0.84840  0.23750  Biso   1.000  N  -0.039164
  N119     1.0000 0.74500  0.15160  0.73750  Biso   1.000  N  -0.039164
  N120     1.0000 0.25500  0.84840  0.23750  Biso   1.000  N  -0.039164
  N121     1.0000 0.75500  0.65160  0.73750  Biso   1.000  N  -0.039164
  N122     1.0000 0.24500  0.34840  0.23750  Biso   1.000  N  -0.039164
  N123     1.0000 0.24500  0.65160  0.73750  Biso   1.000  N  -0.039164
  N124     1.0000 0.75500  0.34840  0.23750  Biso   1.000  N  -0.039164
  N125     1.0000 0.00000  0.19360  0.07930  Biso   1.000  N  -0.052323
  N126     1.0000 0.00000  0.80640  0.57930  Biso   1.000  N  -0.052323
  N127     1.0000 0.50000  0.69360  0.07930  Biso   1.000  N  -0.052323
  N128     1.0000 0.50000  0.30640  0.57930  Biso   1.000  N  -0.052323
  N129     1.0000 0.04530  0.06210  0.05700  Biso   1.000  N  -0.070601
  N130     1.0000 0.95470  0.93790  0.55700  Biso   1.000  N  -0.070601
  N131     1.0000 0.95470  0.06210  0.05700  Biso   1.000  N  -0.070601
  N132     1.0000 0.04530  0.93790  0.55700  Biso   1.000  N  -0.070601
  N133     1.0000 0.54530  0.56210  0.05700  Biso   1.000  N  -0.070601
  N134     1.0000 0.45470  0.43790  0.55700  Biso   1.000  N  -0.070601
  N135     1.0000 0.45470  0.56210  0.05700  Biso   1.000  N  -0.070601
  N136     1.0000 0.54530  0.43790  0.55700  Biso   1.000  N  -0.070601
  N137     1.0000 0.81850  0.92290  0.13550  Biso   1.000  N  -0.251377
  N138     1.0000 0.18150  0.07710  0.63550  Biso   1.000  N  -0.251377
  N139     1.0000 0.18150  0.92290  0.13550  Biso   1.000  N  -0.251377
  N140     1.0000 0.81850  0.07710  0.63550  Biso   1.000  N  -0.251377
  N141     1.0000 0.31850  0.42290  0.13550  Biso   1.000  N  -0.251377
  N142     1.0000 0.68150  0.57710  0.63550  Biso   1.000  N  -0.251377
  N143     1.0000 0.68150  0.42290  0.13550  Biso   1.000  N  -0.251377
  N144     1.0000 0.31850  0.57710  0.63550  Biso   1.000  N  -0.251377
  N145     1.0000 0.04850  0.14690  0.20060  Biso   1.000  N  -0.030417
  N146     1.0000 0.95150  0.85310  0.70060  Biso   1.000  N  -0.030417
  N147     1.0000 0.95150  0.14690  0.20060  Biso   1.000  N  -0.030417
  N148     1.0000 0.04850  0.85310  0.70060  Biso   1.000  N  -0.030417
  N149     1.0000 0.54850  0.64690  0.20060  Biso   1.000  N  -0.030417
  N150     1.0000 0.45150  0.35310  0.70060  Biso   1.000  N  -0.030417
  N151     1.0000 0.45150  0.64690  0.20060  Biso   1.000  N  -0.030417
  N152     1.0000 0.54850  0.35310  0.70060  Biso   1.000  N  -0.030417
  N153     1.0000 0.00000  0.16250  0.05920  Biso   1.000  N  -0.019213
  N154     1.0000 0.00000  0.83750  0.55920  Biso   1.000  N  -0.019213
  N155     1.0000 0.50000  0.66250  0.05920  Biso   1.000  N  -0.019213
  N156     1.0000 0.50000  0.33750  0.55920  Biso   1.000  N  -0.019213
  N157     1.0000 0.94710  0.98690  0.11860  Biso   1.000  N  -0.219912
  N158     1.0000 0.05290  0.01310  0.61860  Biso   1.000  N  -0.219912
  N159     1.0000 0.05290  0.98690  0.11860  Biso   1.000  N  -0.219912
  N160     1.0000 0.94710  0.01310  0.61860  Biso   1.000  N  -0.219912
  N161     1.0000 0.44710  0.48690  0.11860  Biso   1.000  N  -0.219912
  N162     1.0000 0.55290  0.51310  0.61860  Biso   1.000  N  -0.219912
  N163     1.0000 0.55290  0.48690  0.11860  Biso   1.000  N  -0.219912
  N164     1.0000 0.44710  0.51310  0.61860  Biso   1.000  N  -0.219912
  N165     1.0000 0.45410  0.07690  0.07010  Biso   1.000  N  -0.062252
  N166     1.0000 0.54590  0.92310  0.57010  Biso   1.000  N  -0.062252
  N167     1.0000 0.54590  0.07690  0.07010  Biso   1.000  N  -0.062252
  N168     1.0000 0.45410  0.92310  0.57010  Biso   1.000  N  -0.062252
  N169     1.0000 0.95410  0.57690  0.07010  Biso   1.000  N  -0.062252
  N170     1.0000 0.04590  0.42310  0.57010  Biso   1.000  N  -0.062252
  N171     1.0000 0.04590  0.57690  0.07010  Biso   1.000  N  -0.062252
  N172     1.0000 0.95410  0.42310  0.57010  Biso   1.000  N  -0.062252
  N173     1.0000 0.00000  0.31620  0.49250  Biso   1.000  N  -0.284420
  N174     1.0000 0.00000  0.68380  0.99250  Biso   1.000  N  -0.284420
  N175     1.0000 0.50000  0.81620  0.49250  Biso   1.000  N  -0.284420
  N176     1.0000 0.50000  0.18380  0.99250  Biso   1.000  N  -0.284420
  N177     1.0000 0.50000  0.10220  0.22000  Biso   1.000  N  -0.047395
  N178     1.0000 0.50000  0.89780  0.72000  Biso   1.000  N  -0.047395
  N179     1.0000 0.00000  0.60220  0.22000  Biso   1.000  N  -0.047395
  N180     1.0000 0.00000  0.39780  0.72000  Biso   1.000  N  -0.047395
  N181     1.0000 0.21020  0.15920  0.59920  Biso   1.000  N  -0.037872
  N182     1.0000 0.78980  0.84080  0.09920  Biso   1.000  N  -0.037872
  N183     1.0000 0.78980  0.15920  0.59920  Biso   1.000  N  -0.037872
  N184     1.0000 0.21020  0.84080  0.09920  Biso   1.000  N  -0.037872
  N185     1.0000 0.71020  0.65920  0.59920  Biso   1.000  N  -0.037872
  N186     1.0000 0.28980  0.34080  0.09920  Biso   1.000  N  -0.037872
  N187     1.0000 0.28980  0.65920  0.59920  Biso   1.000  N  -0.037872
  N188     1.0000 0.71020  0.34080  0.09920  Biso   1.000  N  -0.037872
  N189     1.0000 0.79250  0.92720  0.23100  Biso   1.000  N  -0.081989
  N190     1.0000 0.20750  0.07280  0.73100  Biso   1.000  N  -0.081989
  N191     1.0000 0.20750  0.92720  0.23100  Biso   1.000  N  -0.081989
  N192     1.0000 0.79250  0.07280  0.73100  Biso   1.000  N  -0.081989
  N193     1.0000 0.29250  0.42720  0.23100  Biso   1.000  N  -0.081989
  N194     1.0000 0.70750  0.57280  0.73100  Biso   1.000  N  -0.081989
  N195     1.0000 0.70750  0.42720  0.23100  Biso   1.000  N  -0.081989
  N196     1.0000 0.29250  0.57280  0.73100  Biso   1.000  N  -0.081989
  N197     1.0000 0.07480  0.18650  0.25590  Biso   1.000  N  -0.279765
  N198     1.0000 0.92520  0.81350  0.75590  Biso   1.000  N  -0.279765
  N199     1.0000 0.92520  0.18650  0.25590  Biso   1.000  N  -0.279765
  N200     1.0000 0.07480  0.81350  0.75590  Biso   1.000  N  -0.279765
  N201     1.0000 0.57480  0.68650  0.25590  Biso   1.000  N  -0.279765
  N202     1.0000 0.42520  0.31350  0.75590  Biso   1.000  N  -0.279765
  N203     1.0000 0.42520  0.68650  0.25590  Biso   1.000  N  -0.279765
  N204     1.0000 0.57480  0.31350  0.75590  Biso   1.000  N  -0.279765
  N205     1.0000 0.79030  0.91370  0.17120  Biso   1.000  N  -0.015059
  N206     1.0000 0.20970  0.08630  0.67120  Biso   1.000  N  -0.015059
  N207     1.0000 0.20970  0.91370  0.17120  Biso   1.000  N  -0.015059
  N208     1.0000 0.79030  0.08630  0.67120  Biso   1.000  N  -0.015059
  N209     1.0000 0.29030  0.41370  0.17120  Biso   1.000  N  -0.015059
  N210     1.0000 0.70970  0.58630  0.67120  Biso   1.000  N  -0.015059
  N211     1.0000 0.70970  0.41370  0.17120  Biso   1.000  N  -0.015059
  N212     1.0000 0.29030  0.58630  0.67120  Biso   1.000  N  -0.015059
  N213     1.0000 0.25020  0.15940  0.84240  Biso   1.000  N  -0.290334
  N214     1.0000 0.74980  0.84060  0.34240  Biso   1.000  N  -0.290334
  N215     1.0000 0.74980  0.15940  0.84240  Biso   1.000  N  -0.290334
  N216     1.0000 0.25020  0.84060  0.34240  Biso   1.000  N  -0.290334
  N217     1.0000 0.75020  0.65940  0.84240  Biso   1.000  N  -0.290334
  N218     1.0000 0.24980  0.34060  0.34240  Biso   1.000  N  -0.290334
  N219     1.0000 0.24980  0.65940  0.84240  Biso   1.000  N  -0.290334
  N220     1.0000 0.75020  0.34060  0.34240  Biso   1.000  N  -0.290334
  N221     1.0000 0.07980  0.13400  0.22880  Biso   1.000  N  -0.263550
  N222     1.0000 0.92020  0.86600  0.72880  Biso   1.000  N  -0.263550
  N223     1.0000 0.92020  0.13400  0.22880  Biso   1.000  N  -0.263550
  N224     1.0000 0.07980  0.86600  0.72880  Biso   1.000  N  -0.263550
  N225     1.0000 0.57980  0.63400  0.22880  Biso   1.000  N  -0.263550
  N226     1.0000 0.42020  0.36600  0.72880  Biso   1.000  N  -0.263550
  N227     1.0000 0.42020  0.63400  0.22880  Biso   1.000  N  -0.263550
  N228     1.0000 0.57980  0.36600  0.72880  Biso   1.000  N  -0.263550
  N229     1.0000 0.45130  0.16580  0.19460  Biso   1.000  N  -0.031404
  N230     1.0000 0.54870  0.83420  0.69460  Biso   1.000  N  -0.031404
  N231     1.0000 0.54870  0.16580  0.19460  Biso   1.000  N  -0.031404
  N232     1.0000 0.45130  0.83420  0.69460  Biso   1.000  N  -0.031404
  N233     1.0000 0.95130  0.66580  0.19460  Biso   1.000  N  -0.031404
  N234     1.0000 0.04870  0.33420  0.69460  Biso   1.000  N  -0.031404
  N235     1.0000 0.04870  0.66580  0.19460  Biso   1.000  N  -0.031404
  N236     1.0000 0.95130  0.33420  0.69460  Biso   1.000  N  -0.031404
  N237     1.0000 0.32980  0.19790  0.53830  Biso   1.000  N  -0.300563
  N238     1.0000 0.67020  0.80210  0.03830  Biso   1.000  N  -0.300563
  N239     1.0000 0.67020  0.19790  0.53830  Biso   1.000  N  -0.300563
  N240     1.0000 0.32980  0.80210  0.03830  Biso   1.000  N  -0.300563
  N241     1.0000 0.82980  0.69790  0.53830  Biso   1.000  N  -0.300563
  N242     1.0000 0.17020  0.30210  0.03830  Biso   1.000  N  -0.300563
  N243     1.0000 0.17020  0.69790  0.53830  Biso   1.000  N  -0.300563
  N244     1.0000 0.82980  0.30210  0.03830  Biso   1.000  N  -0.300563
  N245     1.0000 0.44880  0.24720  0.65160  Biso   1.000  N  -0.213183
  N246     1.0000 0.55120  0.75280  0.15160  Biso   1.000  N  -0.213183
  N247     1.0000 0.55120  0.24720  0.65160  Biso   1.000  N  -0.213183
  N248     1.0000 0.44880  0.75280  0.15160  Biso   1.000  N  -0.213183
  N249     1.0000 0.94880  0.74720  0.65160  Biso   1.000  N  -0.213183
  N250     1.0000 0.05120  0.25280  0.15160  Biso   1.000  N  -0.213183
  N251     1.0000 0.05120  0.74720  0.65160  Biso   1.000  N  -0.213183
  N252     1.0000 0.94880  0.25280  0.15160  Biso   1.000  N  -0.213183
  N253     1.0000 0.30350  0.08630  0.67860  Biso   1.000  N  -0.037859
  N254     1.0000 0.69650  0.91370  0.17860  Biso   1.000  N  -0.037859
  N255     1.0000 0.69650  0.08630  0.67860  Biso   1.000  N  -0.037859
  N256     1.0000 0.30350  0.91370  0.17860  Biso   1.000  N  -0.037859
  N257     1.0000 0.80350  0.58630  0.67860  Biso   1.000  N  -0.037859
  N258     1.0000 0.19650  0.41370  0.17860  Biso   1.000  N  -0.037859
  N259     1.0000 0.19650  0.58630  0.67860  Biso   1.000  N  -0.037859
  N260     1.0000 0.80350  0.41370  0.17860  Biso   1.000  N  -0.037859
  N261     1.0000 0.07860  0.10760  0.04560  Biso   1.000  N  -0.262758
  N262     1.0000 0.92140  0.89240  0.54560  Biso   1.000  N  -0.262758
  N263     1.0000 0.92140  0.10760  0.04560  Biso   1.000  N  -0.262758
  N264     1.0000 0.07860  0.89240  0.54560  Biso   1.000  N  -0.262758
  N265     1.0000 0.57860  0.60760  0.04560  Biso   1.000  N  -0.262758
  N266     1.0000 0.42140  0.39240  0.54560  Biso   1.000  N  -0.262758
  N267     1.0000 0.42140  0.60760  0.04560  Biso   1.000  N  -0.262758
  N268     1.0000 0.57860  0.39240  0.54560  Biso   1.000  N  -0.262758
  N269     1.0000 0.29970  0.17660  0.54080  Biso   1.000  N  -0.064648
  N270     1.0000 0.70030  0.82340  0.04080  Biso   1.000  N  -0.064648
  N271     1.0000 0.70030  0.17660  0.54080  Biso   1.000  N  -0.064648
  N272     1.0000 0.29970  0.82340  0.04080  Biso   1.000  N  -0.064648
  N273     1.0000 0.79970  0.67660  0.54080  Biso   1.000  N  -0.064648
  N274     1.0000 0.20030  0.32340  0.04080  Biso   1.000  N  -0.064648
  N275     1.0000 0.20030  0.67660  0.54080  Biso   1.000  N  -0.064648
  N276     1.0000 0.79970  0.32340  0.04080  Biso   1.000  N  -0.064648
  N277     1.0000 0.00000  0.07530  0.21470  Biso   1.000  N  -0.020120
  N278     1.0000 0.00000  0.92470  0.71470  Biso   1.000  N  -0.020120
  N279     1.0000 0.50000  0.57530  0.21470  Biso   1.000  N  -0.020120
  N280     1.0000 0.50000  0.42470  0.71470  Biso   1.000  N  -0.020120
  N281     1.0000 0.07450  0.05560  0.01480  Biso   1.000  N  -0.287731
  N282     1.0000 0.92550  0.94440  0.51480  Biso   1.000  N  -0.287731
  N283     1.0000 0.92550  0.05560  0.01480  Biso   1.000  N  -0.287731
  N284     1.0000 0.07450  0.94440  0.51480  Biso   1.000  N  -0.287731
  N285     1.0000 0.57450  0.55560  0.01480  Biso   1.000  N  -0.287731
  N286     1.0000 0.42550  0.44440  0.51480  Biso   1.000  N  -0.287731
  N287     1.0000 0.42550  0.55560  0.01480  Biso   1.000  N  -0.287731
  N288     1.0000 0.57450  0.44440  0.51480  Biso   1.000  N  -0.287731
  N289     1.0000 0.00000  0.16240  0.99370  Biso   1.000  N  -0.270780
  N290     1.0000 0.00000  0.83760  0.49370  Biso   1.000  N  -0.270780
  N291     1.0000 0.50000  0.66240  0.99370  Biso   1.000  N  -0.270780
  N292     1.0000 0.50000  0.33760  0.49370  Biso   1.000  N  -0.270780
  N293     1.0000 0.05100  0.22900  0.65370  Biso   1.000  N  -0.218956
  N294     1.0000 0.94900  0.77100  0.15370  Biso   1.000  N  -0.218956
  N295     1.0000 0.94900  0.22900  0.65370  Biso   1.000  N  -0.218956
  N296     1.0000 0.05100  0.77100  0.15370  Biso   1.000  N  -0.218956
  N297     1.0000 0.55100  0.72900  0.65370  Biso   1.000  N  -0.218956
  N298     1.0000 0.44900  0.27100  0.15370  Biso   1.000  N  -0.218956
  N299     1.0000 0.44900  0.72900  0.65370  Biso   1.000  N  -0.218956
  N300     1.0000 0.55100  0.27100  0.15370  Biso   1.000  N  -0.218956
  N301     1.0000 0.25760  0.93420  0.02500  Biso   1.000  N  -0.247155
  N302     1.0000 0.74240  0.06580  0.52500  Biso   1.000  N  -0.247155
  N303     1.0000 0.74240  0.93420  0.02500  Biso   1.000  N  -0.247155
  N304     1.0000 0.25760  0.06580  0.52500  Biso   1.000  N  -0.247155
  N305     1.0000 0.75760  0.43420  0.02500  Biso   1.000  N  -0.247155
  N306     1.0000 0.24240  0.56580  0.52500  Biso   1.000  N  -0.247155
  N307     1.0000 0.24240  0.43420  0.02500  Biso   1.000  N  -0.247155
  N308     1.0000 0.75760  0.56580  0.52500  Biso   1.000  N  -0.247155
  N309     1.0000 0.30150  0.16010  0.59580  Biso   1.000  N  -0.019200
  N310     1.0000 0.69850  0.83990  0.09580  Biso   1.000  N  -0.019200
  N311     1.0000 0.69850  0.16010  0.59580  Biso   1.000  N  -0.019200
  N312     1.0000 0.30150  0.83990  0.09580  Biso   1.000  N  -0.019200
  N313     1.0000 0.80150  0.66010  0.59580  Biso   1.000  N  -0.019200
  N314     1.0000 0.19850  0.33990  0.09580  Biso   1.000  N  -0.019200
  N315     1.0000 0.19850  0.66010  0.59580  Biso   1.000  N  -0.019200
  N316     1.0000 0.80150  0.33990  0.09580  Biso   1.000  N  -0.019200
  N317     1.0000 0.33090  0.17120  0.63250  Biso   1.000  N  -0.287076
  N318     1.0000 0.66910  0.82880  0.13250  Biso   1.000  N  -0.287076
  N319     1.0000 0.66910  0.17120  0.63250  Biso   1.000  N  -0.287076
  N320     1.0000 0.33090  0.82880  0.13250  Biso   1.000  N  -0.287076
  N321     1.0000 0.83090  0.67120  0.63250  Biso   1.000  N  -0.287076
  N322     1.0000 0.16910  0.32880  0.13250  Biso   1.000  N  -0.287076
  N323     1.0000 0.16910  0.67120  0.63250  Biso   1.000  N  -0.287076
  N324     1.0000 0.83090  0.32880  0.13250  Biso   1.000  N  -0.287076
  N325     1.0000 0.00000  0.31780  0.55750  Biso   1.000  N  -0.012132
  N326     1.0000 0.00000  0.68220  0.05750  Biso   1.000  N  -0.012132
  N327     1.0000 0.50000  0.81780  0.55750  Biso   1.000  N  -0.012132
  N328     1.0000 0.50000  0.18220  0.05750  Biso   1.000  N  -0.012132
  N329     1.0000 0.45240  0.10930  0.07540  Biso   1.000  N  -0.024537
  N330     1.0000 0.54760  0.89070  0.57540  Biso   1.000  N  -0.024537
  N331     1.0000 0.54760  0.10930  0.07540  Biso   1.000  N  -0.024537
  N332     1.0000 0.45240  0.89070  0.57540  Biso   1.000  N  -0.024537
  N333     1.0000 0.95240  0.60930  0.07540  Biso   1.000  N  -0.024537
  N334     1.0000 0.04760  0.39070  0.57540  Biso   1.000  N  -0.024537
  N335     1.0000 0.04760  0.60930  0.07540  Biso   1.000  N  -0.024537
  N336     1.0000 0.95240  0.39070  0.57540  Biso   1.000  N  -0.024537
  N337     1.0000 0.20750  0.17410  0.54180  Biso   1.000  N  -0.051054
  N338     1.0000 0.79250  0.82590  0.04180  Biso   1.000  N  -0.051054
  N339     1.0000 0.79250  0.17410  0.54180  Biso   1.000  N  -0.051054
  N340     1.0000 0.20750  0.82590  0.04180  Biso   1.000  N  -0.051054
  N341     1.0000 0.70750  0.67410  0.54180  Biso   1.000  N  -0.051054
  N342     1.0000 0.29250  0.32590  0.04180  Biso   1.000  N  -0.051054
  N343     1.0000 0.29250  0.67410  0.54180  Biso   1.000  N  -0.051054
  N344     1.0000 0.70750  0.32590  0.04180  Biso   1.000  N  -0.051054
  N345     1.0000 0.18030  0.16810  0.63680  Biso   1.000  N  -0.271465
  N346     1.0000 0.81970  0.83190  0.13680  Biso   1.000  N  -0.271465
  N347     1.0000 0.81970  0.16810  0.63680  Biso   1.000  N  -0.271464
  N348     1.0000 0.18030  0.83190  0.13680  Biso   1.000  N  -0.271465
  N349     1.0000 0.68030  0.66810  0.63680  Biso   1.000  N  -0.271464
  N350     1.0000 0.31970  0.33190  0.13680  Biso   1.000  N  -0.271464
  N351     1.0000 0.31970  0.66810  0.63680  Biso   1.000  N  -0.271464
  N352     1.0000 0.68030  0.33190  0.13680  Biso   1.000  N  -0.271465
  N353     1.0000 0.19600  0.08800  0.89010  Biso   1.000  N  -0.219953
  N354     1.0000 0.80400  0.91200  0.39010  Biso   1.000  N  -0.219953
  N355     1.0000 0.80400  0.08800  0.89010  Biso   1.000  N  -0.219953
  N356     1.0000 0.19600  0.91200  0.39010  Biso   1.000  N  -0.219953
  N357     1.0000 0.69600  0.58800  0.89010  Biso   1.000  N  -0.219953
  N358     1.0000 0.30400  0.41200  0.39010  Biso   1.000  N  -0.219953
  N359     1.0000 0.30400  0.58800  0.89010  Biso   1.000  N  -0.219953
  N360     1.0000 0.69600  0.41200  0.39010  Biso   1.000  N  -0.219953
  N361     1.0000 0.29940  0.07020  0.73560  Biso   1.000  N  -0.061800
  N362     1.0000 0.70060  0.92980  0.23560  Biso   1.000  N  -0.061800
  N363     1.0000 0.70060  0.07020  0.73560  Biso   1.000  N  -0.061800
  N364     1.0000 0.29940  0.92980  0.23560  Biso   1.000  N  -0.061800
  N365     1.0000 0.79940  0.57020  0.73560  Biso   1.000  N  -0.061800
  N366     1.0000 0.20060  0.42980  0.23560  Biso   1.000  N  -0.061800
  N367     1.0000 0.20060  0.57020  0.73560  Biso   1.000  N  -0.061800
  N368     1.0000 0.79940  0.42980  0.23560  Biso   1.000  N  -0.061800
  N369     1.0000 0.42240  0.12110  0.04150  Biso   1.000  N  -0.248806
  N370     1.0000 0.57760  0.87890  0.54150  Biso   1.000  N  -0.248805
  N371     1.0000 0.57760  0.12110  0.04150  Biso   1.000  N  -0.248805
  N372     1.0000 0.42240  0.87890  0.54150  Biso   1.000  N  -0.248805
  N373     1.0000 0.92240  0.62110  0.04150  Biso   1.000  N  -0.248805
  N374     1.0000 0.07760  0.37890  0.54150  Biso   1.000  N  -0.248806
  N375     1.0000 0.07760  0.62110  0.04150  Biso   1.000  N  -0.248805
  N376     1.0000 0.92240  0.37890  0.54150  Biso   1.000  N  -0.248805
  N377     1.0000 0.32740  0.04890  0.74240  Biso   1.000  N  -0.271321
  N378     1.0000 0.67260  0.95110  0.24240  Biso   1.000  N  -0.271321
  N379     1.0000 0.67260  0.04890  0.74240  Biso   1.000  N  -0.271321
  N380     1.0000 0.32740  0.95110  0.24240  Biso   1.000  N  -0.271321
  N381     1.0000 0.82740  0.54890  0.74240  Biso   1.000  N  -0.271321
  N382     1.0000 0.17260  0.45110  0.24240  Biso   1.000  N  -0.271321
  N383     1.0000 0.17260  0.54890  0.74240  Biso   1.000  N  -0.271321
  N384     1.0000 0.82740  0.45110  0.24240  Biso   1.000  N  -0.271321
  N385     1.0000 0.82490  0.94490  0.23520  Biso   1.000  N  -0.269652
  N386     1.0000 0.17510  0.05510  0.73520  Biso   1.000  N  -0.269652
  N387     1.0000 0.17510  0.94490  0.23520  Biso   1.000  N  -0.269652
  N388     1.0000 0.82490  0.05510  0.73520  Biso   1.000  N  -0.269652
  N389     1.0000 0.32490  0.44490  0.23520  Biso   1.000  N  -0.269652
  N390     1.0000 0.67510  0.55510  0.73520  Biso   1.000  N  -0.269652
  N391     1.0000 0.67510  0.44490  0.23520  Biso   1.000  N  -0.269652
  N392     1.0000 0.32490  0.55510  0.73520  Biso   1.000  N  -0.269652
  N393     1.0000 0.00000  0.07750  0.28050  Biso   1.000  N  -0.281088
  N394     1.0000 0.00000  0.92250  0.78050  Biso   1.000  N  -0.281088
  N395     1.0000 0.50000  0.57750  0.28050  Biso   1.000  N  -0.281088
  N396     1.0000 0.50000  0.42250  0.78050  Biso   1.000  N  -0.281088
  N397     1.0000 0.45390  0.19640  0.21640  Biso   1.000  N  -0.064231
  N398     1.0000 0.54610  0.80360  0.71640  Biso   1.000  N  -0.064231
  N399     1.0000 0.54610  0.19640  0.21640  Biso   1.000  N  -0.064231
  N400     1.0000 0.45390  0.80360  0.71640  Biso   1.000  N  -0.064231
  N401     1.0000 0.95390  0.69640  0.21640  Biso   1.000  N  -0.064231
  N402     1.0000 0.04610  0.30360  0.71640  Biso   1.000  N  -0.064231
  N403     1.0000 0.04610  0.69640  0.21640  Biso   1.000  N  -0.064231
  N404     1.0000 0.95390  0.30360  0.71640  Biso   1.000  N  -0.064231
  N405     1.0000 0.33480  0.07500  0.64810  Biso   1.000  N  -0.257541
  N406     1.0000 0.66520  0.92500  0.14810  Biso   1.000  N  -0.257541
  N407     1.0000 0.66520  0.07500  0.64810  Biso   1.000  N  -0.257541
  N408     1.0000 0.33480  0.92500  0.14810  Biso   1.000  N  -0.257541
  N409     1.0000 0.83480  0.57500  0.64810  Biso   1.000  N  -0.257541
  N410     1.0000 0.16520  0.42500  0.14810  Biso   1.000  N  -0.257541
  N411     1.0000 0.16520  0.57500  0.64810  Biso   1.000  N  -0.257541
  N412     1.0000 0.83480  0.42500  0.14810  Biso   1.000  N  -0.257541
  N413     1.0000 0.25630  0.88880  0.97730  Biso   1.000  N  -0.046038
  N414     1.0000 0.74370  0.11120  0.47730  Biso   1.000  N  -0.046038
  N415     1.0000 0.74370  0.88880  0.97730  Biso   1.000  N  -0.046038
  N416     1.0000 0.25630  0.11120  0.47730  Biso   1.000  N  -0.046038
  N417     1.0000 0.75630  0.38880  0.97730  Biso   1.000  N  -0.046038
  N418     1.0000 0.24370  0.61120  0.47730  Biso   1.000  N  -0.046038
  N419     1.0000 0.24370  0.38880  0.97730  Biso   1.000  N  -0.046038
  N420     1.0000 0.75630  0.61120  0.47730  Biso   1.000  N  -0.046038
  N421     1.0000 0.42590  0.20270  0.25820  Biso   1.000  N  -0.270007
  N422     1.0000 0.57410  0.79730  0.75820  Biso   1.000  N  -0.270007
  N423     1.0000 0.57410  0.20270  0.25820  Biso   1.000  N  -0.270007
  N424     1.0000 0.42590  0.79730  0.75820  Biso   1.000  N  -0.270007
  N425     1.0000 0.92590  0.70270  0.25820  Biso   1.000  N  -0.270007
  N426     1.0000 0.07410  0.29730  0.75820  Biso   1.000  N  -0.270007
  N427     1.0000 0.07410  0.70270  0.25820  Biso   1.000  N  -0.270007
  N428     1.0000 0.92590  0.29730  0.75820  Biso   1.000  N  -0.270007
  N429     1.0000 0.25190  0.13550  0.79630  Biso   1.000  N  -0.039048
  N430     1.0000 0.74810  0.86450  0.29630  Biso   1.000  N  -0.039048
  N431     1.0000 0.74810  0.13550  0.79630  Biso   1.000  N  -0.039048
  N432     1.0000 0.25190  0.86450  0.29630  Biso   1.000  N  -0.039048
  N433     1.0000 0.75190  0.63550  0.79630  Biso   1.000  N  -0.039048
  N434     1.0000 0.24810  0.36450  0.29630  Biso   1.000  N  -0.039048
  N435     1.0000 0.24810  0.63550  0.79630  Biso   1.000  N  -0.039048
  N436     1.0000 0.75190  0.36450  0.29630  Biso   1.000  N  -0.039048
  N437     1.0000 0.42130  0.15130  0.22070  Biso   1.000  N  -0.255439
  N438     1.0000 0.57870  0.84870  0.72070  Biso   1.000  N  -0.255439
  N439     1.0000 0.57870  0.15130  0.22070  Biso   1.000  N  -0.255439
  N440     1.0000 0.42130  0.84870  0.72070  Biso   1.000  N  -0.255439
  N441     1.0000 0.92130  0.65130  0.22070  Biso   1.000  N  -0.255439
  N442     1.0000 0.07870  0.34870  0.72070  Biso   1.000  N  -0.255439
  N443     1.0000 0.07870  0.65130  0.22070  Biso   1.000  N  -0.255439
  N444     1.0000 0.92130  0.34870  0.72070  Biso   1.000  N  -0.255439
  N445     1.0000 0.42490  0.06660  0.03080  Biso   1.000  N  -0.298995
  N446     1.0000 0.57510  0.93340  0.53080  Biso   1.000  N  -0.298995
  N447     1.0000 0.57510  0.06660  0.03080  Biso   1.000  N  -0.298995
  N448     1.0000 0.42490  0.93340  0.53080  Biso   1.000  N  -0.298995
  N449     1.0000 0.92490  0.56660  0.03080  Biso   1.000  N  -0.298995
  N450     1.0000 0.07510  0.43340  0.53080  Biso   1.000  N  -0.298995
  N451     1.0000 0.07510  0.56660  0.03080  Biso   1.000  N  -0.298995
  N452     1.0000 0.92490  0.43340  0.53080  Biso   1.000  N  -0.298995
  N453     1.0000 0.00000  0.28780  0.57820  Biso   1.000  N  -0.050198
  N454     1.0000 0.00000  0.71220  0.07820  Biso   1.000  N  -0.050198
  N455     1.0000 0.50000  0.78780  0.57820  Biso   1.000  N  -0.050198
  N456     1.0000 0.50000  0.21220  0.07820  Biso   1.000  N  -0.050198
  N457     1.0000 0.44960  0.99450  0.64580  Biso   1.000  N  -0.213235
  N458     1.0000 0.55040  0.00550  0.14580  Biso   1.000  N  -0.213235
  N459     1.0000 0.55040  0.99450  0.64580  Biso   1.000  N  -0.213234
  N460     1.0000 0.44960  0.00550  0.14580  Biso   1.000  N  -0.213235
  N461     1.0000 0.94960  0.49450  0.64580  Biso   1.000  N  -0.213235
  N462     1.0000 0.05040  0.50550  0.14580  Biso   1.000  N  -0.213235
  N463     1.0000 0.05040  0.49450  0.64580  Biso   1.000  N  -0.213234
  N464     1.0000 0.94960  0.50550  0.14580  Biso   1.000  N  -0.213234
  N465     1.0000 0.17590  0.19210  0.54000  Biso   1.000  N  -0.287894
  N466     1.0000 0.82410  0.80790  0.04000  Biso   1.000  N  -0.287894
  N467     1.0000 0.82410  0.19210  0.54000  Biso   1.000  N  -0.287894
  N468     1.0000 0.17590  0.80790  0.04000  Biso   1.000  N  -0.287894
  N469     1.0000 0.67590  0.69210  0.54000  Biso   1.000  N  -0.287894
  N470     1.0000 0.32410  0.30790  0.04000  Biso   1.000  N  -0.287894
  N471     1.0000 0.32410  0.69210  0.54000  Biso   1.000  N  -0.287894
  N472     1.0000 0.67590  0.30790  0.04000  Biso   1.000  N  -0.287894
  N473     1.0000 0.50000  0.07050  0.21630  Biso   1.000  N  -0.032404
  N474     1.0000 0.50000  0.92950  0.71630  Biso   1.000  N  -0.032404
  N475     1.0000 0.00000  0.57050  0.21630  Biso   1.000  N  -0.032404
  N476     1.0000 0.00000  0.42950  0.71630  Biso   1.000  N  -0.032404
  N477     1.0000 0.00000  0.23700  0.78620  Biso   1.000  N  -0.204410
  N478     1.0000 0.00000  0.76300  0.28620  Biso   1.000  N  -0.204410
  N479     1.0000 0.50000  0.73700  0.78620  Biso   1.000  N  -0.204410
  N480     1.0000 0.50000  0.26300  0.28620  Biso   1.000  N  -0.204410
