data_image0
_cell_length_a       20.463
_cell_length_b       43.252
_cell_length_c       43.252
_cell_angle_alpha    120
_cell_angle_beta     90
_cell_angle_gamma    90

_symmetry_space_group_name_H-M    "P 1"
_symmetry_int_tables_number       1

loop_
  _symmetry_equiv_pos_as_xyz
  'x, y, z'

loop_
  _atom_site_label
  _atom_site_occupancy
  _atom_site_fract_x
  _atom_site_fract_y
  _atom_site_fract_z
  _atom_site_thermal_displace_type
  _atom_site_B_iso_or_equiv
  _atom_site_type_symbol
  _atom_site_charge
  C1       1.0000 0.88930  0.58030  0.95180  Biso   1.000  C  0.016387
  C2       1.0000 0.91140  0.54950  0.92190  Biso   1.000  C  -0.166326
  C3       1.0000 0.87230  0.51920  0.90610  Biso   1.000  C  0.090089
  C4       1.0000 0.81100  0.51970  0.92020  Biso   1.000  C  0.097171
  C5       1.0000 0.78890  0.55050  0.95010  Biso   1.000  C  -0.164280
  C6       1.0000 0.82800  0.58080  0.96590  Biso   1.000  C  -0.097291
  C7       1.0000 0.89300  0.49020  0.87600  Biso   1.000  C  -0.126758
  C8       1.0000 0.84200  0.45920  0.86320  Biso   1.000  C  -0.223916
  C9       1.0000 0.76920  0.37380  0.79930  Biso   1.000  C  -0.205091
  C10      1.0000 0.76130  0.35640  0.76300  Biso   1.000  C  -0.123148
  C11      1.0000 0.06950  0.71960  0.02540  Biso   1.000  C  0.488658
  C12      1.0000 0.21680  0.80920  0.03300  Biso   1.000  C  -0.127127
  C13      1.0000 0.21810  0.86860  0.08070  Biso   1.000  C  0.205968
  C14      1.0000 0.16910  0.80320  0.05090  Biso   1.000  C  0.087172
  C15      1.0000 0.14660  0.76820  0.03230  Biso   1.000  C  -0.162832
  C16      1.0000 0.09450  0.75780  0.04570  Biso   1.000  C  -0.008014
  C17      1.0000 0.06500  0.78250  0.07770  Biso   1.000  C  -0.091690
  C18      1.0000 0.08750  0.81740  0.09610  Biso   1.000  C  -0.166970
  C19      1.0000 0.13960  0.82780  0.08270  Biso   1.000  C  0.101891
  C20      1.0000 0.93830  0.61080  0.96530  Biso   1.000  C  0.483436
  C21      1.0000 0.24570  0.84340  0.04640  Biso   1.000  C  -0.200582
  C22      1.0000 0.75630  0.49210  0.90420  Biso   1.000  C  -0.263825
  C23      1.0000 0.79020  0.46360  0.87590  Biso   1.000  C  0.235140
  C24      1.0000 0.16660  0.86510  0.09920  Biso   1.000  C  -0.273153
  C25      1.0000 0.30620  0.96690  0.06310  Biso   1.000  C  -0.140981
  C26      1.0000 0.30770  0.94560  0.08060  Biso   1.000  C  -0.200178
  C27      1.0000 0.88930  0.37150  0.41970  Biso   1.000  C  0.016148
  C28      1.0000 0.91140  0.37240  0.45050  Biso   1.000  C  -0.166446
  C29      1.0000 0.87230  0.38690  0.48080  Biso   1.000  C  0.090142
  C30      1.0000 0.81100  0.40050  0.48030  Biso   1.000  C  0.097015
  C31      1.0000 0.78890  0.39960  0.44950  Biso   1.000  C  -0.164039
  C32      1.0000 0.82800  0.38510  0.41920  Biso   1.000  C  -0.097787
  C33      1.0000 0.89300  0.38580  0.50980  Biso   1.000  C  -0.127430
  C34      1.0000 0.84200  0.40400  0.54080  Biso   1.000  C  -0.223907
  C35      1.0000 0.76920  0.42550  0.62620  Biso   1.000  C  -0.204779
  C36      1.0000 0.76130  0.40660  0.64360  Biso   1.000  C  -0.123045
  C37      1.0000 0.06950  0.30580  0.28040  Biso   1.000  C  0.488751
  C38      1.0000 0.21680  0.22380  0.19080  Biso   1.000  C  -0.127246
  C39      1.0000 0.21810  0.21210  0.13140  Biso   1.000  C  0.205969
  C40      1.0000 0.16910  0.24770  0.19680  Biso   1.000  C  0.087186
  C41      1.0000 0.14660  0.26410  0.23180  Biso   1.000  C  -0.162948
  C42      1.0000 0.09450  0.28790  0.24220  Biso   1.000  C  -0.007907
  C43      1.0000 0.06500  0.29520  0.21750  Biso   1.000  C  -0.091556
  C44      1.0000 0.08750  0.27870  0.18260  Biso   1.000  C  -0.167001
  C45      1.0000 0.13960  0.25490  0.17220  Biso   1.000  C  0.101891
  C46      1.0000 0.93830  0.35450  0.38920  Biso   1.000  C  0.483368
  C47      1.0000 0.24570  0.20300  0.15660  Biso   1.000  C  -0.200798
  C48      1.0000 0.75630  0.41210  0.50790  Biso   1.000  C  -0.263466
  C49      1.0000 0.79020  0.41230  0.53640  Biso   1.000  C  0.235914
  C50      1.0000 0.16660  0.23410  0.13490  Biso   1.000  C  -0.273114
  C51      1.0000 0.30620  0.09620  0.03310  Biso   1.000  C  -0.140998
  C52      1.0000 0.30770  0.13500  0.05440  Biso   1.000  C  -0.200207
  C53      1.0000 0.88930  0.04820  0.62850  Biso   1.000  C  0.016402
  C54      1.0000 0.91140  0.07810  0.62760  Biso   1.000  C  -0.166488
  C55      1.0000 0.87230  0.09390  0.61310  Biso   1.000  C  0.090097
  C56      1.0000 0.81100  0.07980  0.59950  Biso   1.000  C  0.097161
  C57      1.0000 0.78890  0.04990  0.60040  Biso   1.000  C  -0.164295
  C58      1.0000 0.82800  0.03410  0.61490  Biso   1.000  C  -0.097263
  C59      1.0000 0.89300  0.12400  0.61420  Biso   1.000  C  -0.126940
  C60      1.0000 0.84200  0.13680  0.59600  Biso   1.000  C  -0.223908
  C61      1.0000 0.76920  0.20070  0.57450  Biso   1.000  C  -0.204975
  C62      1.0000 0.76130  0.23700  0.59340  Biso   1.000  C  -0.123000
  C63      1.0000 0.06950  0.97460  0.69420  Biso   1.000  C  0.488659
  C64      1.0000 0.21680  0.96700  0.77620  Biso   1.000  C  -0.127438
  C65      1.0000 0.21810  0.91930  0.78790  Biso   1.000  C  0.205947
  C66      1.0000 0.16910  0.94910  0.75230  Biso   1.000  C  0.087254
  C67      1.0000 0.14660  0.96770  0.73590  Biso   1.000  C  -0.163035
  C68      1.0000 0.09450  0.95430  0.71210  Biso   1.000  C  -0.008138
  C69      1.0000 0.06500  0.92230  0.70480  Biso   1.000  C  -0.091720
  C70      1.0000 0.08750  0.90390  0.72130  Biso   1.000  C  -0.166475
  C71      1.0000 0.13960  0.91730  0.74510  Biso   1.000  C  0.101908
  C72      1.0000 0.93830  0.03470  0.64550  Biso   1.000  C  0.483366
  C73      1.0000 0.24570  0.95360  0.79700  Biso   1.000  C  -0.200548
  C74      1.0000 0.75630  0.09580  0.58790  Biso   1.000  C  -0.263875
  C75      1.0000 0.79020  0.12410  0.58770  Biso   1.000  C  0.235126
  C76      1.0000 0.16660  0.90080  0.76590  Biso   1.000  C  -0.272202
  C77      1.0000 0.30620  0.93690  0.90380  Biso   1.000  C  -0.140994
  C78      1.0000 0.30770  0.91940  0.86500  Biso   1.000  C  -0.199029
  C79      1.0000 0.38930  0.41970  0.04820  Biso   1.000  C  0.016352
  C80      1.0000 0.41140  0.45050  0.07810  Biso   1.000  C  -0.166397
  C81      1.0000 0.37230  0.48080  0.09390  Biso   1.000  C  0.090087
  C82      1.0000 0.31100  0.48030  0.07980  Biso   1.000  C  0.097161
  C83      1.0000 0.28890  0.44950  0.04990  Biso   1.000  C  -0.164278
  C84      1.0000 0.32800  0.41920  0.03410  Biso   1.000  C  -0.097358
  C85      1.0000 0.39300  0.50980  0.12400  Biso   1.000  C  -0.126862
  C86      1.0000 0.34200  0.54080  0.13680  Biso   1.000  C  -0.223853
  C87      1.0000 0.26920  0.62620  0.20070  Biso   1.000  C  -0.205035
  C88      1.0000 0.26130  0.64360  0.23700  Biso   1.000  C  -0.123106
  C89      1.0000 0.56950  0.28040  0.97460  Biso   1.000  C  0.488682
  C90      1.0000 0.71680  0.19080  0.96700  Biso   1.000  C  -0.127355
  C91      1.0000 0.71810  0.13140  0.91930  Biso   1.000  C  0.206038
  C92      1.0000 0.66910  0.19680  0.94910  Biso   1.000  C  0.087192
  C93      1.0000 0.64660  0.23180  0.96770  Biso   1.000  C  -0.162967
  C94      1.0000 0.59450  0.24220  0.95430  Biso   1.000  C  -0.008075
  C95      1.0000 0.56500  0.21750  0.92230  Biso   1.000  C  -0.091702
  C96      1.0000 0.58750  0.18260  0.90390  Biso   1.000  C  -0.166872
  C97      1.0000 0.63960  0.17220  0.91730  Biso   1.000  C  0.101897
  C98      1.0000 0.43830  0.38920  0.03470  Biso   1.000  C  0.483395
  C99      1.0000 0.74570  0.15660  0.95360  Biso   1.000  C  -0.200639
  C100     1.0000 0.25630  0.50790  0.09580  Biso   1.000  C  -0.263835
  C101     1.0000 0.29020  0.53640  0.12410  Biso   1.000  C  0.235144
  C102     1.0000 0.66660  0.13490  0.90080  Biso   1.000  C  -0.273015
  C103     1.0000 0.80620  0.03310  0.93690  Biso   1.000  C  -0.140890
  C104     1.0000 0.80770  0.05440  0.91940  Biso   1.000  C  -0.200120
  C105     1.0000 0.38930  0.62850  0.58030  Biso   1.000  C  0.015192
  C106     1.0000 0.41140  0.62760  0.54950  Biso   1.000  C  -0.167865
  C107     1.0000 0.37230  0.61310  0.51920  Biso   1.000  C  0.090189
  C108     1.0000 0.31100  0.59950  0.51970  Biso   1.000  C  0.097413
  C109     1.0000 0.28890  0.60040  0.55050  Biso   1.000  C  -0.165950
  C110     1.0000 0.32800  0.61490  0.58080  Biso   1.000  C  -0.095356
  C111     1.0000 0.39300  0.61420  0.49020  Biso   1.000  C  -0.127320
  C112     1.0000 0.34200  0.59600  0.45920  Biso   1.000  C  -0.225708
  C113     1.0000 0.26920  0.57450  0.37380  Biso   1.000  C  -0.205291
  C114     1.0000 0.26130  0.59340  0.35640  Biso   1.000  C  -0.123267
  C115     1.0000 0.56950  0.69420  0.71960  Biso   1.000  C  0.490029
  C116     1.0000 0.71680  0.77620  0.80920  Biso   1.000  C  -0.126614
  C117     1.0000 0.71810  0.78790  0.86860  Biso   1.000  C  0.204616
  C118     1.0000 0.66910  0.75230  0.80320  Biso   1.000  C  0.086930
  C119     1.0000 0.64660  0.73590  0.76820  Biso   1.000  C  -0.163717
  C120     1.0000 0.59450  0.71210  0.75780  Biso   1.000  C  -0.009175
  C121     1.0000 0.56500  0.70480  0.78250  Biso   1.000  C  -0.089690
  C122     1.0000 0.58750  0.72130  0.81740  Biso   1.000  C  -0.168701
  C123     1.0000 0.63960  0.74510  0.82780  Biso   1.000  C  0.101534
  C124     1.0000 0.43830  0.64550  0.61080  Biso   1.000  C  0.484920
  C125     1.0000 0.74570  0.79700  0.84340  Biso   1.000  C  -0.203007
  C126     1.0000 0.25630  0.58790  0.49210  Biso   1.000  C  -0.265340
  C127     1.0000 0.29020  0.58770  0.46360  Biso   1.000  C  0.235490
  C128     1.0000 0.66660  0.76590  0.86510  Biso   1.000  C  -0.273309
  C129     1.0000 0.80620  0.90380  0.96690  Biso   1.000  C  -0.141258
  C130     1.0000 0.80770  0.86500  0.94560  Biso   1.000  C  -0.199809
  C131     1.0000 0.38930  0.95180  0.37150  Biso   1.000  C  0.016339
  C132     1.0000 0.41140  0.92190  0.37240  Biso   1.000  C  -0.166431
  C133     1.0000 0.37230  0.90610  0.38690  Biso   1.000  C  0.090089
  C134     1.0000 0.31100  0.92020  0.40050  Biso   1.000  C  0.097151
  C135     1.0000 0.28890  0.95010  0.39960  Biso   1.000  C  -0.164287
  C136     1.0000 0.32800  0.96590  0.38510  Biso   1.000  C  -0.097399
  C137     1.0000 0.39300  0.87600  0.38580  Biso   1.000  C  -0.126924
  C138     1.0000 0.34200  0.86320  0.40400  Biso   1.000  C  -0.223795
  C139     1.0000 0.26920  0.79930  0.42550  Biso   1.000  C  -0.204825
  C140     1.0000 0.26130  0.76300  0.40660  Biso   1.000  C  -0.122881
  C141     1.0000 0.56950  0.02540  0.30580  Biso   1.000  C  0.488687
  C142     1.0000 0.71680  0.03300  0.22380  Biso   1.000  C  -0.127344
  C143     1.0000 0.71810  0.08070  0.21210  Biso   1.000  C  0.206043
  C144     1.0000 0.66910  0.05090  0.24770  Biso   1.000  C  0.087195
  C145     1.0000 0.64660  0.03230  0.26410  Biso   1.000  C  -0.162966
  C146     1.0000 0.59450  0.04570  0.28790  Biso   1.000  C  -0.008074
  C147     1.0000 0.56500  0.07770  0.29520  Biso   1.000  C  -0.091675
  C148     1.0000 0.58750  0.09610  0.27870  Biso   1.000  C  -0.166847
  C149     1.0000 0.63960  0.08270  0.25490  Biso   1.000  C  0.101908
  C150     1.0000 0.43830  0.96530  0.35450  Biso   1.000  C  0.483384
  C151     1.0000 0.74570  0.04640  0.20300  Biso   1.000  C  -0.200645
  C152     1.0000 0.25630  0.90420  0.41210  Biso   1.000  C  -0.263844
  C153     1.0000 0.29020  0.87590  0.41230  Biso   1.000  C  0.235144
  C154     1.0000 0.66660  0.09920  0.23410  Biso   1.000  C  -0.273012
  C155     1.0000 0.80620  0.06310  0.09620  Biso   1.000  C  -0.141012
  C156     1.0000 0.80770  0.08060  0.13500  Biso   1.000  C  -0.200178
  C157     1.0000 0.11070  0.62850  0.04820  Biso   1.000  C  0.016402
  C158     1.0000 0.08860  0.62760  0.07810  Biso   1.000  C  -0.166488
  C159     1.0000 0.12770  0.61310  0.09390  Biso   1.000  C  0.090097
  C160     1.0000 0.18900  0.59950  0.07980  Biso   1.000  C  0.097160
  C161     1.0000 0.21110  0.60040  0.04990  Biso   1.000  C  -0.164295
  C162     1.0000 0.17200  0.61490  0.03410  Biso   1.000  C  -0.097263
  C163     1.0000 0.10700  0.61420  0.12400  Biso   1.000  C  -0.126941
  C164     1.0000 0.15800  0.59600  0.13680  Biso   1.000  C  -0.223908
  C165     1.0000 0.23080  0.57450  0.20070  Biso   1.000  C  -0.204975
  C166     1.0000 0.23870  0.59340  0.23700  Biso   1.000  C  -0.123000
  C167     1.0000 0.93050  0.69420  0.97460  Biso   1.000  C  0.488659
  C168     1.0000 0.78320  0.77620  0.96700  Biso   1.000  C  -0.127438
  C169     1.0000 0.78190  0.78790  0.91930  Biso   1.000  C  0.205947
  C170     1.0000 0.83090  0.75230  0.94910  Biso   1.000  C  0.087254
  C171     1.0000 0.85340  0.73590  0.96770  Biso   1.000  C  -0.163035
  C172     1.0000 0.90550  0.71210  0.95430  Biso   1.000  C  -0.008138
  C173     1.0000 0.93500  0.70480  0.92230  Biso   1.000  C  -0.091720
  C174     1.0000 0.91250  0.72130  0.90390  Biso   1.000  C  -0.166475
  C175     1.0000 0.86040  0.74510  0.91730  Biso   1.000  C  0.101908
  C176     1.0000 0.06170  0.64550  0.03470  Biso   1.000  C  0.483365
  C177     1.0000 0.75430  0.79700  0.95360  Biso   1.000  C  -0.200548
  C178     1.0000 0.24370  0.58790  0.09580  Biso   1.000  C  -0.263875
  C179     1.0000 0.20980  0.58770  0.12410  Biso   1.000  C  0.235126
  C180     1.0000 0.83340  0.76590  0.90080  Biso   1.000  C  -0.272202
  C181     1.0000 0.69380  0.90380  0.93690  Biso   1.000  C  -0.140994
  C182     1.0000 0.69230  0.86500  0.91940  Biso   1.000  C  -0.199029
  C183     1.0000 0.11070  0.95180  0.58030  Biso   1.000  C  0.016387
  C184     1.0000 0.08860  0.92190  0.54950  Biso   1.000  C  -0.166326
  C185     1.0000 0.12770  0.90610  0.51920  Biso   1.000  C  0.090089
  C186     1.0000 0.18900  0.92020  0.51970  Biso   1.000  C  0.097171
  C187     1.0000 0.21110  0.95010  0.55050  Biso   1.000  C  -0.164280
  C188     1.0000 0.17200  0.96590  0.58080  Biso   1.000  C  -0.097291
  C189     1.0000 0.10700  0.87600  0.49020  Biso   1.000  C  -0.126758
  C190     1.0000 0.15800  0.86320  0.45920  Biso   1.000  C  -0.223915
  C191     1.0000 0.23080  0.79930  0.37380  Biso   1.000  C  -0.205091
  C192     1.0000 0.23870  0.76300  0.35640  Biso   1.000  C  -0.123148
  C193     1.0000 0.93050  0.02540  0.71960  Biso   1.000  C  0.488658
  C194     1.0000 0.78320  0.03300  0.80920  Biso   1.000  C  -0.127127
  C195     1.0000 0.78190  0.08070  0.86860  Biso   1.000  C  0.205968
  C196     1.0000 0.83090  0.05090  0.80320  Biso   1.000  C  0.087172
  C197     1.0000 0.85340  0.03230  0.76820  Biso   1.000  C  -0.162832
  C198     1.0000 0.90550  0.04570  0.75780  Biso   1.000  C  -0.008014
  C199     1.0000 0.93500  0.07770  0.78250  Biso   1.000  C  -0.091690
  C200     1.0000 0.91250  0.09610  0.81740  Biso   1.000  C  -0.166970
  C201     1.0000 0.86040  0.08270  0.82780  Biso   1.000  C  0.101891
  C202     1.0000 0.06170  0.96530  0.61080  Biso   1.000  C  0.483437
  C203     1.0000 0.75430  0.04640  0.84340  Biso   1.000  C  -0.200582
  C204     1.0000 0.24370  0.90420  0.49210  Biso   1.000  C  -0.263825
  C205     1.0000 0.20980  0.87590  0.46360  Biso   1.000  C  0.235140
  C206     1.0000 0.83340  0.09920  0.86510  Biso   1.000  C  -0.273153
  C207     1.0000 0.69380  0.06310  0.96690  Biso   1.000  C  -0.140981
  C208     1.0000 0.69230  0.08060  0.94560  Biso   1.000  C  -0.200177
  C209     1.0000 0.11070  0.41970  0.37150  Biso   1.000  C  0.016148
  C210     1.0000 0.08860  0.45050  0.37240  Biso   1.000  C  -0.166446
  C211     1.0000 0.12770  0.48080  0.38690  Biso   1.000  C  0.090142
  C212     1.0000 0.18900  0.48030  0.40050  Biso   1.000  C  0.097015
  C213     1.0000 0.21110  0.44950  0.39960  Biso   1.000  C  -0.164039
  C214     1.0000 0.17200  0.41920  0.38510  Biso   1.000  C  -0.097787
  C215     1.0000 0.10700  0.50980  0.38580  Biso   1.000  C  -0.127430
  C216     1.0000 0.15800  0.54080  0.40400  Biso   1.000  C  -0.223907
  C217     1.0000 0.23080  0.62620  0.42550  Biso   1.000  C  -0.204779
  C218     1.0000 0.23870  0.64360  0.40660  Biso   1.000  C  -0.123044
  C219     1.0000 0.93050  0.28040  0.30580  Biso   1.000  C  0.488751
  C220     1.0000 0.78320  0.19080  0.22380  Biso   1.000  C  -0.127245
  C221     1.0000 0.78190  0.13140  0.21210  Biso   1.000  C  0.205969
  C222     1.0000 0.83090  0.19680  0.24770  Biso   1.000  C  0.087186
  C223     1.0000 0.85340  0.23180  0.26410  Biso   1.000  C  -0.162948
  C224     1.0000 0.90550  0.24220  0.28790  Biso   1.000  C  -0.007907
  C225     1.0000 0.93500  0.21750  0.29520  Biso   1.000  C  -0.091556
  C226     1.0000 0.91250  0.18260  0.27870  Biso   1.000  C  -0.167001
  C227     1.0000 0.86040  0.17220  0.25490  Biso   1.000  C  0.101891
  C228     1.0000 0.06170  0.38920  0.35450  Biso   1.000  C  0.483368
  C229     1.0000 0.75430  0.15660  0.20300  Biso   1.000  C  -0.200798
  C230     1.0000 0.24370  0.50790  0.41210  Biso   1.000  C  -0.263466
  C231     1.0000 0.20980  0.53640  0.41230  Biso   1.000  C  0.235914
  C232     1.0000 0.83340  0.13490  0.23410  Biso   1.000  C  -0.273114
  C233     1.0000 0.69380  0.03310  0.09620  Biso   1.000  C  -0.140998
  C234     1.0000 0.69230  0.05440  0.13500  Biso   1.000  C  -0.200207
  C235     1.0000 0.61070  0.37150  0.95180  Biso   1.000  C  0.016338
  C236     1.0000 0.58860  0.37240  0.92190  Biso   1.000  C  -0.166431
  C237     1.0000 0.62770  0.38690  0.90610  Biso   1.000  C  0.090089
  C238     1.0000 0.68900  0.40050  0.92020  Biso   1.000  C  0.097151
  C239     1.0000 0.71110  0.39960  0.95010  Biso   1.000  C  -0.164287
  C240     1.0000 0.67200  0.38510  0.96590  Biso   1.000  C  -0.097399
  C241     1.0000 0.60700  0.38580  0.87600  Biso   1.000  C  -0.126924
  C242     1.0000 0.65800  0.40400  0.86320  Biso   1.000  C  -0.223796
  C243     1.0000 0.73080  0.42550  0.79930  Biso   1.000  C  -0.204826
  C244     1.0000 0.73870  0.40660  0.76300  Biso   1.000  C  -0.122881
  C245     1.0000 0.43050  0.30580  0.02540  Biso   1.000  C  0.488687
  C246     1.0000 0.28320  0.22380  0.03300  Biso   1.000  C  -0.127345
  C247     1.0000 0.28190  0.21210  0.08070  Biso   1.000  C  0.206043
  C248     1.0000 0.33090  0.24770  0.05090  Biso   1.000  C  0.087195
  C249     1.0000 0.35340  0.26410  0.03230  Biso   1.000  C  -0.162966
  C250     1.0000 0.40550  0.28790  0.04570  Biso   1.000  C  -0.008074
  C251     1.0000 0.43500  0.29520  0.07770  Biso   1.000  C  -0.091675
  C252     1.0000 0.41250  0.27870  0.09610  Biso   1.000  C  -0.166848
  C253     1.0000 0.36040  0.25490  0.08270  Biso   1.000  C  0.101908
  C254     1.0000 0.56170  0.35450  0.96530  Biso   1.000  C  0.483384
  C255     1.0000 0.25430  0.20300  0.04640  Biso   1.000  C  -0.200645
  C256     1.0000 0.74370  0.41210  0.90420  Biso   1.000  C  -0.263844
  C257     1.0000 0.70980  0.41230  0.87590  Biso   1.000  C  0.235144
  C258     1.0000 0.33340  0.23410  0.09920  Biso   1.000  C  -0.273012
  C259     1.0000 0.19380  0.09620  0.06310  Biso   1.000  C  -0.141012
  C260     1.0000 0.19230  0.13500  0.08060  Biso   1.000  C  -0.200178
  C261     1.0000 0.61070  0.04820  0.41970  Biso   1.000  C  0.016352
  C262     1.0000 0.58860  0.07810  0.45050  Biso   1.000  C  -0.166397
  C263     1.0000 0.62770  0.09390  0.48080  Biso   1.000  C  0.090087
  C264     1.0000 0.68900  0.07980  0.48030  Biso   1.000  C  0.097161
  C265     1.0000 0.71110  0.04990  0.44950  Biso   1.000  C  -0.164279
  C266     1.0000 0.67200  0.03410  0.41920  Biso   1.000  C  -0.097358
  C267     1.0000 0.60700  0.12400  0.50980  Biso   1.000  C  -0.126862
  C268     1.0000 0.65800  0.13680  0.54080  Biso   1.000  C  -0.223853
  C269     1.0000 0.73080  0.20070  0.62620  Biso   1.000  C  -0.205034
  C270     1.0000 0.73870  0.23700  0.64360  Biso   1.000  C  -0.123106
  C271     1.0000 0.43050  0.97460  0.28040  Biso   1.000  C  0.488682
  C272     1.0000 0.28320  0.96700  0.19080  Biso   1.000  C  -0.127355
  C273     1.0000 0.28190  0.91930  0.13140  Biso   1.000  C  0.206038
  C274     1.0000 0.33090  0.94910  0.19680  Biso   1.000  C  0.087192
  C275     1.0000 0.35340  0.96770  0.23180  Biso   1.000  C  -0.162967
  C276     1.0000 0.40550  0.95430  0.24220  Biso   1.000  C  -0.008075
  C277     1.0000 0.43500  0.92230  0.21750  Biso   1.000  C  -0.091702
  C278     1.0000 0.41250  0.90390  0.18260  Biso   1.000  C  -0.166872
  C279     1.0000 0.36040  0.91730  0.17220  Biso   1.000  C  0.101897
  C280     1.0000 0.56170  0.03470  0.38920  Biso   1.000  C  0.483395
  C281     1.0000 0.25430  0.95360  0.15660  Biso   1.000  C  -0.200638
  C282     1.0000 0.74370  0.09580  0.50790  Biso   1.000  C  -0.263835
  C283     1.0000 0.70980  0.12410  0.53640  Biso   1.000  C  0.235144
  C284     1.0000 0.33340  0.90080  0.13490  Biso   1.000  C  -0.273014
  C285     1.0000 0.19380  0.93690  0.03310  Biso   1.000  C  -0.140889
  C286     1.0000 0.19230  0.91940  0.05440  Biso   1.000  C  -0.200120
  C287     1.0000 0.61070  0.58030  0.62850  Biso   1.000  C  0.015192
  C288     1.0000 0.58860  0.54950  0.62760  Biso   1.000  C  -0.167865
  C289     1.0000 0.62770  0.51920  0.61310  Biso   1.000  C  0.090189
  C290     1.0000 0.68900  0.51970  0.59950  Biso   1.000  C  0.097413
  C291     1.0000 0.71110  0.55050  0.60040  Biso   1.000  C  -0.165950
  C292     1.0000 0.67200  0.58080  0.61490  Biso   1.000  C  -0.095356
  C293     1.0000 0.60700  0.49020  0.61420  Biso   1.000  C  -0.127320
  C294     1.0000 0.65800  0.45920  0.59600  Biso   1.000  C  -0.225708
  C295     1.0000 0.73080  0.37380  0.57450  Biso   1.000  C  -0.205291
  C296     1.0000 0.73870  0.35640  0.59340  Biso   1.000  C  -0.123267
  C297     1.0000 0.43050  0.71960  0.69420  Biso   1.000  C  0.490029
  C298     1.0000 0.28320  0.80920  0.77620  Biso   1.000  C  -0.126613
  C299     1.0000 0.28190  0.86860  0.78790  Biso   1.000  C  0.204615
  C300     1.0000 0.33090  0.80320  0.75230  Biso   1.000  C  0.086930
  C301     1.0000 0.35340  0.76820  0.73590  Biso   1.000  C  -0.163716
  C302     1.0000 0.40550  0.75780  0.71210  Biso   1.000  C  -0.009175
  C303     1.0000 0.43500  0.78250  0.70480  Biso   1.000  C  -0.089690
  C304     1.0000 0.41250  0.81740  0.72130  Biso   1.000  C  -0.168701
  C305     1.0000 0.36040  0.82780  0.74510  Biso   1.000  C  0.101534
  C306     1.0000 0.56170  0.61080  0.64550  Biso   1.000  C  0.484920
  C307     1.0000 0.25430  0.84340  0.79700  Biso   1.000  C  -0.203007
  C308     1.0000 0.74370  0.49210  0.58790  Biso   1.000  C  -0.265340
  C309     1.0000 0.70980  0.46360  0.58770  Biso   1.000  C  0.235490
  C310     1.0000 0.33340  0.86510  0.76590  Biso   1.000  C  -0.273309
  C311     1.0000 0.19380  0.96690  0.90380  Biso   1.000  C  -0.141258
  C312     1.0000 0.19230  0.94560  0.86500  Biso   1.000  C  -0.199809
  C313     1.0000 0.75000  0.41120  0.82240  Biso   1.000  C  0.171172
  C314     1.0000 0.75000  0.37040  0.74080  Biso   1.000  C  0.027754
  C315     1.0000 0.75000  0.35020  0.70040  Biso   1.000  C  0.108969
  C316     1.0000 0.75000  0.41120  0.58880  Biso   1.000  C  0.172165
  C317     1.0000 0.75000  0.37040  0.62960  Biso   1.000  C  0.026702
  C318     1.0000 0.75000  0.35020  0.64980  Biso   1.000  C  0.109520
  C319     1.0000 0.75000  0.17760  0.58880  Biso   1.000  C  0.171166
  C320     1.0000 0.75000  0.25920  0.62960  Biso   1.000  C  0.027813
  C321     1.0000 0.75000  0.29960  0.64980  Biso   1.000  C  0.108919
  C322     1.0000 0.25000  0.58880  0.17760  Biso   1.000  C  0.171167
  C323     1.0000 0.25000  0.62960  0.25920  Biso   1.000  C  0.027812
  C324     1.0000 0.25000  0.64980  0.29960  Biso   1.000  C  0.108920
  C325     1.0000 0.25000  0.58880  0.41120  Biso   1.000  C  0.172165
  C326     1.0000 0.25000  0.62960  0.37040  Biso   1.000  C  0.026702
  C327     1.0000 0.25000  0.64980  0.35020  Biso   1.000  C  0.109520
  C328     1.0000 0.25000  0.82240  0.41120  Biso   1.000  C  0.171172
  C329     1.0000 0.25000  0.74080  0.37040  Biso   1.000  C  0.027755
  C330     1.0000 0.25000  0.70040  0.35020  Biso   1.000  C  0.108968
  C331     1.0000 0.75000  0.31230  0.68770  Biso   1.000  C  -0.245573
  C332     1.0000 0.75000  0.37540  0.68770  Biso   1.000  C  -0.244866
  C333     1.0000 0.75000  0.31230  0.62460  Biso   1.000  C  -0.245042
  C334     1.0000 0.25000  0.68770  0.31230  Biso   1.000  C  -0.245573
  C335     1.0000 0.25000  0.62460  0.31230  Biso   1.000  C  -0.245041
  C336     1.0000 0.25000  0.68770  0.37540  Biso   1.000  C  -0.244866
  C337     1.0000 0.25000  0.96010  0.03990  Biso   1.000  C  0.054505
  C338     1.0000 0.25000  0.98015  0.01985  Biso   1.000  C  0.078911
  C339     1.0000 0.25000  0.92500  0.07500  Biso   1.000  C  0.201945
  C340     1.0000 0.25000  0.07980  0.03990  Biso   1.000  C  0.054495
  C341     1.0000 0.25000  0.03970  0.01985  Biso   1.000  C  0.078881
  C342     1.0000 0.25000  0.15000  0.07500  Biso   1.000  C  0.201954
  C343     1.0000 0.25000  0.96010  0.92020  Biso   1.000  C  0.054611
  C344     1.0000 0.25000  0.98015  0.96030  Biso   1.000  C  0.079044
  C345     1.0000 0.25000  0.92500  0.85000  Biso   1.000  C  0.201894
  C346     1.0000 0.75000  0.03990  0.96010  Biso   1.000  C  0.054505
  C347     1.0000 0.75000  0.01985  0.98015  Biso   1.000  C  0.078911
  C348     1.0000 0.75000  0.07500  0.92500  Biso   1.000  C  0.201945
  C349     1.0000 0.75000  0.92020  0.96010  Biso   1.000  C  0.054611
  C350     1.0000 0.75000  0.96030  0.98015  Biso   1.000  C  0.079044
  C351     1.0000 0.75000  0.85000  0.92500  Biso   1.000  C  0.201894
  C352     1.0000 0.75000  0.03990  0.07980  Biso   1.000  C  0.054495
  C353     1.0000 0.75000  0.01985  0.03970  Biso   1.000  C  0.078881
  C354     1.0000 0.75000  0.07500  0.15000  Biso   1.000  C  0.201954
  C355     1.0000 0.25000  0.01920  0.03840  Biso   1.000  C  -0.242448
  C356     1.0000 0.25000  0.01920  0.98080  Biso   1.000  C  -0.242339
  C357     1.0000 0.25000  0.96160  0.98080  Biso   1.000  C  -0.242160
  C358     1.0000 0.75000  0.98080  0.96160  Biso   1.000  C  -0.242160
  C359     1.0000 0.75000  0.98080  0.01920  Biso   1.000  C  -0.242339
  C360     1.0000 0.75000  0.03840  0.01920  Biso   1.000  C  -0.242448
  Cu1      1.0000 0.95130  0.68087  0.02737  Biso   1.000  Cu  0.796155
  Cu2      1.0000 0.95130  0.34650  0.31913  Biso   1.000  Cu  0.796287
  Cu3      1.0000 0.95130  0.97263  0.65350  Biso   1.000  Cu  0.796428
  Cu4      1.0000 0.45130  0.31913  0.97263  Biso   1.000  Cu  0.796185
  Cu5      1.0000 0.45130  0.65350  0.68087  Biso   1.000  Cu  0.802306
  Cu6      1.0000 0.45130  0.02737  0.34650  Biso   1.000  Cu  0.796224
  Cu7      1.0000 0.04870  0.65350  0.97263  Biso   1.000  Cu  0.796426
  Cu8      1.0000 0.04870  0.02737  0.68087  Biso   1.000  Cu  0.796157
  Cu9      1.0000 0.04870  0.31913  0.34650  Biso   1.000  Cu  0.796286
  Cu10     1.0000 0.54870  0.34650  0.02737  Biso   1.000  Cu  0.796223
  Cu11     1.0000 0.54870  0.97263  0.31913  Biso   1.000  Cu  0.796187
  Cu12     1.0000 0.54870  0.68087  0.65350  Biso   1.000  Cu  0.802306
  H1       1.0000 0.95240  0.54920  0.91250  Biso   1.000  H  0.132384
  H2       1.0000 0.74780  0.55080  0.95950  Biso   1.000  H  0.125483
  H3       1.0000 0.81310  0.60140  0.98590  Biso   1.000  H  0.125582
  H4       1.0000 0.93210  0.48880  0.86440  Biso   1.000  H  0.135815
  H5       1.0000 0.85350  0.43660  0.84500  Biso   1.000  H  0.141810
  H6       1.0000 0.78740  0.36150  0.80970  Biso   1.000  H  0.118382
  H7       1.0000 0.76390  0.33160  0.75160  Biso   1.000  H  0.090860
  H8       1.0000 0.23110  0.79050  0.01130  Biso   1.000  H  0.118164
  H9       1.0000 0.16630  0.75170  0.01100  Biso   1.000  H  0.129092
  H10      1.0000 0.03010  0.77550  0.08660  Biso   1.000  H  0.127969
  H11      1.0000 0.06780  0.83390  0.11750  Biso   1.000  H  0.122181
  H12      1.0000 0.27800  0.84890  0.03470  Biso   1.000  H  0.146730
  H13      1.0000 0.71280  0.49360  0.91110  Biso   1.000  H  0.173076
  H14      1.0000 0.15000  0.88410  0.12010  Biso   1.000  H  0.151891
  H15      1.0000 0.33840  0.98350  0.06650  Biso   1.000  H  0.135832
  H16      1.0000 0.34290  0.94530  0.09390  Biso   1.000  H  0.143432
  H17      1.0000 0.95240  0.36330  0.45080  Biso   1.000  H  0.132250
  H18      1.0000 0.74780  0.40870  0.44920  Biso   1.000  H  0.125558
  H19      1.0000 0.81310  0.38450  0.39860  Biso   1.000  H  0.125478
  H20      1.0000 0.93210  0.37560  0.51120  Biso   1.000  H  0.135631
  H21      1.0000 0.85350  0.40840  0.56340  Biso   1.000  H  0.141742
  H22      1.0000 0.78740  0.44820  0.63850  Biso   1.000  H  0.118629
  H23      1.0000 0.76390  0.42000  0.66840  Biso   1.000  H  0.090756
  H24      1.0000 0.23110  0.22080  0.20950  Biso   1.000  H  0.118045
  H25      1.0000 0.16630  0.25930  0.24830  Biso   1.000  H  0.129027
  H26      1.0000 0.03010  0.31110  0.22450  Biso   1.000  H  0.128014
  H27      1.0000 0.06780  0.28360  0.16610  Biso   1.000  H  0.122176
  H28      1.0000 0.27800  0.18580  0.15110  Biso   1.000  H  0.146624
  H29      1.0000 0.71280  0.41750  0.50640  Biso   1.000  H  0.173215
  H30      1.0000 0.15000  0.23600  0.11590  Biso   1.000  H  0.151890
  H31      1.0000 0.33840  0.08300  0.01650  Biso   1.000  H  0.135857
  H32      1.0000 0.34290  0.14860  0.05470  Biso   1.000  H  0.143430
  H33      1.0000 0.95240  0.08750  0.63670  Biso   1.000  H  0.132341
  H34      1.0000 0.74780  0.04050  0.59130  Biso   1.000  H  0.125508
  H35      1.0000 0.81310  0.01410  0.61550  Biso   1.000  H  0.125635
  H36      1.0000 0.93210  0.13560  0.62440  Biso   1.000  H  0.135758
  H37      1.0000 0.85350  0.15500  0.59160  Biso   1.000  H  0.141821
  H38      1.0000 0.78740  0.19030  0.55180  Biso   1.000  H  0.118437
  H39      1.0000 0.76390  0.24840  0.58000  Biso   1.000  H  0.090979
  H40      1.0000 0.23110  0.98870  0.77920  Biso   1.000  H  0.117971
  H41      1.0000 0.16630  0.98900  0.74070  Biso   1.000  H  0.128929
  H42      1.0000 0.03010  0.91340  0.68890  Biso   1.000  H  0.128028
  H43      1.0000 0.06780  0.88250  0.71640  Biso   1.000  H  0.122420
  H44      1.0000 0.27800  0.96530  0.81420  Biso   1.000  H  0.146603
  H45      1.0000 0.71280  0.08890  0.58250  Biso   1.000  H  0.173068
  H46      1.0000 0.15000  0.87990  0.76400  Biso   1.000  H  0.152202
  H47      1.0000 0.33840  0.93350  0.91700  Biso   1.000  H  0.135934
  H48      1.0000 0.34290  0.90610  0.85140  Biso   1.000  H  0.143774
  H49      1.0000 0.45240  0.45080  0.08750  Biso   1.000  H  0.132353
  H50      1.0000 0.24780  0.44920  0.04050  Biso   1.000  H  0.125490
  H51      1.0000 0.31310  0.39860  0.01410  Biso   1.000  H  0.125576
  H52      1.0000 0.43210  0.51120  0.13560  Biso   1.000  H  0.135785
  H53      1.0000 0.35350  0.56340  0.15500  Biso   1.000  H  0.141831
  H54      1.0000 0.28740  0.63850  0.19030  Biso   1.000  H  0.118407
  H55      1.0000 0.26390  0.66840  0.24840  Biso   1.000  H  0.090891
  H56      1.0000 0.73110  0.20950  0.98870  Biso   1.000  H  0.118033
  H57      1.0000 0.66630  0.24830  0.98900  Biso   1.000  H  0.129005
  H58      1.0000 0.53010  0.22450  0.91340  Biso   1.000  H  0.127982
  H59      1.0000 0.56780  0.16610  0.88250  Biso   1.000  H  0.122238
  H60      1.0000 0.77800  0.15110  0.96530  Biso   1.000  H  0.146651
  H61      1.0000 0.21280  0.50640  0.08890  Biso   1.000  H  0.173072
  H62      1.0000 0.65000  0.11590  0.87990  Biso   1.000  H  0.151971
  H63      1.0000 0.83840  0.01650  0.93350  Biso   1.000  H  0.135894
  H64      1.0000 0.84290  0.05470  0.90610  Biso   1.000  H  0.143458
  H65      1.0000 0.45240  0.63670  0.54920  Biso   1.000  H  0.132155
  H66      1.0000 0.24780  0.59130  0.55080  Biso   1.000  H  0.125099
  H67      1.0000 0.31310  0.61550  0.60140  Biso   1.000  H  0.125428
  H68      1.0000 0.43210  0.62440  0.48880  Biso   1.000  H  0.135531
  H69      1.0000 0.35350  0.59160  0.43660  Biso   1.000  H  0.141348
  H70      1.0000 0.28740  0.55180  0.36150  Biso   1.000  H  0.118400
  H71      1.0000 0.26390  0.58000  0.33160  Biso   1.000  H  0.090624
  H72      1.0000 0.73110  0.77920  0.79050  Biso   1.000  H  0.117985
  H73      1.0000 0.66630  0.74070  0.75170  Biso   1.000  H  0.128778
  H74      1.0000 0.53010  0.68890  0.77550  Biso   1.000  H  0.127935
  H75      1.0000 0.56780  0.71640  0.83390  Biso   1.000  H  0.121566
  H76      1.0000 0.77800  0.81420  0.84890  Biso   1.000  H  0.146137
  H77      1.0000 0.21280  0.58250  0.49360  Biso   1.000  H  0.172760
  H78      1.0000 0.65000  0.76400  0.88410  Biso   1.000  H  0.151443
  H79      1.0000 0.83840  0.91700  0.98350  Biso   1.000  H  0.135799
  H80      1.0000 0.84290  0.85140  0.94530  Biso   1.000  H  0.143444
  H81      1.0000 0.45240  0.91250  0.36330  Biso   1.000  H  0.132339
  H82      1.0000 0.24780  0.95950  0.40870  Biso   1.000  H  0.125487
  H83      1.0000 0.31310  0.98590  0.38450  Biso   1.000  H  0.125572
  H84      1.0000 0.43210  0.86440  0.37560  Biso   1.000  H  0.135768
  H85      1.0000 0.35350  0.84500  0.40840  Biso   1.000  H  0.141866
  H86      1.0000 0.28740  0.80970  0.44820  Biso   1.000  H  0.118537
  H87      1.0000 0.26390  0.75160  0.42000  Biso   1.000  H  0.091059
  H88      1.0000 0.73110  0.01130  0.22080  Biso   1.000  H  0.118025
  H89      1.0000 0.66630  0.01100  0.25930  Biso   1.000  H  0.128990
  H90      1.0000 0.53010  0.08660  0.31110  Biso   1.000  H  0.127996
  H91      1.0000 0.56780  0.11750  0.28360  Biso   1.000  H  0.122246
  H92      1.0000 0.77800  0.03470  0.18580  Biso   1.000  H  0.146654
  H93      1.0000 0.21280  0.91110  0.41750  Biso   1.000  H  0.173066
  H94      1.0000 0.65000  0.12010  0.23600  Biso   1.000  H  0.151960
  H95      1.0000 0.83840  0.06650  0.08300  Biso   1.000  H  0.135835
  H96      1.0000 0.84290  0.09390  0.14860  Biso   1.000  H  0.143443
  H97      1.0000 0.04760  0.63670  0.08750  Biso   1.000  H  0.132340
  H98      1.0000 0.25220  0.59130  0.04050  Biso   1.000  H  0.125508
  H99      1.0000 0.18690  0.61550  0.01410  Biso   1.000  H  0.125635
  H100     1.0000 0.06790  0.62440  0.13560  Biso   1.000  H  0.135759
  H101     1.0000 0.14650  0.59160  0.15500  Biso   1.000  H  0.141821
  H102     1.0000 0.21260  0.55180  0.19030  Biso   1.000  H  0.118438
  H103     1.0000 0.23610  0.58000  0.24840  Biso   1.000  H  0.090977
  H104     1.0000 0.76890  0.77920  0.98870  Biso   1.000  H  0.117972
  H105     1.0000 0.83370  0.74070  0.98900  Biso   1.000  H  0.128929
  H106     1.0000 0.96990  0.68890  0.91340  Biso   1.000  H  0.128028
  H107     1.0000 0.93220  0.71640  0.88250  Biso   1.000  H  0.122420
  H108     1.0000 0.72200  0.81420  0.96530  Biso   1.000  H  0.146602
  H109     1.0000 0.28720  0.58250  0.08890  Biso   1.000  H  0.173067
  H110     1.0000 0.85000  0.76400  0.87990  Biso   1.000  H  0.152201
  H111     1.0000 0.66160  0.91700  0.93350  Biso   1.000  H  0.135933
  H112     1.0000 0.65710  0.85140  0.90610  Biso   1.000  H  0.143773
  H113     1.0000 0.04760  0.91250  0.54920  Biso   1.000  H  0.132385
  H114     1.0000 0.25220  0.95950  0.55080  Biso   1.000  H  0.125483
  H115     1.0000 0.18690  0.98590  0.60140  Biso   1.000  H  0.125582
  H116     1.0000 0.06790  0.86440  0.48880  Biso   1.000  H  0.135814
  H117     1.0000 0.14650  0.84500  0.43660  Biso   1.000  H  0.141810
  H118     1.0000 0.21260  0.80970  0.36150  Biso   1.000  H  0.118380
  H119     1.0000 0.23610  0.75160  0.33160  Biso   1.000  H  0.090858
  H120     1.0000 0.76890  0.01130  0.79050  Biso   1.000  H  0.118163
  H121     1.0000 0.83370  0.01100  0.75170  Biso   1.000  H  0.129092
  H122     1.0000 0.96990  0.08660  0.77550  Biso   1.000  H  0.127968
  H123     1.0000 0.93220  0.11750  0.83390  Biso   1.000  H  0.122180
  H124     1.0000 0.72200  0.03470  0.84890  Biso   1.000  H  0.146730
  H125     1.0000 0.28720  0.91110  0.49360  Biso   1.000  H  0.173076
  H126     1.0000 0.85000  0.12010  0.88410  Biso   1.000  H  0.151891
  H127     1.0000 0.66160  0.06650  0.98350  Biso   1.000  H  0.135831
  H128     1.0000 0.65710  0.09390  0.94530  Biso   1.000  H  0.143432
  H129     1.0000 0.04760  0.45080  0.36330  Biso   1.000  H  0.132251
  H130     1.0000 0.25220  0.44920  0.40870  Biso   1.000  H  0.125558
  H131     1.0000 0.18690  0.39860  0.38450  Biso   1.000  H  0.125478
  H132     1.0000 0.06790  0.51120  0.37560  Biso   1.000  H  0.135631
  H133     1.0000 0.14650  0.56340  0.40840  Biso   1.000  H  0.141742
  H134     1.0000 0.21260  0.63850  0.44820  Biso   1.000  H  0.118630
  H135     1.0000 0.23610  0.66840  0.42000  Biso   1.000  H  0.090755
  H136     1.0000 0.76890  0.20950  0.22080  Biso   1.000  H  0.118044
  H137     1.0000 0.83370  0.24830  0.25930  Biso   1.000  H  0.129027
  H138     1.0000 0.96990  0.22450  0.31110  Biso   1.000  H  0.128014
  H139     1.0000 0.93220  0.16610  0.28360  Biso   1.000  H  0.122176
  H140     1.0000 0.72200  0.15110  0.18580  Biso   1.000  H  0.146623
  H141     1.0000 0.28720  0.50640  0.41750  Biso   1.000  H  0.173214
  H142     1.0000 0.85000  0.11590  0.23600  Biso   1.000  H  0.151890
  H143     1.0000 0.66160  0.01650  0.08300  Biso   1.000  H  0.135856
  H144     1.0000 0.65710  0.05470  0.14860  Biso   1.000  H  0.143429
  H145     1.0000 0.54760  0.36330  0.91250  Biso   1.000  H  0.132339
  H146     1.0000 0.75220  0.40870  0.95950  Biso   1.000  H  0.125487
  H147     1.0000 0.68690  0.38450  0.98590  Biso   1.000  H  0.125572
  H148     1.0000 0.56790  0.37560  0.86440  Biso   1.000  H  0.135769
  H149     1.0000 0.64650  0.40840  0.84500  Biso   1.000  H  0.141866
  H150     1.0000 0.71260  0.44820  0.80970  Biso   1.000  H  0.118538
  H151     1.0000 0.73610  0.42000  0.75160  Biso   1.000  H  0.091058
  H152     1.0000 0.26890  0.22080  0.01130  Biso   1.000  H  0.118026
  H153     1.0000 0.33370  0.25930  0.01100  Biso   1.000  H  0.128990
  H154     1.0000 0.46990  0.31110  0.08660  Biso   1.000  H  0.127996
  H155     1.0000 0.43220  0.28360  0.11750  Biso   1.000  H  0.122246
  H156     1.0000 0.22200  0.18580  0.03470  Biso   1.000  H  0.146654
  H157     1.0000 0.78720  0.41750  0.91110  Biso   1.000  H  0.173065
  H158     1.0000 0.35000  0.23600  0.12010  Biso   1.000  H  0.151960
  H159     1.0000 0.16160  0.08300  0.06650  Biso   1.000  H  0.135834
  H160     1.0000 0.15710  0.14860  0.09390  Biso   1.000  H  0.143442
  H161     1.0000 0.54760  0.08750  0.45080  Biso   1.000  H  0.132353
  H162     1.0000 0.75220  0.04050  0.44920  Biso   1.000  H  0.125490
  H163     1.0000 0.68690  0.01410  0.39860  Biso   1.000  H  0.125577
  H164     1.0000 0.56790  0.13560  0.51120  Biso   1.000  H  0.135785
  H165     1.0000 0.64650  0.15500  0.56340  Biso   1.000  H  0.141831
  H166     1.0000 0.71260  0.19030  0.63850  Biso   1.000  H  0.118406
  H167     1.0000 0.73610  0.24840  0.66840  Biso   1.000  H  0.090889
  H168     1.0000 0.26890  0.98870  0.20950  Biso   1.000  H  0.118032
  H169     1.0000 0.33370  0.98900  0.24830  Biso   1.000  H  0.129005
  H170     1.0000 0.46990  0.91340  0.22450  Biso   1.000  H  0.127981
  H171     1.0000 0.43220  0.88250  0.16610  Biso   1.000  H  0.122237
  H172     1.0000 0.22200  0.96530  0.15110  Biso   1.000  H  0.146651
  H173     1.0000 0.78720  0.08890  0.50640  Biso   1.000  H  0.173072
  H174     1.0000 0.35000  0.87990  0.11590  Biso   1.000  H  0.151971
  H175     1.0000 0.16160  0.93350  0.01650  Biso   1.000  H  0.135893
  H176     1.0000 0.15710  0.90610  0.05470  Biso   1.000  H  0.143458
  H177     1.0000 0.54760  0.54920  0.63670  Biso   1.000  H  0.132155
  H178     1.0000 0.75220  0.55080  0.59130  Biso   1.000  H  0.125099
  H179     1.0000 0.68690  0.60140  0.61550  Biso   1.000  H  0.125428
  H180     1.0000 0.56790  0.48880  0.62440  Biso   1.000  H  0.135531
  H181     1.0000 0.64650  0.43660  0.59160  Biso   1.000  H  0.141348
  H182     1.0000 0.71260  0.36150  0.55180  Biso   1.000  H  0.118400
  H183     1.0000 0.73610  0.33160  0.58000  Biso   1.000  H  0.090623
  H184     1.0000 0.26890  0.79050  0.77920  Biso   1.000  H  0.117984
  H185     1.0000 0.33370  0.75170  0.74070  Biso   1.000  H  0.128778
  H186     1.0000 0.46990  0.77550  0.68890  Biso   1.000  H  0.127936
  H187     1.0000 0.43220  0.83390  0.71640  Biso   1.000  H  0.121567
  H188     1.0000 0.22200  0.84890  0.81420  Biso   1.000  H  0.146137
  H189     1.0000 0.78720  0.49360  0.58250  Biso   1.000  H  0.172760
  H190     1.0000 0.35000  0.88410  0.76400  Biso   1.000  H  0.151442
  H191     1.0000 0.16160  0.98350  0.91700  Biso   1.000  H  0.135798
  H192     1.0000 0.15710  0.94530  0.85140  Biso   1.000  H  0.143443
  H193     1.0000 0.75000  0.29990  0.70010  Biso   1.000  H  0.171240
  H194     1.0000 0.75000  0.40020  0.70010  Biso   1.000  H  0.171461
  H195     1.0000 0.75000  0.29990  0.59980  Biso   1.000  H  0.171373
  H196     1.0000 0.25000  0.70010  0.29990  Biso   1.000  H  0.171240
  H197     1.0000 0.25000  0.59980  0.29990  Biso   1.000  H  0.171373
  H198     1.0000 0.25000  0.70010  0.40020  Biso   1.000  H  0.171461
  H199     1.0000 0.25000  0.03160  0.06320  Biso   1.000  H  0.117348
  H200     1.0000 0.25000  0.03160  0.96840  Biso   1.000  H  0.117392
  H201     1.0000 0.25000  0.93680  0.96840  Biso   1.000  H  0.117541
  H202     1.0000 0.75000  0.96840  0.93680  Biso   1.000  H  0.117541
  H203     1.0000 0.75000  0.96840  0.03160  Biso   1.000  H  0.117392
  H204     1.0000 0.75000  0.06320  0.03160  Biso   1.000  H  0.117348
  N1       1.0000 0.75000  0.42920  0.85840  Biso   1.000  N  -0.242634
  N2       1.0000 0.75000  0.42920  0.57080  Biso   1.000  N  -0.243218
  N3       1.0000 0.75000  0.14160  0.57080  Biso   1.000  N  -0.242647
  N4       1.0000 0.25000  0.57080  0.14160  Biso   1.000  N  -0.242647
  N5       1.0000 0.25000  0.57080  0.42920  Biso   1.000  N  -0.243218
  N6       1.0000 0.25000  0.85840  0.42920  Biso   1.000  N  -0.242634
  N7       1.0000 0.25000  0.90490  0.09510  Biso   1.000  N  -0.279450
  N8       1.0000 0.25000  0.19020  0.09510  Biso   1.000  N  -0.279482
  N9       1.0000 0.25000  0.90490  0.80980  Biso   1.000  N  -0.276882
  N10      1.0000 0.75000  0.09510  0.90490  Biso   1.000  N  -0.279450
  N11      1.0000 0.75000  0.80980  0.90490  Biso   1.000  N  -0.276882
  N12      1.0000 0.75000  0.09510  0.19020  Biso   1.000  N  -0.279482
  O1       1.0000 0.01530  0.72300  0.04600  Biso   1.000  O  -0.504886
  O2       1.0000 0.09840  0.69730  0.99500  Biso   1.000  O  -0.444031
  O3       1.0000 0.90450  0.63630  0.99780  Biso   1.000  O  -0.510900
  O4       1.0000 0.99920  0.61160  0.95400  Biso   1.000  O  -0.475450
  O5       1.0000 0.01530  0.32300  0.27700  Biso   1.000  O  -0.504950
  O6       1.0000 0.09840  0.29770  0.30270  Biso   1.000  O  -0.444249
  O7       1.0000 0.90450  0.36150  0.36370  Biso   1.000  O  -0.510796
  O8       1.0000 0.99920  0.34240  0.38840  Biso   1.000  O  -0.475544
  O9       1.0000 0.01530  0.95400  0.67700  Biso   1.000  O  -0.504672
  O10      1.0000 0.09840  0.00500  0.70230  Biso   1.000  O  -0.444226
  O11      1.0000 0.90450  0.00220  0.63850  Biso   1.000  O  -0.510897
  O12      1.0000 0.99920  0.04600  0.65760  Biso   1.000  O  -0.475608
  O13      1.0000 0.51530  0.27700  0.95400  Biso   1.000  O  -0.504859
  O14      1.0000 0.59840  0.30270  0.00500  Biso   1.000  O  -0.444196
  O15      1.0000 0.40450  0.36370  0.00220  Biso   1.000  O  -0.510913
  O16      1.0000 0.49920  0.38840  0.04600  Biso   1.000  O  -0.475525
  O17      1.0000 0.51530  0.67700  0.72300  Biso   1.000  O  -0.512316
  O18      1.0000 0.59840  0.70230  0.69730  Biso   1.000  O  -0.450922
  O19      1.0000 0.40450  0.63850  0.63630  Biso   1.000  O  -0.516510
  O20      1.0000 0.49920  0.65760  0.61160  Biso   1.000  O  -0.480338
  O21      1.0000 0.51530  0.04600  0.32300  Biso   1.000  O  -0.504834
  O22      1.0000 0.59840  0.99500  0.29770  Biso   1.000  O  -0.444218
  O23      1.0000 0.40450  0.99780  0.36150  Biso   1.000  O  -0.510920
  O24      1.0000 0.49920  0.95400  0.34240  Biso   1.000  O  -0.475562
  O25      1.0000 0.98470  0.67700  0.95400  Biso   1.000  O  -0.504672
  O26      1.0000 0.90160  0.70230  0.00500  Biso   1.000  O  -0.444225
  O27      1.0000 0.09550  0.63850  0.00220  Biso   1.000  O  -0.510896
  O28      1.0000 0.00080  0.65760  0.04600  Biso   1.000  O  -0.475607
  O29      1.0000 0.98470  0.04600  0.72300  Biso   1.000  O  -0.504887
  O30      1.0000 0.90160  0.99500  0.69730  Biso   1.000  O  -0.444031
  O31      1.0000 0.09550  0.99780  0.63630  Biso   1.000  O  -0.510900
  O32      1.0000 0.00080  0.95400  0.61160  Biso   1.000  O  -0.475450
  O33      1.0000 0.98470  0.27700  0.32300  Biso   1.000  O  -0.504950
  O34      1.0000 0.90160  0.30270  0.29770  Biso   1.000  O  -0.444249
  O35      1.0000 0.09550  0.36370  0.36150  Biso   1.000  O  -0.510796
  O36      1.0000 0.00080  0.38840  0.34240  Biso   1.000  O  -0.475544
  O37      1.0000 0.48470  0.32300  0.04600  Biso   1.000  O  -0.504834
  O38      1.0000 0.40160  0.29770  0.99500  Biso   1.000  O  -0.444218
  O39      1.0000 0.59550  0.36150  0.99780  Biso   1.000  O  -0.510920
  O40      1.0000 0.50080  0.34240  0.95400  Biso   1.000  O  -0.475562
  O41      1.0000 0.48470  0.95400  0.27700  Biso   1.000  O  -0.504859
  O42      1.0000 0.40160  0.00500  0.30270  Biso   1.000  O  -0.444196
  O43      1.0000 0.59550  0.00220  0.36370  Biso   1.000  O  -0.510913
  O44      1.0000 0.50080  0.04600  0.38840  Biso   1.000  O  -0.475525
  O45      1.0000 0.48470  0.72300  0.67700  Biso   1.000  O  -0.512317
  O46      1.0000 0.40160  0.69730  0.70230  Biso   1.000  O  -0.450922
  O47      1.0000 0.59550  0.63630  0.63850  Biso   1.000  O  -0.516510
  O48      1.0000 0.50080  0.61160  0.65760  Biso   1.000  O  -0.480338
