data_image0
_cell_length_a       11.855
_cell_length_b       23.235
_cell_length_c       36.749
_cell_angle_alpha    95.26
_cell_angle_beta     90
_cell_angle_gamma    90

_symmetry_space_group_name_H-M    "P 1"
_symmetry_int_tables_number       1

loop_
  _symmetry_equiv_pos_as_xyz
  'x, y, z'

loop_
  _atom_site_label
  _atom_site_occupancy
  _atom_site_fract_x
  _atom_site_fract_y
  _atom_site_fract_z
  _atom_site_thermal_displace_type
  _atom_site_B_iso_or_equiv
  _atom_site_type_symbol
  _atom_site_charge
  C1       1.0000 0.14710  0.66160  0.06170  Biso   1.000  C  0.259475
  C2       1.0000 0.08080  0.72900  0.12810  Biso   1.000  C  0.084513
  C3       1.0000 0.28280  0.61310  0.09960  Biso   1.000  C  0.084756
  C4       1.0000 0.41080  0.48930  0.05280  Biso   1.000  C  0.011091
  C5       1.0000 0.16410  0.68670  0.12860  Biso   1.000  C  -0.164432
  C6       1.0000 0.05880  0.70460  0.06050  Biso   1.000  C  -0.048154
  C7       1.0000 0.42040  0.51550  0.95430  Biso   1.000  C  -0.071241
  C8       1.0000 0.33970  0.56050  0.94880  Biso   1.000  C  0.271321
  C9       1.0000 0.48640  0.49150  0.92460  Biso   1.000  C  -0.166510
  C10      1.0000 0.99850  0.71480  0.02550  Biso   1.000  C  0.297024
  C11      1.0000 0.39970  0.55450  0.88560  Biso   1.000  C  -0.178142
  C12      1.0000 0.33310  0.58020  0.91210  Biso   1.000  C  -0.045694
  C13      1.0000 0.41650  0.54090  0.08280  Biso   1.000  C  0.021989
  C14      1.0000 0.19670  0.65240  0.09630  Biso   1.000  C  -0.074667
  C15      1.0000 0.84230  0.83530  0.41580  Biso   1.000  C  -0.069179
  C16      1.0000 0.80330  0.82910  0.45140  Biso   1.000  C  0.252265
  C17      1.0000 0.70710  0.79380  0.45640  Biso   1.000  C  -0.043867
  C18      1.0000 0.78130  0.81150  0.38420  Biso   1.000  C  -0.179738
  C19      1.0000 0.68060  0.78260  0.38960  Biso   1.000  C  0.094785
  C20      1.0000 0.67580  0.52040  0.44870  Biso   1.000  C  0.021383
  C21      1.0000 0.67580  0.51860  0.51380  Biso   1.000  C  0.059835
  C22      1.0000 0.16140  0.79290  0.31940  Biso   1.000  C  0.639204
  C23      1.0000 0.54260  0.59060  0.59880  Biso   1.000  C  -0.042518
  C24      1.0000 0.56230  0.57470  0.56160  Biso   1.000  C  0.254560
  C25      1.0000 0.64530  0.53330  0.55070  Biso   1.000  C  -0.054984
  C26      1.0000 0.86920  0.91420  0.95040  Biso   1.000  C  0.264326
  C27      1.0000 0.77090  0.91470  0.09860  Biso   1.000  C  0.073503
  C28      1.0000 0.88380  0.99490  0.08520  Biso   1.000  C  0.022444
  C29      1.0000 0.07730  0.94170  0.41980  Biso   1.000  C  0.020807
  C30      1.0000 0.01100  0.94490  0.55650  Biso   1.000  C  0.262013
  C31      1.0000 0.07090  0.99830  0.44620  Biso   1.000  C  0.018049
  C32      1.0000 0.09870  0.00420  0.51080  Biso   1.000  C  0.076960
  C33      1.0000 0.65270  0.85120  0.05780  Biso   1.000  C  0.262593
  C34      1.0000 0.98350  0.98940  0.05620  Biso   1.000  C  0.038525
  C35      1.0000 0.08400  0.99110  0.54740  Biso   1.000  C  -0.064222
  C36      1.0000 0.36940  0.64450  0.42330  Biso   1.000  C  -0.060958
  C37      1.0000 0.76850  0.56250  0.44090  Biso   1.000  C  0.076566
  C38      1.0000 0.57480  0.52180  0.42210  Biso   1.000  C  0.020126
  C39      1.0000 0.19940  0.72200  0.43910  Biso   1.000  C  -0.194388
  C40      1.0000 0.56490  0.81010  0.05460  Biso   1.000  C  -0.046310
  C41      1.0000 0.64940  0.77330  0.42510  Biso   1.000  C  -0.185815
  C42      1.0000 0.24020  0.71460  0.40300  Biso   1.000  C  0.091264
  C43      1.0000 0.53320  0.78260  0.08530  Biso   1.000  C  -0.182995
  C44      1.0000 0.33280  0.65430  0.45960  Biso   1.000  C  0.262453
  C45      1.0000 0.32420  0.67560  0.39590  Biso   1.000  C  -0.156734
  C46      1.0000 0.18810  0.74970  0.37700  Biso   1.000  C  -0.052898
  C47      1.0000 0.05840  0.76620  0.16050  Biso   1.000  C  -0.040454
  C48      1.0000 0.43560  0.49500  0.98800  Biso   1.000  C  0.078731
  C49      1.0000 0.70530  0.50600  0.57750  Biso   1.000  C  -0.182737
  C50      1.0000 0.31530  0.44600  0.06060  Biso   1.000  C  0.077540
  C51      1.0000 0.60330  0.76800  0.35940  Biso   1.000  C  -0.084635
  C52      1.0000 0.97680  0.98260  0.99190  Biso   1.000  C  0.062649
  C53      1.0000 0.50550  0.79350  0.01780  Biso   1.000  C  0.297514
  C54      1.0000 0.55910  0.48950  0.86210  Biso   1.000  C  -0.052013
  C55      1.0000 0.78210  0.83530  0.90430  Biso   1.000  C  0.304171
  C56      1.0000 0.49160  0.71610  0.14990  Biso   1.000  C  -0.285805
  C57      1.0000 0.15380  0.00650  0.60950  Biso   1.000  C  0.092061
  C58      1.0000 0.46030  0.63720  0.61120  Biso   1.000  C  0.293536
  C59      1.0000 0.51180  0.46460  0.41850  Biso   1.000  C  0.071966
  C60      1.0000 0.85530  0.89000  0.91300  Biso   1.000  C  -0.059777
  C61      1.0000 0.89940  0.75780  0.03180  Biso   1.000  C  -0.538983
  C62      1.0000 0.59960  0.79540  0.32860  Biso   1.000  C  -0.259430
  C63      1.0000 0.13360  0.61790  0.91460  Biso   1.000  C  -0.535820
  C64      1.0000 0.98910  0.81060  0.16490  Biso   1.000  C  -0.279584
  C65      1.0000 0.54780  0.76530  0.15070  Biso   1.000  C  -0.051619
  C66      1.0000 0.07500  0.95490  0.06700  Biso   1.000  C  0.087268
  C67      1.0000 0.93150  0.88320  0.60560  Biso   1.000  C  0.306972
  C68      1.0000 0.01010  0.93190  0.59400  Biso   1.000  C  -0.043399
  C69      1.0000 0.66000  0.83930  0.12450  Biso   1.000  C  -0.164926
  C70      1.0000 0.95240  0.66140  0.00560  Biso   1.000  C  -0.543557
  C71      1.0000 0.25280  0.63120  0.90490  Biso   1.000  C  0.313047
  C72      1.0000 0.75180  0.48830  0.64000  Biso   1.000  C  -0.070497
  C73      1.0000 0.45870  0.69010  0.18220  Biso   1.000  C  0.653569
  C74      1.0000 0.29380  0.68430  0.92800  Biso   1.000  C  -0.545843
  C75      1.0000 0.87710  0.54280  0.43690  Biso   1.000  C  -0.169472
  C76      1.0000 0.91060  0.91490  0.88540  Biso   1.000  C  -0.171987
  C77      1.0000 0.58240  0.79650  0.11990  Biso   1.000  C  0.092381
  C78      1.0000 0.08100  0.96130  0.61800  Biso   1.000  C  -0.172120
  C79      1.0000 0.22090  0.75460  0.34170  Biso   1.000  C  -0.287662
  C80      1.0000 0.51680  0.78120  0.29950  Biso   1.000  C  0.641191
  C81      1.0000 0.82750  0.78670  0.92590  Biso   1.000  C  -0.535918
  C82      1.0000 0.03000  0.73460  0.09360  Biso   1.000  C  -0.172507
  C83      1.0000 0.34330  0.05810  0.68940  Biso   1.000  C  0.666202
  C84      1.0000 0.74440  0.49270  0.67530  Biso   1.000  C  -0.268562
  C85      1.0000 0.22910  0.03450  0.63570  Biso   1.000  C  -0.019162
  C86      1.0000 0.12580  0.99920  0.80280  Biso   1.000  C  0.628557
  C87      1.0000 0.15410  0.01820  0.57420  Biso   1.000  C  -0.166764
  C88      1.0000 0.82100  0.46200  0.69770  Biso   1.000  C  0.641977
  C89      1.0000 0.23040  0.43200  0.03540  Biso   1.000  C  -0.168813
  C90      1.0000 0.65250  0.48370  0.80400  Biso   1.000  C  0.655745
  C91      1.0000 0.04500  0.97110  0.82660  Biso   1.000  C  -0.282841
  C92      1.0000 0.26750  0.73260  0.53190  Biso   1.000  C  -0.531922
  C93      1.0000 0.32000  0.42030  0.09340  Biso   1.000  C  -0.163559
  C94      1.0000 0.78300  0.81370  0.86470  Biso   1.000  C  -0.540469
  C95      1.0000 0.15020  0.64460  0.51910  Biso   1.000  C  -0.540030
  C96      1.0000 0.75650  0.75190  0.51390  Biso   1.000  C  -0.530200
  C97      1.0000 0.81410  0.04870  0.08510  Biso   1.000  C  0.069222
  C98      1.0000 0.34030  0.62020  0.59930  Biso   1.000  C  -0.536282
  C99      1.0000 0.04500  0.98790  0.86250  Biso   1.000  C  -0.076058
  C100     1.0000 0.25610  0.02810  0.66880  Biso   1.000  C  -0.312440
  C101     1.0000 0.59060  0.76270  0.99040  Biso   1.000  C  -0.525523
  C102     1.0000 0.50350  0.69560  0.59710  Biso   1.000  C  -0.541359
  C103     1.0000 0.15120  0.39220  0.04470  Biso   1.000  C  -0.069216
  C104     1.0000 0.80690  0.89900  0.59860  Biso   1.000  C  -0.536844
  C105     1.0000 0.56270  0.74320  0.49090  Biso   1.000  C  -0.535764
  C106     1.0000 0.62820  0.83960  0.51460  Biso   1.000  C  -0.539405
  C107     1.0000 0.18580  0.70200  0.50390  Biso   1.000  C  0.288892
  C108     1.0000 0.50460  0.43320  0.38490  Biso   1.000  C  -0.146697
  C109     1.0000 0.56070  0.50490  0.82800  Biso   1.000  C  -0.300519
  C110     1.0000 0.46200  0.84710  0.00320  Biso   1.000  C  -0.542494
  C111     1.0000 0.48230  0.51000  0.89020  Biso   1.000  C  0.085620
  C112     1.0000 0.66430  0.78220  0.49410  Biso   1.000  C  0.302299
  C113     1.0000 0.89490  0.05870  0.45830  Biso   1.000  C  -0.161951
  C114     1.0000 0.98250  0.03960  0.43580  Biso   1.000  C  0.080127
  C115     1.0000 0.52920  0.56880  0.08500  Biso   1.000  C  0.081904
  C116     1.0000 0.68660  0.51960  0.61410  Biso   1.000  C  0.099572
  C117     1.0000 0.60620  0.56190  0.62370  Biso   1.000  C  -0.182487
  C118     1.0000 0.19220  0.91420  0.41910  Biso   1.000  C  0.079789
  C119     1.0000 0.99060  0.06350  0.40260  Biso   1.000  C  -0.154226
  C120     1.0000 0.08410  0.74240  0.99890  Biso   1.000  C  -0.530827
  C121     1.0000 0.56260  0.60780  0.06140  Biso   1.000  C  -0.160424
  C122     1.0000 0.60210  0.55610  0.11270  Biso   1.000  C  -0.162728
  C123     1.0000 0.07670  0.73880  0.50410  Biso   1.000  C  -0.532918
  C124     1.0000 0.26340  0.92380  0.39060  Biso   1.000  C  -0.173104
  C125     1.0000 0.94910  0.63530  0.42280  Biso   1.000  C  -0.087435
  C126     1.0000 0.22970  0.88140  0.44620  Biso   1.000  C  -0.164811
  C127     1.0000 0.96390  0.82820  0.58530  Biso   1.000  C  -0.542078
  C128     1.0000 0.45290  0.44580  0.44750  Biso   1.000  C  -0.143669
  C129     1.0000 0.91690  0.10440  0.39200  Biso   1.000  C  -0.084674
  C130     1.0000 0.37240  0.90110  0.39080  Biso   1.000  C  -0.062972
  C131     1.0000 0.15420  0.36670  0.07710  Biso   1.000  C  -0.099330
  C132     1.0000 0.75380  0.61980  0.43590  Biso   1.000  C  -0.162081
  C133     1.0000 0.45520  0.64980  0.65340  Biso   1.000  C  -0.539950
  C134     1.0000 0.70800  0.58180  0.11480  Biso   1.000  C  -0.065660
  C135     1.0000 0.25400  0.64380  0.86630  Biso   1.000  C  -0.543135
  C136     1.0000 0.84100  0.65500  0.42780  Biso   1.000  C  -0.077095
  C137     1.0000 0.00770  0.98440  0.92780  Biso   1.000  C  -0.170105
  C138     1.0000 0.69800  0.86800  0.09290  Biso   1.000  C  -0.077886
  C139     1.0000 0.95040  0.96210  0.95680  Biso   1.000  C  -0.065664
  C140     1.0000 0.98640  0.96200  0.89140  Biso   1.000  C  0.083334
  C141     1.0000 0.74440  0.61810  0.08970  Biso   1.000  C  -0.092998
  C142     1.0000 0.66250  0.84950  0.91410  Biso   1.000  C  -0.538585
  C143     1.0000 0.33920  0.85940  0.44570  Biso   1.000  C  -0.073433
  C144     1.0000 0.77040  0.06880  0.05360  Biso   1.000  C  -0.148184
  C145     1.0000 0.66900  0.63120  0.06370  Biso   1.000  C  -0.083493
  C146     1.0000 0.70750  0.11960  0.05580  Biso   1.000  C  -0.074885
  C147     1.0000 0.41460  0.87070  0.41830  Biso   1.000  C  -0.097948
  C148     1.0000 0.79550  0.08120  0.11820  Biso   1.000  C  -0.148087
  C149     1.0000 0.94720  0.87470  0.64440  Biso   1.000  C  -0.540844
  C150     1.0000 0.23870  0.38090  0.10180  Biso   1.000  C  -0.074523
  C151     1.0000 0.96570  0.57930  0.43080  Biso   1.000  C  -0.069927
  C152     1.0000 0.07770  0.89610  0.06430  Biso   1.000  C  -0.171107
  C153     1.0000 0.44260  0.38230  0.38060  Biso   1.000  C  -0.090928
  C154     1.0000 0.93760  0.87020  0.40840  Biso   1.000  C  0.068584
  C155     1.0000 0.45050  0.60140  0.41300  Biso   1.000  C  0.058634
  C156     1.0000 0.81810  0.09950  0.44770  Biso   1.000  C  -0.075195
  C157     1.0000 0.82660  0.12150  0.41420  Biso   1.000  C  -0.094521
  C158     1.0000 0.39360  0.39380  0.44480  Biso   1.000  C  -0.073784
  C159     1.0000 0.39070  0.36490  0.41110  Biso   1.000  C  -0.091821
  C160     1.0000 0.69570  0.15240  0.08940  Biso   1.000  C  -0.098139
  C161     1.0000 0.73570  0.13320  0.12170  Biso   1.000  C  -0.084417
  C162     1.0000 0.97360  0.84780  0.19660  Biso   1.000  C  0.675297
  C163     1.0000 0.26160  0.88300  0.09280  Biso   1.000  C  -0.092458
  C164     1.0000 0.16470  0.86410  0.07620  Biso   1.000  C  -0.079801
  C165     1.0000 0.23680  0.69360  0.46710  Biso   1.000  C  -0.041115
  C166     1.0000 0.25470  0.94200  0.09550  Biso   1.000  C  -0.064380
  C167     1.0000 0.40500  0.75490  0.02090  Biso   1.000  C  -0.531652
  C168     1.0000 0.17850  0.97430  0.07760  Biso   1.000  C  -0.160401
  C169     1.0000 0.64710  0.33840  0.93830  Biso   1.000  C  0.259474
  C170     1.0000 0.58080  0.27100  0.87190  Biso   1.000  C  0.084513
  C171     1.0000 0.78280  0.38690  0.90040  Biso   1.000  C  0.084756
  C172     1.0000 0.91080  0.51070  0.94720  Biso   1.000  C  0.011091
  C173     1.0000 0.66410  0.31330  0.87140  Biso   1.000  C  -0.164432
  C174     1.0000 0.55880  0.29540  0.93950  Biso   1.000  C  -0.048154
  C175     1.0000 0.92040  0.48450  0.04570  Biso   1.000  C  -0.071241
  C176     1.0000 0.83970  0.43950  0.05120  Biso   1.000  C  0.271321
  C177     1.0000 0.98640  0.50850  0.07540  Biso   1.000  C  -0.166510
  C178     1.0000 0.49850  0.28520  0.97450  Biso   1.000  C  0.297024
  C179     1.0000 0.89970  0.44550  0.11440  Biso   1.000  C  -0.178143
  C180     1.0000 0.83310  0.41980  0.08790  Biso   1.000  C  -0.045694
  C181     1.0000 0.91650  0.45910  0.91720  Biso   1.000  C  0.021988
  C182     1.0000 0.69670  0.34760  0.90370  Biso   1.000  C  -0.074667
  C183     1.0000 0.34230  0.16470  0.58420  Biso   1.000  C  -0.069179
  C184     1.0000 0.30330  0.17090  0.54860  Biso   1.000  C  0.252265
  C185     1.0000 0.20710  0.20620  0.54360  Biso   1.000  C  -0.043867
  C186     1.0000 0.28130  0.18850  0.61580  Biso   1.000  C  -0.179738
  C187     1.0000 0.18060  0.21740  0.61040  Biso   1.000  C  0.094785
  C188     1.0000 0.17580  0.47960  0.55130  Biso   1.000  C  0.021383
  C189     1.0000 0.17580  0.48140  0.48620  Biso   1.000  C  0.059835
  C190     1.0000 0.66140  0.20710  0.68060  Biso   1.000  C  0.639204
  C191     1.0000 0.04260  0.40940  0.40120  Biso   1.000  C  -0.042518
  C192     1.0000 0.06230  0.42530  0.43840  Biso   1.000  C  0.254560
  C193     1.0000 0.14530  0.46670  0.44930  Biso   1.000  C  -0.054983
  C194     1.0000 0.36920  0.08580  0.04960  Biso   1.000  C  0.264326
  C195     1.0000 0.27090  0.08530  0.90140  Biso   1.000  C  0.073503
  C196     1.0000 0.38380  0.00510  0.91480  Biso   1.000  C  0.022444
  C197     1.0000 0.57730  0.05830  0.58020  Biso   1.000  C  0.020807
  C198     1.0000 0.51100  0.05510  0.44350  Biso   1.000  C  0.262014
  C199     1.0000 0.57090  0.00170  0.55380  Biso   1.000  C  0.018048
  C200     1.0000 0.59870  0.99580  0.48920  Biso   1.000  C  0.076960
  C201     1.0000 0.15270  0.14880  0.94220  Biso   1.000  C  0.262593
  C202     1.0000 0.48350  0.01060  0.94380  Biso   1.000  C  0.038525
  C203     1.0000 0.58400  0.00890  0.45260  Biso   1.000  C  -0.064222
  C204     1.0000 0.86940  0.35550  0.57670  Biso   1.000  C  -0.060958
  C205     1.0000 0.26850  0.43750  0.55910  Biso   1.000  C  0.076566
  C206     1.0000 0.07480  0.47820  0.57790  Biso   1.000  C  0.020126
  C207     1.0000 0.69940  0.27800  0.56090  Biso   1.000  C  -0.194388
  C208     1.0000 0.06490  0.18990  0.94540  Biso   1.000  C  -0.046310
  C209     1.0000 0.14940  0.22670  0.57490  Biso   1.000  C  -0.185815
  C210     1.0000 0.74020  0.28540  0.59700  Biso   1.000  C  0.091264
  C211     1.0000 0.03320  0.21740  0.91470  Biso   1.000  C  -0.182995
  C212     1.0000 0.83280  0.34570  0.54040  Biso   1.000  C  0.262453
  C213     1.0000 0.82420  0.32440  0.60410  Biso   1.000  C  -0.156733
  C214     1.0000 0.68810  0.25030  0.62300  Biso   1.000  C  -0.052898
  C215     1.0000 0.55840  0.23380  0.83950  Biso   1.000  C  -0.040455
  C216     1.0000 0.93560  0.50500  0.01200  Biso   1.000  C  0.078731
  C217     1.0000 0.20530  0.49400  0.42250  Biso   1.000  C  -0.182736
  C218     1.0000 0.81530  0.55400  0.93940  Biso   1.000  C  0.077540
  C219     1.0000 0.10330  0.23200  0.64060  Biso   1.000  C  -0.084635
  C220     1.0000 0.47680  0.01740  0.00810  Biso   1.000  C  0.062649
  C221     1.0000 0.00550  0.20650  0.98220  Biso   1.000  C  0.297514
  C222     1.0000 0.05910  0.51050  0.13790  Biso   1.000  C  -0.052012
  C223     1.0000 0.28210  0.16470  0.09570  Biso   1.000  C  0.304171
  C224     1.0000 0.99160  0.28390  0.85010  Biso   1.000  C  -0.285805
  C225     1.0000 0.65380  0.99350  0.39050  Biso   1.000  C  0.092061
  C226     1.0000 0.96030  0.36280  0.38880  Biso   1.000  C  0.293537
  C227     1.0000 0.01180  0.53540  0.58150  Biso   1.000  C  0.071966
  C228     1.0000 0.35530  0.11000  0.08700  Biso   1.000  C  -0.059777
  C229     1.0000 0.39940  0.24220  0.96820  Biso   1.000  C  -0.538983
  C230     1.0000 0.09960  0.20460  0.67140  Biso   1.000  C  -0.259429
  C231     1.0000 0.63360  0.38210  0.08540  Biso   1.000  C  -0.535820
  C232     1.0000 0.48910  0.18940  0.83510  Biso   1.000  C  -0.279584
  C233     1.0000 0.04780  0.23470  0.84930  Biso   1.000  C  -0.051619
  C234     1.0000 0.57500  0.04510  0.93300  Biso   1.000  C  0.087268
  C235     1.0000 0.43150  0.11680  0.39440  Biso   1.000  C  0.306971
  C236     1.0000 0.51010  0.06810  0.40600  Biso   1.000  C  -0.043399
  C237     1.0000 0.16000  0.16070  0.87550  Biso   1.000  C  -0.164926
  C238     1.0000 0.45240  0.33860  0.99440  Biso   1.000  C  -0.543557
  C239     1.0000 0.75280  0.36880  0.09510  Biso   1.000  C  0.313046
  C240     1.0000 0.25180  0.51170  0.36000  Biso   1.000  C  -0.070497
  C241     1.0000 0.95870  0.30990  0.81780  Biso   1.000  C  0.653569
  C242     1.0000 0.79380  0.31570  0.07200  Biso   1.000  C  -0.545843
  C243     1.0000 0.37710  0.45720  0.56310  Biso   1.000  C  -0.169471
  C244     1.0000 0.41060  0.08510  0.11460  Biso   1.000  C  -0.171987
  C245     1.0000 0.08240  0.20350  0.88010  Biso   1.000  C  0.092381
  C246     1.0000 0.58100  0.03870  0.38200  Biso   1.000  C  -0.172120
  C247     1.0000 0.72090  0.24540  0.65830  Biso   1.000  C  -0.287662
  C248     1.0000 0.01680  0.21880  0.70050  Biso   1.000  C  0.641190
  C249     1.0000 0.32750  0.21330  0.07410  Biso   1.000  C  -0.535918
  C250     1.0000 0.53000  0.26540  0.90640  Biso   1.000  C  -0.172507
  C251     1.0000 0.84330  0.94190  0.31060  Biso   1.000  C  0.666202
  C252     1.0000 0.24440  0.50730  0.32470  Biso   1.000  C  -0.268563
  C253     1.0000 0.72910  0.96550  0.36430  Biso   1.000  C  -0.019161
  C254     1.0000 0.62580  0.00080  0.19720  Biso   1.000  C  0.628557
  C255     1.0000 0.65410  0.98180  0.42580  Biso   1.000  C  -0.166764
  C256     1.0000 0.32100  0.53800  0.30230  Biso   1.000  C  0.641977
  C257     1.0000 0.73040  0.56800  0.96460  Biso   1.000  C  -0.168813
  C258     1.0000 0.15250  0.51630  0.19600  Biso   1.000  C  0.655745
  C259     1.0000 0.54500  0.02890  0.17340  Biso   1.000  C  -0.282839
  C260     1.0000 0.76750  0.26740  0.46810  Biso   1.000  C  -0.531922
  C261     1.0000 0.82000  0.57970  0.90660  Biso   1.000  C  -0.163559
  C262     1.0000 0.28300  0.18630  0.13530  Biso   1.000  C  -0.540468
  C263     1.0000 0.65020  0.35540  0.48090  Biso   1.000  C  -0.540030
  C264     1.0000 0.25650  0.24810  0.48610  Biso   1.000  C  -0.530200
  C265     1.0000 0.31410  0.95130  0.91490  Biso   1.000  C  0.069222
  C266     1.0000 0.84030  0.37980  0.40070  Biso   1.000  C  -0.536282
  C267     1.0000 0.54500  0.01210  0.13750  Biso   1.000  C  -0.076058
  C268     1.0000 0.75610  0.97190  0.33120  Biso   1.000  C  -0.312439
  C269     1.0000 0.09060  0.23730  0.00960  Biso   1.000  C  -0.525523
  C270     1.0000 0.00350  0.30440  0.40290  Biso   1.000  C  -0.541359
  C271     1.0000 0.65120  0.60780  0.95530  Biso   1.000  C  -0.069216
  C272     1.0000 0.30690  0.10100  0.40140  Biso   1.000  C  -0.536844
  C273     1.0000 0.06270  0.25680  0.50910  Biso   1.000  C  -0.535764
  C274     1.0000 0.12820  0.16040  0.48540  Biso   1.000  C  -0.539404
  C275     1.0000 0.68580  0.29800  0.49610  Biso   1.000  C  0.288892
  C276     1.0000 0.00460  0.56680  0.61510  Biso   1.000  C  -0.146695
  C277     1.0000 0.06070  0.49510  0.17200  Biso   1.000  C  -0.300520
  C278     1.0000 0.96200  0.15290  0.99680  Biso   1.000  C  -0.542494
  C279     1.0000 0.98230  0.49000  0.10980  Biso   1.000  C  0.085619
  C280     1.0000 0.16430  0.21780  0.50590  Biso   1.000  C  0.302299
  C281     1.0000 0.39490  0.94130  0.54170  Biso   1.000  C  -0.161951
  C282     1.0000 0.48250  0.96040  0.56420  Biso   1.000  C  0.080127
  C283     1.0000 0.02920  0.43120  0.91500  Biso   1.000  C  0.081904
  C284     1.0000 0.18660  0.48040  0.38590  Biso   1.000  C  0.099572
  C285     1.0000 0.10620  0.43810  0.37630  Biso   1.000  C  -0.182488
  C286     1.0000 0.69220  0.08580  0.58090  Biso   1.000  C  0.079788
  C287     1.0000 0.49060  0.93650  0.59740  Biso   1.000  C  -0.154226
  C288     1.0000 0.58410  0.25760  0.00110  Biso   1.000  C  -0.530827
  C289     1.0000 0.06260  0.39220  0.93860  Biso   1.000  C  -0.160424
  C290     1.0000 0.10210  0.44390  0.88730  Biso   1.000  C  -0.162728
  C291     1.0000 0.57670  0.26120  0.49590  Biso   1.000  C  -0.532918
  C292     1.0000 0.76340  0.07620  0.60940  Biso   1.000  C  -0.173104
  C293     1.0000 0.44910  0.36470  0.57720  Biso   1.000  C  -0.087435
  C294     1.0000 0.72970  0.11860  0.55380  Biso   1.000  C  -0.164811
  C295     1.0000 0.46390  0.17180  0.41470  Biso   1.000  C  -0.542078
  C296     1.0000 0.95290  0.55420  0.55250  Biso   1.000  C  -0.143669
  C297     1.0000 0.41690  0.89560  0.60800  Biso   1.000  C  -0.084673
  C298     1.0000 0.87240  0.09890  0.60920  Biso   1.000  C  -0.062972
  C299     1.0000 0.65420  0.63330  0.92290  Biso   1.000  C  -0.099330
  C300     1.0000 0.25380  0.38020  0.56410  Biso   1.000  C  -0.162081
  C301     1.0000 0.95520  0.35020  0.34660  Biso   1.000  C  -0.539952
  C302     1.0000 0.20800  0.41820  0.88520  Biso   1.000  C  -0.065660
  C303     1.0000 0.75400  0.35620  0.13370  Biso   1.000  C  -0.543135
  C304     1.0000 0.34100  0.34500  0.57220  Biso   1.000  C  -0.077095
  C305     1.0000 0.50770  0.01560  0.07220  Biso   1.000  C  -0.170105
  C306     1.0000 0.19800  0.13200  0.90710  Biso   1.000  C  -0.077886
  C307     1.0000 0.45040  0.03790  0.04320  Biso   1.000  C  -0.065664
  C308     1.0000 0.48640  0.03800  0.10860  Biso   1.000  C  0.083334
  C309     1.0000 0.24440  0.38190  0.91030  Biso   1.000  C  -0.092998
  C310     1.0000 0.16250  0.15050  0.08590  Biso   1.000  C  -0.538585
  C311     1.0000 0.83920  0.14060  0.55430  Biso   1.000  C  -0.073433
  C312     1.0000 0.27040  0.93120  0.94640  Biso   1.000  C  -0.148184
  C313     1.0000 0.16900  0.36880  0.93630  Biso   1.000  C  -0.083493
  C314     1.0000 0.20750  0.88040  0.94420  Biso   1.000  C  -0.074884
  C315     1.0000 0.91460  0.12930  0.58170  Biso   1.000  C  -0.097948
  C316     1.0000 0.29550  0.91880  0.88180  Biso   1.000  C  -0.148087
  C317     1.0000 0.44720  0.12530  0.35560  Biso   1.000  C  -0.540843
  C318     1.0000 0.73870  0.61910  0.89820  Biso   1.000  C  -0.074523
  C319     1.0000 0.46570  0.42070  0.56920  Biso   1.000  C  -0.069927
  C320     1.0000 0.57770  0.10390  0.93570  Biso   1.000  C  -0.171107
  C321     1.0000 0.94260  0.61770  0.61940  Biso   1.000  C  -0.090928
  C322     1.0000 0.43760  0.12980  0.59160  Biso   1.000  C  0.068584
  C323     1.0000 0.95050  0.39860  0.58700  Biso   1.000  C  0.058634
  C324     1.0000 0.31810  0.90050  0.55230  Biso   1.000  C  -0.075194
  C325     1.0000 0.32660  0.87850  0.58580  Biso   1.000  C  -0.094521
  C326     1.0000 0.89360  0.60620  0.55520  Biso   1.000  C  -0.073783
  C327     1.0000 0.89070  0.63510  0.58890  Biso   1.000  C  -0.091820
  C328     1.0000 0.19570  0.84760  0.91060  Biso   1.000  C  -0.098139
  C329     1.0000 0.23570  0.86680  0.87830  Biso   1.000  C  -0.084418
  C330     1.0000 0.47360  0.15220  0.80340  Biso   1.000  C  0.675297
  C331     1.0000 0.76160  0.11700  0.90720  Biso   1.000  C  -0.092458
  C332     1.0000 0.66470  0.13590  0.92380  Biso   1.000  C  -0.079802
  C333     1.0000 0.73680  0.30640  0.53290  Biso   1.000  C  -0.041115
  C334     1.0000 0.75470  0.05800  0.90450  Biso   1.000  C  -0.064380
  C335     1.0000 0.90500  0.24510  0.97910  Biso   1.000  C  -0.531652
  C336     1.0000 0.67850  0.02570  0.92240  Biso   1.000  C  -0.160401
  Cd1      1.0000 0.33870  0.75843  0.25319  Biso   1.000  Cd  1.020437
  Cd2      1.0000 0.01621  0.86517  0.28335  Biso   1.000  Cd  1.011281
  Cd3      1.0000 0.36817  0.59584  0.22548  Biso   1.000  Cd  0.984754
  Cd4      1.0000 0.78162  0.94343  0.22977  Biso   1.000  Cd  1.043044
  Cd5      1.0000 0.83870  0.24157  0.74681  Biso   1.000  Cd  1.020437
  Cd6      1.0000 0.51621  0.13483  0.71665  Biso   1.000  Cd  1.011281
  Cd7      1.0000 0.86817  0.40416  0.77452  Biso   1.000  Cd  0.984751
  Cd8      1.0000 0.28162  0.05657  0.77023  Biso   1.000  Cd  1.043044
  Cl1      1.0000 0.21170  0.67174  0.24357  Biso   1.000  Cl  -0.500784
  Cl2      1.0000 0.71170  0.32826  0.75643  Biso   1.000  Cl  -0.500783
  H1       1.0000 0.31330  0.61120  0.12280  Biso   1.000  H  0.109784
  H2       1.0000 0.48350  0.46910  0.05150  Biso   1.000  H  0.094417
  H3       1.0000 0.19920  0.68070  0.15050  Biso   1.000  H  0.126781
  H4       1.0000 0.53540  0.46150  0.92860  Biso   1.000  H  0.113838
  H5       1.0000 0.39160  0.56660  0.86230  Biso   1.000  H  0.115614
  H6       1.0000 0.39990  0.52640  0.10640  Biso   1.000  H  0.086873
  H7       1.0000 0.80840  0.81520  0.36080  Biso   1.000  H  0.130722
  H8       1.0000 0.70630  0.48110  0.44800  Biso   1.000  H  0.095867
  H9       1.0000 0.73560  0.49300  0.50940  Biso   1.000  H  0.105832
  H10      1.0000 0.78870  0.92670  0.12270  Biso   1.000  H  0.105085
  H11      1.0000 0.91440  0.99210  0.10980  Biso   1.000  H  0.089790
  H12      1.0000 0.05810  0.95090  0.39500  Biso   1.000  H  0.085841
  H13      1.0000 0.14440  0.01760  0.44640  Biso   1.000  H  0.094565
  H14      1.0000 0.14620  0.03470  0.50660  Biso   1.000  H  0.108515
  H15      1.0000 0.01240  0.02830  0.05340  Biso   1.000  H  0.083703
  H16      1.0000 0.60320  0.52960  0.39790  Biso   1.000  H  0.093513
  H17      1.0000 0.14180  0.74880  0.44400  Biso   1.000  H  0.114716
  H18      1.0000 0.58470  0.75160  0.42810  Biso   1.000  H  0.115042
  H19      1.0000 0.47790  0.75410  0.08280  Biso   1.000  H  0.120185
  H20      1.0000 0.35250  0.66940  0.37220  Biso   1.000  H  0.135704
  H21      1.0000 0.12550  0.77120  0.38520  Biso   1.000  H  0.105484
  H22      1.0000 0.09810  0.75790  0.18120  Biso   1.000  H  0.105169
  H23      1.0000 0.48270  0.46320  0.98910  Biso   1.000  H  0.103120
  H24      1.0000 0.75880  0.47800  0.57010  Biso   1.000  H  0.113600
  H25      1.0000 0.55310  0.73770  0.36150  Biso   1.000  H  0.118924
  H26      1.0000 0.03120  0.01150  0.99430  Biso   1.000  H  0.101089
  H27      1.0000 0.61310  0.46290  0.86810  Biso   1.000  H  0.107217
  H28      1.0000 0.47240  0.69750  0.12730  Biso   1.000  H  0.127896
  H29      1.0000 0.84490  0.74250  0.04760  Biso   1.000  H  0.155558
  H30      1.0000 0.86460  0.76340  0.00880  Biso   1.000  H  0.166545
  H31      1.0000 0.92720  0.79410  0.04280  Biso   1.000  H  0.147448
  H32      1.0000 0.65170  0.82450  0.32570  Biso   1.000  H  0.122518
  H33      1.0000 0.10800  0.58470  0.89940  Biso   1.000  H  0.142394
  H34      1.0000 0.08640  0.65040  0.91090  Biso   1.000  H  0.153023
  H35      1.0000 0.12990  0.61000  0.93980  Biso   1.000  H  0.158366
  H36      1.0000 0.94580  0.81800  0.14480  Biso   1.000  H  0.129752
  H37      1.0000 0.56790  0.78200  0.17380  Biso   1.000  H  0.116060
  H38      1.0000 0.68910  0.85030  0.14760  Biso   1.000  H  0.131815
  H39      1.0000 0.89940  0.64380  0.02090  Biso   1.000  H  0.147358
  H40      1.0000 0.01300  0.63490  0.99930  Biso   1.000  H  0.151893
  H41      1.0000 0.91530  0.67090  0.98370  Biso   1.000  H  0.163926
  H42      1.0000 0.80480  0.46210  0.62980  Biso   1.000  H  0.100609
  H43      1.0000 0.24590  0.71650  0.92410  Biso   1.000  H  0.155993
  H44      1.0000 0.36970  0.69290  0.92110  Biso   1.000  H  0.149961
  H45      1.0000 0.29200  0.67730  0.95330  Biso   1.000  H  0.159039
  H46      1.0000 0.89160  0.50370  0.43830  Biso   1.000  H  0.100992
  H47      1.0000 0.89740  0.89990  0.86140  Biso   1.000  H  0.120786
  H48      1.0000 0.08170  0.95110  0.64190  Biso   1.000  H  0.117180
  H49      1.0000 0.28190  0.73320  0.33200  Biso   1.000  H  0.150295
  H50      1.0000 0.90470  0.77890  0.91940  Biso   1.000  H  0.147047
  H51      1.0000 0.78330  0.75240  0.92030  Biso   1.000  H  0.151824
  H52      1.0000 0.82280  0.79840  0.95160  Biso   1.000  H  0.156313
  H53      1.0000 0.97130  0.76110  0.09320  Biso   1.000  H  0.113626
  H54      1.0000 0.68870  0.48880  0.75560  Biso   1.000  H  0.405973
  H55      1.0000 0.68880  0.51620  0.68670  Biso   1.000  H  0.129466
  H56      1.0000 0.26820  0.06460  0.62640  Biso   1.000  H  0.093156
  H57      1.0000 0.20410  0.04610  0.56730  Biso   1.000  H  0.112590
  H58      1.0000 0.22680  0.44860  0.01330  Biso   1.000  H  0.112719
  H59      1.0000 0.99570  0.94250  0.81690  Biso   1.000  H  0.143217
  H60      1.0000 0.29040  0.76880  0.52370  Biso   1.000  H  0.145614
  H61      1.0000 0.33260  0.70870  0.53440  Biso   1.000  H  0.166070
  H62      1.0000 0.23040  0.73930  0.55510  Biso   1.000  H  0.152575
  H63      1.0000 0.37820  0.42980  0.10990  Biso   1.000  H  0.110876
  H64      1.0000 0.85910  0.80510  0.85710  Biso   1.000  H  0.150594
  H65      1.0000 0.75260  0.84280  0.85060  Biso   1.000  H  0.151341
  H66      1.0000 0.73800  0.77930  0.86100  Biso   1.000  H  0.161307
  H67      1.0000 0.09800  0.62440  0.50240  Biso   1.000  H  0.148431
  H68      1.0000 0.11480  0.65280  0.54250  Biso   1.000  H  0.156306
  H69      1.0000 0.21570  0.62100  0.52160  Biso   1.000  H  0.151092
  H70      1.0000 0.77540  0.71610  0.50010  Biso   1.000  H  0.152115
  H71      1.0000 0.73010  0.74430  0.53770  Biso   1.000  H  0.155072
  H72      1.0000 0.82210  0.77620  0.51630  Biso   1.000  H  0.162540
  H73      1.0000 0.31910  0.58540  0.60980  Biso   1.000  H  0.152191
  H74      1.0000 0.33730  0.61380  0.57310  Biso   1.000  H  0.160714
  H75      1.0000 0.28920  0.65070  0.60750  Biso   1.000  H  0.155408
  H76      1.0000 0.08820  0.02040  0.86980  Biso   1.000  H  0.107663
  H77      1.0000 0.21470  0.00130  0.68060  Biso   1.000  H  0.125965
  H78      1.0000 0.61740  0.72800  0.99970  Biso   1.000  H  0.146356
  H79      1.0000 0.65320  0.78800  0.98710  Biso   1.000  H  0.163603
  H80      1.0000 0.55390  0.75320  0.96730  Biso   1.000  H  0.151711
  H81      1.0000 0.50990  0.69100  0.57100  Biso   1.000  H  0.159761
  H82      1.0000 0.57600  0.70520  0.60760  Biso   1.000  H  0.152696
  H83      1.0000 0.45090  0.72600  0.60420  Biso   1.000  H  0.153661
  H84      1.0000 0.09330  0.38210  0.02820  Biso   1.000  H  0.097322
  H85      1.0000 0.75860  0.86880  0.60580  Biso   1.000  H  0.157742
  H86      1.0000 0.79640  0.90310  0.57300  Biso   1.000  H  0.162721
  H87      1.0000 0.78850  0.93470  0.61250  Biso   1.000  H  0.144302
  H88      1.0000 0.58330  0.70660  0.47830  Biso   1.000  H  0.141503
  H89      1.0000 0.50460  0.76070  0.47740  Biso   1.000  H  0.145931
  H90      1.0000 0.53530  0.73730  0.51480  Biso   1.000  H  0.163463
  H91      1.0000 0.60110  0.83280  0.53840  Biso   1.000  H  0.158185
  H92      1.0000 0.56920  0.85660  0.50120  Biso   1.000  H  0.146983
  H93      1.0000 0.69150  0.86540  0.51690  Biso   1.000  H  0.153660
  H94      1.0000 0.54180  0.44610  0.36490  Biso   1.000  H  0.111298
  H95      1.0000 0.50480  0.52860  0.81980  Biso   1.000  H  0.150573
  H96      1.0000 0.40830  0.86540  0.02000  Biso   1.000  H  0.148876
  H97      1.0000 0.42620  0.83730  0.98000  Biso   1.000  H  0.152805
  H98      1.0000 0.52360  0.87310  0.00020  Biso   1.000  H  0.150872
  H99      1.0000 0.88690  0.04430  0.48090  Biso   1.000  H  0.102876
  H100     1.0000 0.59390  0.57190  0.64840  Biso   1.000  H  0.116325
  H101     1.0000 0.04890  0.05120  0.38680  Biso   1.000  H  0.101711
  H102     1.0000 0.14640  0.71660  0.99370  Biso   1.000  H  0.162405
  H103     1.0000 0.11130  0.77860  0.01030  Biso   1.000  H  0.150884
  H104     1.0000 0.04630  0.74880  0.97650  Biso   1.000  H  0.159040
  H105     1.0000 0.51280  0.61850  0.04360  Biso   1.000  H  0.096512
  H106     1.0000 0.58040  0.53080  0.12960  Biso   1.000  H  0.112726
  H107     1.0000 0.09340  0.77550  0.49540  Biso   1.000  H  0.146036
  H108     1.0000 0.04780  0.74470  0.52860  Biso   1.000  H  0.161018
  H109     1.0000 0.02140  0.71900  0.48860  Biso   1.000  H  0.155710
  H110     1.0000 0.23940  0.94490  0.37170  Biso   1.000  H  0.114880
  H111     1.0000 0.00680  0.65800  0.41460  Biso   1.000  H  0.112173
  H112     1.0000 0.18120  0.87380  0.46510  Biso   1.000  H  0.097792
  H113     1.0000 0.04120  0.81970  0.59040  Biso   1.000  H  0.148550
  H114     1.0000 0.95510  0.83120  0.55950  Biso   1.000  H  0.159053
  H115     1.0000 0.91650  0.79780  0.59250  Biso   1.000  H  0.154296
  H116     1.0000 0.45270  0.46860  0.46970  Biso   1.000  H  0.085878
  H117     1.0000 0.92770  0.12050  0.37000  Biso   1.000  H  0.105897
  H118     1.0000 0.41940  0.90670  0.37120  Biso   1.000  H  0.098715
  H119     1.0000 0.09920  0.34010  0.08220  Biso   1.000  H  0.101441
  H120     1.0000 0.68170  0.63540  0.43820  Biso   1.000  H  0.094781
  H121     1.0000 0.42690  0.61640  0.66400  Biso   1.000  H  0.153615
  H122     1.0000 0.40610  0.68210  0.65960  Biso   1.000  H  0.157906
  H123     1.0000 0.52950  0.65880  0.66260  Biso   1.000  H  0.147356
  H124     1.0000 0.75590  0.57410  0.13380  Biso   1.000  H  0.103384
  H125     1.0000 0.22640  0.61090  0.85120  Biso   1.000  H  0.153905
  H126     1.0000 0.32980  0.65220  0.85920  Biso   1.000  H  0.151677
  H127     1.0000 0.20670  0.67660  0.86330  Biso   1.000  H  0.163161
  H128     1.0000 0.82610  0.69380  0.42560  Biso   1.000  H  0.092173
  H129     1.0000 0.05990  0.01410  0.93250  Biso   1.000  H  0.120871
  H130     1.0000 0.81720  0.63320  0.09050  Biso   1.000  H  0.108889
  H131     1.0000 0.65820  0.86390  0.93930  Biso   1.000  H  0.160364
  H132     1.0000 0.61710  0.81530  0.90990  Biso   1.000  H  0.154697
  H133     1.0000 0.63540  0.87840  0.89920  Biso   1.000  H  0.144322
  H134     1.0000 0.36210  0.83670  0.46400  Biso   1.000  H  0.099842
  H135     1.0000 0.78310  0.04830  0.03100  Biso   1.000  H  0.104733
  H136     1.0000 0.69040  0.65680  0.04690  Biso   1.000  H  0.098650
  H137     1.0000 0.67350  0.13170  0.03500  Biso   1.000  H  0.109547
  H138     1.0000 0.48930  0.85860  0.41850  Biso   1.000  H  0.110983
  H139     1.0000 0.82450  0.06750  0.13930  Biso   1.000  H  0.100932
  H140     1.0000 0.02430  0.86440  0.64860  Biso   1.000  H  0.150778
  H141     1.0000 0.89860  0.84420  0.65090  Biso   1.000  H  0.158135
  H142     1.0000 0.92900  0.90970  0.65910  Biso   1.000  H  0.149398
  H143     1.0000 0.24130  0.36420  0.12380  Biso   1.000  H  0.108382
  H144     1.0000 0.03910  0.56550  0.43230  Biso   1.000  H  0.089506
  H145     1.0000 0.01620  0.87630  0.05360  Biso   1.000  H  0.083395
  H146     1.0000 0.43650  0.36100  0.35800  Biso   1.000  H  0.109547
  H147     1.0000 0.96490  0.86770  0.38460  Biso   1.000  H  0.114559
  H148     1.0000 0.46760  0.59370  0.38830  Biso   1.000  H  0.122047
  H149     1.0000 0.76000  0.11200  0.46360  Biso   1.000  H  0.101263
  H150     1.0000 0.77300  0.14720  0.40680  Biso   1.000  H  0.104896
  H151     1.0000 0.35830  0.37980  0.46480  Biso   1.000  H  0.117234
  H152     1.0000 0.35030  0.33050  0.40840  Biso   1.000  H  0.091667
  H153     1.0000 0.66000  0.18810  0.09020  Biso   1.000  H  0.097977
  H154     1.0000 0.72350  0.15380  0.14430  Biso   1.000  H  0.115546
  H155     1.0000 0.32030  0.86060  0.10060  Biso   1.000  H  0.129397
  H156     1.0000 0.15630  0.82420  0.07250  Biso   1.000  H  0.077289
  H157     1.0000 0.30620  0.96230  0.11090  Biso   1.000  H  0.085116
  H158     1.0000 0.35110  0.77380  0.03740  Biso   1.000  H  0.154608
  H159     1.0000 0.42860  0.71930  0.02990  Biso   1.000  H  0.143106
  H160     1.0000 0.37090  0.74680  0.99730  Biso   1.000  H  0.163169
  H161     1.0000 0.19940  0.01130  0.07260  Biso   1.000  H  0.094157
  H162     1.0000 0.81330  0.38880  0.87720  Biso   1.000  H  0.109784
  H163     1.0000 0.98350  0.53090  0.94850  Biso   1.000  H  0.094417
  H164     1.0000 0.69920  0.31930  0.84950  Biso   1.000  H  0.126782
  H165     1.0000 0.03540  0.53850  0.07140  Biso   1.000  H  0.113838
  H166     1.0000 0.89160  0.43340  0.13770  Biso   1.000  H  0.115613
  H167     1.0000 0.89990  0.47360  0.89360  Biso   1.000  H  0.086874
  H168     1.0000 0.30840  0.18480  0.63920  Biso   1.000  H  0.130723
  H169     1.0000 0.20630  0.51890  0.55200  Biso   1.000  H  0.095868
  H170     1.0000 0.23560  0.50700  0.49060  Biso   1.000  H  0.105833
  H171     1.0000 0.28870  0.07330  0.87730  Biso   1.000  H  0.105085
  H172     1.0000 0.41440  0.00790  0.89020  Biso   1.000  H  0.089790
  H173     1.0000 0.55810  0.04910  0.60500  Biso   1.000  H  0.085842
  H174     1.0000 0.64440  0.98240  0.55360  Biso   1.000  H  0.094565
  H175     1.0000 0.64620  0.96530  0.49340  Biso   1.000  H  0.108516
  H176     1.0000 0.51240  0.97170  0.94660  Biso   1.000  H  0.083703
  H177     1.0000 0.10320  0.47040  0.60210  Biso   1.000  H  0.093513
  H178     1.0000 0.64180  0.25120  0.55600  Biso   1.000  H  0.114717
  H179     1.0000 0.08470  0.24840  0.57190  Biso   1.000  H  0.115042
  H180     1.0000 0.97790  0.24590  0.91720  Biso   1.000  H  0.120185
  H181     1.0000 0.85250  0.33060  0.62780  Biso   1.000  H  0.135704
  H182     1.0000 0.62550  0.22880  0.61480  Biso   1.000  H  0.105484
  H183     1.0000 0.59810  0.24210  0.81880  Biso   1.000  H  0.105169
  H184     1.0000 0.98270  0.53680  0.01090  Biso   1.000  H  0.103120
  H185     1.0000 0.25880  0.52200  0.42990  Biso   1.000  H  0.113600
  H186     1.0000 0.05310  0.26230  0.63850  Biso   1.000  H  0.118924
  H187     1.0000 0.53120  0.98850  0.00570  Biso   1.000  H  0.101089
  H188     1.0000 0.11310  0.53710  0.13190  Biso   1.000  H  0.107217
  H189     1.0000 0.97240  0.30250  0.87270  Biso   1.000  H  0.127895
  H190     1.0000 0.34490  0.25750  0.95240  Biso   1.000  H  0.155559
  H191     1.0000 0.36460  0.23660  0.99120  Biso   1.000  H  0.166545
  H192     1.0000 0.42720  0.20590  0.95720  Biso   1.000  H  0.147448
  H193     1.0000 0.15170  0.17550  0.67430  Biso   1.000  H  0.122518
  H194     1.0000 0.60800  0.41530  0.10060  Biso   1.000  H  0.142394
  H195     1.0000 0.58640  0.34960  0.08910  Biso   1.000  H  0.153022
  H196     1.0000 0.62990  0.39000  0.06020  Biso   1.000  H  0.158365
  H197     1.0000 0.44580  0.18200  0.85520  Biso   1.000  H  0.129752
  H198     1.0000 0.06790  0.21800  0.82620  Biso   1.000  H  0.116060
  H199     1.0000 0.18910  0.14970  0.85240  Biso   1.000  H  0.131815
  H200     1.0000 0.39940  0.35620  0.97910  Biso   1.000  H  0.147358
  H201     1.0000 0.51300  0.36510  0.00070  Biso   1.000  H  0.151893
  H202     1.0000 0.41530  0.32910  0.01630  Biso   1.000  H  0.163926
  H203     1.0000 0.30480  0.53790  0.37020  Biso   1.000  H  0.100610
  H204     1.0000 0.74590  0.28350  0.07590  Biso   1.000  H  0.155993
  H205     1.0000 0.86970  0.30710  0.07890  Biso   1.000  H  0.149961
  H206     1.0000 0.79200  0.32270  0.04670  Biso   1.000  H  0.159039
  H207     1.0000 0.39160  0.49630  0.56170  Biso   1.000  H  0.100993
  H208     1.0000 0.39740  0.10010  0.13860  Biso   1.000  H  0.120786
  H209     1.0000 0.58170  0.04890  0.35810  Biso   1.000  H  0.117181
  H210     1.0000 0.78190  0.26680  0.66800  Biso   1.000  H  0.150295
  H211     1.0000 0.40470  0.22110  0.08060  Biso   1.000  H  0.147047
  H212     1.0000 0.28330  0.24760  0.07970  Biso   1.000  H  0.151824
  H213     1.0000 0.32280  0.20160  0.04840  Biso   1.000  H  0.156313
  H214     1.0000 0.47130  0.23890  0.90680  Biso   1.000  H  0.113626
  H215     1.0000 0.18870  0.51120  0.24440  Biso   1.000  H  0.405973
  H216     1.0000 0.18880  0.48380  0.31330  Biso   1.000  H  0.129467
  H217     1.0000 0.76820  0.93540  0.37360  Biso   1.000  H  0.093156
  H218     1.0000 0.70410  0.95390  0.43270  Biso   1.000  H  0.112591
  H219     1.0000 0.72680  0.55140  0.98670  Biso   1.000  H  0.112720
  H220     1.0000 0.49570  0.05750  0.18310  Biso   1.000  H  0.143215
  H221     1.0000 0.79040  0.23120  0.47630  Biso   1.000  H  0.145614
  H222     1.0000 0.83260  0.29130  0.46560  Biso   1.000  H  0.166069
  H223     1.0000 0.73040  0.26070  0.44490  Biso   1.000  H  0.152575
  H224     1.0000 0.87820  0.57020  0.89010  Biso   1.000  H  0.110877
  H225     1.0000 0.35910  0.19490  0.14290  Biso   1.000  H  0.150592
  H226     1.0000 0.25260  0.15720  0.14940  Biso   1.000  H  0.151339
  H227     1.0000 0.23800  0.22070  0.13900  Biso   1.000  H  0.161306
  H228     1.0000 0.59800  0.37560  0.49760  Biso   1.000  H  0.148431
  H229     1.0000 0.61480  0.34720  0.45750  Biso   1.000  H  0.156307
  H230     1.0000 0.71570  0.37900  0.47840  Biso   1.000  H  0.151092
  H231     1.0000 0.27540  0.28390  0.49990  Biso   1.000  H  0.152115
  H232     1.0000 0.23010  0.25570  0.46230  Biso   1.000  H  0.155072
  H233     1.0000 0.32210  0.22380  0.48370  Biso   1.000  H  0.162541
  H234     1.0000 0.81910  0.41460  0.39020  Biso   1.000  H  0.152192
  H235     1.0000 0.83730  0.38620  0.42690  Biso   1.000  H  0.160715
  H236     1.0000 0.78920  0.34930  0.39250  Biso   1.000  H  0.155408
  H237     1.0000 0.58820  0.97960  0.13020  Biso   1.000  H  0.107663
  H238     1.0000 0.71470  0.99870  0.31940  Biso   1.000  H  0.125966
  H239     1.0000 0.11740  0.27200  0.00030  Biso   1.000  H  0.146356
  H240     1.0000 0.15320  0.21200  0.01290  Biso   1.000  H  0.163603
  H241     1.0000 0.05390  0.24680  0.03270  Biso   1.000  H  0.151711
  H242     1.0000 0.00990  0.30900  0.42900  Biso   1.000  H  0.159761
  H243     1.0000 0.07600  0.29480  0.39240  Biso   1.000  H  0.152698
  H244     1.0000 0.95090  0.27400  0.39580  Biso   1.000  H  0.153662
  H245     1.0000 0.59330  0.61790  0.97180  Biso   1.000  H  0.097322
  H246     1.0000 0.25860  0.13120  0.39420  Biso   1.000  H  0.157742
  H247     1.0000 0.29640  0.09690  0.42700  Biso   1.000  H  0.162721
  H248     1.0000 0.28850  0.06530  0.38750  Biso   1.000  H  0.144302
  H249     1.0000 0.08330  0.29340  0.52170  Biso   1.000  H  0.141503
  H250     1.0000 0.00460  0.23930  0.52260  Biso   1.000  H  0.145931
  H251     1.0000 0.03530  0.26270  0.48520  Biso   1.000  H  0.163462
  H252     1.0000 0.10110  0.16720  0.46160  Biso   1.000  H  0.158186
  H253     1.0000 0.06920  0.14340  0.49880  Biso   1.000  H  0.146983
  H254     1.0000 0.19150  0.13460  0.48310  Biso   1.000  H  0.153660
  H255     1.0000 0.04180  0.55390  0.63510  Biso   1.000  H  0.111296
  H256     1.0000 0.00480  0.47140  0.18020  Biso   1.000  H  0.150574
  H257     1.0000 0.90830  0.13460  0.98000  Biso   1.000  H  0.148876
  H258     1.0000 0.92620  0.16270  0.02000  Biso   1.000  H  0.152805
  H259     1.0000 0.02360  0.12690  0.99980  Biso   1.000  H  0.150872
  H260     1.0000 0.38690  0.95570  0.51910  Biso   1.000  H  0.102876
  H261     1.0000 0.09390  0.42810  0.35160  Biso   1.000  H  0.116324
  H262     1.0000 0.54890  0.94880  0.61320  Biso   1.000  H  0.101711
  H263     1.0000 0.64640  0.28340  0.00630  Biso   1.000  H  0.162405
  H264     1.0000 0.61130  0.22140  0.98970  Biso   1.000  H  0.150884
  H265     1.0000 0.54630  0.25120  0.02350  Biso   1.000  H  0.159040
  H266     1.0000 0.01280  0.38150  0.95640  Biso   1.000  H  0.096512
  H267     1.0000 0.08040  0.46920  0.87040  Biso   1.000  H  0.112726
  H268     1.0000 0.59340  0.22450  0.50460  Biso   1.000  H  0.146036
  H269     1.0000 0.54780  0.25530  0.47140  Biso   1.000  H  0.161019
  H270     1.0000 0.52140  0.28100  0.51140  Biso   1.000  H  0.155710
  H271     1.0000 0.73940  0.05510  0.62830  Biso   1.000  H  0.114881
  H272     1.0000 0.50680  0.34200  0.58540  Biso   1.000  H  0.112173
  H273     1.0000 0.68120  0.12620  0.53490  Biso   1.000  H  0.097792
  H274     1.0000 0.54120  0.18030  0.40960  Biso   1.000  H  0.148550
  H275     1.0000 0.45510  0.16880  0.44050  Biso   1.000  H  0.159052
  H276     1.0000 0.41650  0.20220  0.40750  Biso   1.000  H  0.154296
  H277     1.0000 0.95270  0.53140  0.53030  Biso   1.000  H  0.085878
  H278     1.0000 0.42770  0.87950  0.63000  Biso   1.000  H  0.105896
  H279     1.0000 0.91940  0.09330  0.62880  Biso   1.000  H  0.098715
  H280     1.0000 0.59920  0.65990  0.91780  Biso   1.000  H  0.101441
  H281     1.0000 0.18170  0.36460  0.56180  Biso   1.000  H  0.094781
  H282     1.0000 0.92690  0.38360  0.33600  Biso   1.000  H  0.153621
  H283     1.0000 0.90610  0.31790  0.34040  Biso   1.000  H  0.157911
  H284     1.0000 0.02950  0.34120  0.33740  Biso   1.000  H  0.147362
  H285     1.0000 0.25590  0.42590  0.86620  Biso   1.000  H  0.103384
  H286     1.0000 0.72640  0.38910  0.14880  Biso   1.000  H  0.153904
  H287     1.0000 0.82980  0.34780  0.14080  Biso   1.000  H  0.151676
  H288     1.0000 0.70670  0.32340  0.13670  Biso   1.000  H  0.163158
  H289     1.0000 0.32610  0.30620  0.57440  Biso   1.000  H  0.092173
  H290     1.0000 0.55990  0.98590  0.06750  Biso   1.000  H  0.120871
  H291     1.0000 0.31720  0.36680  0.90950  Biso   1.000  H  0.108889
  H292     1.0000 0.15820  0.13610  0.06070  Biso   1.000  H  0.160364
  H293     1.0000 0.11710  0.18470  0.09010  Biso   1.000  H  0.154698
  H294     1.0000 0.13540  0.12160  0.10080  Biso   1.000  H  0.144322
  H295     1.0000 0.86210  0.16330  0.53600  Biso   1.000  H  0.099841
  H296     1.0000 0.28310  0.95170  0.96900  Biso   1.000  H  0.104733
  H297     1.0000 0.19040  0.34320  0.95310  Biso   1.000  H  0.098650
  H298     1.0000 0.17350  0.86830  0.96500  Biso   1.000  H  0.109547
  H299     1.0000 0.98930  0.14140  0.58150  Biso   1.000  H  0.110984
  H300     1.0000 0.32450  0.93250  0.86070  Biso   1.000  H  0.100932
  H301     1.0000 0.52430  0.13560  0.35140  Biso   1.000  H  0.150774
  H302     1.0000 0.39860  0.15580  0.34910  Biso   1.000  H  0.158131
  H303     1.0000 0.42900  0.09030  0.34090  Biso   1.000  H  0.149396
  H304     1.0000 0.74130  0.63580  0.87620  Biso   1.000  H  0.108383
  H305     1.0000 0.53910  0.43450  0.56770  Biso   1.000  H  0.089507
  H306     1.0000 0.51620  0.12370  0.94640  Biso   1.000  H  0.083395
  H307     1.0000 0.93650  0.63900  0.64200  Biso   1.000  H  0.109547
  H308     1.0000 0.46490  0.13230  0.61540  Biso   1.000  H  0.114559
  H309     1.0000 0.96760  0.40630  0.61170  Biso   1.000  H  0.122048
  H310     1.0000 0.26000  0.88800  0.53640  Biso   1.000  H  0.101263
  H311     1.0000 0.27300  0.85280  0.59320  Biso   1.000  H  0.104896
  H312     1.0000 0.85830  0.62020  0.53520  Biso   1.000  H  0.117235
  H313     1.0000 0.85030  0.66950  0.59160  Biso   1.000  H  0.091667
  H314     1.0000 0.16000  0.81190  0.90980  Biso   1.000  H  0.097977
  H315     1.0000 0.22350  0.84620  0.85570  Biso   1.000  H  0.115547
  H316     1.0000 0.82030  0.13940  0.89940  Biso   1.000  H  0.129396
  H317     1.0000 0.65630  0.17580  0.92750  Biso   1.000  H  0.077288
  H318     1.0000 0.80620  0.03770  0.88910  Biso   1.000  H  0.085116
  H319     1.0000 0.85110  0.22620  0.96260  Biso   1.000  H  0.154608
  H320     1.0000 0.92860  0.28070  0.97010  Biso   1.000  H  0.143106
  H321     1.0000 0.87090  0.25320  0.00270  Biso   1.000  H  0.163169
  H322     1.0000 0.69940  0.98870  0.92740  Biso   1.000  H  0.094157
  N1       1.0000 0.32470  0.57900  0.07380  Biso   1.000  N  -0.221106
  N2       1.0000 0.39040  0.51590  0.01810  Biso   1.000  N  -0.216646
  N3       1.0000 0.05100  0.97670  0.48327  Biso   1.000  N  -0.209473
  N4       1.0000 0.98910  0.90530  0.43290  Biso   1.000  N  -0.220129
  N5       1.0000 0.50290  0.57170  0.43690  Biso   1.000  N  -0.224675
  N6       1.0000 0.62730  0.53800  0.48530  Biso   1.000  N  -0.216542
  N7       1.0000 0.81610  0.94300  0.07420  Biso   1.000  N  -0.212728
  N8       1.0000 0.93610  0.96710  0.02190  Biso   1.000  N  -0.213762
  N9       1.0000 0.82470  0.42100  0.92620  Biso   1.000  N  -0.221107
  N10      1.0000 0.89040  0.48410  0.98190  Biso   1.000  N  -0.216647
  N11      1.0000 0.55100  0.02330  0.51673  Biso   1.000  N  -0.209473
  N12      1.0000 0.48910  0.09470  0.56710  Biso   1.000  N  -0.220129
  N13      1.0000 0.00290  0.42830  0.56310  Biso   1.000  N  -0.224675
  N14      1.0000 0.12730  0.46200  0.51470  Biso   1.000  N  -0.216542
  N15      1.0000 0.31610  0.05700  0.92580  Biso   1.000  N  -0.212728
  N16      1.0000 0.43610  0.03290  0.97810  Biso   1.000  N  -0.213762
  Ni1      1.0000 0.50220  0.58410  0.48633  Biso   1.000  Ni  0.465268
  Ni2      1.0000 0.95881  0.91395  0.48199  Biso   1.000  Ni  0.454610
  Ni3      1.0000 0.29172  0.57815  0.02446  Biso   1.000  Ni  0.437663
  Ni4      1.0000 0.81345  0.91997  0.02515  Biso   1.000  Ni  0.445533
  Ni5      1.0000 0.00220  0.41590  0.51367  Biso   1.000  Ni  0.465268
  Ni6      1.0000 0.45881  0.08605  0.51801  Biso   1.000  Ni  0.454609
  Ni7      1.0000 0.79172  0.42185  0.97554  Biso   1.000  Ni  0.437663
  Ni8      1.0000 0.31345  0.08003  0.97485  Biso   1.000  Ni  0.445532
  O1       1.0000 0.18460  0.63540  0.03118  Biso   1.000  O  -0.392337
  O2       1.0000 0.27410  0.58290  0.97453  Biso   1.000  O  -0.384010
  O3       1.0000 0.85400  0.85360  0.48036  Biso   1.000  O  -0.410094
  O4       1.0000 0.19860  0.80070  0.28760  Biso   1.000  O  -0.612543
  O5       1.0000 0.80070  0.46180  0.73210  Biso   1.000  O  -0.621650
  O6       1.0000 0.46360  0.71650  0.21334  Biso   1.000  O  -0.602304
  O7       1.0000 0.72920  0.45340  0.81090  Biso   1.000  O  -0.503934
  O8       1.0000 0.94480  0.91770  0.53154  Biso   1.000  O  -0.397446
  O9       1.0000 0.41970  0.63870  0.17730  Biso   1.000  O  -0.573906
  O10      1.0000 0.06610  0.81430  0.32860  Biso   1.000  O  -0.554971
  O11      1.0000 0.45960  0.73510  0.29929  Biso   1.000  O  -0.600772
  O12      1.0000 0.37540  0.62920  0.48642  Biso   1.000  O  -0.385389
  O13      1.0000 0.49990  0.59830  0.53712  Biso   1.000  O  -0.420667
  O14      1.0000 0.49300  0.81700  0.27740  Biso   1.000  O  -0.607740
  O15      1.0000 0.04460  0.84900  0.22373  Biso   1.000  O  -0.613549
  O16      1.0000 0.13570  0.98430  0.77100  Biso   1.000  O  -0.563521
  O17      1.0000 0.88470  0.87770  0.19890  Biso   1.000  O  -0.617466
  O18      1.0000 0.69200  0.87380  0.02879  Biso   1.000  O  -0.406373
  O19      1.0000 0.81250  0.89470  0.97621  Biso   1.000  O  -0.378714
  O20      1.0000 0.37480  0.04930  0.72021  Biso   1.000  O  -0.626830
  O21      1.0000 0.90010  0.43290  0.68260  Biso   1.000  O  -0.593547
  O22      1.0000 0.63600  0.50040  0.76870  Biso   1.000  O  -0.574636
  O23      1.0000 0.39820  0.09490  0.67440  Biso   1.000  O  -0.547721
  O24      1.0000 0.18060  0.04480  0.81670  Biso   1.000  O  -0.604967
  O25      1.0000 0.68460  0.36460  0.96882  Biso   1.000  O  -0.392337
  O26      1.0000 0.77410  0.41710  0.02547  Biso   1.000  O  -0.384010
  O27      1.0000 0.35400  0.14640  0.51964  Biso   1.000  O  -0.410094
  O28      1.0000 0.69860  0.19930  0.71240  Biso   1.000  O  -0.612543
  O29      1.0000 0.30070  0.53820  0.26790  Biso   1.000  O  -0.621650
  O30      1.0000 0.96360  0.28350  0.78666  Biso   1.000  O  -0.602303
  O31      1.0000 0.22920  0.54660  0.18910  Biso   1.000  O  -0.503934
  O32      1.0000 0.44480  0.08230  0.46846  Biso   1.000  O  -0.397446
  O33      1.0000 0.91970  0.36130  0.82270  Biso   1.000  O  -0.573905
  O34      1.0000 0.56610  0.18570  0.67140  Biso   1.000  O  -0.554971
  O35      1.0000 0.95960  0.26490  0.70071  Biso   1.000  O  -0.600772
  O36      1.0000 0.87540  0.37080  0.51358  Biso   1.000  O  -0.385390
  O37      1.0000 0.99990  0.40170  0.46288  Biso   1.000  O  -0.420667
  O38      1.0000 0.99300  0.18300  0.72260  Biso   1.000  O  -0.607739
  O39      1.0000 0.54460  0.15100  0.77627  Biso   1.000  O  -0.613549
  O40      1.0000 0.63570  0.01570  0.22900  Biso   1.000  O  -0.563522
  O41      1.0000 0.38470  0.12230  0.80110  Biso   1.000  O  -0.617466
  O42      1.0000 0.19200  0.12620  0.97121  Biso   1.000  O  -0.406374
  O43      1.0000 0.31250  0.10530  0.02379  Biso   1.000  O  -0.378714
  O44      1.0000 0.87480  0.95070  0.27979  Biso   1.000  O  -0.626829
  O45      1.0000 0.40010  0.56710  0.31740  Biso   1.000  O  -0.593545
  O46      1.0000 0.13600  0.49960  0.23130  Biso   1.000  O  -0.574635
  O47      1.0000 0.89820  0.90510  0.32560  Biso   1.000  O  -0.547720
  O48      1.0000 0.68060  0.95520  0.18330  Biso   1.000  O  -0.604967
