data_image0
_cell_length_a       20.5333
_cell_length_b       20.5333
_cell_length_c       50.8055
_cell_angle_alpha    90
_cell_angle_beta     90
_cell_angle_gamma    120

_symmetry_space_group_name_H-M    "P 1"
_symmetry_int_tables_number       1

loop_
  _symmetry_equiv_pos_as_xyz
  'x, y, z'

loop_
  _atom_site_label
  _atom_site_occupancy
  _atom_site_fract_x
  _atom_site_fract_y
  _atom_site_fract_z
  _atom_site_thermal_displace_type
  _atom_site_B_iso_or_equiv
  _atom_site_type_symbol
  _atom_site_charge
  C1       1.0000 0.52350  0.58690  0.31684  Biso   1.000  C  -0.527484
  C2       1.0000 0.41310  0.93660  0.31684  Biso   1.000  C  -0.527479
  C3       1.0000 0.06340  0.47650  0.31684  Biso   1.000  C  -0.527480
  C4       1.0000 0.58690  0.52350  0.18316  Biso   1.000  C  -0.527463
  C5       1.0000 0.93660  0.41310  0.18316  Biso   1.000  C  -0.527459
  C6       1.0000 0.47650  0.06340  0.18316  Biso   1.000  C  -0.527459
  C7       1.0000 0.19017  0.92023  0.65017  Biso   1.000  C  -0.527528
  C8       1.0000 0.07977  0.26993  0.65017  Biso   1.000  C  -0.527441
  C9       1.0000 0.73007  0.80983  0.65017  Biso   1.000  C  -0.527492
  C10      1.0000 0.25357  0.85683  0.51649  Biso   1.000  C  -0.527567
  C11      1.0000 0.60327  0.74643  0.51649  Biso   1.000  C  -0.527668
  C12      1.0000 0.14317  0.39673  0.51649  Biso   1.000  C  -0.527484
  C13      1.0000 0.85683  0.25357  0.98351  Biso   1.000  C  -0.527566
  C14      1.0000 0.74643  0.60327  0.98351  Biso   1.000  C  -0.527667
  C15      1.0000 0.39673  0.14317  0.98351  Biso   1.000  C  -0.527483
  C16      1.0000 0.92023  0.19017  0.84983  Biso   1.000  C  -0.527528
  C17      1.0000 0.26993  0.07977  0.84983  Biso   1.000  C  -0.527442
  C18      1.0000 0.80983  0.73007  0.84983  Biso   1.000  C  -0.527493
  C19      1.0000 0.47650  0.41310  0.68316  Biso   1.000  C  -0.527463
  C20      1.0000 0.58690  0.06340  0.68316  Biso   1.000  C  -0.527459
  C21      1.0000 0.93660  0.52350  0.68316  Biso   1.000  C  -0.527459
  C22      1.0000 0.41310  0.47650  0.81684  Biso   1.000  C  -0.527484
  C23      1.0000 0.06340  0.58690  0.81684  Biso   1.000  C  -0.527479
  C24      1.0000 0.52350  0.93660  0.81684  Biso   1.000  C  -0.527480
  C25      1.0000 0.14317  0.74643  0.01649  Biso   1.000  C  -0.527567
  C26      1.0000 0.25357  0.39673  0.01649  Biso   1.000  C  -0.527668
  C27      1.0000 0.60327  0.85683  0.01649  Biso   1.000  C  -0.527484
  C28      1.0000 0.07977  0.80983  0.15017  Biso   1.000  C  -0.527527
  C29      1.0000 0.73007  0.92023  0.15017  Biso   1.000  C  -0.527441
  C30      1.0000 0.19017  0.26993  0.15017  Biso   1.000  C  -0.527492
  C31      1.0000 0.80983  0.07977  0.34983  Biso   1.000  C  -0.527529
  C32      1.0000 0.92023  0.73007  0.34983  Biso   1.000  C  -0.527442
  C33      1.0000 0.26993  0.19017  0.34983  Biso   1.000  C  -0.527493
  C34      1.0000 0.74643  0.14317  0.48351  Biso   1.000  C  -0.527566
  C35      1.0000 0.39673  0.25357  0.48351  Biso   1.000  C  -0.527667
  C36      1.0000 0.85683  0.60327  0.48351  Biso   1.000  C  -0.527483
  C37      1.0000 0.58730  0.58440  0.30437  Biso   1.000  C  0.223618
  C38      1.0000 0.41560  0.00290  0.30437  Biso   1.000  C  0.223621
  C39      1.0000 0.99710  0.41270  0.30437  Biso   1.000  C  0.223611
  C40      1.0000 0.58440  0.58730  0.19563  Biso   1.000  C  0.223674
  C41      1.0000 0.00290  0.41560  0.19563  Biso   1.000  C  0.223671
  C42      1.0000 0.41270  0.99710  0.19563  Biso   1.000  C  0.223675
  C43      1.0000 0.25397  0.91773  0.63770  Biso   1.000  C  0.223673
  C44      1.0000 0.08227  0.33623  0.63770  Biso   1.000  C  0.223667
  C45      1.0000 0.66377  0.74603  0.63770  Biso   1.000  C  0.223633
  C46      1.0000 0.25107  0.92063  0.52896  Biso   1.000  C  0.223637
  C47      1.0000 0.66957  0.74893  0.52896  Biso   1.000  C  0.223672
  C48      1.0000 0.07937  0.33043  0.52896  Biso   1.000  C  0.223718
  C49      1.0000 0.92063  0.25107  0.97104  Biso   1.000  C  0.223646
  C50      1.0000 0.74893  0.66957  0.97104  Biso   1.000  C  0.223682
  C51      1.0000 0.33043  0.07937  0.97104  Biso   1.000  C  0.223728
  C52      1.0000 0.91773  0.25397  0.86230  Biso   1.000  C  0.223668
  C53      1.0000 0.33623  0.08227  0.86230  Biso   1.000  C  0.223662
  C54      1.0000 0.74603  0.66377  0.86230  Biso   1.000  C  0.223629
  C55      1.0000 0.41270  0.41560  0.69563  Biso   1.000  C  0.223674
  C56      1.0000 0.58440  0.99710  0.69563  Biso   1.000  C  0.223671
  C57      1.0000 0.00290  0.58730  0.69563  Biso   1.000  C  0.223675
  C58      1.0000 0.41560  0.41270  0.80437  Biso   1.000  C  0.223618
  C59      1.0000 0.99710  0.58440  0.80437  Biso   1.000  C  0.223621
  C60      1.0000 0.58730  0.00290  0.80437  Biso   1.000  C  0.223611
  C61      1.0000 0.07937  0.74893  0.02896  Biso   1.000  C  0.223636
  C62      1.0000 0.25107  0.33043  0.02896  Biso   1.000  C  0.223672
  C63      1.0000 0.66957  0.92063  0.02896  Biso   1.000  C  0.223718
  C64      1.0000 0.08227  0.74603  0.13770  Biso   1.000  C  0.223673
  C65      1.0000 0.66377  0.91773  0.13770  Biso   1.000  C  0.223666
  C66      1.0000 0.25397  0.33623  0.13770  Biso   1.000  C  0.223633
  C67      1.0000 0.74603  0.08227  0.36230  Biso   1.000  C  0.223669
  C68      1.0000 0.91773  0.66377  0.36230  Biso   1.000  C  0.223662
  C69      1.0000 0.33623  0.25397  0.36230  Biso   1.000  C  0.223629
  C70      1.0000 0.74893  0.07937  0.47104  Biso   1.000  C  0.223646
  C71      1.0000 0.33043  0.25107  0.47104  Biso   1.000  C  0.223682
  C72      1.0000 0.92063  0.66957  0.47104  Biso   1.000  C  0.223728
  C73      1.0000 0.65920  0.60620  0.31458  Biso   1.000  C  -0.163878
  C74      1.0000 0.39380  0.05300  0.31458  Biso   1.000  C  -0.163877
  C75      1.0000 0.94700  0.34080  0.31458  Biso   1.000  C  -0.163876
  C76      1.0000 0.60620  0.65920  0.18542  Biso   1.000  C  -0.163919
  C77      1.0000 0.05300  0.39380  0.18542  Biso   1.000  C  -0.163919
  C78      1.0000 0.34080  0.94700  0.18542  Biso   1.000  C  -0.163917
  C79      1.0000 0.32587  0.93953  0.64791  Biso   1.000  C  -0.163830
  C80      1.0000 0.06047  0.38633  0.64791  Biso   1.000  C  -0.163846
  C81      1.0000 0.61367  0.67413  0.64791  Biso   1.000  C  -0.163885
  C82      1.0000 0.27287  0.99253  0.51875  Biso   1.000  C  -0.163881
  C83      1.0000 0.71967  0.72713  0.51875  Biso   1.000  C  -0.163907
  C84      1.0000 0.00747  0.28033  0.51875  Biso   1.000  C  -0.163979
  C85      1.0000 0.99253  0.27287  0.98125  Biso   1.000  C  -0.163855
  C86      1.0000 0.72713  0.71967  0.98125  Biso   1.000  C  -0.163881
  C87      1.0000 0.28033  0.00747  0.98125  Biso   1.000  C  -0.163953
  C88      1.0000 0.93953  0.32587  0.85209  Biso   1.000  C  -0.163866
  C89      1.0000 0.38633  0.06047  0.85209  Biso   1.000  C  -0.163881
  C90      1.0000 0.67413  0.61367  0.85209  Biso   1.000  C  -0.163921
  C91      1.0000 0.34080  0.39380  0.68542  Biso   1.000  C  -0.163919
  C92      1.0000 0.60620  0.94700  0.68542  Biso   1.000  C  -0.163919
  C93      1.0000 0.05300  0.65920  0.68542  Biso   1.000  C  -0.163917
  C94      1.0000 0.39380  0.34080  0.81458  Biso   1.000  C  -0.163878
  C95      1.0000 0.94700  0.60620  0.81458  Biso   1.000  C  -0.163877
  C96      1.0000 0.65920  0.05300  0.81458  Biso   1.000  C  -0.163876
  C97      1.0000 0.00747  0.72713  0.01875  Biso   1.000  C  -0.163881
  C98      1.0000 0.27287  0.28033  0.01875  Biso   1.000  C  -0.163907
  C99      1.0000 0.71967  0.99253  0.01875  Biso   1.000  C  -0.163979
  C100     1.0000 0.06047  0.67413  0.14791  Biso   1.000  C  -0.163830
  C101     1.0000 0.61367  0.93953  0.14791  Biso   1.000  C  -0.163846
  C102     1.0000 0.32587  0.38633  0.14791  Biso   1.000  C  -0.163885
  C103     1.0000 0.67413  0.06047  0.35209  Biso   1.000  C  -0.163866
  C104     1.0000 0.93953  0.61367  0.35209  Biso   1.000  C  -0.163881
  C105     1.0000 0.38633  0.32587  0.35209  Biso   1.000  C  -0.163921
  C106     1.0000 0.72713  0.00747  0.48125  Biso   1.000  C  -0.163855
  C107     1.0000 0.28033  0.27287  0.48125  Biso   1.000  C  -0.163881
  C108     1.0000 0.99253  0.71967  0.48125  Biso   1.000  C  -0.163953
  C109     1.0000 0.69740  0.59380  0.29476  Biso   1.000  C  0.226367
  C110     1.0000 0.40620  0.10360  0.29476  Biso   1.000  C  0.226368
  C111     1.0000 0.89640  0.30260  0.29476  Biso   1.000  C  0.226368
  C112     1.0000 0.59380  0.69740  0.20524  Biso   1.000  C  0.226291
  C113     1.0000 0.10360  0.40620  0.20524  Biso   1.000  C  0.226291
  C114     1.0000 0.30260  0.89640  0.20524  Biso   1.000  C  0.226292
  C115     1.0000 0.36407  0.92713  0.62809  Biso   1.000  C  0.226214
  C116     1.0000 0.07287  0.43693  0.62809  Biso   1.000  C  0.226149
  C117     1.0000 0.56307  0.63593  0.62809  Biso   1.000  C  0.226318
  C118     1.0000 0.26047  0.03073  0.53857  Biso   1.000  C  0.226379
  C119     1.0000 0.77027  0.73953  0.53857  Biso   1.000  C  0.226528
  C120     1.0000 0.96927  0.22973  0.53857  Biso   1.000  C  0.226475
  C121     1.0000 0.03073  0.26047  0.96143  Biso   1.000  C  0.226379
  C122     1.0000 0.73953  0.77027  0.96143  Biso   1.000  C  0.226529
  C123     1.0000 0.22973  0.96927  0.96143  Biso   1.000  C  0.226476
  C124     1.0000 0.92713  0.36407  0.87191  Biso   1.000  C  0.226213
  C125     1.0000 0.43693  0.07287  0.87191  Biso   1.000  C  0.226150
  C126     1.0000 0.63593  0.56307  0.87191  Biso   1.000  C  0.226319
  C127     1.0000 0.30260  0.40620  0.70524  Biso   1.000  C  0.226291
  C128     1.0000 0.59380  0.89640  0.70524  Biso   1.000  C  0.226291
  C129     1.0000 0.10360  0.69740  0.70524  Biso   1.000  C  0.226292
  C130     1.0000 0.40620  0.30260  0.79476  Biso   1.000  C  0.226367
  C131     1.0000 0.89640  0.59380  0.79476  Biso   1.000  C  0.226368
  C132     1.0000 0.69740  0.10360  0.79476  Biso   1.000  C  0.226368
  C133     1.0000 0.96927  0.73953  0.03857  Biso   1.000  C  0.226379
  C134     1.0000 0.26047  0.22973  0.03857  Biso   1.000  C  0.226528
  C135     1.0000 0.77027  0.03073  0.03857  Biso   1.000  C  0.226475
  C136     1.0000 0.07287  0.63593  0.12809  Biso   1.000  C  0.226212
  C137     1.0000 0.56307  0.92713  0.12809  Biso   1.000  C  0.226149
  C138     1.0000 0.36407  0.43693  0.12809  Biso   1.000  C  0.226318
  C139     1.0000 0.63593  0.07287  0.37191  Biso   1.000  C  0.226215
  C140     1.0000 0.92713  0.56307  0.37191  Biso   1.000  C  0.226150
  C141     1.0000 0.43693  0.36407  0.37191  Biso   1.000  C  0.226319
  C142     1.0000 0.73953  0.96927  0.46143  Biso   1.000  C  0.226379
  C143     1.0000 0.22973  0.26047  0.46143  Biso   1.000  C  0.226529
  C144     1.0000 0.03073  0.77027  0.46143  Biso   1.000  C  0.226476
  C145     1.0000 0.77530  0.60570  0.29333  Biso   1.000  C  -0.524469
  C146     1.0000 0.39430  0.16960  0.29333  Biso   1.000  C  -0.524468
  C147     1.0000 0.83040  0.22470  0.29333  Biso   1.000  C  -0.524470
  C148     1.0000 0.60570  0.77530  0.20667  Biso   1.000  C  -0.524472
  C149     1.0000 0.16960  0.39430  0.20667  Biso   1.000  C  -0.524472
  C150     1.0000 0.22470  0.83040  0.20667  Biso   1.000  C  -0.524474
  C151     1.0000 0.44197  0.93903  0.62666  Biso   1.000  C  -0.524551
  C152     1.0000 0.06097  0.50293  0.62666  Biso   1.000  C  -0.524446
  C153     1.0000 0.49707  0.55803  0.62666  Biso   1.000  C  -0.524620
  C154     1.0000 0.27237  0.10863  0.54000  Biso   1.000  C  -0.524397
  C155     1.0000 0.83627  0.72763  0.54000  Biso   1.000  C  -0.524465
  C156     1.0000 0.89137  0.16373  0.54000  Biso   1.000  C  -0.524442
  C157     1.0000 0.10863  0.27237  0.96000  Biso   1.000  C  -0.524397
  C158     1.0000 0.72763  0.83627  0.96000  Biso   1.000  C  -0.524465
  C159     1.0000 0.16373  0.89137  0.96000  Biso   1.000  C  -0.524442
  C160     1.0000 0.93903  0.44197  0.87334  Biso   1.000  C  -0.524551
  C161     1.0000 0.50293  0.06097  0.87334  Biso   1.000  C  -0.524446
  C162     1.0000 0.55803  0.49707  0.87334  Biso   1.000  C  -0.524620
  C163     1.0000 0.22470  0.39430  0.70667  Biso   1.000  C  -0.524472
  C164     1.0000 0.60570  0.83040  0.70667  Biso   1.000  C  -0.524472
  C165     1.0000 0.16960  0.77530  0.70667  Biso   1.000  C  -0.524474
  C166     1.0000 0.39430  0.22470  0.79333  Biso   1.000  C  -0.524469
  C167     1.0000 0.83040  0.60570  0.79333  Biso   1.000  C  -0.524468
  C168     1.0000 0.77530  0.16960  0.79333  Biso   1.000  C  -0.524470
  C169     1.0000 0.89137  0.72763  0.04000  Biso   1.000  C  -0.524397
  C170     1.0000 0.27237  0.16373  0.04000  Biso   1.000  C  -0.524465
  C171     1.0000 0.83627  0.10863  0.04000  Biso   1.000  C  -0.524442
  C172     1.0000 0.06097  0.55803  0.12666  Biso   1.000  C  -0.524551
  C173     1.0000 0.49707  0.93903  0.12666  Biso   1.000  C  -0.524446
  C174     1.0000 0.44197  0.50293  0.12666  Biso   1.000  C  -0.524620
  C175     1.0000 0.55803  0.06097  0.37334  Biso   1.000  C  -0.524551
  C176     1.0000 0.93903  0.49707  0.37334  Biso   1.000  C  -0.524446
  C177     1.0000 0.50293  0.44197  0.37334  Biso   1.000  C  -0.524620
  C178     1.0000 0.72763  0.89137  0.46000  Biso   1.000  C  -0.524397
  C179     1.0000 0.16373  0.27237  0.46000  Biso   1.000  C  -0.524465
  C180     1.0000 0.10863  0.83627  0.46000  Biso   1.000  C  -0.524442
  C181     1.0000 0.68910  0.63650  0.34119  Biso   1.000  C  -0.175567
  C182     1.0000 0.36350  0.05260  0.34119  Biso   1.000  C  -0.175568
  C183     1.0000 0.94740  0.31090  0.34119  Biso   1.000  C  -0.175568
  C184     1.0000 0.63650  0.68910  0.15881  Biso   1.000  C  -0.175538
  C185     1.0000 0.05260  0.36350  0.15881  Biso   1.000  C  -0.175538
  C186     1.0000 0.31090  0.94740  0.15881  Biso   1.000  C  -0.175539
  C187     1.0000 0.35577  0.96983  0.67452  Biso   1.000  C  -0.175592
  C188     1.0000 0.03017  0.38593  0.67452  Biso   1.000  C  -0.175596
  C189     1.0000 0.61407  0.64423  0.67452  Biso   1.000  C  -0.175528
  C190     1.0000 0.30317  0.02243  0.49214  Biso   1.000  C  -0.175514
  C191     1.0000 0.71927  0.69683  0.49214  Biso   1.000  C  -0.175513
  C192     1.0000 0.97757  0.28073  0.49214  Biso   1.000  C  -0.175501
  C193     1.0000 0.02243  0.30317  0.00786  Biso   1.000  C  -0.175539
  C194     1.0000 0.69683  0.71927  0.00786  Biso   1.000  C  -0.175537
  C195     1.0000 0.28073  0.97757  0.00786  Biso   1.000  C  -0.175525
  C196     1.0000 0.96983  0.35577  0.82548  Biso   1.000  C  -0.175548
  C197     1.0000 0.38593  0.03017  0.82548  Biso   1.000  C  -0.175552
  C198     1.0000 0.64423  0.61407  0.82548  Biso   1.000  C  -0.175485
  C199     1.0000 0.31090  0.36350  0.65881  Biso   1.000  C  -0.175538
  C200     1.0000 0.63650  0.94740  0.65881  Biso   1.000  C  -0.175538
  C201     1.0000 0.05260  0.68910  0.65881  Biso   1.000  C  -0.175539
  C202     1.0000 0.36350  0.31090  0.84119  Biso   1.000  C  -0.175567
  C203     1.0000 0.94740  0.63650  0.84119  Biso   1.000  C  -0.175567
  C204     1.0000 0.68910  0.05260  0.84119  Biso   1.000  C  -0.175568
  C205     1.0000 0.97757  0.69683  0.99214  Biso   1.000  C  -0.175514
  C206     1.0000 0.30317  0.28073  0.99214  Biso   1.000  C  -0.175513
  C207     1.0000 0.71927  0.02243  0.99214  Biso   1.000  C  -0.175501
  C208     1.0000 0.03017  0.64423  0.17452  Biso   1.000  C  -0.175592
  C209     1.0000 0.61407  0.96983  0.17452  Biso   1.000  C  -0.175596
  C210     1.0000 0.35577  0.38593  0.17452  Biso   1.000  C  -0.175529
  C211     1.0000 0.64423  0.03017  0.32548  Biso   1.000  C  -0.175548
  C212     1.0000 0.96983  0.61407  0.32548  Biso   1.000  C  -0.175552
  C213     1.0000 0.38593  0.35577  0.32548  Biso   1.000  C  -0.175485
  C214     1.0000 0.69683  0.97757  0.50786  Biso   1.000  C  -0.175539
  C215     1.0000 0.28073  0.30317  0.50786  Biso   1.000  C  -0.175537
  C216     1.0000 0.02243  0.71927  0.50786  Biso   1.000  C  -0.175525
  C217     1.0000 0.70180  0.70480  0.35124  Biso   1.000  C  0.230620
  C218     1.0000 0.29520  0.99700  0.35124  Biso   1.000  C  0.230619
  C219     1.0000 0.00300  0.29820  0.35124  Biso   1.000  C  0.230618
  C220     1.0000 0.70480  0.70180  0.14876  Biso   1.000  C  0.230614
  C221     1.0000 0.99700  0.29520  0.14876  Biso   1.000  C  0.230613
  C222     1.0000 0.29820  0.00300  0.14876  Biso   1.000  C  0.230612
  C223     1.0000 0.36847  0.03813  0.68457  Biso   1.000  C  0.230629
  C224     1.0000 0.96187  0.33033  0.68457  Biso   1.000  C  0.230672
  C225     1.0000 0.66967  0.63153  0.68457  Biso   1.000  C  0.230644
  C226     1.0000 0.37147  0.03513  0.48209  Biso   1.000  C  0.230676
  C227     1.0000 0.66367  0.62853  0.48209  Biso   1.000  C  0.230615
  C228     1.0000 0.96487  0.33633  0.48209  Biso   1.000  C  0.230710
  C229     1.0000 0.03513  0.37147  0.01791  Biso   1.000  C  0.230669
  C230     1.0000 0.62853  0.66367  0.01791  Biso   1.000  C  0.230609
  C231     1.0000 0.33633  0.96487  0.01791  Biso   1.000  C  0.230703
  C232     1.0000 0.03813  0.36847  0.81543  Biso   1.000  C  0.230706
  C233     1.0000 0.33033  0.96187  0.81543  Biso   1.000  C  0.230750
  C234     1.0000 0.63153  0.66967  0.81543  Biso   1.000  C  0.230722
  C235     1.0000 0.29820  0.29520  0.64876  Biso   1.000  C  0.230614
  C236     1.0000 0.70480  0.00300  0.64876  Biso   1.000  C  0.230613
  C237     1.0000 0.99700  0.70180  0.64876  Biso   1.000  C  0.230612
  C238     1.0000 0.29520  0.29820  0.85124  Biso   1.000  C  0.230620
  C239     1.0000 0.00300  0.70480  0.85124  Biso   1.000  C  0.230619
  C240     1.0000 0.70180  0.99700  0.85124  Biso   1.000  C  0.230618
  C241     1.0000 0.96487  0.62853  0.98209  Biso   1.000  C  0.230676
  C242     1.0000 0.37147  0.33633  0.98209  Biso   1.000  C  0.230615
  C243     1.0000 0.66367  0.03513  0.98209  Biso   1.000  C  0.230710
  C244     1.0000 0.96187  0.63153  0.18457  Biso   1.000  C  0.230629
  C245     1.0000 0.66967  0.03813  0.18457  Biso   1.000  C  0.230672
  C246     1.0000 0.36847  0.33033  0.18457  Biso   1.000  C  0.230644
  C247     1.0000 0.63153  0.96187  0.31543  Biso   1.000  C  0.230706
  C248     1.0000 0.03813  0.66967  0.31543  Biso   1.000  C  0.230750
  C249     1.0000 0.33033  0.36847  0.31543  Biso   1.000  C  0.230721
  C250     1.0000 0.62853  0.96487  0.51791  Biso   1.000  C  0.230669
  C251     1.0000 0.33633  0.37147  0.51791  Biso   1.000  C  0.230609
  C252     1.0000 0.03513  0.66367  0.51791  Biso   1.000  C  0.230703
  C253     1.0000 0.69090  0.76520  0.33960  Biso   1.000  C  -0.525732
  C254     1.0000 0.23480  0.92570  0.33960  Biso   1.000  C  -0.525735
  C255     1.0000 0.07430  0.30910  0.33960  Biso   1.000  C  -0.525730
  C256     1.0000 0.76520  0.69090  0.16040  Biso   1.000  C  -0.525730
  C257     1.0000 0.92570  0.23480  0.16040  Biso   1.000  C  -0.525734
  C258     1.0000 0.30910  0.07430  0.16040  Biso   1.000  C  -0.525729
  C259     1.0000 0.35757  0.09853  0.67293  Biso   1.000  C  -0.525766
  C260     1.0000 0.90147  0.25903  0.67293  Biso   1.000  C  -0.525863
  C261     1.0000 0.74097  0.64243  0.67293  Biso   1.000  C  -0.525951
  C262     1.0000 0.43187  0.02423  0.49373  Biso   1.000  C  -0.525814
  C263     1.0000 0.59237  0.56813  0.49373  Biso   1.000  C  -0.525688
  C264     1.0000 0.97577  0.40763  0.49373  Biso   1.000  C  -0.525761
  C265     1.0000 0.02423  0.43187  0.00627  Biso   1.000  C  -0.525815
  C266     1.0000 0.56813  0.59237  0.00627  Biso   1.000  C  -0.525688
  C267     1.0000 0.40763  0.97577  0.00627  Biso   1.000  C  -0.525762
  C268     1.0000 0.09853  0.35757  0.82707  Biso   1.000  C  -0.525762
  C269     1.0000 0.25903  0.90147  0.82707  Biso   1.000  C  -0.525858
  C270     1.0000 0.64243  0.74097  0.82707  Biso   1.000  C  -0.525946
  C271     1.0000 0.30910  0.23480  0.66040  Biso   1.000  C  -0.525730
  C272     1.0000 0.76520  0.07430  0.66040  Biso   1.000  C  -0.525734
  C273     1.0000 0.92570  0.69090  0.66040  Biso   1.000  C  -0.525729
  C274     1.0000 0.23480  0.30910  0.83960  Biso   1.000  C  -0.525732
  C275     1.0000 0.07430  0.76520  0.83960  Biso   1.000  C  -0.525735
  C276     1.0000 0.69090  0.92570  0.83960  Biso   1.000  C  -0.525730
  C277     1.0000 0.97577  0.56813  0.99373  Biso   1.000  C  -0.525814
  C278     1.0000 0.43187  0.40763  0.99373  Biso   1.000  C  -0.525688
  C279     1.0000 0.59237  0.02423  0.99373  Biso   1.000  C  -0.525761
  C280     1.0000 0.90147  0.64243  0.17293  Biso   1.000  C  -0.525766
  C281     1.0000 0.74097  0.09853  0.17293  Biso   1.000  C  -0.525862
  C282     1.0000 0.35757  0.25903  0.17293  Biso   1.000  C  -0.525950
  C283     1.0000 0.64243  0.90147  0.32707  Biso   1.000  C  -0.525761
  C284     1.0000 0.09853  0.74097  0.32707  Biso   1.000  C  -0.525858
  C285     1.0000 0.25903  0.35757  0.32707  Biso   1.000  C  -0.525946
  C286     1.0000 0.56813  0.97577  0.50627  Biso   1.000  C  -0.525815
  C287     1.0000 0.40763  0.43187  0.50627  Biso   1.000  C  -0.525688
  C288     1.0000 0.02423  0.59237  0.50627  Biso   1.000  C  -0.525762
  C289     1.0000 0.71370  0.53250  0.35976  Biso   1.000  C  -0.527501
  C290     1.0000 0.46750  0.18120  0.35976  Biso   1.000  C  -0.527504
  C291     1.0000 0.81880  0.28630  0.35976  Biso   1.000  C  -0.527503
  C292     1.0000 0.53250  0.71370  0.14024  Biso   1.000  C  -0.527497
  C293     1.0000 0.18120  0.46750  0.14024  Biso   1.000  C  -0.527500
  C294     1.0000 0.28630  0.81880  0.14024  Biso   1.000  C  -0.527500
  C295     1.0000 0.38037  0.86583  0.69309  Biso   1.000  C  -0.527523
  C296     1.0000 0.13417  0.51453  0.69309  Biso   1.000  C  -0.527150
  C297     1.0000 0.48547  0.61963  0.69309  Biso   1.000  C  -0.527402
  C298     1.0000 0.19917  0.04703  0.47357  Biso   1.000  C  -0.527471
  C299     1.0000 0.84787  0.80083  0.47357  Biso   1.000  C  -0.527273
  C300     1.0000 0.95297  0.15213  0.47357  Biso   1.000  C  -0.527421
  C301     1.0000 0.04703  0.19917  0.02643  Biso   1.000  C  -0.527473
  C302     1.0000 0.80083  0.84787  0.02643  Biso   1.000  C  -0.527275
  C303     1.0000 0.15213  0.95297  0.02643  Biso   1.000  C  -0.527423
  C304     1.0000 0.86583  0.38037  0.80691  Biso   1.000  C  -0.527561
  C305     1.0000 0.51453  0.13417  0.80691  Biso   1.000  C  -0.527188
  C306     1.0000 0.61963  0.48547  0.80691  Biso   1.000  C  -0.527440
  C307     1.0000 0.28630  0.46750  0.64024  Biso   1.000  C  -0.527497
  C308     1.0000 0.53250  0.81880  0.64024  Biso   1.000  C  -0.527500
  C309     1.0000 0.18120  0.71370  0.64024  Biso   1.000  C  -0.527500
  C310     1.0000 0.46750  0.28630  0.85976  Biso   1.000  C  -0.527501
  C311     1.0000 0.81880  0.53250  0.85976  Biso   1.000  C  -0.527504
  C312     1.0000 0.71370  0.18120  0.85976  Biso   1.000  C  -0.527503
  C313     1.0000 0.95297  0.80083  0.97357  Biso   1.000  C  -0.527471
  C314     1.0000 0.19917  0.15213  0.97357  Biso   1.000  C  -0.527273
  C315     1.0000 0.84787  0.04703  0.97357  Biso   1.000  C  -0.527421
  C316     1.0000 0.13417  0.61963  0.19309  Biso   1.000  C  -0.527523
  C317     1.0000 0.48547  0.86583  0.19309  Biso   1.000  C  -0.527150
  C318     1.0000 0.38037  0.51453  0.19309  Biso   1.000  C  -0.527402
  C319     1.0000 0.61963  0.13417  0.30691  Biso   1.000  C  -0.527561
  C320     1.0000 0.86583  0.48547  0.30691  Biso   1.000  C  -0.527188
  C321     1.0000 0.51453  0.38037  0.30691  Biso   1.000  C  -0.527441
  C322     1.0000 0.80083  0.95297  0.52643  Biso   1.000  C  -0.527473
  C323     1.0000 0.15213  0.19917  0.52643  Biso   1.000  C  -0.527275
  C324     1.0000 0.04703  0.84787  0.52643  Biso   1.000  C  -0.527423
  C325     1.0000 0.71290  0.60610  0.36059  Biso   1.000  C  0.227185
  C326     1.0000 0.39390  0.10680  0.36059  Biso   1.000  C  0.227182
  C327     1.0000 0.89320  0.28710  0.36059  Biso   1.000  C  0.227184
  C328     1.0000 0.60610  0.71290  0.13941  Biso   1.000  C  0.227193
  C329     1.0000 0.10680  0.39390  0.13941  Biso   1.000  C  0.227191
  C330     1.0000 0.28710  0.89320  0.13941  Biso   1.000  C  0.227193
  C331     1.0000 0.37957  0.93943  0.69392  Biso   1.000  C  0.227212
  C332     1.0000 0.06057  0.44013  0.69392  Biso   1.000  C  0.227202
  C333     1.0000 0.55987  0.62043  0.69392  Biso   1.000  C  0.227181
  C334     1.0000 0.27277  0.04623  0.47274  Biso   1.000  C  0.227105
  C335     1.0000 0.77347  0.72723  0.47274  Biso   1.000  C  0.227011
  C336     1.0000 0.95377  0.22653  0.47274  Biso   1.000  C  0.227014
  C337     1.0000 0.04623  0.27277  0.02726  Biso   1.000  C  0.227101
  C338     1.0000 0.72723  0.77347  0.02726  Biso   1.000  C  0.227007
  C339     1.0000 0.22653  0.95377  0.02726  Biso   1.000  C  0.227010
  C340     1.0000 0.93943  0.37957  0.80608  Biso   1.000  C  0.227172
  C341     1.0000 0.44013  0.06057  0.80608  Biso   1.000  C  0.227163
  C342     1.0000 0.62043  0.55987  0.80608  Biso   1.000  C  0.227139
  C343     1.0000 0.28710  0.39390  0.63941  Biso   1.000  C  0.227193
  C344     1.0000 0.60610  0.89320  0.63941  Biso   1.000  C  0.227191
  C345     1.0000 0.10680  0.71290  0.63941  Biso   1.000  C  0.227192
  C346     1.0000 0.39390  0.28710  0.86059  Biso   1.000  C  0.227185
  C347     1.0000 0.89320  0.60610  0.86059  Biso   1.000  C  0.227182
  C348     1.0000 0.71290  0.10680  0.86059  Biso   1.000  C  0.227184
  C349     1.0000 0.95377  0.72723  0.97274  Biso   1.000  C  0.227105
  C350     1.0000 0.27277  0.22653  0.97274  Biso   1.000  C  0.227011
  C351     1.0000 0.77347  0.04623  0.97274  Biso   1.000  C  0.227014
  C352     1.0000 0.06057  0.62043  0.19392  Biso   1.000  C  0.227212
  C353     1.0000 0.55987  0.93943  0.19392  Biso   1.000  C  0.227202
  C354     1.0000 0.37957  0.44013  0.19392  Biso   1.000  C  0.227181
  C355     1.0000 0.62043  0.06057  0.30608  Biso   1.000  C  0.227172
  C356     1.0000 0.93943  0.55987  0.30608  Biso   1.000  C  0.227163
  C357     1.0000 0.44013  0.37957  0.30608  Biso   1.000  C  0.227139
  C358     1.0000 0.72723  0.95377  0.52726  Biso   1.000  C  0.227101
  C359     1.0000 0.22653  0.27277  0.52726  Biso   1.000  C  0.227007
  C360     1.0000 0.04623  0.77347  0.52726  Biso   1.000  C  0.227010
  C361     1.0000 0.87510  0.84700  0.40665  Biso   1.000  C  0.587985
  C362     1.0000 0.15300  0.02810  0.40665  Biso   1.000  C  0.587982
  C363     1.0000 0.97190  0.12490  0.40665  Biso   1.000  C  0.587984
  C364     1.0000 0.84700  0.87510  0.09335  Biso   1.000  C  0.587981
  C365     1.0000 0.02810  0.15300  0.09335  Biso   1.000  C  0.587978
  C366     1.0000 0.12490  0.97190  0.09335  Biso   1.000  C  0.587980
  C367     1.0000 0.54177  0.18033  0.73998  Biso   1.000  C  0.587969
  C368     1.0000 0.81967  0.36143  0.73998  Biso   1.000  C  0.587774
  C369     1.0000 0.63857  0.45823  0.73998  Biso   1.000  C  0.588055
  C370     1.0000 0.51367  0.20843  0.42668  Biso   1.000  C  0.588117
  C371     1.0000 0.69477  0.48633  0.42668  Biso   1.000  C  0.587939
  C372     1.0000 0.79157  0.30523  0.42668  Biso   1.000  C  0.587935
  C373     1.0000 0.20843  0.51367  0.07332  Biso   1.000  C  0.588117
  C374     1.0000 0.48633  0.69477  0.07332  Biso   1.000  C  0.587940
  C375     1.0000 0.30523  0.79157  0.07332  Biso   1.000  C  0.587935
  C376     1.0000 0.18033  0.54177  0.76002  Biso   1.000  C  0.587990
  C377     1.0000 0.36143  0.81967  0.76002  Biso   1.000  C  0.587793
  C378     1.0000 0.45823  0.63857  0.76002  Biso   1.000  C  0.588080
  C379     1.0000 0.12490  0.15300  0.59335  Biso   1.000  C  0.587981
  C380     1.0000 0.84700  0.97190  0.59335  Biso   1.000  C  0.587978
  C381     1.0000 0.02810  0.87510  0.59335  Biso   1.000  C  0.587980
  C382     1.0000 0.15300  0.12490  0.90665  Biso   1.000  C  0.587985
  C383     1.0000 0.97190  0.84700  0.90665  Biso   1.000  C  0.587982
  C384     1.0000 0.87510  0.02810  0.90665  Biso   1.000  C  0.587984
  C385     1.0000 0.79157  0.48633  0.92668  Biso   1.000  C  0.588117
  C386     1.0000 0.51367  0.30523  0.92668  Biso   1.000  C  0.587939
  C387     1.0000 0.69477  0.20843  0.92668  Biso   1.000  C  0.587935
  C388     1.0000 0.81967  0.45823  0.23998  Biso   1.000  C  0.587968
  C389     1.0000 0.63857  0.18033  0.23998  Biso   1.000  C  0.587774
  C390     1.0000 0.54177  0.36143  0.23998  Biso   1.000  C  0.588056
  C391     1.0000 0.45823  0.81967  0.26002  Biso   1.000  C  0.587991
  C392     1.0000 0.18033  0.63857  0.26002  Biso   1.000  C  0.587793
  C393     1.0000 0.36143  0.54177  0.26002  Biso   1.000  C  0.588079
  C394     1.0000 0.48633  0.79157  0.57332  Biso   1.000  C  0.588117
  C395     1.0000 0.30523  0.51367  0.57332  Biso   1.000  C  0.587940
  C396     1.0000 0.20843  0.69477  0.57332  Biso   1.000  C  0.587935
  C397     1.0000 0.93950  0.92620  0.40762  Biso   1.000  C  -0.029931
  C398     1.0000 0.07380  0.01330  0.40762  Biso   1.000  C  -0.029930
  C399     1.0000 0.98670  0.06050  0.40762  Biso   1.000  C  -0.029931
  C400     1.0000 0.92620  0.93950  0.09238  Biso   1.000  C  -0.029932
  C401     1.0000 0.01330  0.07380  0.09238  Biso   1.000  C  -0.029931
  C402     1.0000 0.06050  0.98670  0.09238  Biso   1.000  C  -0.029932
  C403     1.0000 0.60617  0.25953  0.74095  Biso   1.000  C  -0.029934
  C404     1.0000 0.74047  0.34663  0.74095  Biso   1.000  C  -0.029728
  C405     1.0000 0.65337  0.39383  0.74095  Biso   1.000  C  -0.029930
  C406     1.0000 0.59287  0.27283  0.42571  Biso   1.000  C  -0.029905
  C407     1.0000 0.67997  0.40713  0.42571  Biso   1.000  C  -0.029913
  C408     1.0000 0.72717  0.32003  0.42571  Biso   1.000  C  -0.029911
  C409     1.0000 0.27283  0.59287  0.07429  Biso   1.000  C  -0.029905
  C410     1.0000 0.40713  0.67997  0.07429  Biso   1.000  C  -0.029913
  C411     1.0000 0.32003  0.72717  0.07429  Biso   1.000  C  -0.029912
  C412     1.0000 0.25953  0.60617  0.75905  Biso   1.000  C  -0.029932
  C413     1.0000 0.34663  0.74047  0.75905  Biso   1.000  C  -0.029725
  C414     1.0000 0.39383  0.65337  0.75905  Biso   1.000  C  -0.029926
  C415     1.0000 0.06050  0.07380  0.59238  Biso   1.000  C  -0.029932
  C416     1.0000 0.92620  0.98670  0.59238  Biso   1.000  C  -0.029931
  C417     1.0000 0.01330  0.93950  0.59238  Biso   1.000  C  -0.029932
  C418     1.0000 0.07380  0.06050  0.90762  Biso   1.000  C  -0.029931
  C419     1.0000 0.98670  0.92620  0.90762  Biso   1.000  C  -0.029930
  C420     1.0000 0.93950  0.01330  0.90762  Biso   1.000  C  -0.029931
  C421     1.0000 0.72717  0.40713  0.92571  Biso   1.000  C  -0.029905
  C422     1.0000 0.59287  0.32003  0.92571  Biso   1.000  C  -0.029913
  C423     1.0000 0.67997  0.27283  0.92571  Biso   1.000  C  -0.029911
  C424     1.0000 0.74047  0.39383  0.24095  Biso   1.000  C  -0.029934
  C425     1.0000 0.65337  0.25953  0.24095  Biso   1.000  C  -0.029728
  C426     1.0000 0.60617  0.34663  0.24095  Biso   1.000  C  -0.029930
  C427     1.0000 0.39383  0.74047  0.25905  Biso   1.000  C  -0.029932
  C428     1.0000 0.25953  0.65337  0.25905  Biso   1.000  C  -0.029725
  C429     1.0000 0.34663  0.60617  0.25905  Biso   1.000  C  -0.029926
  C430     1.0000 0.40713  0.72717  0.57429  Biso   1.000  C  -0.029905
  C431     1.0000 0.32003  0.59287  0.57429  Biso   1.000  C  -0.029913
  C432     1.0000 0.27283  0.67997  0.57429  Biso   1.000  C  -0.029912
  C433     1.0000 0.92740  0.98680  0.40779  Biso   1.000  C  -0.139351
  C434     1.0000 0.01320  0.94060  0.40779  Biso   1.000  C  -0.139352
  C435     1.0000 0.05940  0.07260  0.40779  Biso   1.000  C  -0.139351
  C436     1.0000 0.98680  0.92740  0.09221  Biso   1.000  C  -0.139356
  C437     1.0000 0.94060  0.01320  0.09221  Biso   1.000  C  -0.139357
  C438     1.0000 0.07260  0.05940  0.09221  Biso   1.000  C  -0.139356
  C439     1.0000 0.59407  0.32013  0.74112  Biso   1.000  C  -0.139312
  C440     1.0000 0.67987  0.27393  0.74112  Biso   1.000  C  -0.139394
  C441     1.0000 0.72607  0.40593  0.74112  Biso   1.000  C  -0.139535
  C442     1.0000 0.65347  0.26073  0.42554  Biso   1.000  C  -0.139302
  C443     1.0000 0.60727  0.34653  0.42554  Biso   1.000  C  -0.139416
  C444     1.0000 0.73927  0.39273  0.42554  Biso   1.000  C  -0.139321
  C445     1.0000 0.26073  0.65347  0.07446  Biso   1.000  C  -0.139300
  C446     1.0000 0.34653  0.60727  0.07446  Biso   1.000  C  -0.139414
  C447     1.0000 0.39273  0.73927  0.07446  Biso   1.000  C  -0.139319
  C448     1.0000 0.32013  0.59407  0.75888  Biso   1.000  C  -0.139315
  C449     1.0000 0.27393  0.67987  0.75888  Biso   1.000  C  -0.139399
  C450     1.0000 0.40593  0.72607  0.75888  Biso   1.000  C  -0.139539
  C451     1.0000 0.07260  0.01320  0.59221  Biso   1.000  C  -0.139356
  C452     1.0000 0.98680  0.05940  0.59221  Biso   1.000  C  -0.139357
  C453     1.0000 0.94060  0.92740  0.59221  Biso   1.000  C  -0.139356
  C454     1.0000 0.01320  0.07260  0.90779  Biso   1.000  C  -0.139351
  C455     1.0000 0.05940  0.98680  0.90779  Biso   1.000  C  -0.139352
  C456     1.0000 0.92740  0.94060  0.90779  Biso   1.000  C  -0.139351
  C457     1.0000 0.73927  0.34653  0.92554  Biso   1.000  C  -0.139302
  C458     1.0000 0.65347  0.39273  0.92554  Biso   1.000  C  -0.139416
  C459     1.0000 0.60727  0.26073  0.92554  Biso   1.000  C  -0.139321
  C460     1.0000 0.67987  0.40593  0.24112  Biso   1.000  C  -0.139312
  C461     1.0000 0.72607  0.32013  0.24112  Biso   1.000  C  -0.139394
  C462     1.0000 0.59407  0.27393  0.24112  Biso   1.000  C  -0.139535
  C463     1.0000 0.40593  0.67987  0.25888  Biso   1.000  C  -0.139315
  C464     1.0000 0.32013  0.72607  0.25888  Biso   1.000  C  -0.139399
  C465     1.0000 0.27393  0.59407  0.25888  Biso   1.000  C  -0.139539
  C466     1.0000 0.34653  0.73927  0.57446  Biso   1.000  C  -0.139300
  C467     1.0000 0.39273  0.65347  0.57446  Biso   1.000  C  -0.139414
  C468     1.0000 0.26073  0.60727  0.57446  Biso   1.000  C  -0.139319
  Cd1      1.0000 0.81705  0.66670  0.41670  Biso   1.000  Cd  0.792279
  Cd2      1.0000 0.33330  0.15035  0.41670  Biso   1.000  Cd  0.792246
  Cd3      1.0000 0.84965  0.18295  0.41670  Biso   1.000  Cd  0.792247
  Cd4      1.0000 0.66670  0.81705  0.08330  Biso   1.000  Cd  0.792278
  Cd5      1.0000 0.15035  0.33330  0.08330  Biso   1.000  Cd  0.792246
  Cd6      1.0000 0.18295  0.84965  0.08330  Biso   1.000  Cd  0.792247
  Cd7      1.0000 0.48372  0.00003  0.75003  Biso   1.000  Cd  0.792228
  Cd8      1.0000 0.99997  0.48368  0.75003  Biso   1.000  Cd  0.792255
  Cd9      1.0000 0.51632  0.51628  0.75003  Biso   1.000  Cd  0.792284
  Cd10     1.0000 0.18295  0.33330  0.58330  Biso   1.000  Cd  0.792279
  Cd11     1.0000 0.66670  0.84965  0.58330  Biso   1.000  Cd  0.792246
  Cd12     1.0000 0.15035  0.81705  0.58330  Biso   1.000  Cd  0.792247
  Cd13     1.0000 0.33330  0.18295  0.91670  Biso   1.000  Cd  0.792278
  Cd14     1.0000 0.84965  0.66670  0.91670  Biso   1.000  Cd  0.792246
  Cd15     1.0000 0.81705  0.15035  0.91670  Biso   1.000  Cd  0.792247
  Cd16     1.0000 0.99997  0.51628  0.25003  Biso   1.000  Cd  0.792228
  Cd17     1.0000 0.51632  0.00003  0.25003  Biso   1.000  Cd  0.792255
  Cd18     1.0000 0.48372  0.48368  0.25003  Biso   1.000  Cd  0.792284
  H1       1.0000 0.74340  0.74860  0.38540  Biso   1.000  H  0.289879
  H2       1.0000 0.25140  0.99480  0.38540  Biso   1.000  H  0.289879
  H3       1.0000 0.00520  0.25660  0.38540  Biso   1.000  H  0.289879
  H4       1.0000 0.74860  0.74340  0.11460  Biso   1.000  H  0.289871
  H5       1.0000 0.99480  0.25140  0.11460  Biso   1.000  H  0.289871
  H6       1.0000 0.25660  0.00520  0.11460  Biso   1.000  H  0.289872
  H7       1.0000 0.41007  0.08193  0.71873  Biso   1.000  H  0.289874
  H8       1.0000 0.91807  0.32813  0.71873  Biso   1.000  H  0.289885
  H9       1.0000 0.67187  0.58993  0.71873  Biso   1.000  H  0.289897
  H10      1.0000 0.41527  0.07673  0.44793  Biso   1.000  H  0.289989
  H11      1.0000 0.66147  0.58473  0.44793  Biso   1.000  H  0.289958
  H12      1.0000 0.92327  0.33853  0.44793  Biso   1.000  H  0.289916
  H13      1.0000 0.07673  0.41527  0.05207  Biso   1.000  H  0.289996
  H14      1.0000 0.58473  0.66147  0.05207  Biso   1.000  H  0.289965
  H15      1.0000 0.33853  0.92327  0.05207  Biso   1.000  H  0.289923
  H16      1.0000 0.08193  0.41007  0.78127  Biso   1.000  H  0.289911
  H17      1.0000 0.32813  0.91807  0.78127  Biso   1.000  H  0.289921
  H18      1.0000 0.58993  0.67187  0.78127  Biso   1.000  H  0.289933
  H19      1.0000 0.25660  0.25140  0.61460  Biso   1.000  H  0.289871
  H20      1.0000 0.74860  0.00520  0.61460  Biso   1.000  H  0.289871
  H21      1.0000 0.99480  0.74340  0.61460  Biso   1.000  H  0.289872
  H22      1.0000 0.25140  0.25660  0.88540  Biso   1.000  H  0.289879
  H23      1.0000 0.00520  0.74860  0.88540  Biso   1.000  H  0.289879
  H24      1.0000 0.74340  0.99480  0.88540  Biso   1.000  H  0.289879
  H25      1.0000 0.92327  0.58473  0.94793  Biso   1.000  H  0.289989
  H26      1.0000 0.41527  0.33853  0.94793  Biso   1.000  H  0.289958
  H27      1.0000 0.66147  0.07673  0.94793  Biso   1.000  H  0.289916
  H28      1.0000 0.91807  0.58993  0.21873  Biso   1.000  H  0.289874
  H29      1.0000 0.67187  0.08193  0.21873  Biso   1.000  H  0.289885
  H30      1.0000 0.41007  0.32813  0.21873  Biso   1.000  H  0.289897
  H31      1.0000 0.58993  0.91807  0.28127  Biso   1.000  H  0.289911
  H32      1.0000 0.08193  0.67187  0.28127  Biso   1.000  H  0.289921
  H33      1.0000 0.32813  0.41007  0.28127  Biso   1.000  H  0.289933
  H34      1.0000 0.58473  0.92327  0.55207  Biso   1.000  H  0.289996
  H35      1.0000 0.33853  0.41527  0.55207  Biso   1.000  H  0.289965
  H36      1.0000 0.07673  0.66147  0.55207  Biso   1.000  H  0.289923
  H37      1.0000 0.66000  0.55250  0.25950  Biso   1.000  H  0.300136
  H38      1.0000 0.44750  0.10750  0.25950  Biso   1.000  H  0.300134
  H39      1.0000 0.89250  0.34000  0.25950  Biso   1.000  H  0.300136
  H40      1.0000 0.55250  0.66000  0.24050  Biso   1.000  H  0.300082
  H41      1.0000 0.10750  0.44750  0.24050  Biso   1.000  H  0.300079
  H42      1.0000 0.34000  0.89250  0.24050  Biso   1.000  H  0.300081
  H43      1.0000 0.32667  0.88583  0.59283  Biso   1.000  H  0.300078
  H44      1.0000 0.11417  0.44083  0.59283  Biso   1.000  H  0.300090
  H45      1.0000 0.55917  0.67333  0.59283  Biso   1.000  H  0.300085
  H46      1.0000 0.21917  0.99333  0.57383  Biso   1.000  H  0.300067
  H47      1.0000 0.77417  0.78083  0.57383  Biso   1.000  H  0.300089
  H48      1.0000 0.00667  0.22583  0.57383  Biso   1.000  H  0.300132
  H49      1.0000 0.99333  0.21917  0.92617  Biso   1.000  H  0.300055
  H50      1.0000 0.78083  0.77417  0.92617  Biso   1.000  H  0.300077
  H51      1.0000 0.22583  0.00667  0.92617  Biso   1.000  H  0.300120
  H52      1.0000 0.88583  0.32667  0.90717  Biso   1.000  H  0.300093
  H53      1.0000 0.44083  0.11417  0.90717  Biso   1.000  H  0.300104
  H54      1.0000 0.67333  0.55917  0.90717  Biso   1.000  H  0.300099
  H55      1.0000 0.34000  0.44750  0.74050  Biso   1.000  H  0.300082
  H56      1.0000 0.55250  0.89250  0.74050  Biso   1.000  H  0.300079
  H57      1.0000 0.10750  0.66000  0.74050  Biso   1.000  H  0.300081
  H58      1.0000 0.44750  0.34000  0.75950  Biso   1.000  H  0.300136
  H59      1.0000 0.89250  0.55250  0.75950  Biso   1.000  H  0.300134
  H60      1.0000 0.66000  0.10750  0.75950  Biso   1.000  H  0.300136
  H61      1.0000 0.00667  0.78083  0.07383  Biso   1.000  H  0.300067
  H62      1.0000 0.21917  0.22583  0.07383  Biso   1.000  H  0.300089
  H63      1.0000 0.77417  0.99333  0.07383  Biso   1.000  H  0.300132
  H64      1.0000 0.11417  0.67333  0.09283  Biso   1.000  H  0.300078
  H65      1.0000 0.55917  0.88583  0.09283  Biso   1.000  H  0.300090
  H66      1.0000 0.32667  0.44083  0.09283  Biso   1.000  H  0.300085
  H67      1.0000 0.67333  0.11417  0.40717  Biso   1.000  H  0.300093
  H68      1.0000 0.88583  0.55917  0.40717  Biso   1.000  H  0.300105
  H69      1.0000 0.44083  0.32667  0.40717  Biso   1.000  H  0.300099
  H70      1.0000 0.78083  0.00667  0.42617  Biso   1.000  H  0.300055
  H71      1.0000 0.22583  0.21917  0.42617  Biso   1.000  H  0.300077
  H72      1.0000 0.99333  0.77417  0.42617  Biso   1.000  H  0.300120
  H73      1.0000 0.53780  0.60840  0.33410  Biso   1.000  H  0.162756
  H74      1.0000 0.39160  0.92940  0.33410  Biso   1.000  H  0.162753
  H75      1.0000 0.07060  0.46220  0.33410  Biso   1.000  H  0.162753
  H76      1.0000 0.60840  0.53780  0.16590  Biso   1.000  H  0.162720
  H77      1.0000 0.92940  0.39160  0.16590  Biso   1.000  H  0.162718
  H78      1.0000 0.46220  0.07060  0.16590  Biso   1.000  H  0.162718
  H79      1.0000 0.20447  0.94173  0.66743  Biso   1.000  H  0.162716
  H80      1.0000 0.05827  0.26273  0.66743  Biso   1.000  H  0.162697
  H81      1.0000 0.73727  0.79553  0.66743  Biso   1.000  H  0.162724
  H82      1.0000 0.27507  0.87113  0.49923  Biso   1.000  H  0.162852
  H83      1.0000 0.59607  0.72493  0.49923  Biso   1.000  H  0.162871
  H84      1.0000 0.12887  0.40393  0.49923  Biso   1.000  H  0.162786
  H85      1.0000 0.87113  0.27507  0.00077  Biso   1.000  H  0.162867
  H86      1.0000 0.72493  0.59607  0.00077  Biso   1.000  H  0.162886
  H87      1.0000 0.40393  0.12887  0.00077  Biso   1.000  H  0.162801
  H88      1.0000 0.94173  0.20447  0.83257  Biso   1.000  H  0.162715
  H89      1.0000 0.26273  0.05827  0.83257  Biso   1.000  H  0.162696
  H90      1.0000 0.79553  0.73727  0.83257  Biso   1.000  H  0.162723
  H91      1.0000 0.46220  0.39160  0.66590  Biso   1.000  H  0.162720
  H92      1.0000 0.60840  0.07060  0.66590  Biso   1.000  H  0.162718
  H93      1.0000 0.92940  0.53780  0.66590  Biso   1.000  H  0.162718
  H94      1.0000 0.39160  0.46220  0.83410  Biso   1.000  H  0.162756
  H95      1.0000 0.07060  0.60840  0.83410  Biso   1.000  H  0.162753
  H96      1.0000 0.53780  0.92940  0.83410  Biso   1.000  H  0.162753
  H97      1.0000 0.12887  0.72493  0.99923  Biso   1.000  H  0.162852
  H98      1.0000 0.27507  0.40393  0.99923  Biso   1.000  H  0.162871
  H99      1.0000 0.59607  0.87113  0.99923  Biso   1.000  H  0.162786
  H100     1.0000 0.05827  0.79553  0.16743  Biso   1.000  H  0.162716
  H101     1.0000 0.73727  0.94173  0.16743  Biso   1.000  H  0.162697
  H102     1.0000 0.20447  0.26273  0.16743  Biso   1.000  H  0.162724
  H103     1.0000 0.79553  0.05827  0.33257  Biso   1.000  H  0.162716
  H104     1.0000 0.94173  0.73727  0.33257  Biso   1.000  H  0.162696
  H105     1.0000 0.26273  0.20447  0.33257  Biso   1.000  H  0.162723
  H106     1.0000 0.72493  0.12887  0.50077  Biso   1.000  H  0.162867
  H107     1.0000 0.40393  0.27507  0.50077  Biso   1.000  H  0.162886
  H108     1.0000 0.87113  0.59607  0.50077  Biso   1.000  H  0.162801
  H109     1.0000 0.48120  0.53690  0.31820  Biso   1.000  H  0.172225
  H110     1.0000 0.46310  0.94430  0.31820  Biso   1.000  H  0.172225
  H111     1.0000 0.05570  0.51880  0.31820  Biso   1.000  H  0.172222
  H112     1.0000 0.53690  0.48120  0.18180  Biso   1.000  H  0.172240
  H113     1.0000 0.94430  0.46310  0.18180  Biso   1.000  H  0.172239
  H114     1.0000 0.51880  0.05570  0.18180  Biso   1.000  H  0.172236
  H115     1.0000 0.14787  0.87023  0.65153  Biso   1.000  H  0.172257
  H116     1.0000 0.12977  0.27763  0.65153  Biso   1.000  H  0.172239
  H117     1.0000 0.72237  0.85213  0.65153  Biso   1.000  H  0.172234
  H118     1.0000 0.20357  0.81453  0.51513  Biso   1.000  H  0.172231
  H119     1.0000 0.61097  0.79643  0.51513  Biso   1.000  H  0.172252
  H120     1.0000 0.18547  0.38903  0.51513  Biso   1.000  H  0.172251
  H121     1.0000 0.81453  0.20357  0.98487  Biso   1.000  H  0.172235
  H122     1.0000 0.79643  0.61097  0.98487  Biso   1.000  H  0.172256
  H123     1.0000 0.38903  0.18547  0.98487  Biso   1.000  H  0.172254
  H124     1.0000 0.87023  0.14787  0.84847  Biso   1.000  H  0.172261
  H125     1.0000 0.27763  0.12977  0.84847  Biso   1.000  H  0.172243
  H126     1.0000 0.85213  0.72237  0.84847  Biso   1.000  H  0.172238
  H127     1.0000 0.51880  0.46310  0.68180  Biso   1.000  H  0.172240
  H128     1.0000 0.53690  0.05570  0.68180  Biso   1.000  H  0.172239
  H129     1.0000 0.94430  0.48120  0.68180  Biso   1.000  H  0.172236
  H130     1.0000 0.46310  0.51880  0.81820  Biso   1.000  H  0.172225
  H131     1.0000 0.05570  0.53690  0.81820  Biso   1.000  H  0.172225
  H132     1.0000 0.48120  0.94430  0.81820  Biso   1.000  H  0.172222
  H133     1.0000 0.18547  0.79643  0.01513  Biso   1.000  H  0.172231
  H134     1.0000 0.20357  0.38903  0.01513  Biso   1.000  H  0.172252
  H135     1.0000 0.61097  0.81453  0.01513  Biso   1.000  H  0.172251
  H136     1.0000 0.12977  0.85213  0.15153  Biso   1.000  H  0.172257
  H137     1.0000 0.72237  0.87023  0.15153  Biso   1.000  H  0.172239
  H138     1.0000 0.14787  0.27763  0.15153  Biso   1.000  H  0.172234
  H139     1.0000 0.85213  0.12977  0.34847  Biso   1.000  H  0.172261
  H140     1.0000 0.87023  0.72237  0.34847  Biso   1.000  H  0.172243
  H141     1.0000 0.27763  0.14787  0.34847  Biso   1.000  H  0.172238
  H142     1.0000 0.79643  0.18547  0.48487  Biso   1.000  H  0.172235
  H143     1.0000 0.38903  0.20357  0.48487  Biso   1.000  H  0.172256
  H144     1.0000 0.81453  0.61097  0.48487  Biso   1.000  H  0.172254
  H145     1.0000 0.51000  0.61720  0.30630  Biso   1.000  H  0.181148
  H146     1.0000 0.38280  0.89280  0.30630  Biso   1.000  H  0.181148
  H147     1.0000 0.10720  0.49000  0.30630  Biso   1.000  H  0.181147
  H148     1.0000 0.61720  0.51000  0.19370  Biso   1.000  H  0.181106
  H149     1.0000 0.89280  0.38280  0.19370  Biso   1.000  H  0.181105
  H150     1.0000 0.49000  0.10720  0.19370  Biso   1.000  H  0.181105
  H151     1.0000 0.17667  0.95053  0.63963  Biso   1.000  H  0.181103
  H152     1.0000 0.04947  0.22613  0.63963  Biso   1.000  H  0.181116
  H153     1.0000 0.77387  0.82333  0.63963  Biso   1.000  H  0.181120
  H154     1.0000 0.28387  0.84333  0.52703  Biso   1.000  H  0.181181
  H155     1.0000 0.55947  0.71613  0.52703  Biso   1.000  H  0.181146
  H156     1.0000 0.15667  0.44053  0.52703  Biso   1.000  H  0.181102
  H157     1.0000 0.84333  0.28387  0.97297  Biso   1.000  H  0.181173
  H158     1.0000 0.71613  0.55947  0.97297  Biso   1.000  H  0.181138
  H159     1.0000 0.44053  0.15667  0.97297  Biso   1.000  H  0.181094
  H160     1.0000 0.95053  0.17667  0.86037  Biso   1.000  H  0.181116
  H161     1.0000 0.22613  0.04947  0.86037  Biso   1.000  H  0.181130
  H162     1.0000 0.82333  0.77387  0.86037  Biso   1.000  H  0.181134
  H163     1.0000 0.49000  0.38280  0.69370  Biso   1.000  H  0.181106
  H164     1.0000 0.61720  0.10720  0.69370  Biso   1.000  H  0.181105
  H165     1.0000 0.89280  0.51000  0.69370  Biso   1.000  H  0.181105
  H166     1.0000 0.38280  0.49000  0.80630  Biso   1.000  H  0.181149
  H167     1.0000 0.10720  0.61720  0.80630  Biso   1.000  H  0.181148
  H168     1.0000 0.51000  0.89280  0.80630  Biso   1.000  H  0.181147
  H169     1.0000 0.15667  0.71613  0.02703  Biso   1.000  H  0.181181
  H170     1.0000 0.28387  0.44053  0.02703  Biso   1.000  H  0.181146
  H171     1.0000 0.55947  0.84333  0.02703  Biso   1.000  H  0.181102
  H172     1.0000 0.04947  0.82333  0.13963  Biso   1.000  H  0.181103
  H173     1.0000 0.77387  0.95053  0.13963  Biso   1.000  H  0.181116
  H174     1.0000 0.17667  0.22613  0.13963  Biso   1.000  H  0.181120
  H175     1.0000 0.82333  0.04947  0.36037  Biso   1.000  H  0.181116
  H176     1.0000 0.95053  0.77387  0.36037  Biso   1.000  H  0.181130
  H177     1.0000 0.22613  0.17667  0.36037  Biso   1.000  H  0.181134
  H178     1.0000 0.71613  0.15667  0.47297  Biso   1.000  H  0.181173
  H179     1.0000 0.44053  0.28387  0.47297  Biso   1.000  H  0.181138
  H180     1.0000 0.84333  0.55947  0.47297  Biso   1.000  H  0.181094
  H181     1.0000 0.80560  0.64790  0.28220  Biso   1.000  H  0.178283
  H182     1.0000 0.35210  0.15770  0.28220  Biso   1.000  H  0.178283
  H183     1.0000 0.84230  0.19440  0.28220  Biso   1.000  H  0.178283
  H184     1.0000 0.64790  0.80560  0.21780  Biso   1.000  H  0.178242
  H185     1.0000 0.15770  0.35210  0.21780  Biso   1.000  H  0.178242
  H186     1.0000 0.19440  0.84230  0.21780  Biso   1.000  H  0.178243
  H187     1.0000 0.47227  0.98123  0.61553  Biso   1.000  H  0.178278
  H188     1.0000 0.01877  0.49103  0.61553  Biso   1.000  H  0.178224
  H189     1.0000 0.50897  0.52773  0.61553  Biso   1.000  H  0.178374
  H190     1.0000 0.31457  0.13893  0.55113  Biso   1.000  H  0.178226
  H191     1.0000 0.82437  0.68543  0.55113  Biso   1.000  H  0.178287
  H192     1.0000 0.86107  0.17563  0.55113  Biso   1.000  H  0.178241
  H193     1.0000 0.13893  0.31457  0.94887  Biso   1.000  H  0.178217
  H194     1.0000 0.68543  0.82437  0.94887  Biso   1.000  H  0.178278
  H195     1.0000 0.17563  0.86107  0.94887  Biso   1.000  H  0.178232
  H196     1.0000 0.98123  0.47227  0.88447  Biso   1.000  H  0.178294
  H197     1.0000 0.49103  0.01877  0.88447  Biso   1.000  H  0.178239
  H198     1.0000 0.52773  0.50897  0.88447  Biso   1.000  H  0.178390
  H199     1.0000 0.19440  0.35210  0.71780  Biso   1.000  H  0.178242
  H200     1.0000 0.64790  0.84230  0.71780  Biso   1.000  H  0.178243
  H201     1.0000 0.15770  0.80560  0.71780  Biso   1.000  H  0.178243
  H202     1.0000 0.35210  0.19440  0.78220  Biso   1.000  H  0.178282
  H203     1.0000 0.84230  0.64790  0.78220  Biso   1.000  H  0.178283
  H204     1.0000 0.80560  0.15770  0.78220  Biso   1.000  H  0.178283
  H205     1.0000 0.86107  0.68543  0.05113  Biso   1.000  H  0.178226
  H206     1.0000 0.31457  0.17563  0.05113  Biso   1.000  H  0.178287
  H207     1.0000 0.82437  0.13893  0.05113  Biso   1.000  H  0.178241
  H208     1.0000 0.01877  0.52773  0.11553  Biso   1.000  H  0.178278
  H209     1.0000 0.50897  0.98123  0.11553  Biso   1.000  H  0.178224
  H210     1.0000 0.47227  0.49103  0.11553  Biso   1.000  H  0.178374
  H211     1.0000 0.52773  0.01877  0.38447  Biso   1.000  H  0.178294
  H212     1.0000 0.98123  0.50897  0.38447  Biso   1.000  H  0.178240
  H213     1.0000 0.49103  0.47227  0.38447  Biso   1.000  H  0.178390
  H214     1.0000 0.68543  0.86107  0.44887  Biso   1.000  H  0.178217
  H215     1.0000 0.17563  0.31457  0.44887  Biso   1.000  H  0.178278
  H216     1.0000 0.13893  0.82437  0.44887  Biso   1.000  H  0.178232
  H217     1.0000 0.77360  0.56150  0.28620  Biso   1.000  H  0.181006
  H218     1.0000 0.43850  0.21210  0.28620  Biso   1.000  H  0.181009
  H219     1.0000 0.78790  0.22640  0.28620  Biso   1.000  H  0.181006
  H220     1.0000 0.56150  0.77360  0.21380  Biso   1.000  H  0.180999
  H221     1.0000 0.21210  0.43850  0.21380  Biso   1.000  H  0.181002
  H222     1.0000 0.22640  0.78790  0.21380  Biso   1.000  H  0.180999
  H223     1.0000 0.44027  0.89483  0.61953  Biso   1.000  H  0.181070
  H224     1.0000 0.10517  0.54543  0.61953  Biso   1.000  H  0.181011
  H225     1.0000 0.45457  0.55973  0.61953  Biso   1.000  H  0.180989
  H226     1.0000 0.22817  0.10693  0.54713  Biso   1.000  H  0.180959
  H227     1.0000 0.87877  0.77183  0.54713  Biso   1.000  H  0.180987
  H228     1.0000 0.89307  0.12123  0.54713  Biso   1.000  H  0.181018
  H229     1.0000 0.10693  0.22817  0.95287  Biso   1.000  H  0.180954
  H230     1.0000 0.77183  0.87877  0.95287  Biso   1.000  H  0.180982
  H231     1.0000 0.12123  0.89307  0.95287  Biso   1.000  H  0.181013
  H232     1.0000 0.89483  0.44027  0.88047  Biso   1.000  H  0.181078
  H233     1.0000 0.54543  0.10517  0.88047  Biso   1.000  H  0.181019
  H234     1.0000 0.55973  0.45457  0.88047  Biso   1.000  H  0.180997
  H235     1.0000 0.22640  0.43850  0.71380  Biso   1.000  H  0.180999
  H236     1.0000 0.56150  0.78790  0.71380  Biso   1.000  H  0.181002
  H237     1.0000 0.21210  0.77360  0.71380  Biso   1.000  H  0.180999
  H238     1.0000 0.43850  0.22640  0.78620  Biso   1.000  H  0.181006
  H239     1.0000 0.78790  0.56150  0.78620  Biso   1.000  H  0.181009
  H240     1.0000 0.77360  0.21210  0.78620  Biso   1.000  H  0.181006
  H241     1.0000 0.89307  0.77183  0.04713  Biso   1.000  H  0.180959
  H242     1.0000 0.22817  0.12123  0.04713  Biso   1.000  H  0.180987
  H243     1.0000 0.87877  0.10693  0.04713  Biso   1.000  H  0.181018
  H244     1.0000 0.10517  0.55973  0.11953  Biso   1.000  H  0.181070
  H245     1.0000 0.45457  0.89483  0.11953  Biso   1.000  H  0.181011
  H246     1.0000 0.44027  0.54543  0.11953  Biso   1.000  H  0.180989
  H247     1.0000 0.55973  0.10517  0.38047  Biso   1.000  H  0.181078
  H248     1.0000 0.89483  0.45457  0.38047  Biso   1.000  H  0.181019
  H249     1.0000 0.54543  0.44027  0.38047  Biso   1.000  H  0.180997
  H250     1.0000 0.77183  0.89307  0.45287  Biso   1.000  H  0.180954
  H251     1.0000 0.12123  0.22817  0.45287  Biso   1.000  H  0.180982
  H252     1.0000 0.10693  0.87877  0.45287  Biso   1.000  H  0.181013
  H253     1.0000 0.79680  0.61520  0.31070  Biso   1.000  H  0.176259
  H254     1.0000 0.38480  0.18160  0.31070  Biso   1.000  H  0.176258
  H255     1.0000 0.81840  0.20320  0.31070  Biso   1.000  H  0.176260
  H256     1.0000 0.61520  0.79680  0.18930  Biso   1.000  H  0.176258
  H257     1.0000 0.18160  0.38480  0.18930  Biso   1.000  H  0.176257
  H258     1.0000 0.20320  0.81840  0.18930  Biso   1.000  H  0.176259
  H259     1.0000 0.46347  0.94853  0.64403  Biso   1.000  H  0.176263
  H260     1.0000 0.05147  0.51493  0.64403  Biso   1.000  H  0.176254
  H261     1.0000 0.48507  0.53653  0.64403  Biso   1.000  H  0.176264
  H262     1.0000 0.28187  0.13013  0.52263  Biso   1.000  H  0.176254
  H263     1.0000 0.84827  0.71813  0.52263  Biso   1.000  H  0.176259
  H264     1.0000 0.86987  0.15173  0.52263  Biso   1.000  H  0.176247
  H265     1.0000 0.13013  0.28187  0.97737  Biso   1.000  H  0.176266
  H266     1.0000 0.71813  0.84827  0.97737  Biso   1.000  H  0.176270
  H267     1.0000 0.15173  0.86987  0.97737  Biso   1.000  H  0.176258
  H268     1.0000 0.94853  0.46347  0.85597  Biso   1.000  H  0.176245
  H269     1.0000 0.51493  0.05147  0.85597  Biso   1.000  H  0.176236
  H270     1.0000 0.53653  0.48507  0.85597  Biso   1.000  H  0.176246
  H271     1.0000 0.20320  0.38480  0.68930  Biso   1.000  H  0.176258
  H272     1.0000 0.61520  0.81840  0.68930  Biso   1.000  H  0.176257
  H273     1.0000 0.18160  0.79680  0.68930  Biso   1.000  H  0.176259
  H274     1.0000 0.38480  0.20320  0.81070  Biso   1.000  H  0.176259
  H275     1.0000 0.81840  0.61520  0.81070  Biso   1.000  H  0.176258
  H276     1.0000 0.79680  0.18160  0.81070  Biso   1.000  H  0.176260
  H277     1.0000 0.86987  0.71813  0.02263  Biso   1.000  H  0.176254
  H278     1.0000 0.28187  0.15173  0.02263  Biso   1.000  H  0.176259
  H279     1.0000 0.84827  0.13013  0.02263  Biso   1.000  H  0.176247
  H280     1.0000 0.05147  0.53653  0.14403  Biso   1.000  H  0.176263
  H281     1.0000 0.48507  0.94853  0.14403  Biso   1.000  H  0.176254
  H282     1.0000 0.46347  0.51493  0.14403  Biso   1.000  H  0.176264
  H283     1.0000 0.53653  0.05147  0.35597  Biso   1.000  H  0.176245
  H284     1.0000 0.94853  0.48507  0.35597  Biso   1.000  H  0.176236
  H285     1.0000 0.51493  0.46347  0.35597  Biso   1.000  H  0.176246
  H286     1.0000 0.71813  0.86987  0.47737  Biso   1.000  H  0.176266
  H287     1.0000 0.15173  0.28187  0.47737  Biso   1.000  H  0.176270
  H288     1.0000 0.13013  0.84827  0.47737  Biso   1.000  H  0.176258
  H289     1.0000 0.71880  0.81060  0.34960  Biso   1.000  H  0.177726
  H290     1.0000 0.18940  0.90820  0.34960  Biso   1.000  H  0.177728
  H291     1.0000 0.09180  0.28120  0.34960  Biso   1.000  H  0.177727
  H292     1.0000 0.81060  0.71880  0.15040  Biso   1.000  H  0.177719
  H293     1.0000 0.90820  0.18940  0.15040  Biso   1.000  H  0.177721
  H294     1.0000 0.28120  0.09180  0.15040  Biso   1.000  H  0.177720
  H295     1.0000 0.38547  0.14393  0.68293  Biso   1.000  H  0.177649
  H296     1.0000 0.85607  0.24153  0.68293  Biso   1.000  H  0.177664
  H297     1.0000 0.75847  0.61453  0.68293  Biso   1.000  H  0.177751
  H298     1.0000 0.47727  0.05213  0.48373  Biso   1.000  H  0.177794
  H299     1.0000 0.57487  0.52273  0.48373  Biso   1.000  H  0.177769
  H300     1.0000 0.94787  0.42513  0.48373  Biso   1.000  H  0.177766
  H301     1.0000 0.05213  0.47727  0.01627  Biso   1.000  H  0.177802
  H302     1.0000 0.52273  0.57487  0.01627  Biso   1.000  H  0.177777
  H303     1.0000 0.42513  0.94787  0.01627  Biso   1.000  H  0.177774
  H304     1.0000 0.14393  0.38547  0.81707  Biso   1.000  H  0.177675
  H305     1.0000 0.24153  0.85607  0.81707  Biso   1.000  H  0.177690
  H306     1.0000 0.61453  0.75847  0.81707  Biso   1.000  H  0.177777
  H307     1.0000 0.28120  0.18940  0.65040  Biso   1.000  H  0.177719
  H308     1.0000 0.81060  0.09180  0.65040  Biso   1.000  H  0.177721
  H309     1.0000 0.90820  0.71880  0.65040  Biso   1.000  H  0.177720
  H310     1.0000 0.18940  0.28120  0.84960  Biso   1.000  H  0.177726
  H311     1.0000 0.09180  0.81060  0.84960  Biso   1.000  H  0.177727
  H312     1.0000 0.71880  0.90820  0.84960  Biso   1.000  H  0.177727
  H313     1.0000 0.94787  0.52273  0.98373  Biso   1.000  H  0.177794
  H314     1.0000 0.47727  0.42513  0.98373  Biso   1.000  H  0.177769
  H315     1.0000 0.57487  0.05213  0.98373  Biso   1.000  H  0.177766
  H316     1.0000 0.85607  0.61453  0.18293  Biso   1.000  H  0.177649
  H317     1.0000 0.75847  0.14393  0.18293  Biso   1.000  H  0.177664
  H318     1.0000 0.38547  0.24153  0.18293  Biso   1.000  H  0.177751
  H319     1.0000 0.61453  0.85607  0.31707  Biso   1.000  H  0.177675
  H320     1.0000 0.14393  0.75847  0.31707  Biso   1.000  H  0.177690
  H321     1.0000 0.24153  0.38547  0.31707  Biso   1.000  H  0.177777
  H322     1.0000 0.52273  0.94787  0.51627  Biso   1.000  H  0.177802
  H323     1.0000 0.42513  0.47727  0.51627  Biso   1.000  H  0.177777
  H324     1.0000 0.05213  0.57487  0.51627  Biso   1.000  H  0.177774
  H325     1.0000 0.63840  0.75000  0.34000  Biso   1.000  H  0.171241
  H326     1.0000 0.25000  0.88840  0.34000  Biso   1.000  H  0.171243
  H327     1.0000 0.11160  0.36160  0.34000  Biso   1.000  H  0.171242
  H328     1.0000 0.75000  0.63840  0.16000  Biso   1.000  H  0.171239
  H329     1.0000 0.88840  0.25000  0.16000  Biso   1.000  H  0.171242
  H330     1.0000 0.36160  0.11160  0.16000  Biso   1.000  H  0.171241
  H331     1.0000 0.30507  0.08333  0.67333  Biso   1.000  H  0.171226
  H332     1.0000 0.91667  0.22173  0.67333  Biso   1.000  H  0.171313
  H333     1.0000 0.77827  0.69493  0.67333  Biso   1.000  H  0.171288
  H334     1.0000 0.41667  0.97173  0.49333  Biso   1.000  H  0.171353
  H335     1.0000 0.55507  0.58333  0.49333  Biso   1.000  H  0.171266
  H336     1.0000 0.02827  0.44493  0.49333  Biso   1.000  H  0.171284
  H337     1.0000 0.97173  0.41667  0.00667  Biso   1.000  H  0.171349
  H338     1.0000 0.58333  0.55507  0.00667  Biso   1.000  H  0.171262
  H339     1.0000 0.44493  0.02827  0.00667  Biso   1.000  H  0.171280
  H340     1.0000 0.08333  0.30507  0.82667  Biso   1.000  H  0.171252
  H341     1.0000 0.22173  0.91667  0.82667  Biso   1.000  H  0.171339
  H342     1.0000 0.69493  0.77827  0.82667  Biso   1.000  H  0.171315
  H343     1.0000 0.36160  0.25000  0.66000  Biso   1.000  H  0.171239
  H344     1.0000 0.75000  0.11160  0.66000  Biso   1.000  H  0.171242
  H345     1.0000 0.88840  0.63840  0.66000  Biso   1.000  H  0.171241
  H346     1.0000 0.25000  0.36160  0.84000  Biso   1.000  H  0.171241
  H347     1.0000 0.11160  0.75000  0.84000  Biso   1.000  H  0.171243
  H348     1.0000 0.63840  0.88840  0.84000  Biso   1.000  H  0.171242
  H349     1.0000 0.02827  0.58333  0.99333  Biso   1.000  H  0.171353
  H350     1.0000 0.41667  0.44493  0.99333  Biso   1.000  H  0.171266
  H351     1.0000 0.55507  0.97173  0.99333  Biso   1.000  H  0.171284
  H352     1.0000 0.91667  0.69493  0.17333  Biso   1.000  H  0.171226
  H353     1.0000 0.77827  0.08333  0.17333  Biso   1.000  H  0.171312
  H354     1.0000 0.30507  0.22173  0.17333  Biso   1.000  H  0.171288
  H355     1.0000 0.69493  0.91667  0.32667  Biso   1.000  H  0.171252
  H356     1.0000 0.08333  0.77827  0.32667  Biso   1.000  H  0.171339
  H357     1.0000 0.22173  0.30507  0.32667  Biso   1.000  H  0.171315
  H358     1.0000 0.58333  0.02827  0.50667  Biso   1.000  H  0.171349
  H359     1.0000 0.44493  0.41667  0.50667  Biso   1.000  H  0.171262
  H360     1.0000 0.97173  0.55507  0.50667  Biso   1.000  H  0.171280
  H361     1.0000 0.70840  0.77390  0.32170  Biso   1.000  H  0.174967
  H362     1.0000 0.22610  0.93450  0.32170  Biso   1.000  H  0.174970
  H363     1.0000 0.06550  0.29160  0.32170  Biso   1.000  H  0.174968
  H364     1.0000 0.77390  0.70840  0.17830  Biso   1.000  H  0.174955
  H365     1.0000 0.93450  0.22610  0.17830  Biso   1.000  H  0.174959
  H366     1.0000 0.29160  0.06550  0.17830  Biso   1.000  H  0.174957
  H367     1.0000 0.37507  0.10723  0.65503  Biso   1.000  H  0.175052
  H368     1.0000 0.89277  0.26783  0.65503  Biso   1.000  H  0.175043
  H369     1.0000 0.73217  0.62493  0.65503  Biso   1.000  H  0.175065
  H370     1.0000 0.44057  0.04173  0.51163  Biso   1.000  H  0.174926
  H371     1.0000 0.60117  0.55943  0.51163  Biso   1.000  H  0.174926
  H372     1.0000 0.95827  0.39883  0.51163  Biso   1.000  H  0.174922
  H373     1.0000 0.04173  0.44057  0.98837  Biso   1.000  H  0.174910
  H374     1.0000 0.55943  0.60117  0.98837  Biso   1.000  H  0.174910
  H375     1.0000 0.39883  0.95827  0.98837  Biso   1.000  H  0.174906
  H376     1.0000 0.10723  0.37507  0.84497  Biso   1.000  H  0.175072
  H377     1.0000 0.26783  0.89277  0.84497  Biso   1.000  H  0.175064
  H378     1.0000 0.62493  0.73217  0.84497  Biso   1.000  H  0.175085
  H379     1.0000 0.29160  0.22610  0.67830  Biso   1.000  H  0.174955
  H380     1.0000 0.77390  0.06550  0.67830  Biso   1.000  H  0.174959
  H381     1.0000 0.93450  0.70840  0.67830  Biso   1.000  H  0.174957
  H382     1.0000 0.22610  0.29160  0.82170  Biso   1.000  H  0.174967
  H383     1.0000 0.06550  0.77390  0.82170  Biso   1.000  H  0.174970
  H384     1.0000 0.70840  0.93450  0.82170  Biso   1.000  H  0.174968
  H385     1.0000 0.95827  0.55943  0.01163  Biso   1.000  H  0.174926
  H386     1.0000 0.44057  0.39883  0.01163  Biso   1.000  H  0.174926
  H387     1.0000 0.60117  0.04173  0.01163  Biso   1.000  H  0.174922
  H388     1.0000 0.89277  0.62493  0.15503  Biso   1.000  H  0.175052
  H389     1.0000 0.73217  0.10723  0.15503  Biso   1.000  H  0.175043
  H390     1.0000 0.37507  0.26783  0.15503  Biso   1.000  H  0.175064
  H391     1.0000 0.62493  0.89277  0.34497  Biso   1.000  H  0.175072
  H392     1.0000 0.10723  0.73217  0.34497  Biso   1.000  H  0.175064
  H393     1.0000 0.26783  0.37507  0.34497  Biso   1.000  H  0.175085
  H394     1.0000 0.55943  0.95827  0.48837  Biso   1.000  H  0.174910
  H395     1.0000 0.39883  0.44057  0.48837  Biso   1.000  H  0.174910
  H396     1.0000 0.04173  0.60117  0.48837  Biso   1.000  H  0.174906
  H397     1.0000 0.76270  0.54150  0.36470  Biso   1.000  H  0.167750
  H398     1.0000 0.45850  0.22120  0.36470  Biso   1.000  H  0.167749
  H399     1.0000 0.77880  0.23730  0.36470  Biso   1.000  H  0.167751
  H400     1.0000 0.54150  0.76270  0.13530  Biso   1.000  H  0.167750
  H401     1.0000 0.22120  0.45850  0.13530  Biso   1.000  H  0.167748
  H402     1.0000 0.23730  0.77880  0.13530  Biso   1.000  H  0.167750
  H403     1.0000 0.42937  0.87483  0.69803  Biso   1.000  H  0.167767
  H404     1.0000 0.12517  0.55453  0.69803  Biso   1.000  H  0.167481
  H405     1.0000 0.44547  0.57063  0.69803  Biso   1.000  H  0.167699
  H406     1.0000 0.20817  0.09603  0.46863  Biso   1.000  H  0.167750
  H407     1.0000 0.88787  0.79183  0.46863  Biso   1.000  H  0.167758
  H408     1.0000 0.90397  0.11213  0.46863  Biso   1.000  H  0.167749
  H409     1.0000 0.09603  0.20817  0.03137  Biso   1.000  H  0.167751
  H410     1.0000 0.79183  0.88787  0.03137  Biso   1.000  H  0.167760
  H411     1.0000 0.11213  0.90397  0.03137  Biso   1.000  H  0.167751
  H412     1.0000 0.87483  0.42937  0.80197  Biso   1.000  H  0.167746
  H413     1.0000 0.55453  0.12517  0.80197  Biso   1.000  H  0.167459
  H414     1.0000 0.57063  0.44547  0.80197  Biso   1.000  H  0.167677
  H415     1.0000 0.23730  0.45850  0.63530  Biso   1.000  H  0.167749
  H416     1.0000 0.54150  0.77880  0.63530  Biso   1.000  H  0.167748
  H417     1.0000 0.22120  0.76270  0.63530  Biso   1.000  H  0.167750
  H418     1.0000 0.45850  0.23730  0.86470  Biso   1.000  H  0.167750
  H419     1.0000 0.77880  0.54150  0.86470  Biso   1.000  H  0.167749
  H420     1.0000 0.76270  0.22120  0.86470  Biso   1.000  H  0.167751
  H421     1.0000 0.90397  0.79183  0.96863  Biso   1.000  H  0.167750
  H422     1.0000 0.20817  0.11213  0.96863  Biso   1.000  H  0.167759
  H423     1.0000 0.88787  0.09603  0.96863  Biso   1.000  H  0.167749
  H424     1.0000 0.12517  0.57063  0.19803  Biso   1.000  H  0.167767
  H425     1.0000 0.44547  0.87483  0.19803  Biso   1.000  H  0.167481
  H426     1.0000 0.42937  0.55453  0.19803  Biso   1.000  H  0.167698
  H427     1.0000 0.57063  0.12517  0.30197  Biso   1.000  H  0.167746
  H428     1.0000 0.87483  0.44547  0.30197  Biso   1.000  H  0.167459
  H429     1.0000 0.55453  0.42937  0.30197  Biso   1.000  H  0.167677
  H430     1.0000 0.79183  0.90397  0.53137  Biso   1.000  H  0.167751
  H431     1.0000 0.11213  0.20817  0.53137  Biso   1.000  H  0.167760
  H432     1.0000 0.09603  0.88787  0.53137  Biso   1.000  H  0.167751
  H433     1.0000 0.70210  0.51220  0.34230  Biso   1.000  H  0.166556
  H434     1.0000 0.48780  0.18990  0.34230  Biso   1.000  H  0.166556
  H435     1.0000 0.81010  0.29790  0.34230  Biso   1.000  H  0.166556
  H436     1.0000 0.51220  0.70210  0.15770  Biso   1.000  H  0.166569
  H437     1.0000 0.18990  0.48780  0.15770  Biso   1.000  H  0.166569
  H438     1.0000 0.29790  0.81010  0.15770  Biso   1.000  H  0.166569
  H439     1.0000 0.36877  0.84553  0.67563  Biso   1.000  H  0.166569
  H440     1.0000 0.15447  0.52323  0.67563  Biso   1.000  H  0.166537
  H441     1.0000 0.47677  0.63123  0.67563  Biso   1.000  H  0.166544
  H442     1.0000 0.17887  0.03543  0.49103  Biso   1.000  H  0.166318
  H443     1.0000 0.85657  0.82113  0.49103  Biso   1.000  H  0.166314
  H444     1.0000 0.96457  0.14343  0.49103  Biso   1.000  H  0.166360
  H445     1.0000 0.03543  0.17887  0.00897  Biso   1.000  H  0.166306
  H446     1.0000 0.82113  0.85657  0.00897  Biso   1.000  H  0.166302
  H447     1.0000 0.14343  0.96457  0.00897  Biso   1.000  H  0.166349
  H448     1.0000 0.84553  0.36877  0.82437  Biso   1.000  H  0.166612
  H449     1.0000 0.52323  0.15447  0.82437  Biso   1.000  H  0.166579
  H450     1.0000 0.63123  0.47677  0.82437  Biso   1.000  H  0.166586
  H451     1.0000 0.29790  0.48780  0.65770  Biso   1.000  H  0.166569
  H452     1.0000 0.51220  0.81010  0.65770  Biso   1.000  H  0.166569
  H453     1.0000 0.18990  0.70210  0.65770  Biso   1.000  H  0.166569
  H454     1.0000 0.48780  0.29790  0.84230  Biso   1.000  H  0.166556
  H455     1.0000 0.81010  0.51220  0.84230  Biso   1.000  H  0.166556
  H456     1.0000 0.70210  0.18990  0.84230  Biso   1.000  H  0.166556
  H457     1.0000 0.96457  0.82113  0.99103  Biso   1.000  H  0.166318
  H458     1.0000 0.17887  0.14343  0.99103  Biso   1.000  H  0.166314
  H459     1.0000 0.85657  0.03543  0.99103  Biso   1.000  H  0.166360
  H460     1.0000 0.15447  0.63123  0.17563  Biso   1.000  H  0.166569
  H461     1.0000 0.47677  0.84553  0.17563  Biso   1.000  H  0.166537
  H462     1.0000 0.36877  0.52323  0.17563  Biso   1.000  H  0.166544
  H463     1.0000 0.63123  0.15447  0.32437  Biso   1.000  H  0.166612
  H464     1.0000 0.84553  0.47677  0.32437  Biso   1.000  H  0.166579
  H465     1.0000 0.52323  0.36877  0.32437  Biso   1.000  H  0.166586
  H466     1.0000 0.82113  0.96457  0.50897  Biso   1.000  H  0.166306
  H467     1.0000 0.14343  0.17887  0.50897  Biso   1.000  H  0.166302
  H468     1.0000 0.03543  0.85657  0.50897  Biso   1.000  H  0.166349
  H469     1.0000 0.67690  0.49730  0.37180  Biso   1.000  H  0.173929
  H470     1.0000 0.50270  0.17960  0.37180  Biso   1.000  H  0.173929
  H471     1.0000 0.82040  0.32310  0.37180  Biso   1.000  H  0.173928
  H472     1.0000 0.49730  0.67690  0.12820  Biso   1.000  H  0.173923
  H473     1.0000 0.17960  0.50270  0.12820  Biso   1.000  H  0.173923
  H474     1.0000 0.32310  0.82040  0.12820  Biso   1.000  H  0.173922
  H475     1.0000 0.34357  0.83063  0.70513  Biso   1.000  H  0.173919
  H476     1.0000 0.16937  0.51293  0.70513  Biso   1.000  H  0.173880
  H477     1.0000 0.48707  0.65643  0.70513  Biso   1.000  H  0.173876
  H478     1.0000 0.16397  0.01023  0.46153  Biso   1.000  H  0.174125
  H479     1.0000 0.84627  0.83603  0.46153  Biso   1.000  H  0.173993
  H480     1.0000 0.98977  0.15373  0.46153  Biso   1.000  H  0.174102
  H481     1.0000 0.01023  0.16397  0.03847  Biso   1.000  H  0.174131
  H482     1.0000 0.83603  0.84627  0.03847  Biso   1.000  H  0.174000
  H483     1.0000 0.15373  0.98977  0.03847  Biso   1.000  H  0.174109
  H484     1.0000 0.83063  0.34357  0.79487  Biso   1.000  H  0.173948
  H485     1.0000 0.51293  0.16937  0.79487  Biso   1.000  H  0.173910
  H486     1.0000 0.65643  0.48707  0.79487  Biso   1.000  H  0.173905
  H487     1.0000 0.32310  0.50270  0.62820  Biso   1.000  H  0.173923
  H488     1.0000 0.49730  0.82040  0.62820  Biso   1.000  H  0.173923
  H489     1.0000 0.17960  0.67690  0.62820  Biso   1.000  H  0.173922
  H490     1.0000 0.50270  0.32310  0.87180  Biso   1.000  H  0.173929
  H491     1.0000 0.82040  0.49730  0.87180  Biso   1.000  H  0.173929
  H492     1.0000 0.67690  0.17960  0.87180  Biso   1.000  H  0.173928
  H493     1.0000 0.98977  0.83603  0.96153  Biso   1.000  H  0.174125
  H494     1.0000 0.16397  0.15373  0.96153  Biso   1.000  H  0.173993
  H495     1.0000 0.84627  0.01023  0.96153  Biso   1.000  H  0.174102
  H496     1.0000 0.16937  0.65643  0.20513  Biso   1.000  H  0.173919
  H497     1.0000 0.48707  0.83063  0.20513  Biso   1.000  H  0.173880
  H498     1.0000 0.34357  0.51293  0.20513  Biso   1.000  H  0.173876
  H499     1.0000 0.65643  0.16937  0.29487  Biso   1.000  H  0.173948
  H500     1.0000 0.83063  0.48707  0.29487  Biso   1.000  H  0.173910
  H501     1.0000 0.51293  0.34357  0.29487  Biso   1.000  H  0.173905
  H502     1.0000 0.83603  0.98977  0.53847  Biso   1.000  H  0.174131
  H503     1.0000 0.15373  0.16397  0.53847  Biso   1.000  H  0.174000
  H504     1.0000 0.01023  0.84627  0.53847  Biso   1.000  H  0.174109
  H505     1.0000 0.87830  0.97800  0.40800  Biso   1.000  H  0.103928
  H506     1.0000 0.02200  0.90030  0.40800  Biso   1.000  H  0.103930
  H507     1.0000 0.09970  0.12170  0.40800  Biso   1.000  H  0.103930
  H508     1.0000 0.97800  0.87830  0.09200  Biso   1.000  H  0.103928
  H509     1.0000 0.90030  0.02200  0.09200  Biso   1.000  H  0.103929
  H510     1.0000 0.12170  0.09970  0.09200  Biso   1.000  H  0.103929
  H511     1.0000 0.54497  0.31133  0.74133  Biso   1.000  H  0.103872
  H512     1.0000 0.68867  0.23363  0.74133  Biso   1.000  H  0.103937
  H513     1.0000 0.76637  0.45503  0.74133  Biso   1.000  H  0.103934
  H514     1.0000 0.64467  0.21163  0.42533  Biso   1.000  H  0.103913
  H515     1.0000 0.56697  0.35533  0.42533  Biso   1.000  H  0.103891
  H516     1.0000 0.78837  0.43303  0.42533  Biso   1.000  H  0.103892
  H517     1.0000 0.21163  0.64467  0.07467  Biso   1.000  H  0.103915
  H518     1.0000 0.35533  0.56697  0.07467  Biso   1.000  H  0.103892
  H519     1.0000 0.43303  0.78837  0.07467  Biso   1.000  H  0.103893
  H520     1.0000 0.31133  0.54497  0.75867  Biso   1.000  H  0.103873
  H521     1.0000 0.23363  0.68867  0.75867  Biso   1.000  H  0.103937
  H522     1.0000 0.45503  0.76637  0.75867  Biso   1.000  H  0.103934
  H523     1.0000 0.12170  0.02200  0.59200  Biso   1.000  H  0.103928
  H524     1.0000 0.97800  0.09970  0.59200  Biso   1.000  H  0.103929
  H525     1.0000 0.90030  0.87830  0.59200  Biso   1.000  H  0.103929
  H526     1.0000 0.02200  0.12170  0.90800  Biso   1.000  H  0.103928
  H527     1.0000 0.09970  0.97800  0.90800  Biso   1.000  H  0.103930
  H528     1.0000 0.87830  0.90030  0.90800  Biso   1.000  H  0.103930
  H529     1.0000 0.78837  0.35533  0.92533  Biso   1.000  H  0.103913
  H530     1.0000 0.64467  0.43303  0.92533  Biso   1.000  H  0.103891
  H531     1.0000 0.56697  0.21163  0.92533  Biso   1.000  H  0.103892
  H532     1.0000 0.68867  0.45503  0.24133  Biso   1.000  H  0.103871
  H533     1.0000 0.76637  0.31133  0.24133  Biso   1.000  H  0.103937
  H534     1.0000 0.54497  0.23363  0.24133  Biso   1.000  H  0.103934
  H535     1.0000 0.45503  0.68867  0.25867  Biso   1.000  H  0.103873
  H536     1.0000 0.31133  0.76637  0.25867  Biso   1.000  H  0.103937
  H537     1.0000 0.23363  0.54497  0.25867  Biso   1.000  H  0.103934
  H538     1.0000 0.35533  0.78837  0.57467  Biso   1.000  H  0.103915
  H539     1.0000 0.43303  0.64467  0.57467  Biso   1.000  H  0.103892
  H540     1.0000 0.21163  0.56697  0.57467  Biso   1.000  H  0.103894
  N1       1.0000 0.73850  0.65110  0.38125  Biso   1.000  N  -0.231161
  N2       1.0000 0.34890  0.08740  0.38125  Biso   1.000  N  -0.231155
  N3       1.0000 0.91260  0.26150  0.38125  Biso   1.000  N  -0.231153
  N4       1.0000 0.65110  0.73850  0.11875  Biso   1.000  N  -0.231190
  N5       1.0000 0.08740  0.34890  0.11875  Biso   1.000  N  -0.231184
  N6       1.0000 0.26150  0.91260  0.11875  Biso   1.000  N  -0.231183
  N7       1.0000 0.40517  0.98443  0.71458  Biso   1.000  N  -0.231133
  N8       1.0000 0.01557  0.42073  0.71458  Biso   1.000  N  -0.231164
  N9       1.0000 0.57927  0.59483  0.71458  Biso   1.000  N  -0.231172
  N10      1.0000 0.31777  0.07183  0.45208  Biso   1.000  N  -0.230697
  N11      1.0000 0.75407  0.68223  0.45208  Biso   1.000  N  -0.230635
  N12      1.0000 0.92817  0.24593  0.45208  Biso   1.000  N  -0.230589
  N13      1.0000 0.07183  0.31777  0.04792  Biso   1.000  N  -0.230664
  N14      1.0000 0.68223  0.75407  0.04792  Biso   1.000  N  -0.230602
  N15      1.0000 0.24593  0.92817  0.04792  Biso   1.000  N  -0.230556
  N16      1.0000 0.98443  0.40517  0.78542  Biso   1.000  N  -0.230787
  N17      1.0000 0.42073  0.01557  0.78542  Biso   1.000  N  -0.230833
  N18      1.0000 0.59483  0.57927  0.78542  Biso   1.000  N  -0.230820
  N19      1.0000 0.26150  0.34890  0.61875  Biso   1.000  N  -0.231190
  N20      1.0000 0.65110  0.91260  0.61875  Biso   1.000  N  -0.231184
  N21      1.0000 0.08740  0.73850  0.61875  Biso   1.000  N  -0.231182
  N22      1.0000 0.34890  0.26150  0.88125  Biso   1.000  N  -0.231161
  N23      1.0000 0.91260  0.65110  0.88125  Biso   1.000  N  -0.231155
  N24      1.0000 0.73850  0.08740  0.88125  Biso   1.000  N  -0.231154
  N25      1.0000 0.92817  0.68223  0.95208  Biso   1.000  N  -0.230697
  N26      1.0000 0.31777  0.24593  0.95208  Biso   1.000  N  -0.230635
  N27      1.0000 0.75407  0.07183  0.95208  Biso   1.000  N  -0.230589
  N28      1.0000 0.01557  0.59483  0.21458  Biso   1.000  N  -0.231133
  N29      1.0000 0.57927  0.98443  0.21458  Biso   1.000  N  -0.231164
  N30      1.0000 0.40517  0.42073  0.21458  Biso   1.000  N  -0.231172
  N31      1.0000 0.59483  0.01557  0.28542  Biso   1.000  N  -0.230787
  N32      1.0000 0.98443  0.57927  0.28542  Biso   1.000  N  -0.230833
  N33      1.0000 0.42073  0.40517  0.28542  Biso   1.000  N  -0.230820
  N34      1.0000 0.68223  0.92817  0.54792  Biso   1.000  N  -0.230664
  N35      1.0000 0.24593  0.31777  0.54792  Biso   1.000  N  -0.230602
  N36      1.0000 0.07183  0.75407  0.54792  Biso   1.000  N  -0.230556
  N37      1.0000 0.73090  0.71100  0.37510  Biso   1.000  N  -0.178965
  N38      1.0000 0.28900  0.01990  0.37510  Biso   1.000  N  -0.178968
  N39      1.0000 0.98010  0.26910  0.37510  Biso   1.000  N  -0.178967
  N40      1.0000 0.71100  0.73090  0.12490  Biso   1.000  N  -0.178988
  N41      1.0000 0.01990  0.28900  0.12490  Biso   1.000  N  -0.178990
  N42      1.0000 0.26910  0.98010  0.12490  Biso   1.000  N  -0.178989
  N43      1.0000 0.39757  0.04433  0.70843  Biso   1.000  N  -0.179033
  N44      1.0000 0.95567  0.35323  0.70843  Biso   1.000  N  -0.179062
  N45      1.0000 0.64677  0.60243  0.70843  Biso   1.000  N  -0.179024
  N46      1.0000 0.37767  0.06423  0.45823  Biso   1.000  N  -0.178932
  N47      1.0000 0.68657  0.62233  0.45823  Biso   1.000  N  -0.178906
  N48      1.0000 0.93577  0.31343  0.45823  Biso   1.000  N  -0.178953
  N49      1.0000 0.06423  0.37767  0.04177  Biso   1.000  N  -0.178911
  N50      1.0000 0.62233  0.68657  0.04177  Biso   1.000  N  -0.178886
  N51      1.0000 0.31343  0.93577  0.04177  Biso   1.000  N  -0.178932
  N52      1.0000 0.04433  0.39757  0.79157  Biso   1.000  N  -0.178960
  N53      1.0000 0.35323  0.95567  0.79157  Biso   1.000  N  -0.178988
  N54      1.0000 0.60243  0.64677  0.79157  Biso   1.000  N  -0.178956
  N55      1.0000 0.26910  0.28900  0.62490  Biso   1.000  N  -0.178987
  N56      1.0000 0.71100  0.98010  0.62490  Biso   1.000  N  -0.178990
  N57      1.0000 0.01990  0.73090  0.62490  Biso   1.000  N  -0.178989
  N58      1.0000 0.28900  0.26910  0.87510  Biso   1.000  N  -0.178966
  N59      1.0000 0.98010  0.71100  0.87510  Biso   1.000  N  -0.178968
  N60      1.0000 0.73090  0.01990  0.87510  Biso   1.000  N  -0.178967
  N61      1.0000 0.93577  0.62233  0.95823  Biso   1.000  N  -0.178932
  N62      1.0000 0.37767  0.31343  0.95823  Biso   1.000  N  -0.178906
  N63      1.0000 0.68657  0.06423  0.95823  Biso   1.000  N  -0.178952
  N64      1.0000 0.95567  0.60243  0.20843  Biso   1.000  N  -0.179033
  N65      1.0000 0.64677  0.04433  0.20843  Biso   1.000  N  -0.179062
  N66      1.0000 0.39757  0.35323  0.20843  Biso   1.000  N  -0.179025
  N67      1.0000 0.60243  0.95567  0.29157  Biso   1.000  N  -0.178960
  N68      1.0000 0.04433  0.64677  0.29157  Biso   1.000  N  -0.178988
  N69      1.0000 0.35323  0.39757  0.29157  Biso   1.000  N  -0.178955
  N70      1.0000 0.62233  0.93577  0.54177  Biso   1.000  N  -0.178911
  N71      1.0000 0.31343  0.37767  0.54177  Biso   1.000  N  -0.178886
  N72      1.0000 0.06423  0.68657  0.54177  Biso   1.000  N  -0.178932
  N73      1.0000 0.64920  0.56550  0.27426  Biso   1.000  N  -0.197279
  N74      1.0000 0.43450  0.08370  0.27426  Biso   1.000  N  -0.197283
  N75      1.0000 0.91630  0.35080  0.27426  Biso   1.000  N  -0.197284
  N76      1.0000 0.56550  0.64920  0.22574  Biso   1.000  N  -0.197249
  N77      1.0000 0.08370  0.43450  0.22574  Biso   1.000  N  -0.197255
  N78      1.0000 0.35080  0.91630  0.22574  Biso   1.000  N  -0.197245
  N79      1.0000 0.31587  0.89883  0.60759  Biso   1.000  N  -0.197187
  N80      1.0000 0.10117  0.41703  0.60759  Biso   1.000  N  -0.197215
  N81      1.0000 0.58297  0.68413  0.60759  Biso   1.000  N  -0.197268
  N82      1.0000 0.23217  0.98253  0.55907  Biso   1.000  N  -0.197241
  N83      1.0000 0.75037  0.76783  0.55907  Biso   1.000  N  -0.197315
  N84      1.0000 0.01747  0.24963  0.55907  Biso   1.000  N  -0.197333
  N85      1.0000 0.98253  0.23217  0.94093  Biso   1.000  N  -0.197262
  N86      1.0000 0.76783  0.75037  0.94093  Biso   1.000  N  -0.197336
  N87      1.0000 0.24963  0.01747  0.94093  Biso   1.000  N  -0.197353
  N88      1.0000 0.89883  0.31587  0.89241  Biso   1.000  N  -0.197161
  N89      1.0000 0.41703  0.10117  0.89241  Biso   1.000  N  -0.197190
  N90      1.0000 0.68413  0.58297  0.89241  Biso   1.000  N  -0.197243
  N91      1.0000 0.35080  0.43450  0.72574  Biso   1.000  N  -0.197249
  N92      1.0000 0.56550  0.91630  0.72574  Biso   1.000  N  -0.197255
  N93      1.0000 0.08370  0.64920  0.72574  Biso   1.000  N  -0.197245
  N94      1.0000 0.43450  0.35080  0.77426  Biso   1.000  N  -0.197279
  N95      1.0000 0.91630  0.56550  0.77426  Biso   1.000  N  -0.197283
  N96      1.0000 0.64920  0.08370  0.77426  Biso   1.000  N  -0.197284
  N97      1.0000 0.01747  0.76783  0.05907  Biso   1.000  N  -0.197241
  N98      1.0000 0.23217  0.24963  0.05907  Biso   1.000  N  -0.197315
  N99      1.0000 0.75037  0.98253  0.05907  Biso   1.000  N  -0.197333
  N100     1.0000 0.10117  0.68413  0.10759  Biso   1.000  N  -0.197186
  N101     1.0000 0.58297  0.89883  0.10759  Biso   1.000  N  -0.197215
  N102     1.0000 0.31587  0.41703  0.10759  Biso   1.000  N  -0.197268
  N103     1.0000 0.68413  0.10117  0.39241  Biso   1.000  N  -0.197162
  N104     1.0000 0.89883  0.58297  0.39241  Biso   1.000  N  -0.197190
  N105     1.0000 0.41703  0.31587  0.39241  Biso   1.000  N  -0.197243
  N106     1.0000 0.76783  0.01747  0.44093  Biso   1.000  N  -0.197262
  N107     1.0000 0.24963  0.23217  0.44093  Biso   1.000  N  -0.197336
  N108     1.0000 0.98253  0.75037  0.44093  Biso   1.000  N  -0.197353
  N109     1.0000 0.58200  0.56000  0.27944  Biso   1.000  N  -0.235111
  N110     1.0000 0.44000  0.02200  0.27944  Biso   1.000  N  -0.235129
  N111     1.0000 0.97800  0.41800  0.27944  Biso   1.000  N  -0.235077
  N112     1.0000 0.56000  0.58200  0.22056  Biso   1.000  N  -0.235539
  N113     1.0000 0.02200  0.44000  0.22056  Biso   1.000  N  -0.235535
  N114     1.0000 0.41800  0.97800  0.22056  Biso   1.000  N  -0.235546
  N115     1.0000 0.24867  0.89333  0.61277  Biso   1.000  N  -0.235582
  N116     1.0000 0.10667  0.35533  0.61277  Biso   1.000  N  -0.235519
  N117     1.0000 0.64467  0.75133  0.61277  Biso   1.000  N  -0.235527
  N118     1.0000 0.22667  0.91533  0.55389  Biso   1.000  N  -0.235069
  N119     1.0000 0.68867  0.77333  0.55389  Biso   1.000  N  -0.235125
  N120     1.0000 0.08467  0.31133  0.55389  Biso   1.000  N  -0.235126
  N121     1.0000 0.91533  0.22667  0.94611  Biso   1.000  N  -0.235102
  N122     1.0000 0.77333  0.68867  0.94611  Biso   1.000  N  -0.235158
  N123     1.0000 0.31133  0.08467  0.94611  Biso   1.000  N  -0.235158
  N124     1.0000 0.89333  0.24867  0.88723  Biso   1.000  N  -0.235542
  N125     1.0000 0.35533  0.10667  0.88723  Biso   1.000  N  -0.235479
  N126     1.0000 0.75133  0.64467  0.88723  Biso   1.000  N  -0.235487
  N127     1.0000 0.41800  0.44000  0.72056  Biso   1.000  N  -0.235539
  N128     1.0000 0.56000  0.97800  0.72056  Biso   1.000  N  -0.235536
  N129     1.0000 0.02200  0.58200  0.72056  Biso   1.000  N  -0.235546
  N130     1.0000 0.44000  0.41800  0.77944  Biso   1.000  N  -0.235111
  N131     1.0000 0.97800  0.56000  0.77944  Biso   1.000  N  -0.235129
  N132     1.0000 0.58200  0.02200  0.77944  Biso   1.000  N  -0.235077
  N133     1.0000 0.08467  0.77333  0.05389  Biso   1.000  N  -0.235069
  N134     1.0000 0.22667  0.31133  0.05389  Biso   1.000  N  -0.235125
  N135     1.0000 0.68867  0.91533  0.05389  Biso   1.000  N  -0.235126
  N136     1.0000 0.10667  0.75133  0.11277  Biso   1.000  N  -0.235582
  N137     1.0000 0.64467  0.89333  0.11277  Biso   1.000  N  -0.235519
  N138     1.0000 0.24867  0.35533  0.11277  Biso   1.000  N  -0.235527
  N139     1.0000 0.75133  0.10667  0.38723  Biso   1.000  N  -0.235542
  N140     1.0000 0.89333  0.64467  0.38723  Biso   1.000  N  -0.235479
  N141     1.0000 0.35533  0.24867  0.38723  Biso   1.000  N  -0.235487
  N142     1.0000 0.77333  0.08467  0.44611  Biso   1.000  N  -0.235102
  N143     1.0000 0.31133  0.22667  0.44611  Biso   1.000  N  -0.235158
  N144     1.0000 0.91533  0.68867  0.44611  Biso   1.000  N  -0.235158
  O1       1.0000 0.89033  0.79479  0.40765  Biso   1.000  O  -0.595905
  O2       1.0000 0.20521  0.09554  0.40765  Biso   1.000  O  -0.595906
  O3       1.0000 0.90446  0.10967  0.40765  Biso   1.000  O  -0.595905
  O4       1.0000 0.79479  0.89033  0.09235  Biso   1.000  O  -0.595902
  O5       1.0000 0.09554  0.20521  0.09235  Biso   1.000  O  -0.595903
  O6       1.0000 0.10967  0.90446  0.09235  Biso   1.000  O  -0.595902
  O7       1.0000 0.55700  0.12812  0.74098  Biso   1.000  O  -0.595876
  O8       1.0000 0.87188  0.42887  0.74098  Biso   1.000  O  -0.595861
  O9       1.0000 0.57113  0.44300  0.74098  Biso   1.000  O  -0.595983
  O10      1.0000 0.46146  0.22366  0.42568  Biso   1.000  O  -0.596040
  O11      1.0000 0.76221  0.53854  0.42568  Biso   1.000  O  -0.595877
  O12      1.0000 0.77634  0.23779  0.42568  Biso   1.000  O  -0.595858
  O13      1.0000 0.22366  0.46146  0.07432  Biso   1.000  O  -0.596039
  O14      1.0000 0.53854  0.76221  0.07432  Biso   1.000  O  -0.595875
  O15      1.0000 0.23779  0.77634  0.07432  Biso   1.000  O  -0.595857
  O16      1.0000 0.12812  0.55700  0.75902  Biso   1.000  O  -0.595919
  O17      1.0000 0.42887  0.87188  0.75902  Biso   1.000  O  -0.595898
  O18      1.0000 0.44300  0.57113  0.75902  Biso   1.000  O  -0.596043
  O19      1.0000 0.10967  0.20521  0.59235  Biso   1.000  O  -0.595902
  O20      1.0000 0.79479  0.90446  0.59235  Biso   1.000  O  -0.595903
  O21      1.0000 0.09554  0.89033  0.59235  Biso   1.000  O  -0.595902
  O22      1.0000 0.20521  0.10967  0.90765  Biso   1.000  O  -0.595905
  O23      1.0000 0.90446  0.79479  0.90765  Biso   1.000  O  -0.595906
  O24      1.0000 0.89033  0.09554  0.90765  Biso   1.000  O  -0.595905
  O25      1.0000 0.77634  0.53854  0.92568  Biso   1.000  O  -0.596040
  O26      1.0000 0.46146  0.23779  0.92568  Biso   1.000  O  -0.595876
  O27      1.0000 0.76221  0.22366  0.92568  Biso   1.000  O  -0.595858
  O28      1.0000 0.87188  0.44300  0.24098  Biso   1.000  O  -0.595876
  O29      1.0000 0.57113  0.12812  0.24098  Biso   1.000  O  -0.595861
  O30      1.0000 0.55700  0.42887  0.24098  Biso   1.000  O  -0.595983
  O31      1.0000 0.44300  0.87188  0.25902  Biso   1.000  O  -0.595919
  O32      1.0000 0.12812  0.57113  0.25902  Biso   1.000  O  -0.595898
  O33      1.0000 0.42887  0.55700  0.25902  Biso   1.000  O  -0.596043
  O34      1.0000 0.53854  0.77634  0.57432  Biso   1.000  O  -0.596039
  O35      1.0000 0.23779  0.46146  0.57432  Biso   1.000  O  -0.595876
  O36      1.0000 0.22366  0.76221  0.57432  Biso   1.000  O  -0.595857
  O37      1.0000 0.80989  0.83639  0.40465  Biso   1.000  O  -0.617322
  O38      1.0000 0.16361  0.97350  0.40465  Biso   1.000  O  -0.617322
  O39      1.0000 0.02650  0.19011  0.40465  Biso   1.000  O  -0.617323
  O40      1.0000 0.83639  0.80989  0.09535  Biso   1.000  O  -0.617315
  O41      1.0000 0.97350  0.16361  0.09535  Biso   1.000  O  -0.617315
  O42      1.0000 0.19011  0.02650  0.09535  Biso   1.000  O  -0.617316
  O43      1.0000 0.47656  0.16972  0.73798  Biso   1.000  O  -0.617327
  O44      1.0000 0.83028  0.30683  0.73798  Biso   1.000  O  -0.617157
  O45      1.0000 0.69317  0.52344  0.73798  Biso   1.000  O  -0.617319
  O46      1.0000 0.50306  0.14322  0.42868  Biso   1.000  O  -0.617408
  O47      1.0000 0.64017  0.49694  0.42868  Biso   1.000  O  -0.617408
  O48      1.0000 0.85678  0.35983  0.42868  Biso   1.000  O  -0.617390
  O49      1.0000 0.14322  0.50306  0.07132  Biso   1.000  O  -0.617416
  O50      1.0000 0.49694  0.64017  0.07132  Biso   1.000  O  -0.617416
  O51      1.0000 0.35983  0.85678  0.07132  Biso   1.000  O  -0.617398
  O52      1.0000 0.16972  0.47656  0.76202  Biso   1.000  O  -0.617399
  O53      1.0000 0.30683  0.83028  0.76202  Biso   1.000  O  -0.617229
  O54      1.0000 0.52344  0.69317  0.76202  Biso   1.000  O  -0.617391
  O55      1.0000 0.19011  0.16361  0.59535  Biso   1.000  O  -0.617315
  O56      1.0000 0.83639  0.02650  0.59535  Biso   1.000  O  -0.617315
  O57      1.0000 0.97350  0.80989  0.59535  Biso   1.000  O  -0.617316
  O58      1.0000 0.16361  0.19011  0.90465  Biso   1.000  O  -0.617322
  O59      1.0000 0.02650  0.83639  0.90465  Biso   1.000  O  -0.617322
  O60      1.0000 0.80989  0.97350  0.90465  Biso   1.000  O  -0.617323
  O61      1.0000 0.85678  0.49694  0.92868  Biso   1.000  O  -0.617408
  O62      1.0000 0.50306  0.35983  0.92868  Biso   1.000  O  -0.617408
  O63      1.0000 0.64017  0.14322  0.92868  Biso   1.000  O  -0.617390
  O64      1.0000 0.83028  0.52344  0.23798  Biso   1.000  O  -0.617326
  O65      1.0000 0.69317  0.16972  0.23798  Biso   1.000  O  -0.617157
  O66      1.0000 0.47656  0.30683  0.23798  Biso   1.000  O  -0.617319
  O67      1.0000 0.52344  0.83028  0.26202  Biso   1.000  O  -0.617399
  O68      1.0000 0.16972  0.69317  0.26202  Biso   1.000  O  -0.617229
  O69      1.0000 0.30683  0.47656  0.26202  Biso   1.000  O  -0.617391
  O70      1.0000 0.49694  0.85678  0.57132  Biso   1.000  O  -0.617416
  O71      1.0000 0.35983  0.50306  0.57132  Biso   1.000  O  -0.617416
  O72      1.0000 0.14322  0.64017  0.57132  Biso   1.000  O  -0.617398
