data_image0
_cell_length_a       26.546
_cell_length_b       26.546
_cell_length_c       26.546
_cell_angle_alpha    90
_cell_angle_beta     90
_cell_angle_gamma    90

_symmetry_space_group_name_H-M    "P 1"
_symmetry_int_tables_number       1

loop_
  _symmetry_equiv_pos_as_xyz
  'x, y, z'

loop_
  _atom_site_label
  _atom_site_occupancy
  _atom_site_fract_x
  _atom_site_fract_y
  _atom_site_fract_z
  _atom_site_thermal_displace_type
  _atom_site_B_iso_or_equiv
  _atom_site_type_symbol
  _atom_site_charge
  C1       1.0000 0.11910  0.88300  0.50000  Biso   1.000  C  0.568338
  C2       1.0000 0.88090  0.11700  0.50000  Biso   1.000  C  0.568339
  C3       1.0000 0.88090  0.88300  0.50000  Biso   1.000  C  0.568339
  C4       1.0000 0.11910  0.11700  0.50000  Biso   1.000  C  0.568338
  C5       1.0000 0.50000  0.11910  0.88300  Biso   1.000  C  0.568338
  C6       1.0000 0.50000  0.88090  0.11700  Biso   1.000  C  0.568338
  C7       1.0000 0.50000  0.88090  0.88300  Biso   1.000  C  0.568338
  C8       1.0000 0.50000  0.11910  0.11700  Biso   1.000  C  0.568338
  C9       1.0000 0.88300  0.50000  0.11910  Biso   1.000  C  0.568338
  C10      1.0000 0.11700  0.50000  0.88090  Biso   1.000  C  0.568338
  C11      1.0000 0.88300  0.50000  0.88090  Biso   1.000  C  0.568338
  C12      1.0000 0.11700  0.50000  0.11910  Biso   1.000  C  0.568338
  C13      1.0000 0.11910  0.38300  0.00000  Biso   1.000  C  0.568333
  C14      1.0000 0.88090  0.61700  0.00000  Biso   1.000  C  0.568333
  C15      1.0000 0.88090  0.38300  0.00000  Biso   1.000  C  0.568333
  C16      1.0000 0.11910  0.61700  0.00000  Biso   1.000  C  0.568333
  C17      1.0000 0.50000  0.61910  0.38300  Biso   1.000  C  0.568338
  C18      1.0000 0.50000  0.38090  0.61700  Biso   1.000  C  0.568338
  C19      1.0000 0.50000  0.38090  0.38300  Biso   1.000  C  0.568338
  C20      1.0000 0.50000  0.61910  0.61700  Biso   1.000  C  0.568338
  C21      1.0000 0.88300  0.00000  0.61910  Biso   1.000  C  0.568332
  C22      1.0000 0.11700  0.00000  0.38090  Biso   1.000  C  0.568332
  C23      1.0000 0.88300  0.00000  0.38090  Biso   1.000  C  0.568332
  C24      1.0000 0.11700  0.00000  0.61910  Biso   1.000  C  0.568332
  C25      1.0000 0.61910  0.88300  0.00000  Biso   1.000  C  0.568332
  C26      1.0000 0.38090  0.11700  0.00000  Biso   1.000  C  0.568332
  C27      1.0000 0.38090  0.88300  0.00000  Biso   1.000  C  0.568332
  C28      1.0000 0.61910  0.11700  0.00000  Biso   1.000  C  0.568332
  C29      1.0000 0.00000  0.11910  0.38300  Biso   1.000  C  0.568333
  C30      1.0000 0.00000  0.88090  0.61700  Biso   1.000  C  0.568333
  C31      1.0000 0.00000  0.88090  0.38300  Biso   1.000  C  0.568333
  C32      1.0000 0.00000  0.11910  0.61700  Biso   1.000  C  0.568333
  C33      1.0000 0.38300  0.50000  0.61910  Biso   1.000  C  0.568338
  C34      1.0000 0.61700  0.50000  0.38090  Biso   1.000  C  0.568338
  C35      1.0000 0.38300  0.50000  0.38090  Biso   1.000  C  0.568338
  C36      1.0000 0.61700  0.50000  0.61910  Biso   1.000  C  0.568338
  C37      1.0000 0.61910  0.38300  0.50000  Biso   1.000  C  0.568338
  C38      1.0000 0.38090  0.61700  0.50000  Biso   1.000  C  0.568338
  C39      1.0000 0.38090  0.38300  0.50000  Biso   1.000  C  0.568338
  C40      1.0000 0.61910  0.61700  0.50000  Biso   1.000  C  0.568338
  C41      1.0000 0.00000  0.61910  0.88300  Biso   1.000  C  0.568332
  C42      1.0000 0.00000  0.38090  0.11700  Biso   1.000  C  0.568332
  C43      1.0000 0.00000  0.38090  0.88300  Biso   1.000  C  0.568332
  C44      1.0000 0.00000  0.61910  0.11700  Biso   1.000  C  0.568332
  C45      1.0000 0.38300  0.00000  0.11910  Biso   1.000  C  0.568333
  C46      1.0000 0.61700  0.00000  0.88090  Biso   1.000  C  0.568333
  C47      1.0000 0.38300  0.00000  0.88090  Biso   1.000  C  0.568333
  C48      1.0000 0.61700  0.00000  0.11910  Biso   1.000  C  0.568333
  C49      1.0000 0.15770  0.84120  0.50000  Biso   1.000  C  -0.052663
  C50      1.0000 0.84230  0.15880  0.50000  Biso   1.000  C  -0.052663
  C51      1.0000 0.84230  0.84120  0.50000  Biso   1.000  C  -0.052663
  C52      1.0000 0.15770  0.15880  0.50000  Biso   1.000  C  -0.052663
  C53      1.0000 0.50000  0.15770  0.84120  Biso   1.000  C  -0.052663
  C54      1.0000 0.50000  0.84230  0.15880  Biso   1.000  C  -0.052663
  C55      1.0000 0.50000  0.84230  0.84120  Biso   1.000  C  -0.052663
  C56      1.0000 0.50000  0.15770  0.15880  Biso   1.000  C  -0.052663
  C57      1.0000 0.84120  0.50000  0.15770  Biso   1.000  C  -0.052663
  C58      1.0000 0.15880  0.50000  0.84230  Biso   1.000  C  -0.052663
  C59      1.0000 0.84120  0.50000  0.84230  Biso   1.000  C  -0.052663
  C60      1.0000 0.15880  0.50000  0.15770  Biso   1.000  C  -0.052663
  C61      1.0000 0.15770  0.34120  0.00000  Biso   1.000  C  -0.052603
  C62      1.0000 0.84230  0.65880  0.00000  Biso   1.000  C  -0.052603
  C63      1.0000 0.84230  0.34120  0.00000  Biso   1.000  C  -0.052603
  C64      1.0000 0.15770  0.65880  0.00000  Biso   1.000  C  -0.052603
  C65      1.0000 0.50000  0.65770  0.34120  Biso   1.000  C  -0.052645
  C66      1.0000 0.50000  0.34230  0.65880  Biso   1.000  C  -0.052645
  C67      1.0000 0.50000  0.34230  0.34120  Biso   1.000  C  -0.052645
  C68      1.0000 0.50000  0.65770  0.65880  Biso   1.000  C  -0.052645
  C69      1.0000 0.84120  0.00000  0.65770  Biso   1.000  C  -0.052604
  C70      1.0000 0.15880  0.00000  0.34230  Biso   1.000  C  -0.052604
  C71      1.0000 0.84120  0.00000  0.34230  Biso   1.000  C  -0.052604
  C72      1.0000 0.15880  0.00000  0.65770  Biso   1.000  C  -0.052604
  C73      1.0000 0.65770  0.84120  0.00000  Biso   1.000  C  -0.052604
  C74      1.0000 0.34230  0.15880  0.00000  Biso   1.000  C  -0.052604
  C75      1.0000 0.34230  0.84120  0.00000  Biso   1.000  C  -0.052604
  C76      1.0000 0.65770  0.15880  0.00000  Biso   1.000  C  -0.052604
  C77      1.0000 0.00000  0.15770  0.34120  Biso   1.000  C  -0.052604
  C78      1.0000 0.00000  0.84230  0.65880  Biso   1.000  C  -0.052604
  C79      1.0000 0.00000  0.84230  0.34120  Biso   1.000  C  -0.052604
  C80      1.0000 0.00000  0.15770  0.65880  Biso   1.000  C  -0.052604
  C81      1.0000 0.34120  0.50000  0.65770  Biso   1.000  C  -0.052646
  C82      1.0000 0.65880  0.50000  0.34230  Biso   1.000  C  -0.052647
  C83      1.0000 0.34120  0.50000  0.34230  Biso   1.000  C  -0.052646
  C84      1.0000 0.65880  0.50000  0.65770  Biso   1.000  C  -0.052646
  C85      1.0000 0.65770  0.34120  0.50000  Biso   1.000  C  -0.052647
  C86      1.0000 0.34230  0.65880  0.50000  Biso   1.000  C  -0.052647
  C87      1.0000 0.34230  0.34120  0.50000  Biso   1.000  C  -0.052647
  C88      1.0000 0.65770  0.65880  0.50000  Biso   1.000  C  -0.052647
  C89      1.0000 0.00000  0.65770  0.84120  Biso   1.000  C  -0.052605
  C90      1.0000 0.00000  0.34230  0.15880  Biso   1.000  C  -0.052605
  C91      1.0000 0.00000  0.34230  0.84120  Biso   1.000  C  -0.052605
  C92      1.0000 0.00000  0.65770  0.15880  Biso   1.000  C  -0.052605
  C93      1.0000 0.34120  0.00000  0.15770  Biso   1.000  C  -0.052604
  C94      1.0000 0.65880  0.00000  0.84230  Biso   1.000  C  -0.052604
  C95      1.0000 0.34120  0.00000  0.84230  Biso   1.000  C  -0.052604
  C96      1.0000 0.65880  0.00000  0.15770  Biso   1.000  C  -0.052604
  C97      1.0000 0.20930  0.85710  0.50000  Biso   1.000  C  0.052832
  C98      1.0000 0.79070  0.14290  0.50000  Biso   1.000  C  0.052832
  C99      1.0000 0.79070  0.85710  0.50000  Biso   1.000  C  0.052832
  C100     1.0000 0.20930  0.14290  0.50000  Biso   1.000  C  0.052832
  C101     1.0000 0.50000  0.20930  0.85710  Biso   1.000  C  0.052832
  C102     1.0000 0.50000  0.79070  0.14290  Biso   1.000  C  0.052832
  C103     1.0000 0.50000  0.79070  0.85710  Biso   1.000  C  0.052832
  C104     1.0000 0.50000  0.20930  0.14290  Biso   1.000  C  0.052832
  C105     1.0000 0.85710  0.50000  0.20930  Biso   1.000  C  0.052832
  C106     1.0000 0.14290  0.50000  0.79070  Biso   1.000  C  0.052832
  C107     1.0000 0.85710  0.50000  0.79070  Biso   1.000  C  0.052832
  C108     1.0000 0.14290  0.50000  0.20930  Biso   1.000  C  0.052832
  C109     1.0000 0.20930  0.35710  0.00000  Biso   1.000  C  0.052862
  C110     1.0000 0.79070  0.64290  0.00000  Biso   1.000  C  0.052862
  C111     1.0000 0.79070  0.35710  0.00000  Biso   1.000  C  0.052862
  C112     1.0000 0.20930  0.64290  0.00000  Biso   1.000  C  0.052862
  C113     1.0000 0.50000  0.70930  0.35710  Biso   1.000  C  0.052845
  C114     1.0000 0.50000  0.29070  0.64290  Biso   1.000  C  0.052845
  C115     1.0000 0.50000  0.29070  0.35710  Biso   1.000  C  0.052845
  C116     1.0000 0.50000  0.70930  0.64290  Biso   1.000  C  0.052846
  C117     1.0000 0.85710  0.00000  0.70930  Biso   1.000  C  0.052840
  C118     1.0000 0.14290  0.00000  0.29070  Biso   1.000  C  0.052840
  C119     1.0000 0.85710  0.00000  0.29070  Biso   1.000  C  0.052840
  C120     1.0000 0.14290  0.00000  0.70930  Biso   1.000  C  0.052840
  C121     1.0000 0.70930  0.85710  0.00000  Biso   1.000  C  0.052840
  C122     1.0000 0.29070  0.14290  0.00000  Biso   1.000  C  0.052840
  C123     1.0000 0.29070  0.85710  0.00000  Biso   1.000  C  0.052840
  C124     1.0000 0.70930  0.14290  0.00000  Biso   1.000  C  0.052840
  C125     1.0000 0.00000  0.20930  0.35710  Biso   1.000  C  0.052862
  C126     1.0000 0.00000  0.79070  0.64290  Biso   1.000  C  0.052862
  C127     1.0000 0.00000  0.79070  0.35710  Biso   1.000  C  0.052862
  C128     1.0000 0.00000  0.20930  0.64290  Biso   1.000  C  0.052862
  C129     1.0000 0.35710  0.50000  0.70930  Biso   1.000  C  0.052846
  C130     1.0000 0.64290  0.50000  0.29070  Biso   1.000  C  0.052846
  C131     1.0000 0.35710  0.50000  0.29070  Biso   1.000  C  0.052846
  C132     1.0000 0.64290  0.50000  0.70930  Biso   1.000  C  0.052845
  C133     1.0000 0.70930  0.35710  0.50000  Biso   1.000  C  0.052846
  C134     1.0000 0.29070  0.64290  0.50000  Biso   1.000  C  0.052846
  C135     1.0000 0.29070  0.35710  0.50000  Biso   1.000  C  0.052846
  C136     1.0000 0.70930  0.64290  0.50000  Biso   1.000  C  0.052846
  C137     1.0000 0.00000  0.70930  0.85710  Biso   1.000  C  0.052840
  C138     1.0000 0.00000  0.29070  0.14290  Biso   1.000  C  0.052840
  C139     1.0000 0.00000  0.29070  0.85710  Biso   1.000  C  0.052840
  C140     1.0000 0.00000  0.70930  0.14290  Biso   1.000  C  0.052840
  C141     1.0000 0.35710  0.00000  0.20930  Biso   1.000  C  0.052862
  C142     1.0000 0.64290  0.00000  0.79070  Biso   1.000  C  0.052862
  C143     1.0000 0.35710  0.00000  0.79070  Biso   1.000  C  0.052862
  C144     1.0000 0.64290  0.00000  0.20930  Biso   1.000  C  0.052862
  C145     1.0000 0.14390  0.79160  0.50000  Biso   1.000  C  -0.044773
  C146     1.0000 0.85610  0.20840  0.50000  Biso   1.000  C  -0.044773
  C147     1.0000 0.85610  0.79160  0.50000  Biso   1.000  C  -0.044773
  C148     1.0000 0.14390  0.20840  0.50000  Biso   1.000  C  -0.044773
  C149     1.0000 0.50000  0.14390  0.79160  Biso   1.000  C  -0.044773
  C150     1.0000 0.50000  0.85610  0.20840  Biso   1.000  C  -0.044773
  C151     1.0000 0.50000  0.85610  0.79160  Biso   1.000  C  -0.044773
  C152     1.0000 0.50000  0.14390  0.20840  Biso   1.000  C  -0.044773
  C153     1.0000 0.79160  0.50000  0.14390  Biso   1.000  C  -0.044773
  C154     1.0000 0.20840  0.50000  0.85610  Biso   1.000  C  -0.044773
  C155     1.0000 0.79160  0.50000  0.85610  Biso   1.000  C  -0.044773
  C156     1.0000 0.20840  0.50000  0.14390  Biso   1.000  C  -0.044773
  C157     1.0000 0.14390  0.29160  0.00000  Biso   1.000  C  -0.044743
  C158     1.0000 0.85610  0.70840  0.00000  Biso   1.000  C  -0.044743
  C159     1.0000 0.85610  0.29160  0.00000  Biso   1.000  C  -0.044743
  C160     1.0000 0.14390  0.70840  0.00000  Biso   1.000  C  -0.044743
  C161     1.0000 0.50000  0.64390  0.29160  Biso   1.000  C  -0.044757
  C162     1.0000 0.50000  0.35610  0.70840  Biso   1.000  C  -0.044757
  C163     1.0000 0.50000  0.35610  0.29160  Biso   1.000  C  -0.044757
  C164     1.0000 0.50000  0.64390  0.70840  Biso   1.000  C  -0.044757
  C165     1.0000 0.79160  0.00000  0.64390  Biso   1.000  C  -0.044720
  C166     1.0000 0.20840  0.00000  0.35610  Biso   1.000  C  -0.044720
  C167     1.0000 0.79160  0.00000  0.35610  Biso   1.000  C  -0.044720
  C168     1.0000 0.20840  0.00000  0.64390  Biso   1.000  C  -0.044720
  C169     1.0000 0.64390  0.79160  0.00000  Biso   1.000  C  -0.044721
  C170     1.0000 0.35610  0.20840  0.00000  Biso   1.000  C  -0.044721
  C171     1.0000 0.35610  0.79160  0.00000  Biso   1.000  C  -0.044721
  C172     1.0000 0.64390  0.20840  0.00000  Biso   1.000  C  -0.044721
  C173     1.0000 0.00000  0.14390  0.29160  Biso   1.000  C  -0.044743
  C174     1.0000 0.00000  0.85610  0.70840  Biso   1.000  C  -0.044743
  C175     1.0000 0.00000  0.85610  0.29160  Biso   1.000  C  -0.044743
  C176     1.0000 0.00000  0.14390  0.70840  Biso   1.000  C  -0.044743
  C177     1.0000 0.29160  0.50000  0.64390  Biso   1.000  C  -0.044757
  C178     1.0000 0.70840  0.50000  0.35610  Biso   1.000  C  -0.044757
  C179     1.0000 0.29160  0.50000  0.35610  Biso   1.000  C  -0.044757
  C180     1.0000 0.70840  0.50000  0.64390  Biso   1.000  C  -0.044757
  C181     1.0000 0.64390  0.29160  0.50000  Biso   1.000  C  -0.044757
  C182     1.0000 0.35610  0.70840  0.50000  Biso   1.000  C  -0.044757
  C183     1.0000 0.35610  0.29160  0.50000  Biso   1.000  C  -0.044757
  C184     1.0000 0.64390  0.70840  0.50000  Biso   1.000  C  -0.044757
  C185     1.0000 0.00000  0.64390  0.79160  Biso   1.000  C  -0.044721
  C186     1.0000 0.00000  0.35610  0.20840  Biso   1.000  C  -0.044721
  C187     1.0000 0.00000  0.35610  0.79160  Biso   1.000  C  -0.044721
  C188     1.0000 0.00000  0.64390  0.20840  Biso   1.000  C  -0.044721
  C189     1.0000 0.29160  0.00000  0.14390  Biso   1.000  C  -0.044744
  C190     1.0000 0.70840  0.00000  0.85610  Biso   1.000  C  -0.044744
  C191     1.0000 0.29160  0.00000  0.85610  Biso   1.000  C  -0.044744
  C192     1.0000 0.70840  0.00000  0.14390  Biso   1.000  C  -0.044744
  C193     1.0000 0.18050  0.75480  0.50000  Biso   1.000  C  -0.138301
  C194     1.0000 0.81950  0.24520  0.50000  Biso   1.000  C  -0.138301
  C195     1.0000 0.81950  0.75480  0.50000  Biso   1.000  C  -0.138301
  C196     1.0000 0.18050  0.24520  0.50000  Biso   1.000  C  -0.138301
  C197     1.0000 0.50000  0.18050  0.75480  Biso   1.000  C  -0.138301
  C198     1.0000 0.50000  0.81950  0.24520  Biso   1.000  C  -0.138301
  C199     1.0000 0.50000  0.81950  0.75480  Biso   1.000  C  -0.138301
  C200     1.0000 0.50000  0.18050  0.24520  Biso   1.000  C  -0.138301
  C201     1.0000 0.75480  0.50000  0.18050  Biso   1.000  C  -0.138301
  C202     1.0000 0.24520  0.50000  0.81950  Biso   1.000  C  -0.138301
  C203     1.0000 0.75480  0.50000  0.81950  Biso   1.000  C  -0.138301
  C204     1.0000 0.24520  0.50000  0.18050  Biso   1.000  C  -0.138301
  C205     1.0000 0.18050  0.25480  0.00000  Biso   1.000  C  -0.138282
  C206     1.0000 0.81950  0.74520  0.00000  Biso   1.000  C  -0.138282
  C207     1.0000 0.81950  0.25480  0.00000  Biso   1.000  C  -0.138282
  C208     1.0000 0.18050  0.74520  0.00000  Biso   1.000  C  -0.138282
  C209     1.0000 0.50000  0.68050  0.25480  Biso   1.000  C  -0.138291
  C210     1.0000 0.50000  0.31950  0.74520  Biso   1.000  C  -0.138291
  C211     1.0000 0.50000  0.31950  0.25480  Biso   1.000  C  -0.138292
  C212     1.0000 0.50000  0.68050  0.74520  Biso   1.000  C  -0.138291
  C213     1.0000 0.75480  0.00000  0.68050  Biso   1.000  C  -0.138261
  C214     1.0000 0.24520  0.00000  0.31950  Biso   1.000  C  -0.138261
  C215     1.0000 0.75480  0.00000  0.31950  Biso   1.000  C  -0.138261
  C216     1.0000 0.24520  0.00000  0.68050  Biso   1.000  C  -0.138261
  C217     1.0000 0.68050  0.75480  0.00000  Biso   1.000  C  -0.138260
  C218     1.0000 0.31950  0.24520  0.00000  Biso   1.000  C  -0.138260
  C219     1.0000 0.31950  0.75480  0.00000  Biso   1.000  C  -0.138260
  C220     1.0000 0.68050  0.24520  0.00000  Biso   1.000  C  -0.138260
  C221     1.0000 0.00000  0.18050  0.25480  Biso   1.000  C  -0.138281
  C222     1.0000 0.00000  0.81950  0.74520  Biso   1.000  C  -0.138281
  C223     1.0000 0.00000  0.81950  0.25480  Biso   1.000  C  -0.138281
  C224     1.0000 0.00000  0.18050  0.74520  Biso   1.000  C  -0.138281
  C225     1.0000 0.25480  0.50000  0.68050  Biso   1.000  C  -0.138291
  C226     1.0000 0.74520  0.50000  0.31950  Biso   1.000  C  -0.138291
  C227     1.0000 0.25480  0.50000  0.31950  Biso   1.000  C  -0.138291
  C228     1.0000 0.74520  0.50000  0.68050  Biso   1.000  C  -0.138291
  C229     1.0000 0.68050  0.25480  0.50000  Biso   1.000  C  -0.138291
  C230     1.0000 0.31950  0.74520  0.50000  Biso   1.000  C  -0.138291
  C231     1.0000 0.31950  0.25480  0.50000  Biso   1.000  C  -0.138291
  C232     1.0000 0.68050  0.74520  0.50000  Biso   1.000  C  -0.138291
  C233     1.0000 0.00000  0.68050  0.75480  Biso   1.000  C  -0.138260
  C234     1.0000 0.00000  0.31950  0.24520  Biso   1.000  C  -0.138260
  C235     1.0000 0.00000  0.31950  0.75480  Biso   1.000  C  -0.138260
  C236     1.0000 0.00000  0.68050  0.24520  Biso   1.000  C  -0.138260
  C237     1.0000 0.25480  0.00000  0.18050  Biso   1.000  C  -0.138280
  C238     1.0000 0.74520  0.00000  0.81950  Biso   1.000  C  -0.138280
  C239     1.0000 0.25480  0.00000  0.81950  Biso   1.000  C  -0.138280
  C240     1.0000 0.74520  0.00000  0.18050  Biso   1.000  C  -0.138280
  C241     1.0000 0.22950  0.76840  0.50000  Biso   1.000  C  0.170201
  C242     1.0000 0.77050  0.23160  0.50000  Biso   1.000  C  0.170201
  C243     1.0000 0.77050  0.76840  0.50000  Biso   1.000  C  0.170201
  C244     1.0000 0.22950  0.23160  0.50000  Biso   1.000  C  0.170201
  C245     1.0000 0.50000  0.22950  0.76840  Biso   1.000  C  0.170201
  C246     1.0000 0.50000  0.77050  0.23160  Biso   1.000  C  0.170201
  C247     1.0000 0.50000  0.77050  0.76840  Biso   1.000  C  0.170201
  C248     1.0000 0.50000  0.22950  0.23160  Biso   1.000  C  0.170201
  C249     1.0000 0.76840  0.50000  0.22950  Biso   1.000  C  0.170201
  C250     1.0000 0.23160  0.50000  0.77050  Biso   1.000  C  0.170201
  C251     1.0000 0.76840  0.50000  0.77050  Biso   1.000  C  0.170201
  C252     1.0000 0.23160  0.50000  0.22950  Biso   1.000  C  0.170201
  C253     1.0000 0.22950  0.26840  0.00000  Biso   1.000  C  0.170158
  C254     1.0000 0.77050  0.73160  0.00000  Biso   1.000  C  0.170158
  C255     1.0000 0.77050  0.26840  0.00000  Biso   1.000  C  0.170159
  C256     1.0000 0.22950  0.73160  0.00000  Biso   1.000  C  0.170159
  C257     1.0000 0.50000  0.72950  0.26840  Biso   1.000  C  0.170182
  C258     1.0000 0.50000  0.27050  0.73160  Biso   1.000  C  0.170182
  C259     1.0000 0.50000  0.27050  0.26840  Biso   1.000  C  0.170182
  C260     1.0000 0.50000  0.72950  0.73160  Biso   1.000  C  0.170182
  C261     1.0000 0.76840  0.00000  0.72950  Biso   1.000  C  0.170159
  C262     1.0000 0.23160  0.00000  0.27050  Biso   1.000  C  0.170159
  C263     1.0000 0.76840  0.00000  0.27050  Biso   1.000  C  0.170159
  C264     1.0000 0.23160  0.00000  0.72950  Biso   1.000  C  0.170159
  C265     1.0000 0.72950  0.76840  0.00000  Biso   1.000  C  0.170151
  C266     1.0000 0.27050  0.23160  0.00000  Biso   1.000  C  0.170151
  C267     1.0000 0.27050  0.76840  0.00000  Biso   1.000  C  0.170151
  C268     1.0000 0.72950  0.23160  0.00000  Biso   1.000  C  0.170151
  C269     1.0000 0.00000  0.22950  0.26840  Biso   1.000  C  0.170158
  C270     1.0000 0.00000  0.77050  0.73160  Biso   1.000  C  0.170158
  C271     1.0000 0.00000  0.77050  0.26840  Biso   1.000  C  0.170158
  C272     1.0000 0.00000  0.22950  0.73160  Biso   1.000  C  0.170158
  C273     1.0000 0.26840  0.50000  0.72950  Biso   1.000  C  0.170182
  C274     1.0000 0.73160  0.50000  0.27050  Biso   1.000  C  0.170182
  C275     1.0000 0.26840  0.50000  0.27050  Biso   1.000  C  0.170182
  C276     1.0000 0.73160  0.50000  0.72950  Biso   1.000  C  0.170182
  C277     1.0000 0.72950  0.26840  0.50000  Biso   1.000  C  0.170182
  C278     1.0000 0.27050  0.73160  0.50000  Biso   1.000  C  0.170182
  C279     1.0000 0.27050  0.26840  0.50000  Biso   1.000  C  0.170182
  C280     1.0000 0.72950  0.73160  0.50000  Biso   1.000  C  0.170182
  C281     1.0000 0.00000  0.72950  0.76840  Biso   1.000  C  0.170151
  C282     1.0000 0.00000  0.27050  0.23160  Biso   1.000  C  0.170151
  C283     1.0000 0.00000  0.27050  0.76840  Biso   1.000  C  0.170151
  C284     1.0000 0.00000  0.72950  0.23160  Biso   1.000  C  0.170151
  C285     1.0000 0.26840  0.00000  0.22950  Biso   1.000  C  0.170150
  C286     1.0000 0.73160  0.00000  0.77050  Biso   1.000  C  0.170150
  C287     1.0000 0.26840  0.00000  0.77050  Biso   1.000  C  0.170150
  C288     1.0000 0.73160  0.00000  0.22950  Biso   1.000  C  0.170150
  H1       1.0000 0.21800  0.89100  0.50000  Biso   1.000  H  0.126848
  H2       1.0000 0.78200  0.10900  0.50000  Biso   1.000  H  0.126848
  H3       1.0000 0.78200  0.89100  0.50000  Biso   1.000  H  0.126848
  H4       1.0000 0.21800  0.10900  0.50000  Biso   1.000  H  0.126848
  H5       1.0000 0.50000  0.21800  0.89100  Biso   1.000  H  0.126848
  H6       1.0000 0.50000  0.78200  0.10900  Biso   1.000  H  0.126848
  H7       1.0000 0.50000  0.78200  0.89100  Biso   1.000  H  0.126848
  H8       1.0000 0.50000  0.21800  0.10900  Biso   1.000  H  0.126848
  H9       1.0000 0.89100  0.50000  0.21800  Biso   1.000  H  0.126848
  H10      1.0000 0.10900  0.50000  0.78200  Biso   1.000  H  0.126848
  H11      1.0000 0.89100  0.50000  0.78200  Biso   1.000  H  0.126848
  H12      1.0000 0.10900  0.50000  0.21800  Biso   1.000  H  0.126848
  H13      1.0000 0.21800  0.39100  0.00000  Biso   1.000  H  0.126885
  H14      1.0000 0.78200  0.60900  0.00000  Biso   1.000  H  0.126885
  H15      1.0000 0.78200  0.39100  0.00000  Biso   1.000  H  0.126885
  H16      1.0000 0.21800  0.60900  0.00000  Biso   1.000  H  0.126885
  H17      1.0000 0.50000  0.71800  0.39100  Biso   1.000  H  0.126856
  H18      1.0000 0.50000  0.28200  0.60900  Biso   1.000  H  0.126856
  H19      1.0000 0.50000  0.28200  0.39100  Biso   1.000  H  0.126856
  H20      1.0000 0.50000  0.71800  0.60900  Biso   1.000  H  0.126856
  H21      1.0000 0.89100  0.00000  0.71800  Biso   1.000  H  0.126872
  H22      1.0000 0.10900  0.00000  0.28200  Biso   1.000  H  0.126872
  H23      1.0000 0.89100  0.00000  0.28200  Biso   1.000  H  0.126872
  H24      1.0000 0.10900  0.00000  0.71800  Biso   1.000  H  0.126872
  H25      1.0000 0.71800  0.89100  0.00000  Biso   1.000  H  0.126872
  H26      1.0000 0.28200  0.10900  0.00000  Biso   1.000  H  0.126872
  H27      1.0000 0.28200  0.89100  0.00000  Biso   1.000  H  0.126872
  H28      1.0000 0.71800  0.10900  0.00000  Biso   1.000  H  0.126872
  H29      1.0000 0.00000  0.21800  0.39100  Biso   1.000  H  0.126885
  H30      1.0000 0.00000  0.78200  0.60900  Biso   1.000  H  0.126885
  H31      1.0000 0.00000  0.78200  0.39100  Biso   1.000  H  0.126885
  H32      1.0000 0.00000  0.21800  0.60900  Biso   1.000  H  0.126885
  H33      1.0000 0.39100  0.50000  0.71800  Biso   1.000  H  0.126856
  H34      1.0000 0.60900  0.50000  0.28200  Biso   1.000  H  0.126856
  H35      1.0000 0.39100  0.50000  0.28200  Biso   1.000  H  0.126856
  H36      1.0000 0.60900  0.50000  0.71800  Biso   1.000  H  0.126856
  H37      1.0000 0.71800  0.39100  0.50000  Biso   1.000  H  0.126856
  H38      1.0000 0.28200  0.60900  0.50000  Biso   1.000  H  0.126856
  H39      1.0000 0.28200  0.39100  0.50000  Biso   1.000  H  0.126856
  H40      1.0000 0.71800  0.60900  0.50000  Biso   1.000  H  0.126856
  H41      1.0000 0.00000  0.71800  0.89100  Biso   1.000  H  0.126872
  H42      1.0000 0.00000  0.28200  0.10900  Biso   1.000  H  0.126872
  H43      1.0000 0.00000  0.28200  0.89100  Biso   1.000  H  0.126872
  H44      1.0000 0.00000  0.71800  0.10900  Biso   1.000  H  0.126872
  H45      1.0000 0.39100  0.00000  0.21800  Biso   1.000  H  0.126885
  H46      1.0000 0.60900  0.00000  0.78200  Biso   1.000  H  0.126885
  H47      1.0000 0.39100  0.00000  0.78200  Biso   1.000  H  0.126885
  H48      1.0000 0.60900  0.00000  0.21800  Biso   1.000  H  0.126885
  H49      1.0000 0.11000  0.78270  0.50000  Biso   1.000  H  0.129372
  H50      1.0000 0.89000  0.21730  0.50000  Biso   1.000  H  0.129372
  H51      1.0000 0.89000  0.78270  0.50000  Biso   1.000  H  0.129372
  H52      1.0000 0.11000  0.21730  0.50000  Biso   1.000  H  0.129372
  H53      1.0000 0.50000  0.11000  0.78270  Biso   1.000  H  0.129372
  H54      1.0000 0.50000  0.89000  0.21730  Biso   1.000  H  0.129372
  H55      1.0000 0.50000  0.89000  0.78270  Biso   1.000  H  0.129372
  H56      1.0000 0.50000  0.11000  0.21730  Biso   1.000  H  0.129372
  H57      1.0000 0.78270  0.50000  0.11000  Biso   1.000  H  0.129372
  H58      1.0000 0.21730  0.50000  0.89000  Biso   1.000  H  0.129372
  H59      1.0000 0.78270  0.50000  0.89000  Biso   1.000  H  0.129372
  H60      1.0000 0.21730  0.50000  0.11000  Biso   1.000  H  0.129372
  H61      1.0000 0.11000  0.28270  0.00000  Biso   1.000  H  0.129394
  H62      1.0000 0.89000  0.71730  0.00000  Biso   1.000  H  0.129394
  H63      1.0000 0.89000  0.28270  0.00000  Biso   1.000  H  0.129394
  H64      1.0000 0.11000  0.71730  0.00000  Biso   1.000  H  0.129394
  H65      1.0000 0.50000  0.61000  0.28270  Biso   1.000  H  0.129380
  H66      1.0000 0.50000  0.39000  0.71730  Biso   1.000  H  0.129380
  H67      1.0000 0.50000  0.39000  0.28270  Biso   1.000  H  0.129380
  H68      1.0000 0.50000  0.61000  0.71730  Biso   1.000  H  0.129380
  H69      1.0000 0.78270  0.00000  0.61000  Biso   1.000  H  0.129405
  H70      1.0000 0.21730  0.00000  0.39000  Biso   1.000  H  0.129405
  H71      1.0000 0.78270  0.00000  0.39000  Biso   1.000  H  0.129405
  H72      1.0000 0.21730  0.00000  0.61000  Biso   1.000  H  0.129405
  H73      1.0000 0.61000  0.78270  0.00000  Biso   1.000  H  0.129405
  H74      1.0000 0.39000  0.21730  0.00000  Biso   1.000  H  0.129405
  H75      1.0000 0.39000  0.78270  0.00000  Biso   1.000  H  0.129405
  H76      1.0000 0.61000  0.21730  0.00000  Biso   1.000  H  0.129405
  H77      1.0000 0.00000  0.11000  0.28270  Biso   1.000  H  0.129394
  H78      1.0000 0.00000  0.89000  0.71730  Biso   1.000  H  0.129394
  H79      1.0000 0.00000  0.89000  0.28270  Biso   1.000  H  0.129394
  H80      1.0000 0.00000  0.11000  0.71730  Biso   1.000  H  0.129394
  H81      1.0000 0.28270  0.50000  0.61000  Biso   1.000  H  0.129380
  H82      1.0000 0.71730  0.50000  0.39000  Biso   1.000  H  0.129380
  H83      1.0000 0.28270  0.50000  0.39000  Biso   1.000  H  0.129380
  H84      1.0000 0.71730  0.50000  0.61000  Biso   1.000  H  0.129380
  H85      1.0000 0.61000  0.28270  0.50000  Biso   1.000  H  0.129380
  H86      1.0000 0.39000  0.71730  0.50000  Biso   1.000  H  0.129380
  H87      1.0000 0.39000  0.28270  0.50000  Biso   1.000  H  0.129380
  H88      1.0000 0.61000  0.71730  0.50000  Biso   1.000  H  0.129380
  H89      1.0000 0.00000  0.61000  0.78270  Biso   1.000  H  0.129405
  H90      1.0000 0.00000  0.39000  0.21730  Biso   1.000  H  0.129405
  H91      1.0000 0.00000  0.39000  0.78270  Biso   1.000  H  0.129405
  H92      1.0000 0.00000  0.61000  0.21730  Biso   1.000  H  0.129405
  H93      1.0000 0.28270  0.00000  0.11000  Biso   1.000  H  0.129394
  H94      1.0000 0.71730  0.00000  0.89000  Biso   1.000  H  0.129394
  H95      1.0000 0.28270  0.00000  0.89000  Biso   1.000  H  0.129394
  H96      1.0000 0.71730  0.00000  0.11000  Biso   1.000  H  0.129394
  H97      1.0000 0.17150  0.72100  0.50000  Biso   1.000  H  0.128508
  H98      1.0000 0.82850  0.27900  0.50000  Biso   1.000  H  0.128508
  H99      1.0000 0.82850  0.72100  0.50000  Biso   1.000  H  0.128508
  H100     1.0000 0.17150  0.27900  0.50000  Biso   1.000  H  0.128508
  H101     1.0000 0.50000  0.17150  0.72100  Biso   1.000  H  0.128508
  H102     1.0000 0.50000  0.82850  0.27900  Biso   1.000  H  0.128508
  H103     1.0000 0.50000  0.82850  0.72100  Biso   1.000  H  0.128508
  H104     1.0000 0.50000  0.17150  0.27900  Biso   1.000  H  0.128508
  H105     1.0000 0.72100  0.50000  0.17150  Biso   1.000  H  0.128508
  H106     1.0000 0.27900  0.50000  0.82850  Biso   1.000  H  0.128508
  H107     1.0000 0.72100  0.50000  0.82850  Biso   1.000  H  0.128508
  H108     1.0000 0.27900  0.50000  0.17150  Biso   1.000  H  0.128508
  H109     1.0000 0.17150  0.22100  0.00000  Biso   1.000  H  0.128531
  H110     1.0000 0.82850  0.77900  0.00000  Biso   1.000  H  0.128531
  H111     1.0000 0.82850  0.22100  0.00000  Biso   1.000  H  0.128531
  H112     1.0000 0.17150  0.77900  0.00000  Biso   1.000  H  0.128531
  H113     1.0000 0.50000  0.67150  0.22100  Biso   1.000  H  0.128507
  H114     1.0000 0.50000  0.32850  0.77900  Biso   1.000  H  0.128507
  H115     1.0000 0.50000  0.32850  0.22100  Biso   1.000  H  0.128507
  H116     1.0000 0.50000  0.67150  0.77900  Biso   1.000  H  0.128507
  H117     1.0000 0.72100  0.00000  0.67150  Biso   1.000  H  0.128541
  H118     1.0000 0.27900  0.00000  0.32850  Biso   1.000  H  0.128541
  H119     1.0000 0.72100  0.00000  0.32850  Biso   1.000  H  0.128541
  H120     1.0000 0.27900  0.00000  0.67150  Biso   1.000  H  0.128541
  H121     1.0000 0.67150  0.72100  0.00000  Biso   1.000  H  0.128540
  H122     1.0000 0.32850  0.27900  0.00000  Biso   1.000  H  0.128540
  H123     1.0000 0.32850  0.72100  0.00000  Biso   1.000  H  0.128540
  H124     1.0000 0.67150  0.27900  0.00000  Biso   1.000  H  0.128540
  H125     1.0000 0.00000  0.17150  0.22100  Biso   1.000  H  0.128529
  H126     1.0000 0.00000  0.82850  0.77900  Biso   1.000  H  0.128529
  H127     1.0000 0.00000  0.82850  0.22100  Biso   1.000  H  0.128529
  H128     1.0000 0.00000  0.17150  0.77900  Biso   1.000  H  0.128529
  H129     1.0000 0.22100  0.50000  0.67150  Biso   1.000  H  0.128507
  H130     1.0000 0.77900  0.50000  0.32850  Biso   1.000  H  0.128506
  H131     1.0000 0.22100  0.50000  0.32850  Biso   1.000  H  0.128506
  H132     1.0000 0.77900  0.50000  0.67150  Biso   1.000  H  0.128506
  H133     1.0000 0.67150  0.22100  0.50000  Biso   1.000  H  0.128505
  H134     1.0000 0.32850  0.77900  0.50000  Biso   1.000  H  0.128505
  H135     1.0000 0.32850  0.22100  0.50000  Biso   1.000  H  0.128505
  H136     1.0000 0.67150  0.77900  0.50000  Biso   1.000  H  0.128505
  H137     1.0000 0.00000  0.67150  0.72100  Biso   1.000  H  0.128540
  H138     1.0000 0.00000  0.32850  0.27900  Biso   1.000  H  0.128540
  H139     1.0000 0.00000  0.32850  0.72100  Biso   1.000  H  0.128540
  H140     1.0000 0.00000  0.67150  0.27900  Biso   1.000  H  0.128540
  H141     1.0000 0.22100  0.00000  0.17150  Biso   1.000  H  0.128528
  H142     1.0000 0.77900  0.00000  0.82850  Biso   1.000  H  0.128528
  H143     1.0000 0.22100  0.00000  0.82850  Biso   1.000  H  0.128528
  H144     1.0000 0.77900  0.00000  0.17150  Biso   1.000  H  0.128528
  N1       1.0000 0.24560  0.81970  0.50000  Biso   1.000  N  -0.297991
  N2       1.0000 0.75440  0.18030  0.50000  Biso   1.000  N  -0.297991
  N3       1.0000 0.75440  0.81970  0.50000  Biso   1.000  N  -0.297991
  N4       1.0000 0.24560  0.18030  0.50000  Biso   1.000  N  -0.297991
  N5       1.0000 0.50000  0.24560  0.81970  Biso   1.000  N  -0.297991
  N6       1.0000 0.50000  0.75440  0.18030  Biso   1.000  N  -0.297991
  N7       1.0000 0.50000  0.75440  0.81970  Biso   1.000  N  -0.297991
  N8       1.0000 0.50000  0.24560  0.18030  Biso   1.000  N  -0.297991
  N9       1.0000 0.81970  0.50000  0.24560  Biso   1.000  N  -0.297991
  N10      1.0000 0.18030  0.50000  0.75440  Biso   1.000  N  -0.297991
  N11      1.0000 0.81970  0.50000  0.75440  Biso   1.000  N  -0.297991
  N12      1.0000 0.18030  0.50000  0.24560  Biso   1.000  N  -0.297991
  N13      1.0000 0.24560  0.31970  0.00000  Biso   1.000  N  -0.297741
  N14      1.0000 0.75440  0.68030  0.00000  Biso   1.000  N  -0.297741
  N15      1.0000 0.75440  0.31970  0.00000  Biso   1.000  N  -0.297741
  N16      1.0000 0.24560  0.68030  0.00000  Biso   1.000  N  -0.297741
  N17      1.0000 0.50000  0.74560  0.31970  Biso   1.000  N  -0.297968
  N18      1.0000 0.50000  0.25440  0.68030  Biso   1.000  N  -0.297968
  N19      1.0000 0.50000  0.25440  0.31970  Biso   1.000  N  -0.297968
  N20      1.0000 0.50000  0.74560  0.68030  Biso   1.000  N  -0.297968
  N21      1.0000 0.81970  0.00000  0.74560  Biso   1.000  N  -0.297778
  N22      1.0000 0.18030  0.00000  0.25440  Biso   1.000  N  -0.297778
  N23      1.0000 0.81970  0.00000  0.25440  Biso   1.000  N  -0.297778
  N24      1.0000 0.18030  0.00000  0.74560  Biso   1.000  N  -0.297778
  N25      1.0000 0.74560  0.81970  0.00000  Biso   1.000  N  -0.297777
  N26      1.0000 0.25440  0.18030  0.00000  Biso   1.000  N  -0.297777
  N27      1.0000 0.25440  0.81970  0.00000  Biso   1.000  N  -0.297777
  N28      1.0000 0.74560  0.18030  0.00000  Biso   1.000  N  -0.297777
  N29      1.0000 0.00000  0.24560  0.31970  Biso   1.000  N  -0.297741
  N30      1.0000 0.00000  0.75440  0.68030  Biso   1.000  N  -0.297741
  N31      1.0000 0.00000  0.75440  0.31970  Biso   1.000  N  -0.297741
  N32      1.0000 0.00000  0.24560  0.68030  Biso   1.000  N  -0.297741
  N33      1.0000 0.31970  0.50000  0.74560  Biso   1.000  N  -0.297968
  N34      1.0000 0.68030  0.50000  0.25440  Biso   1.000  N  -0.297968
  N35      1.0000 0.31970  0.50000  0.25440  Biso   1.000  N  -0.297968
  N36      1.0000 0.68030  0.50000  0.74560  Biso   1.000  N  -0.297968
  N37      1.0000 0.74560  0.31970  0.50000  Biso   1.000  N  -0.297968
  N38      1.0000 0.25440  0.68030  0.50000  Biso   1.000  N  -0.297968
  N39      1.0000 0.25440  0.31970  0.50000  Biso   1.000  N  -0.297968
  N40      1.0000 0.74560  0.68030  0.50000  Biso   1.000  N  -0.297968
  N41      1.0000 0.00000  0.74560  0.81970  Biso   1.000  N  -0.297777
  N42      1.0000 0.00000  0.25440  0.18030  Biso   1.000  N  -0.297777
  N43      1.0000 0.00000  0.25440  0.81970  Biso   1.000  N  -0.297777
  N44      1.0000 0.00000  0.74560  0.18030  Biso   1.000  N  -0.297777
  N45      1.0000 0.31970  0.00000  0.24560  Biso   1.000  N  -0.297740
  N46      1.0000 0.68030  0.00000  0.75440  Biso   1.000  N  -0.297740
  N47      1.0000 0.31970  0.00000  0.75440  Biso   1.000  N  -0.297740
  N48      1.0000 0.68030  0.00000  0.24560  Biso   1.000  N  -0.297740
  O1       1.0000 0.13720  0.92990  0.50000  Biso   1.000  O  -0.547172
  O2       1.0000 0.86280  0.07010  0.50000  Biso   1.000  O  -0.547172
  O3       1.0000 0.86280  0.92990  0.50000  Biso   1.000  O  -0.547172
  O4       1.0000 0.13720  0.07010  0.50000  Biso   1.000  O  -0.547172
  O5       1.0000 0.50000  0.13720  0.92990  Biso   1.000  O  -0.547172
  O6       1.0000 0.50000  0.86280  0.07010  Biso   1.000  O  -0.547172
  O7       1.0000 0.50000  0.86280  0.92990  Biso   1.000  O  -0.547172
  O8       1.0000 0.50000  0.13720  0.07010  Biso   1.000  O  -0.547172
  O9       1.0000 0.92990  0.50000  0.13720  Biso   1.000  O  -0.547172
  O10      1.0000 0.07010  0.50000  0.86280  Biso   1.000  O  -0.547172
  O11      1.0000 0.92990  0.50000  0.86280  Biso   1.000  O  -0.547172
  O12      1.0000 0.07010  0.50000  0.13720  Biso   1.000  O  -0.547172
  O13      1.0000 0.13720  0.42990  0.00000  Biso   1.000  O  -0.547159
  O14      1.0000 0.86280  0.57010  0.00000  Biso   1.000  O  -0.547159
  O15      1.0000 0.86280  0.42990  0.00000  Biso   1.000  O  -0.547159
  O16      1.0000 0.13720  0.57010  0.00000  Biso   1.000  O  -0.547159
  O17      1.0000 0.50000  0.63720  0.42990  Biso   1.000  O  -0.547151
  O18      1.0000 0.50000  0.36280  0.57010  Biso   1.000  O  -0.547151
  O19      1.0000 0.50000  0.36280  0.42990  Biso   1.000  O  -0.547151
  O20      1.0000 0.50000  0.63720  0.57010  Biso   1.000  O  -0.547151
  O21      1.0000 0.92990  0.00000  0.63720  Biso   1.000  O  -0.547187
  O22      1.0000 0.07010  0.00000  0.36280  Biso   1.000  O  -0.547187
  O23      1.0000 0.92990  0.00000  0.36280  Biso   1.000  O  -0.547187
  O24      1.0000 0.07010  0.00000  0.63720  Biso   1.000  O  -0.547187
  O25      1.0000 0.63720  0.92990  0.00000  Biso   1.000  O  -0.547187
  O26      1.0000 0.36280  0.07010  0.00000  Biso   1.000  O  -0.547187
  O27      1.0000 0.36280  0.92990  0.00000  Biso   1.000  O  -0.547187
  O28      1.0000 0.63720  0.07010  0.00000  Biso   1.000  O  -0.547187
  O29      1.0000 0.00000  0.13720  0.42990  Biso   1.000  O  -0.547159
  O30      1.0000 0.00000  0.86280  0.57010  Biso   1.000  O  -0.547159
  O31      1.0000 0.00000  0.86280  0.42990  Biso   1.000  O  -0.547159
  O32      1.0000 0.00000  0.13720  0.57010  Biso   1.000  O  -0.547159
  O33      1.0000 0.42990  0.50000  0.63720  Biso   1.000  O  -0.547151
  O34      1.0000 0.57010  0.50000  0.36280  Biso   1.000  O  -0.547151
  O35      1.0000 0.42990  0.50000  0.36280  Biso   1.000  O  -0.547151
  O36      1.0000 0.57010  0.50000  0.63720  Biso   1.000  O  -0.547151
  O37      1.0000 0.63720  0.42990  0.50000  Biso   1.000  O  -0.547151
  O38      1.0000 0.36280  0.57010  0.50000  Biso   1.000  O  -0.547151
  O39      1.0000 0.36280  0.42990  0.50000  Biso   1.000  O  -0.547151
  O40      1.0000 0.63720  0.57010  0.50000  Biso   1.000  O  -0.547151
  O41      1.0000 0.00000  0.63720  0.92990  Biso   1.000  O  -0.547187
  O42      1.0000 0.00000  0.36280  0.07010  Biso   1.000  O  -0.547187
  O43      1.0000 0.00000  0.36280  0.92990  Biso   1.000  O  -0.547187
  O44      1.0000 0.00000  0.63720  0.07010  Biso   1.000  O  -0.547187
  O45      1.0000 0.42990  0.00000  0.13720  Biso   1.000  O  -0.547159
  O46      1.0000 0.57010  0.00000  0.86280  Biso   1.000  O  -0.547159
  O47      1.0000 0.42990  0.00000  0.86280  Biso   1.000  O  -0.547159
  O48      1.0000 0.57010  0.00000  0.13720  Biso   1.000  O  -0.547159
  O49      1.0000 0.07080  0.86330  0.50000  Biso   1.000  O  -0.573115
  O50      1.0000 0.92920  0.13670  0.50000  Biso   1.000  O  -0.573115
  O51      1.0000 0.92920  0.86330  0.50000  Biso   1.000  O  -0.573115
  O52      1.0000 0.07080  0.13670  0.50000  Biso   1.000  O  -0.573115
  O53      1.0000 0.50000  0.07080  0.86330  Biso   1.000  O  -0.573115
  O54      1.0000 0.50000  0.92920  0.13670  Biso   1.000  O  -0.573115
  O55      1.0000 0.50000  0.92920  0.86330  Biso   1.000  O  -0.573115
  O56      1.0000 0.50000  0.07080  0.13670  Biso   1.000  O  -0.573115
  O57      1.0000 0.86330  0.50000  0.07080  Biso   1.000  O  -0.573115
  O58      1.0000 0.13670  0.50000  0.92920  Biso   1.000  O  -0.573115
  O59      1.0000 0.86330  0.50000  0.92920  Biso   1.000  O  -0.573115
  O60      1.0000 0.13670  0.50000  0.07080  Biso   1.000  O  -0.573115
  O61      1.0000 0.07080  0.36330  0.00000  Biso   1.000  O  -0.573132
  O62      1.0000 0.92920  0.63670  0.00000  Biso   1.000  O  -0.573132
  O63      1.0000 0.92920  0.36330  0.00000  Biso   1.000  O  -0.573132
  O64      1.0000 0.07080  0.63670  0.00000  Biso   1.000  O  -0.573132
  O65      1.0000 0.50000  0.57080  0.36330  Biso   1.000  O  -0.573080
  O66      1.0000 0.50000  0.42920  0.63670  Biso   1.000  O  -0.573080
  O67      1.0000 0.50000  0.42920  0.36330  Biso   1.000  O  -0.573080
  O68      1.0000 0.50000  0.57080  0.63670  Biso   1.000  O  -0.573080
  O69      1.0000 0.86330  0.00000  0.57080  Biso   1.000  O  -0.573102
  O70      1.0000 0.13670  0.00000  0.42920  Biso   1.000  O  -0.573102
  O71      1.0000 0.86330  0.00000  0.42920  Biso   1.000  O  -0.573102
  O72      1.0000 0.13670  0.00000  0.57080  Biso   1.000  O  -0.573102
  O73      1.0000 0.57080  0.86330  0.00000  Biso   1.000  O  -0.573102
  O74      1.0000 0.42920  0.13670  0.00000  Biso   1.000  O  -0.573102
  O75      1.0000 0.42920  0.86330  0.00000  Biso   1.000  O  -0.573102
  O76      1.0000 0.57080  0.13670  0.00000  Biso   1.000  O  -0.573102
  O77      1.0000 0.00000  0.07080  0.36330  Biso   1.000  O  -0.573132
  O78      1.0000 0.00000  0.92920  0.63670  Biso   1.000  O  -0.573132
  O79      1.0000 0.00000  0.92920  0.36330  Biso   1.000  O  -0.573132
  O80      1.0000 0.00000  0.07080  0.63670  Biso   1.000  O  -0.573132
  O81      1.0000 0.36330  0.50000  0.57080  Biso   1.000  O  -0.573080
  O82      1.0000 0.63670  0.50000  0.42920  Biso   1.000  O  -0.573080
  O83      1.0000 0.36330  0.50000  0.42920  Biso   1.000  O  -0.573080
  O84      1.0000 0.63670  0.50000  0.57080  Biso   1.000  O  -0.573080
  O85      1.0000 0.57080  0.36330  0.50000  Biso   1.000  O  -0.573080
  O86      1.0000 0.42920  0.63670  0.50000  Biso   1.000  O  -0.573080
  O87      1.0000 0.42920  0.36330  0.50000  Biso   1.000  O  -0.573080
  O88      1.0000 0.57080  0.63670  0.50000  Biso   1.000  O  -0.573080
  O89      1.0000 0.00000  0.57080  0.86330  Biso   1.000  O  -0.573102
  O90      1.0000 0.00000  0.42920  0.13670  Biso   1.000  O  -0.573102
  O91      1.0000 0.00000  0.42920  0.86330  Biso   1.000  O  -0.573102
  O92      1.0000 0.00000  0.57080  0.13670  Biso   1.000  O  -0.573102
  O93      1.0000 0.36330  0.00000  0.07080  Biso   1.000  O  -0.573132
  O94      1.0000 0.63670  0.00000  0.92920  Biso   1.000  O  -0.573132
  O95      1.0000 0.36330  0.00000  0.92920  Biso   1.000  O  -0.573132
  O96      1.0000 0.63670  0.00000  0.07080  Biso   1.000  O  -0.573132
  O97      1.0000 0.04630  0.04630  0.45370  Biso   1.000  O  -1.002498
  O98      1.0000 0.95370  0.95370  0.45370  Biso   1.000  O  -1.002498
  O99      1.0000 0.95370  0.04630  0.54630  Biso   1.000  O  -1.002498
  O100     1.0000 0.04630  0.95370  0.54630  Biso   1.000  O  -1.002498
  O101     1.0000 0.45370  0.04630  0.04630  Biso   1.000  O  -1.002498
  O102     1.0000 0.45370  0.95370  0.95370  Biso   1.000  O  -1.002498
  O103     1.0000 0.54630  0.95370  0.04630  Biso   1.000  O  -1.002498
  O104     1.0000 0.54630  0.04630  0.95370  Biso   1.000  O  -1.002498
  O105     1.0000 0.04630  0.45370  0.04630  Biso   1.000  O  -1.002498
  O106     1.0000 0.95370  0.45370  0.95370  Biso   1.000  O  -1.002498
  O107     1.0000 0.04630  0.54630  0.95370  Biso   1.000  O  -1.002498
  O108     1.0000 0.95370  0.54630  0.04630  Biso   1.000  O  -1.002498
  O109     1.0000 0.45370  0.54630  0.54630  Biso   1.000  O  -1.002447
  O110     1.0000 0.45370  0.45370  0.45370  Biso   1.000  O  -1.002448
  O111     1.0000 0.54630  0.45370  0.54630  Biso   1.000  O  -1.002448
  O112     1.0000 0.54630  0.54630  0.45370  Biso   1.000  O  -1.002448
  O113     1.0000 0.95370  0.95370  0.54630  Biso   1.000  O  -1.002498
  O114     1.0000 0.04630  0.04630  0.54630  Biso   1.000  O  -1.002498
  O115     1.0000 0.04630  0.95370  0.45370  Biso   1.000  O  -1.002498
  O116     1.0000 0.95370  0.04630  0.45370  Biso   1.000  O  -1.002498
  O117     1.0000 0.54630  0.95370  0.95370  Biso   1.000  O  -1.002498
  O118     1.0000 0.54630  0.04630  0.04630  Biso   1.000  O  -1.002498
  O119     1.0000 0.45370  0.04630  0.95370  Biso   1.000  O  -1.002498
  O120     1.0000 0.45370  0.95370  0.04630  Biso   1.000  O  -1.002498
  O121     1.0000 0.95370  0.54630  0.95370  Biso   1.000  O  -1.002498
  O122     1.0000 0.04630  0.54630  0.04630  Biso   1.000  O  -1.002498
  O123     1.0000 0.95370  0.45370  0.04630  Biso   1.000  O  -1.002498
  O124     1.0000 0.04630  0.45370  0.95370  Biso   1.000  O  -1.002498
  O125     1.0000 0.54630  0.45370  0.45370  Biso   1.000  O  -1.002447
  O126     1.0000 0.54630  0.54630  0.54630  Biso   1.000  O  -1.002448
  O127     1.0000 0.45370  0.54630  0.45370  Biso   1.000  O  -1.002448
  O128     1.0000 0.45370  0.45370  0.54630  Biso   1.000  O  -1.002447
  Zr1      1.0000 0.09341  0.00000  0.50000  Biso   1.000  Zr  2.292010
  Zr2      1.0000 0.90659  0.00000  0.50000  Biso   1.000  Zr  2.292011
  Zr3      1.0000 0.50000  0.09341  0.00000  Biso   1.000  Zr  2.292010
  Zr4      1.0000 0.50000  0.90659  0.00000  Biso   1.000  Zr  2.292010
  Zr5      1.0000 0.00000  0.50000  0.09341  Biso   1.000  Zr  2.292010
  Zr6      1.0000 0.00000  0.50000  0.90659  Biso   1.000  Zr  2.292010
  Zr7      1.0000 0.09341  0.50000  0.00000  Biso   1.000  Zr  2.292006
  Zr8      1.0000 0.90659  0.50000  0.00000  Biso   1.000  Zr  2.292006
  Zr9      1.0000 0.50000  0.59341  0.50000  Biso   1.000  Zr  2.291983
  Zr10     1.0000 0.50000  0.40659  0.50000  Biso   1.000  Zr  2.291983
  Zr11     1.0000 0.00000  0.00000  0.59341  Biso   1.000  Zr  2.292012
  Zr12     1.0000 0.00000  0.00000  0.40659  Biso   1.000  Zr  2.292013
  Zr13     1.0000 0.59341  0.00000  0.00000  Biso   1.000  Zr  2.292012
  Zr14     1.0000 0.40659  0.00000  0.00000  Biso   1.000  Zr  2.292012
  Zr15     1.0000 0.00000  0.09341  0.50000  Biso   1.000  Zr  2.292006
  Zr16     1.0000 0.00000  0.90659  0.50000  Biso   1.000  Zr  2.292006
  Zr17     1.0000 0.50000  0.50000  0.59341  Biso   1.000  Zr  2.291983
  Zr18     1.0000 0.50000  0.50000  0.40659  Biso   1.000  Zr  2.291983
  Zr19     1.0000 0.59341  0.50000  0.50000  Biso   1.000  Zr  2.291983
  Zr20     1.0000 0.40659  0.50000  0.50000  Biso   1.000  Zr  2.291983
  Zr21     1.0000 0.00000  0.59341  0.00000  Biso   1.000  Zr  2.292012
  Zr22     1.0000 0.00000  0.40659  0.00000  Biso   1.000  Zr  2.292012
  Zr23     1.0000 0.50000  0.00000  0.09341  Biso   1.000  Zr  2.292006
  Zr24     1.0000 0.50000  0.00000  0.90659  Biso   1.000  Zr  2.292006
