data_image0
_cell_length_a       24.2096
_cell_length_b       24.2096
_cell_length_c       24.2096
_cell_angle_alpha    90
_cell_angle_beta     90
_cell_angle_gamma    90

_symmetry_space_group_name_H-M    "P 1"
_symmetry_int_tables_number       1

loop_
  _symmetry_equiv_pos_as_xyz
  'x, y, z'

loop_
  _atom_site_label
  _atom_site_occupancy
  _atom_site_fract_x
  _atom_site_fract_y
  _atom_site_fract_z
  _atom_site_thermal_displace_type
  _atom_site_B_iso_or_equiv
  _atom_site_type_symbol
  _atom_site_charge
  C1       1.0000 0.43900  0.35290  0.50270  Biso   1.000  C  -0.500615
  C2       1.0000 0.06100  0.64710  0.00270  Biso   1.000  C  -0.500582
  C3       1.0000 0.93900  0.14710  0.49730  Biso   1.000  C  -0.500583
  C4       1.0000 0.56100  0.85290  0.99730  Biso   1.000  C  -0.500583
  C5       1.0000 0.50270  0.43900  0.35290  Biso   1.000  C  -0.500917
  C6       1.0000 0.35290  0.50270  0.43900  Biso   1.000  C  -0.500577
  C7       1.0000 0.99730  0.56100  0.85290  Biso   1.000  C  -0.500582
  C8       1.0000 0.64710  0.00270  0.06100  Biso   1.000  C  -0.500580
  C9       1.0000 0.00270  0.06100  0.64710  Biso   1.000  C  -0.500582
  C10      1.0000 0.14710  0.49730  0.93900  Biso   1.000  C  -0.500582
  C11      1.0000 0.49730  0.93900  0.14710  Biso   1.000  C  -0.500581
  C12      1.0000 0.85290  0.99730  0.56100  Biso   1.000  C  -0.500581
  C13      1.0000 0.34150  0.32960  0.53230  Biso   1.000  C  -0.515412
  C14      1.0000 0.15850  0.67040  0.03230  Biso   1.000  C  -0.515406
  C15      1.0000 0.84150  0.17040  0.46770  Biso   1.000  C  -0.515407
  C16      1.0000 0.65850  0.82960  0.96770  Biso   1.000  C  -0.515409
  C17      1.0000 0.53230  0.34150  0.32960  Biso   1.000  C  -0.515370
  C18      1.0000 0.32960  0.53230  0.34150  Biso   1.000  C  -0.515414
  C19      1.0000 0.96770  0.65850  0.82960  Biso   1.000  C  -0.515407
  C20      1.0000 0.67040  0.03230  0.15850  Biso   1.000  C  -0.515408
  C21      1.0000 0.03230  0.15850  0.67040  Biso   1.000  C  -0.515409
  C22      1.0000 0.17040  0.46770  0.84150  Biso   1.000  C  -0.515405
  C23      1.0000 0.46770  0.84150  0.17040  Biso   1.000  C  -0.515408
  C24      1.0000 0.82960  0.96770  0.65850  Biso   1.000  C  -0.515407
  C25      1.0000 0.42330  0.30640  0.58590  Biso   1.000  C  -0.504119
  C26      1.0000 0.07670  0.69360  0.08590  Biso   1.000  C  -0.504122
  C27      1.0000 0.92330  0.19360  0.41410  Biso   1.000  C  -0.504121
  C28      1.0000 0.57670  0.80640  0.91410  Biso   1.000  C  -0.504118
  C29      1.0000 0.58590  0.42330  0.30640  Biso   1.000  C  -0.504493
  C30      1.0000 0.30640  0.58590  0.42330  Biso   1.000  C  -0.504122
  C31      1.0000 0.91410  0.57670  0.80640  Biso   1.000  C  -0.504123
  C32      1.0000 0.69360  0.08590  0.07670  Biso   1.000  C  -0.504122
  C33      1.0000 0.08590  0.07670  0.69360  Biso   1.000  C  -0.504123
  C34      1.0000 0.19360  0.41410  0.92330  Biso   1.000  C  -0.504122
  C35      1.0000 0.41410  0.92330  0.19360  Biso   1.000  C  -0.504121
  C36      1.0000 0.80640  0.91410  0.57670  Biso   1.000  C  -0.504123
  C37      1.0000 0.39960  0.34780  0.54950  Biso   1.000  C  0.234912
  C38      1.0000 0.10040  0.65220  0.04950  Biso   1.000  C  0.234899
  C39      1.0000 0.89960  0.15220  0.45050  Biso   1.000  C  0.234899
  C40      1.0000 0.60040  0.84780  0.95050  Biso   1.000  C  0.234899
  C41      1.0000 0.54950  0.39960  0.34780  Biso   1.000  C  0.235699
  C42      1.0000 0.34780  0.54950  0.39960  Biso   1.000  C  0.234894
  C43      1.0000 0.95050  0.60040  0.84780  Biso   1.000  C  0.234900
  C44      1.0000 0.65220  0.04950  0.10040  Biso   1.000  C  0.234899
  C45      1.0000 0.04950  0.10040  0.65220  Biso   1.000  C  0.234900
  C46      1.0000 0.15220  0.45050  0.89960  Biso   1.000  C  0.234898
  C47      1.0000 0.45050  0.89960  0.15220  Biso   1.000  C  0.234901
  C48      1.0000 0.84780  0.95050  0.60040  Biso   1.000  C  0.234900
  C49      1.0000 0.39550  0.40300  0.57870  Biso   1.000  C  0.384267
  C50      1.0000 0.10450  0.59700  0.07870  Biso   1.000  C  0.384279
  C51      1.0000 0.89550  0.09700  0.42130  Biso   1.000  C  0.384281
  C52      1.0000 0.60450  0.90300  0.92130  Biso   1.000  C  0.384279
  C53      1.0000 0.57870  0.39550  0.40300  Biso   1.000  C  0.382372
  C54      1.0000 0.40300  0.57870  0.39550  Biso   1.000  C  0.384283
  C55      1.0000 0.92130  0.60450  0.90300  Biso   1.000  C  0.384280
  C56      1.0000 0.59700  0.07870  0.10450  Biso   1.000  C  0.384278
  C57      1.0000 0.07870  0.10450  0.59700  Biso   1.000  C  0.384278
  C58      1.0000 0.09700  0.42130  0.89550  Biso   1.000  C  0.384281
  C59      1.0000 0.42130  0.89550  0.09700  Biso   1.000  C  0.384272
  C60      1.0000 0.90300  0.92130  0.60450  Biso   1.000  C  0.384278
  C61      1.0000 0.35100  0.43960  0.57540  Biso   1.000  C  -0.475379
  C62      1.0000 0.14900  0.56040  0.07540  Biso   1.000  C  -0.475373
  C63      1.0000 0.85100  0.06040  0.42460  Biso   1.000  C  -0.475375
  C64      1.0000 0.64900  0.93960  0.92460  Biso   1.000  C  -0.475376
  C65      1.0000 0.57540  0.35100  0.43960  Biso   1.000  C  -0.474196
  C66      1.0000 0.43960  0.57540  0.35100  Biso   1.000  C  -0.475378
  C67      1.0000 0.92460  0.64900  0.93960  Biso   1.000  C  -0.475373
  C68      1.0000 0.56040  0.07540  0.14900  Biso   1.000  C  -0.475378
  C69      1.0000 0.07540  0.14900  0.56040  Biso   1.000  C  -0.475372
  C70      1.0000 0.06040  0.42460  0.85100  Biso   1.000  C  -0.475370
  C71      1.0000 0.42460  0.85100  0.06040  Biso   1.000  C  -0.475381
  C72      1.0000 0.93960  0.92460  0.64900  Biso   1.000  C  -0.475374
  C73      1.0000 0.34760  0.49120  0.59510  Biso   1.000  C  0.399305
  C74      1.0000 0.15240  0.50880  0.09510  Biso   1.000  C  0.399320
  C75      1.0000 0.84760  0.00880  0.40490  Biso   1.000  C  0.399318
  C76      1.0000 0.65240  0.99120  0.90490  Biso   1.000  C  0.399314
  C77      1.0000 0.59510  0.34760  0.49120  Biso   1.000  C  0.397380
  C78      1.0000 0.49120  0.59510  0.34760  Biso   1.000  C  0.399276
  C79      1.0000 0.90490  0.65240  0.99120  Biso   1.000  C  0.399320
  C80      1.0000 0.50880  0.09510  0.15240  Biso   1.000  C  0.399314
  C81      1.0000 0.09510  0.15240  0.50880  Biso   1.000  C  0.399319
  C82      1.0000 0.00880  0.40490  0.84760  Biso   1.000  C  0.399313
  C83      1.0000 0.40490  0.84760  0.00880  Biso   1.000  C  0.399325
  C84      1.0000 0.99120  0.90490  0.65240  Biso   1.000  C  0.399321
  C85      1.0000 0.30130  0.52620  0.58420  Biso   1.000  C  0.021502
  C86      1.0000 0.19870  0.47380  0.08420  Biso   1.000  C  0.021476
  C87      1.0000 0.80130  0.97380  0.41580  Biso   1.000  C  0.021476
  C88      1.0000 0.69870  0.02620  0.91580  Biso   1.000  C  0.021482
  C89      1.0000 0.58420  0.30130  0.52620  Biso   1.000  C  0.021878
  C90      1.0000 0.52620  0.58420  0.30130  Biso   1.000  C  0.021506
  C91      1.0000 0.91580  0.69870  0.02620  Biso   1.000  C  0.021479
  C92      1.0000 0.47380  0.08420  0.19870  Biso   1.000  C  0.021473
  C93      1.0000 0.08420  0.19870  0.47380  Biso   1.000  C  0.021481
  C94      1.0000 0.97380  0.41580  0.80130  Biso   1.000  C  0.021486
  C95      1.0000 0.41580  0.80130  0.97380  Biso   1.000  C  0.021464
  C96      1.0000 0.02620  0.91580  0.69870  Biso   1.000  C  0.021475
  C97      1.0000 0.30310  0.58020  0.59960  Biso   1.000  C  -0.101309
  C98      1.0000 0.19690  0.41980  0.09960  Biso   1.000  C  -0.101319
  C99      1.0000 0.80310  0.91980  0.40040  Biso   1.000  C  -0.101326
  C100     1.0000 0.69690  0.08020  0.90040  Biso   1.000  C  -0.101320
  C101     1.0000 0.59960  0.30310  0.58020  Biso   1.000  C  -0.101719
  C102     1.0000 0.58020  0.59960  0.30310  Biso   1.000  C  -0.101381
  C103     1.0000 0.90040  0.69690  0.08020  Biso   1.000  C  -0.101324
  C104     1.0000 0.41980  0.09960  0.19690  Biso   1.000  C  -0.101326
  C105     1.0000 0.09960  0.19690  0.41980  Biso   1.000  C  -0.101319
  C106     1.0000 0.91980  0.40040  0.80310  Biso   1.000  C  -0.101309
  C107     1.0000 0.40040  0.80310  0.91980  Biso   1.000  C  -0.101320
  C108     1.0000 0.08020  0.90040  0.69690  Biso   1.000  C  -0.101317
  C109     1.0000 0.25900  0.61580  0.58590  Biso   1.000  C  -0.144651
  C110     1.0000 0.24100  0.38420  0.08590  Biso   1.000  C  -0.144654
  C111     1.0000 0.75900  0.88420  0.41410  Biso   1.000  C  -0.144666
  C112     1.0000 0.74100  0.11580  0.91410  Biso   1.000  C  -0.144653
  C113     1.0000 0.58590  0.25900  0.61580  Biso   1.000  C  -0.144511
  C114     1.0000 0.61580  0.58590  0.25900  Biso   1.000  C  -0.144701
  C115     1.0000 0.91410  0.74100  0.11580  Biso   1.000  C  -0.144658
  C116     1.0000 0.38420  0.08590  0.24100  Biso   1.000  C  -0.144656
  C117     1.0000 0.08590  0.24100  0.38420  Biso   1.000  C  -0.144651
  C118     1.0000 0.88420  0.41410  0.75900  Biso   1.000  C  -0.144653
  C119     1.0000 0.41410  0.75900  0.88420  Biso   1.000  C  -0.144655
  C120     1.0000 0.11580  0.91410  0.74100  Biso   1.000  C  -0.144649
  C121     1.0000 0.21030  0.60030  0.56160  Biso   1.000  C  0.073470
  C122     1.0000 0.28970  0.39970  0.06160  Biso   1.000  C  0.073496
  C123     1.0000 0.71030  0.89970  0.43840  Biso   1.000  C  0.073506
  C124     1.0000 0.78970  0.10030  0.93840  Biso   1.000  C  0.073492
  C125     1.0000 0.56160  0.21030  0.60030  Biso   1.000  C  0.073433
  C126     1.0000 0.60030  0.56160  0.21030  Biso   1.000  C  0.073490
  C127     1.0000 0.93840  0.78970  0.10030  Biso   1.000  C  0.073500
  C128     1.0000 0.39970  0.06160  0.28970  Biso   1.000  C  0.073497
  C129     1.0000 0.06160  0.28970  0.39970  Biso   1.000  C  0.073496
  C130     1.0000 0.89970  0.43840  0.71030  Biso   1.000  C  0.073473
  C131     1.0000 0.43840  0.71030  0.89970  Biso   1.000  C  0.073515
  C132     1.0000 0.10030  0.93840  0.78970  Biso   1.000  C  0.073500
  C133     1.0000 0.21090  0.54390  0.54790  Biso   1.000  C  -0.148481
  C134     1.0000 0.28910  0.45610  0.04790  Biso   1.000  C  -0.148467
  C135     1.0000 0.71090  0.95610  0.45210  Biso   1.000  C  -0.148467
  C136     1.0000 0.78910  0.04390  0.95210  Biso   1.000  C  -0.148469
  C137     1.0000 0.54790  0.21090  0.54390  Biso   1.000  C  -0.148359
  C138     1.0000 0.54390  0.54790  0.21090  Biso   1.000  C  -0.148474
  C139     1.0000 0.95210  0.78910  0.04390  Biso   1.000  C  -0.148462
  C140     1.0000 0.45610  0.04790  0.28910  Biso   1.000  C  -0.148470
  C141     1.0000 0.04790  0.28910  0.45610  Biso   1.000  C  -0.148462
  C142     1.0000 0.95610  0.45210  0.71090  Biso   1.000  C  -0.148470
  C143     1.0000 0.45210  0.71090  0.95610  Biso   1.000  C  -0.148475
  C144     1.0000 0.04390  0.95210  0.78910  Biso   1.000  C  -0.148466
  C145     1.0000 0.25370  0.50740  0.55690  Biso   1.000  C  -0.124454
  C146     1.0000 0.24630  0.49260  0.05690  Biso   1.000  C  -0.124436
  C147     1.0000 0.75370  0.99260  0.44310  Biso   1.000  C  -0.124437
  C148     1.0000 0.74630  0.00740  0.94310  Biso   1.000  C  -0.124441
  C149     1.0000 0.55690  0.25370  0.50740  Biso   1.000  C  -0.124571
  C150     1.0000 0.50740  0.55690  0.25370  Biso   1.000  C  -0.124466
  C151     1.0000 0.94310  0.74630  0.00740  Biso   1.000  C  -0.124435
  C152     1.0000 0.49260  0.05690  0.24630  Biso   1.000  C  -0.124445
  C153     1.0000 0.05690  0.24630  0.49260  Biso   1.000  C  -0.124436
  C154     1.0000 0.99260  0.44310  0.75370  Biso   1.000  C  -0.124429
  C155     1.0000 0.44310  0.75370  0.99260  Biso   1.000  C  -0.124448
  C156     1.0000 0.00740  0.94310  0.74630  Biso   1.000  C  -0.124439
  C157     1.0000 0.16520  0.63890  0.55050  Biso   1.000  C  0.093383
  C158     1.0000 0.33480  0.36110  0.05050  Biso   1.000  C  0.093359
  C159     1.0000 0.66520  0.86110  0.44950  Biso   1.000  C  0.093351
  C160     1.0000 0.83480  0.13890  0.94950  Biso   1.000  C  0.093368
  C161     1.0000 0.55050  0.16520  0.63890  Biso   1.000  C  0.093354
  C162     1.0000 0.63890  0.55050  0.16520  Biso   1.000  C  0.093354
  C163     1.0000 0.94950  0.83480  0.13890  Biso   1.000  C  0.093364
  C164     1.0000 0.36110  0.05050  0.33480  Biso   1.000  C  0.093359
  C165     1.0000 0.05050  0.33480  0.36110  Biso   1.000  C  0.093370
  C166     1.0000 0.86110  0.44950  0.66520  Biso   1.000  C  0.093337
  C167     1.0000 0.44950  0.66520  0.86110  Biso   1.000  C  0.093343
  C168     1.0000 0.13890  0.94950  0.83480  Biso   1.000  C  0.093363
  C169     1.0000 0.16110  0.68550  0.57480  Biso   1.000  C  -0.139991
  C170     1.0000 0.33890  0.31450  0.07480  Biso   1.000  C  -0.139999
  C171     1.0000 0.66110  0.81450  0.42520  Biso   1.000  C  -0.140015
  C172     1.0000 0.83890  0.18550  0.92520  Biso   1.000  C  -0.139993
  C173     1.0000 0.57480  0.16110  0.68550  Biso   1.000  C  -0.140008
  C174     1.0000 0.68550  0.57480  0.16110  Biso   1.000  C  -0.140003
  C175     1.0000 0.92520  0.83890  0.18550  Biso   1.000  C  -0.139996
  C176     1.0000 0.31450  0.07480  0.33890  Biso   1.000  C  -0.139996
  C177     1.0000 0.07480  0.33890  0.31450  Biso   1.000  C  -0.139991
  C178     1.0000 0.81450  0.42520  0.66110  Biso   1.000  C  -0.139842
  C179     1.0000 0.42520  0.66110  0.81450  Biso   1.000  C  -0.139997
  C180     1.0000 0.18550  0.92520  0.83890  Biso   1.000  C  -0.139989
  C181     1.0000 0.11710  0.72100  0.56760  Biso   1.000  C  -0.101692
  C182     1.0000 0.38290  0.27900  0.06760  Biso   1.000  C  -0.101707
  C183     1.0000 0.61710  0.77900  0.43240  Biso   1.000  C  -0.101725
  C184     1.0000 0.88290  0.22100  0.93240  Biso   1.000  C  -0.101696
  C185     1.0000 0.56760  0.11710  0.72100  Biso   1.000  C  -0.101691
  C186     1.0000 0.72100  0.56760  0.11710  Biso   1.000  C  -0.101689
  C187     1.0000 0.93240  0.88290  0.22100  Biso   1.000  C  -0.101698
  C188     1.0000 0.27900  0.06760  0.38290  Biso   1.000  C  -0.101696
  C189     1.0000 0.06760  0.38290  0.27900  Biso   1.000  C  -0.101692
  C190     1.0000 0.77900  0.43240  0.61710  Biso   1.000  C  -0.101980
  C191     1.0000 0.43240  0.61710  0.77900  Biso   1.000  C  -0.101688
  C192     1.0000 0.22100  0.93240  0.88290  Biso   1.000  C  -0.101689
  C193     1.0000 0.07990  0.71040  0.52340  Biso   1.000  C  0.007444
  C194     1.0000 0.42010  0.28960  0.02340  Biso   1.000  C  0.007463
  C195     1.0000 0.57990  0.78960  0.47660  Biso   1.000  C  0.007501
  C196     1.0000 0.92010  0.21040  0.97660  Biso   1.000  C  0.007459
  C197     1.0000 0.52340  0.07990  0.71040  Biso   1.000  C  0.007454
  C198     1.0000 0.71040  0.52340  0.07990  Biso   1.000  C  0.007477
  C199     1.0000 0.97660  0.92010  0.21040  Biso   1.000  C  0.007466
  C200     1.0000 0.28960  0.02340  0.42010  Biso   1.000  C  0.007466
  C201     1.0000 0.02340  0.42010  0.28960  Biso   1.000  C  0.007455
  C202     1.0000 0.78960  0.47660  0.57990  Biso   1.000  C  0.007917
  C203     1.0000 0.47660  0.57990  0.78960  Biso   1.000  C  0.007494
  C204     1.0000 0.21040  0.97660  0.92010  Biso   1.000  C  0.007463
  C205     1.0000 0.08890  0.66400  0.49190  Biso   1.000  C  -0.126869
  C206     1.0000 0.41110  0.33600  0.99190  Biso   1.000  C  -0.126852
  C207     1.0000 0.58890  0.83600  0.50810  Biso   1.000  C  -0.126845
  C208     1.0000 0.91110  0.16400  0.00810  Biso   1.000  C  -0.126857
  C209     1.0000 0.49190  0.08890  0.66400  Biso   1.000  C  -0.126857
  C210     1.0000 0.66400  0.49190  0.08890  Biso   1.000  C  -0.126844
  C211     1.0000 0.00810  0.91110  0.16400  Biso   1.000  C  -0.126854
  C212     1.0000 0.33600  0.99190  0.41110  Biso   1.000  C  -0.126852
  C213     1.0000 0.99190  0.41110  0.33600  Biso   1.000  C  -0.126853
  C214     1.0000 0.83600  0.50810  0.58890  Biso   1.000  C  -0.126984
  C215     1.0000 0.50810  0.58890  0.83600  Biso   1.000  C  -0.126862
  C216     1.0000 0.16400  0.00810  0.91110  Biso   1.000  C  -0.126857
  C217     1.0000 0.13110  0.62680  0.50500  Biso   1.000  C  -0.147383
  C218     1.0000 0.36890  0.37320  0.00500  Biso   1.000  C  -0.147373
  C219     1.0000 0.63110  0.87320  0.49500  Biso   1.000  C  -0.147377
  C220     1.0000 0.86890  0.12680  0.99500  Biso   1.000  C  -0.147378
  C221     1.0000 0.50500  0.13110  0.62680  Biso   1.000  C  -0.147396
  C222     1.0000 0.62680  0.50500  0.13110  Biso   1.000  C  -0.147396
  C223     1.0000 0.99500  0.86890  0.12680  Biso   1.000  C  -0.147375
  C224     1.0000 0.37320  0.00500  0.36890  Biso   1.000  C  -0.147375
  C225     1.0000 0.00500  0.36890  0.37320  Biso   1.000  C  -0.147368
  C226     1.0000 0.87320  0.49500  0.63110  Biso   1.000  C  -0.147257
  C227     1.0000 0.49500  0.63110  0.87320  Biso   1.000  C  -0.147396
  C228     1.0000 0.12680  0.99500  0.86890  Biso   1.000  C  -0.147380
  C229     1.0000 0.03330  0.75040  0.51460  Biso   1.000  C  0.392313
  C230     1.0000 0.46670  0.24960  0.01460  Biso   1.000  C  0.392295
  C231     1.0000 0.53330  0.74960  0.48540  Biso   1.000  C  0.392290
  C232     1.0000 0.96670  0.25040  0.98540  Biso   1.000  C  0.392305
  C233     1.0000 0.51460  0.03330  0.75040  Biso   1.000  C  0.392295
  C234     1.0000 0.75040  0.51460  0.03330  Biso   1.000  C  0.392297
  C235     1.0000 0.98540  0.96670  0.25040  Biso   1.000  C  0.392301
  C236     1.0000 0.24960  0.01460  0.46670  Biso   1.000  C  0.392301
  C237     1.0000 0.01460  0.46670  0.24960  Biso   1.000  C  0.392313
  C238     1.0000 0.74960  0.48540  0.53330  Biso   1.000  C  0.390583
  C239     1.0000 0.48540  0.53330  0.74960  Biso   1.000  C  0.392294
  C240     1.0000 0.25040  0.98540  0.96670  Biso   1.000  C  0.392303
  C241     1.0000 0.99470  0.74050  0.47100  Biso   1.000  C  -0.507348
  C242     1.0000 0.50530  0.25950  0.97100  Biso   1.000  C  -0.507333
  C243     1.0000 0.49470  0.75950  0.52900  Biso   1.000  C  -0.507311
  C244     1.0000 0.00530  0.24050  0.02900  Biso   1.000  C  -0.507334
  C245     1.0000 0.47100  0.99470  0.74050  Biso   1.000  C  -0.507336
  C246     1.0000 0.74050  0.47100  0.99470  Biso   1.000  C  -0.507326
  C247     1.0000 0.02900  0.00530  0.24050  Biso   1.000  C  -0.507333
  C248     1.0000 0.25950  0.97100  0.50530  Biso   1.000  C  -0.507330
  C249     1.0000 0.97100  0.50530  0.25950  Biso   1.000  C  -0.507338
  C250     1.0000 0.75950  0.52900  0.49470  Biso   1.000  C  -0.506107
  C251     1.0000 0.52900  0.49470  0.75950  Biso   1.000  C  -0.507324
  C252     1.0000 0.24050  0.02900  0.00530  Biso   1.000  C  -0.507335
  C253     1.0000 0.94930  0.77330  0.45910  Biso   1.000  C  0.381671
  C254     1.0000 0.55070  0.22670  0.95910  Biso   1.000  C  0.381690
  C255     1.0000 0.44930  0.72670  0.54090  Biso   1.000  C  0.381695
  C256     1.0000 0.05070  0.27330  0.04090  Biso   1.000  C  0.381687
  C257     1.0000 0.45910  0.94930  0.77330  Biso   1.000  C  0.381686
  C258     1.0000 0.77330  0.45910  0.94930  Biso   1.000  C  0.381697
  C259     1.0000 0.04090  0.05070  0.27330  Biso   1.000  C  0.381689
  C260     1.0000 0.22670  0.95910  0.55070  Biso   1.000  C  0.381691
  C261     1.0000 0.95910  0.55070  0.22670  Biso   1.000  C  0.381677
  C262     1.0000 0.72670  0.54090  0.44930  Biso   1.000  C  0.379814
  C263     1.0000 0.54090  0.44930  0.72670  Biso   1.000  C  0.381682
  C264     1.0000 0.27330  0.04090  0.05070  Biso   1.000  C  0.381685
  C265     1.0000 0.91220  0.75990  0.41320  Biso   1.000  C  0.219476
  C266     1.0000 0.58780  0.24010  0.91320  Biso   1.000  C  0.219472
  C267     1.0000 0.41220  0.74010  0.58680  Biso   1.000  C  0.219478
  C268     1.0000 0.08780  0.25990  0.08680  Biso   1.000  C  0.219475
  C269     1.0000 0.41320  0.91220  0.75990  Biso   1.000  C  0.219474
  C270     1.0000 0.75990  0.41320  0.91220  Biso   1.000  C  0.219473
  C271     1.0000 0.08680  0.08780  0.25990  Biso   1.000  C  0.219474
  C272     1.0000 0.24010  0.91320  0.58780  Biso   1.000  C  0.219473
  C273     1.0000 0.91320  0.58780  0.24010  Biso   1.000  C  0.219480
  C274     1.0000 0.74010  0.58680  0.41220  Biso   1.000  C  0.220227
  C275     1.0000 0.58680  0.41220  0.74010  Biso   1.000  C  0.219487
  C276     1.0000 0.25990  0.08680  0.08780  Biso   1.000  C  0.219475
  C277     1.0000 0.91940  0.80400  0.37070  Biso   1.000  C  -0.499536
  C278     1.0000 0.58060  0.19600  0.87070  Biso   1.000  C  -0.499538
  C279     1.0000 0.41940  0.69600  0.62930  Biso   1.000  C  -0.499533
  C280     1.0000 0.08060  0.30400  0.12930  Biso   1.000  C  -0.499541
  C281     1.0000 0.37070  0.91940  0.80400  Biso   1.000  C  -0.499542
  C282     1.0000 0.80400  0.37070  0.91940  Biso   1.000  C  -0.499541
  C283     1.0000 0.12930  0.08060  0.30400  Biso   1.000  C  -0.499540
  C284     1.0000 0.19600  0.87070  0.58060  Biso   1.000  C  -0.499540
  C285     1.0000 0.87070  0.58060  0.19600  Biso   1.000  C  -0.499544
  C286     1.0000 0.69600  0.62930  0.41940  Biso   1.000  C  -0.499828
  C287     1.0000 0.62930  0.41940  0.69600  Biso   1.000  C  -0.499551
  C288     1.0000 0.30400  0.12930  0.08060  Biso   1.000  C  -0.499540
  C289     1.0000 0.85250  0.76170  0.43820  Biso   1.000  C  -0.502775
  C290     1.0000 0.64750  0.23830  0.93820  Biso   1.000  C  -0.502771
  C291     1.0000 0.35250  0.73830  0.56180  Biso   1.000  C  -0.502779
  C292     1.0000 0.14750  0.26170  0.06180  Biso   1.000  C  -0.502769
  C293     1.0000 0.43820  0.85250  0.76170  Biso   1.000  C  -0.502766
  C294     1.0000 0.76170  0.43820  0.85250  Biso   1.000  C  -0.502768
  C295     1.0000 0.06180  0.14750  0.26170  Biso   1.000  C  -0.502769
  C296     1.0000 0.23830  0.93820  0.64750  Biso   1.000  C  -0.502769
  C297     1.0000 0.93820  0.64750  0.23830  Biso   1.000  C  -0.502768
  C298     1.0000 0.73830  0.56180  0.35250  Biso   1.000  C  -0.503042
  C299     1.0000 0.56180  0.35250  0.73830  Biso   1.000  C  -0.502780
  C300     1.0000 0.26170  0.06180  0.14750  Biso   1.000  C  -0.502769
  C301     1.0000 0.92460  0.70280  0.38740  Biso   1.000  C  -0.512515
  C302     1.0000 0.57540  0.29720  0.88740  Biso   1.000  C  -0.512505
  C303     1.0000 0.42460  0.79720  0.61260  Biso   1.000  C  -0.512513
  C304     1.0000 0.07540  0.20280  0.11260  Biso   1.000  C  -0.512508
  C305     1.0000 0.38740  0.92460  0.70280  Biso   1.000  C  -0.512508
  C306     1.0000 0.70280  0.38740  0.92460  Biso   1.000  C  -0.512507
  C307     1.0000 0.11260  0.07540  0.20280  Biso   1.000  C  -0.512508
  C308     1.0000 0.29720  0.88740  0.57540  Biso   1.000  C  -0.512506
  C309     1.0000 0.88740  0.57540  0.29720  Biso   1.000  C  -0.512517
  C310     1.0000 0.79720  0.61260  0.42460  Biso   1.000  C  -0.512567
  C311     1.0000 0.61260  0.42460  0.79720  Biso   1.000  C  -0.512515
  C312     1.0000 0.20280  0.11260  0.07540  Biso   1.000  C  -0.512509
  C313     1.0000 0.54830  0.56130  0.62220  Biso   1.000  C  -0.020670
  C314     1.0000 0.95170  0.43870  0.12220  Biso   1.000  C  -0.020684
  C315     1.0000 0.04830  0.93870  0.37780  Biso   1.000  C  -0.020685
  C316     1.0000 0.45170  0.06130  0.87780  Biso   1.000  C  -0.020683
  C317     1.0000 0.62220  0.54830  0.56130  Biso   1.000  C  -0.020586
  C318     1.0000 0.56130  0.62220  0.54830  Biso   1.000  C  -0.020673
  C319     1.0000 0.87780  0.45170  0.06130  Biso   1.000  C  -0.020685
  C320     1.0000 0.43870  0.12220  0.95170  Biso   1.000  C  -0.020684
  C321     1.0000 0.12220  0.95170  0.43870  Biso   1.000  C  -0.020684
  C322     1.0000 0.93870  0.37780  0.04830  Biso   1.000  C  -0.020683
  C323     1.0000 0.37780  0.04830  0.93870  Biso   1.000  C  -0.020684
  C324     1.0000 0.06130  0.87780  0.45170  Biso   1.000  C  -0.020684
  C325     1.0000 0.48240  0.55880  0.54520  Biso   1.000  C  -0.025856
  C326     1.0000 0.01760  0.44120  0.04520  Biso   1.000  C  -0.025873
  C327     1.0000 0.98240  0.94120  0.45480  Biso   1.000  C  -0.025874
  C328     1.0000 0.51760  0.05880  0.95480  Biso   1.000  C  -0.025874
  C329     1.0000 0.54520  0.48240  0.55880  Biso   1.000  C  -0.025969
  C330     1.0000 0.55880  0.54520  0.48240  Biso   1.000  C  -0.025873
  C331     1.0000 0.95480  0.51760  0.05880  Biso   1.000  C  -0.025874
  C332     1.0000 0.44120  0.04520  0.01760  Biso   1.000  C  -0.025874
  C333     1.0000 0.04520  0.01760  0.44120  Biso   1.000  C  -0.025874
  C334     1.0000 0.94120  0.45480  0.98240  Biso   1.000  C  -0.025874
  C335     1.0000 0.45480  0.98240  0.94120  Biso   1.000  C  -0.025874
  C336     1.0000 0.05880  0.95480  0.51760  Biso   1.000  C  -0.025874
  Cu1      1.0000 0.45256  0.47829  0.65056  Biso   1.000  Cu  0.809396
  Cu2      1.0000 0.04744  0.52171  0.15056  Biso   1.000  Cu  0.809387
  Cu3      1.0000 0.95256  0.02171  0.34944  Biso   1.000  Cu  0.809385
  Cu4      1.0000 0.54744  0.97829  0.84944  Biso   1.000  Cu  0.809380
  Cu5      1.0000 0.65056  0.45256  0.47829  Biso   1.000  Cu  0.780435
  Cu6      1.0000 0.47829  0.65056  0.45256  Biso   1.000  Cu  0.809404
  Cu7      1.0000 0.84944  0.54744  0.97829  Biso   1.000  Cu  0.809385
  Cu8      1.0000 0.52171  0.15056  0.04744  Biso   1.000  Cu  0.809379
  Cu9      1.0000 0.15056  0.04744  0.52171  Biso   1.000  Cu  0.809387
  Cu10     1.0000 0.02171  0.34944  0.95256  Biso   1.000  Cu  0.809386
  Cu11     1.0000 0.34944  0.95256  0.02171  Biso   1.000  Cu  0.809384
  Cu12     1.0000 0.97829  0.84944  0.54744  Biso   1.000  Cu  0.809385
  H1       1.0000 0.47030  0.37600  0.51390  Biso   1.000  H  0.150653
  H2       1.0000 0.02970  0.62400  0.01390  Biso   1.000  H  0.150628
  H3       1.0000 0.97030  0.12400  0.48610  Biso   1.000  H  0.150627
  H4       1.0000 0.52970  0.87600  0.98610  Biso   1.000  H  0.150630
  H5       1.0000 0.51390  0.47030  0.37600  Biso   1.000  H  0.150688
  H6       1.0000 0.37600  0.51390  0.47030  Biso   1.000  H  0.150665
  H7       1.0000 0.98610  0.52970  0.87600  Biso   1.000  H  0.150628
  H8       1.0000 0.62400  0.01390  0.02970  Biso   1.000  H  0.150632
  H9       1.0000 0.01390  0.02970  0.62400  Biso   1.000  H  0.150629
  H10      1.0000 0.12400  0.48610  0.97030  Biso   1.000  H  0.150627
  H11      1.0000 0.48610  0.97030  0.12400  Biso   1.000  H  0.150630
  H12      1.0000 0.87600  0.98610  0.52970  Biso   1.000  H  0.150629
  H13      1.0000 0.42030  0.36990  0.47100  Biso   1.000  H  0.136608
  H14      1.0000 0.07970  0.63010  0.97100  Biso   1.000  H  0.136629
  H15      1.0000 0.92030  0.13010  0.52900  Biso   1.000  H  0.136627
  H16      1.0000 0.57970  0.86990  0.02900  Biso   1.000  H  0.136622
  H17      1.0000 0.47100  0.42030  0.36990  Biso   1.000  H  0.136761
  H18      1.0000 0.36990  0.47100  0.42030  Biso   1.000  H  0.136611
  H19      1.0000 0.02900  0.57970  0.86990  Biso   1.000  H  0.136629
  H20      1.0000 0.63010  0.97100  0.07970  Biso   1.000  H  0.136628
  H21      1.0000 0.97100  0.07970  0.63010  Biso   1.000  H  0.136628
  H22      1.0000 0.13010  0.52900  0.92030  Biso   1.000  H  0.136628
  H23      1.0000 0.52900  0.92030  0.13010  Biso   1.000  H  0.136627
  H24      1.0000 0.86990  0.02900  0.57970  Biso   1.000  H  0.136629
  H25      1.0000 0.45250  0.31610  0.49230  Biso   1.000  H  0.151540
  H26      1.0000 0.04750  0.68390  0.99230  Biso   1.000  H  0.151587
  H27      1.0000 0.95250  0.18390  0.50770  Biso   1.000  H  0.151585
  H28      1.0000 0.54750  0.81610  0.00770  Biso   1.000  H  0.151584
  H29      1.0000 0.49230  0.45250  0.31610  Biso   1.000  H  0.151717
  H30      1.0000 0.31610  0.49230  0.45250  Biso   1.000  H  0.151583
  H31      1.0000 0.00770  0.54750  0.81610  Biso   1.000  H  0.151584
  H32      1.0000 0.68390  0.99230  0.04750  Biso   1.000  H  0.151587
  H33      1.0000 0.99230  0.04750  0.68390  Biso   1.000  H  0.151585
  H34      1.0000 0.18390  0.50770  0.95250  Biso   1.000  H  0.151587
  H35      1.0000 0.50770  0.95250  0.18390  Biso   1.000  H  0.151582
  H36      1.0000 0.81610  0.00770  0.54750  Biso   1.000  H  0.151588
  H37      1.0000 0.33330  0.34380  0.49530  Biso   1.000  H  0.147855
  H38      1.0000 0.16670  0.65620  0.99530  Biso   1.000  H  0.147871
  H39      1.0000 0.83330  0.15620  0.50470  Biso   1.000  H  0.147866
  H40      1.0000 0.66670  0.84380  0.00470  Biso   1.000  H  0.147861
  H41      1.0000 0.49530  0.33330  0.34380  Biso   1.000  H  0.147989
  H42      1.0000 0.34380  0.49530  0.33330  Biso   1.000  H  0.147845
  H43      1.0000 0.00470  0.66670  0.84380  Biso   1.000  H  0.147868
  H44      1.0000 0.65620  0.99530  0.16670  Biso   1.000  H  0.147867
  H45      1.0000 0.99530  0.16670  0.65620  Biso   1.000  H  0.147868
  H46      1.0000 0.15620  0.50470  0.83330  Biso   1.000  H  0.147868
  H47      1.0000 0.50470  0.83330  0.15620  Biso   1.000  H  0.147864
  H48      1.0000 0.84380  0.00470  0.66670  Biso   1.000  H  0.147868
  H49      1.0000 0.31450  0.34410  0.55860  Biso   1.000  H  0.150590
  H50      1.0000 0.18550  0.65590  0.05860  Biso   1.000  H  0.150590
  H51      1.0000 0.81450  0.15590  0.44140  Biso   1.000  H  0.150594
  H52      1.0000 0.68550  0.84410  0.94140  Biso   1.000  H  0.150589
  H53      1.0000 0.55860  0.31450  0.34410  Biso   1.000  H  0.150701
  H54      1.0000 0.34410  0.55860  0.31450  Biso   1.000  H  0.150586
  H55      1.0000 0.94140  0.68550  0.84410  Biso   1.000  H  0.150592
  H56      1.0000 0.65590  0.05860  0.18550  Biso   1.000  H  0.150588
  H57      1.0000 0.05860  0.18550  0.65590  Biso   1.000  H  0.150591
  H58      1.0000 0.15590  0.44140  0.81450  Biso   1.000  H  0.150592
  H59      1.0000 0.44140  0.81450  0.15590  Biso   1.000  H  0.150590
  H60      1.0000 0.84410  0.94140  0.68550  Biso   1.000  H  0.150593
  H61      1.0000 0.33960  0.28920  0.53190  Biso   1.000  H  0.155124
  H62      1.0000 0.16040  0.71080  0.03190  Biso   1.000  H  0.155141
  H63      1.0000 0.83960  0.21080  0.46810  Biso   1.000  H  0.155155
  H64      1.0000 0.66040  0.78920  0.96810  Biso   1.000  H  0.155134
  H65      1.0000 0.53190  0.33960  0.28920  Biso   1.000  H  0.155307
  H66      1.0000 0.28920  0.53190  0.33960  Biso   1.000  H  0.155139
  H67      1.0000 0.96810  0.66040  0.78920  Biso   1.000  H  0.155137
  H68      1.0000 0.71080  0.03190  0.16040  Biso   1.000  H  0.155138
  H69      1.0000 0.03190  0.16040  0.71080  Biso   1.000  H  0.155139
  H70      1.0000 0.21080  0.46810  0.83960  Biso   1.000  H  0.155146
  H71      1.0000 0.46810  0.83960  0.21080  Biso   1.000  H  0.155136
  H72      1.0000 0.78920  0.96810  0.66040  Biso   1.000  H  0.155142
  H73      1.0000 0.42740  0.27150  0.56570  Biso   1.000  H  0.142269
  H74      1.0000 0.07260  0.72850  0.06570  Biso   1.000  H  0.142289
  H75      1.0000 0.92740  0.22850  0.43430  Biso   1.000  H  0.142292
  H76      1.0000 0.57260  0.77150  0.93430  Biso   1.000  H  0.142286
  H77      1.0000 0.56570  0.42740  0.27150  Biso   1.000  H  0.142451
  H78      1.0000 0.27150  0.56570  0.42740  Biso   1.000  H  0.142284
  H79      1.0000 0.93430  0.57260  0.77150  Biso   1.000  H  0.142281
  H80      1.0000 0.72850  0.06570  0.07260  Biso   1.000  H  0.142288
  H81      1.0000 0.06570  0.07260  0.72850  Biso   1.000  H  0.142287
  H82      1.0000 0.22850  0.43430  0.92740  Biso   1.000  H  0.142290
  H83      1.0000 0.43430  0.92740  0.22850  Biso   1.000  H  0.142284
  H84      1.0000 0.77150  0.93430  0.57260  Biso   1.000  H  0.142291
  H85      1.0000 0.39890  0.30080  0.61770  Biso   1.000  H  0.144417
  H86      1.0000 0.10110  0.69920  0.11770  Biso   1.000  H  0.144416
  H87      1.0000 0.89890  0.19920  0.38230  Biso   1.000  H  0.144421
  H88      1.0000 0.60110  0.80080  0.88230  Biso   1.000  H  0.144417
  H89      1.0000 0.61770  0.39890  0.30080  Biso   1.000  H  0.144585
  H90      1.0000 0.30080  0.61770  0.39890  Biso   1.000  H  0.144415
  H91      1.0000 0.88230  0.60110  0.80080  Biso   1.000  H  0.144417
  H92      1.0000 0.69920  0.11770  0.10110  Biso   1.000  H  0.144413
  H93      1.0000 0.11770  0.10110  0.69920  Biso   1.000  H  0.144421
  H94      1.0000 0.19920  0.38230  0.89890  Biso   1.000  H  0.144420
  H95      1.0000 0.38230  0.89890  0.19920  Biso   1.000  H  0.144415
  H96      1.0000 0.80080  0.88230  0.60110  Biso   1.000  H  0.144422
  H97      1.0000 0.45950  0.31890  0.59880  Biso   1.000  H  0.154457
  H98      1.0000 0.04050  0.68110  0.09880  Biso   1.000  H  0.154447
  H99      1.0000 0.95950  0.18110  0.40120  Biso   1.000  H  0.154445
  H100     1.0000 0.54050  0.81890  0.90120  Biso   1.000  H  0.154452
  H101     1.0000 0.59880  0.45950  0.31890  Biso   1.000  H  0.154439
  H102     1.0000 0.31890  0.59880  0.45950  Biso   1.000  H  0.154462
  H103     1.0000 0.90120  0.54050  0.81890  Biso   1.000  H  0.154447
  H104     1.0000 0.68110  0.09880  0.04050  Biso   1.000  H  0.154451
  H105     1.0000 0.09880  0.04050  0.68110  Biso   1.000  H  0.154450
  H106     1.0000 0.18110  0.40120  0.95950  Biso   1.000  H  0.154447
  H107     1.0000 0.40120  0.95950  0.18110  Biso   1.000  H  0.154448
  H108     1.0000 0.81890  0.90120  0.54050  Biso   1.000  H  0.154447
  H109     1.0000 0.31910  0.42620  0.55690  Biso   1.000  H  0.128584
  H110     1.0000 0.18090  0.57380  0.05690  Biso   1.000  H  0.128607
  H111     1.0000 0.81910  0.07380  0.44310  Biso   1.000  H  0.128605
  H112     1.0000 0.68090  0.92620  0.94310  Biso   1.000  H  0.128601
  H113     1.0000 0.55690  0.31910  0.42620  Biso   1.000  H  0.128494
  H114     1.0000 0.42620  0.55690  0.31910  Biso   1.000  H  0.128578
  H115     1.0000 0.94310  0.68090  0.92620  Biso   1.000  H  0.128605
  H116     1.0000 0.57380  0.05690  0.18090  Biso   1.000  H  0.128604
  H117     1.0000 0.05690  0.18090  0.57380  Biso   1.000  H  0.128605
  H118     1.0000 0.07380  0.44310  0.81910  Biso   1.000  H  0.128605
  H119     1.0000 0.44310  0.81910  0.07380  Biso   1.000  H  0.128604
  H120     1.0000 0.92620  0.94310  0.68090  Biso   1.000  H  0.128606
  H121     1.0000 0.33390  0.59390  0.61960  Biso   1.000  H  0.118062
  H122     1.0000 0.16610  0.40610  0.11960  Biso   1.000  H  0.118050
  H123     1.0000 0.83390  0.90610  0.38040  Biso   1.000  H  0.118047
  H124     1.0000 0.66610  0.09390  0.88040  Biso   1.000  H  0.118051
  H125     1.0000 0.61960  0.33390  0.59390  Biso   1.000  H  0.118010
  H126     1.0000 0.59390  0.61960  0.33390  Biso   1.000  H  0.118048
  H127     1.0000 0.88040  0.66610  0.09390  Biso   1.000  H  0.118046
  H128     1.0000 0.40610  0.11960  0.16610  Biso   1.000  H  0.118050
  H129     1.0000 0.11960  0.16610  0.40610  Biso   1.000  H  0.118050
  H130     1.0000 0.90610  0.38040  0.83390  Biso   1.000  H  0.118054
  H131     1.0000 0.38040  0.83390  0.90610  Biso   1.000  H  0.118048
  H132     1.0000 0.09390  0.88040  0.66610  Biso   1.000  H  0.118051
  H133     1.0000 0.26350  0.65380  0.59430  Biso   1.000  H  0.095258
  H134     1.0000 0.23650  0.34620  0.09430  Biso   1.000  H  0.095261
  H135     1.0000 0.76350  0.84620  0.40570  Biso   1.000  H  0.095250
  H136     1.0000 0.73650  0.15380  0.90570  Biso   1.000  H  0.095259
  H137     1.0000 0.59430  0.26350  0.65380  Biso   1.000  H  0.095291
  H138     1.0000 0.65380  0.59430  0.26350  Biso   1.000  H  0.095246
  H139     1.0000 0.90570  0.73650  0.15380  Biso   1.000  H  0.095255
  H140     1.0000 0.34620  0.09430  0.23650  Biso   1.000  H  0.095261
  H141     1.0000 0.09430  0.23650  0.34620  Biso   1.000  H  0.095260
  H142     1.0000 0.84620  0.40570  0.76350  Biso   1.000  H  0.095260
  H143     1.0000 0.40570  0.76350  0.84620  Biso   1.000  H  0.095264
  H144     1.0000 0.15380  0.90570  0.73650  Biso   1.000  H  0.095263
  H145     1.0000 0.17860  0.52950  0.53080  Biso   1.000  H  0.098037
  H146     1.0000 0.32140  0.47050  0.03080  Biso   1.000  H  0.098052
  H147     1.0000 0.67860  0.97050  0.46920  Biso   1.000  H  0.098052
  H148     1.0000 0.82140  0.02950  0.96920  Biso   1.000  H  0.098047
  H149     1.0000 0.53080  0.17860  0.52950  Biso   1.000  H  0.098079
  H150     1.0000 0.52950  0.53080  0.17860  Biso   1.000  H  0.098056
  H151     1.0000 0.96920  0.82140  0.02950  Biso   1.000  H  0.098051
  H152     1.0000 0.47050  0.03080  0.32140  Biso   1.000  H  0.098050
  H153     1.0000 0.03080  0.32140  0.47050  Biso   1.000  H  0.098049
  H154     1.0000 0.97050  0.46920  0.67860  Biso   1.000  H  0.098045
  H155     1.0000 0.46920  0.67860  0.97050  Biso   1.000  H  0.098045
  H156     1.0000 0.02950  0.96920  0.82140  Biso   1.000  H  0.098049
  H157     1.0000 0.25110  0.47020  0.54480  Biso   1.000  H  0.115007
  H158     1.0000 0.24890  0.52980  0.04480  Biso   1.000  H  0.115013
  H159     1.0000 0.75110  0.02980  0.45520  Biso   1.000  H  0.115013
  H160     1.0000 0.74890  0.97020  0.95520  Biso   1.000  H  0.115011
  H161     1.0000 0.54480  0.25110  0.47020  Biso   1.000  H  0.115021
  H162     1.0000 0.47020  0.54480  0.25110  Biso   1.000  H  0.115017
  H163     1.0000 0.95520  0.74890  0.97020  Biso   1.000  H  0.115013
  H164     1.0000 0.52980  0.04480  0.24890  Biso   1.000  H  0.115011
  H165     1.0000 0.04480  0.24890  0.52980  Biso   1.000  H  0.115011
  H166     1.0000 0.02980  0.45520  0.75110  Biso   1.000  H  0.115017
  H167     1.0000 0.45520  0.75110  0.02980  Biso   1.000  H  0.115004
  H168     1.0000 0.97020  0.95520  0.74890  Biso   1.000  H  0.115011
  H169     1.0000 0.18990  0.69640  0.59910  Biso   1.000  H  0.106028
  H170     1.0000 0.31010  0.30360  0.09910  Biso   1.000  H  0.106021
  H171     1.0000 0.68990  0.80360  0.40090  Biso   1.000  H  0.106003
  H172     1.0000 0.81010  0.19640  0.90090  Biso   1.000  H  0.106023
  H173     1.0000 0.59910  0.18990  0.69640  Biso   1.000  H  0.106018
  H174     1.0000 0.69640  0.59910  0.18990  Biso   1.000  H  0.106011
  H175     1.0000 0.90090  0.81010  0.19640  Biso   1.000  H  0.106017
  H176     1.0000 0.30360  0.09910  0.31010  Biso   1.000  H  0.106020
  H177     1.0000 0.09910  0.31010  0.30360  Biso   1.000  H  0.106023
  H178     1.0000 0.80360  0.40090  0.68990  Biso   1.000  H  0.106066
  H179     1.0000 0.40090  0.68990  0.80360  Biso   1.000  H  0.106017
  H180     1.0000 0.19640  0.90090  0.81010  Biso   1.000  H  0.106024
  H181     1.0000 0.11180  0.75160  0.59150  Biso   1.000  H  0.121418
  H182     1.0000 0.38820  0.24840  0.09150  Biso   1.000  H  0.121416
  H183     1.0000 0.61180  0.74840  0.40850  Biso   1.000  H  0.121408
  H184     1.0000 0.88820  0.25160  0.90850  Biso   1.000  H  0.121417
  H185     1.0000 0.59150  0.11180  0.75160  Biso   1.000  H  0.121417
  H186     1.0000 0.75160  0.59150  0.11180  Biso   1.000  H  0.121423
  H187     1.0000 0.90850  0.88820  0.25160  Biso   1.000  H  0.121418
  H188     1.0000 0.24840  0.09150  0.38820  Biso   1.000  H  0.121419
  H189     1.0000 0.09150  0.38820  0.24840  Biso   1.000  H  0.121419
  H190     1.0000 0.74840  0.40850  0.61180  Biso   1.000  H  0.121413
  H191     1.0000 0.40850  0.61180  0.74840  Biso   1.000  H  0.121422
  H192     1.0000 0.25160  0.90850  0.88820  Biso   1.000  H  0.121422
  H193     1.0000 0.06600  0.65700  0.46070  Biso   1.000  H  0.116356
  H194     1.0000 0.43400  0.34300  0.96070  Biso   1.000  H  0.116371
  H195     1.0000 0.56600  0.84300  0.53930  Biso   1.000  H  0.116373
  H196     1.0000 0.93400  0.15700  0.03930  Biso   1.000  H  0.116363
  H197     1.0000 0.46070  0.06600  0.65700  Biso   1.000  H  0.116362
  H198     1.0000 0.65700  0.46070  0.06600  Biso   1.000  H  0.116370
  H199     1.0000 0.03930  0.93400  0.15700  Biso   1.000  H  0.116367
  H200     1.0000 0.34300  0.96070  0.43400  Biso   1.000  H  0.116369
  H201     1.0000 0.96070  0.43400  0.34300  Biso   1.000  H  0.116363
  H202     1.0000 0.84300  0.53930  0.56600  Biso   1.000  H  0.116398
  H203     1.0000 0.53930  0.56600  0.84300  Biso   1.000  H  0.116362
  H204     1.0000 0.15700  0.03930  0.93400  Biso   1.000  H  0.116364
  H205     1.0000 0.13660  0.59430  0.48380  Biso   1.000  H  0.114249
  H206     1.0000 0.36340  0.40570  0.98380  Biso   1.000  H  0.114254
  H207     1.0000 0.63660  0.90570  0.51620  Biso   1.000  H  0.114249
  H208     1.0000 0.86340  0.09430  0.01620  Biso   1.000  H  0.114249
  H209     1.0000 0.48380  0.13660  0.59430  Biso   1.000  H  0.114241
  H210     1.0000 0.59430  0.48380  0.13660  Biso   1.000  H  0.114240
  H211     1.0000 0.01620  0.86340  0.09430  Biso   1.000  H  0.114251
  H212     1.0000 0.40570  0.98380  0.36340  Biso   1.000  H  0.114251
  H213     1.0000 0.98380  0.36340  0.40570  Biso   1.000  H  0.114255
  H214     1.0000 0.90570  0.51620  0.63660  Biso   1.000  H  0.114281
  H215     1.0000 0.51620  0.63660  0.90570  Biso   1.000  H  0.114238
  H216     1.0000 0.09430  0.01620  0.86340  Biso   1.000  H  0.114248
  H217     1.0000 0.00070  0.70890  0.44840  Biso   1.000  H  0.132835
  H218     1.0000 0.49930  0.29110  0.94840  Biso   1.000  H  0.132841
  H219     1.0000 0.50070  0.79110  0.55160  Biso   1.000  H  0.132828
  H220     1.0000 0.99930  0.20890  0.05160  Biso   1.000  H  0.132839
  H221     1.0000 0.44840  0.00070  0.70890  Biso   1.000  H  0.132836
  H222     1.0000 0.70890  0.44840  0.00070  Biso   1.000  H  0.132837
  H223     1.0000 0.05160  0.99930  0.20890  Biso   1.000  H  0.132838
  H224     1.0000 0.29110  0.94840  0.49930  Biso   1.000  H  0.132841
  H225     1.0000 0.94840  0.49930  0.29110  Biso   1.000  H  0.132835
  H226     1.0000 0.79110  0.55160  0.50070  Biso   1.000  H  0.132718
  H227     1.0000 0.55160  0.50070  0.79110  Biso   1.000  H  0.132820
  H228     1.0000 0.20890  0.05160  0.99930  Biso   1.000  H  0.132836
  H229     1.0000 0.91510  0.84030  0.38810  Biso   1.000  H  0.154824
  H230     1.0000 0.58490  0.15970  0.88810  Biso   1.000  H  0.154815
  H231     1.0000 0.41510  0.65970  0.61190  Biso   1.000  H  0.154840
  H232     1.0000 0.08490  0.34030  0.11190  Biso   1.000  H  0.154814
  H233     1.0000 0.38810  0.91510  0.84030  Biso   1.000  H  0.154814
  H234     1.0000 0.84030  0.38810  0.91510  Biso   1.000  H  0.154812
  H235     1.0000 0.11190  0.08490  0.34030  Biso   1.000  H  0.154815
  H236     1.0000 0.15970  0.88810  0.58490  Biso   1.000  H  0.154812
  H237     1.0000 0.88810  0.58490  0.15970  Biso   1.000  H  0.154827
  H238     1.0000 0.65970  0.61190  0.41510  Biso   1.000  H  0.154847
  H239     1.0000 0.61190  0.41510  0.65970  Biso   1.000  H  0.154841
  H240     1.0000 0.34030  0.11190  0.08490  Biso   1.000  H  0.154815
  H241     1.0000 0.89150  0.79950  0.34170  Biso   1.000  H  0.149316
  H242     1.0000 0.60850  0.20050  0.84170  Biso   1.000  H  0.149322
  H243     1.0000 0.39150  0.70050  0.65830  Biso   1.000  H  0.149306
  H244     1.0000 0.10850  0.29950  0.15830  Biso   1.000  H  0.149319
  H245     1.0000 0.34170  0.89150  0.79950  Biso   1.000  H  0.149318
  H246     1.0000 0.79950  0.34170  0.89150  Biso   1.000  H  0.149321
  H247     1.0000 0.15830  0.10850  0.29950  Biso   1.000  H  0.149319
  H248     1.0000 0.20050  0.84170  0.60850  Biso   1.000  H  0.149323
  H249     1.0000 0.84170  0.60850  0.20050  Biso   1.000  H  0.149311
  H250     1.0000 0.70050  0.65830  0.39150  Biso   1.000  H  0.149479
  H251     1.0000 0.65830  0.39150  0.70050  Biso   1.000  H  0.149275
  H252     1.0000 0.29950  0.15830  0.10850  Biso   1.000  H  0.149316
  H253     1.0000 0.95630  0.80120  0.35440  Biso   1.000  H  0.148084
  H254     1.0000 0.54370  0.19880  0.85440  Biso   1.000  H  0.148082
  H255     1.0000 0.45630  0.69880  0.64560  Biso   1.000  H  0.148099
  H256     1.0000 0.04370  0.30120  0.14560  Biso   1.000  H  0.148079
  H257     1.0000 0.35440  0.95630  0.80120  Biso   1.000  H  0.148074
  H258     1.0000 0.80120  0.35440  0.95630  Biso   1.000  H  0.148077
  H259     1.0000 0.14560  0.04370  0.30120  Biso   1.000  H  0.148079
  H260     1.0000 0.19880  0.85440  0.54370  Biso   1.000  H  0.148079
  H261     1.0000 0.85440  0.54370  0.19880  Biso   1.000  H  0.148077
  H262     1.0000 0.69880  0.64560  0.45630  Biso   1.000  H  0.148237
  H263     1.0000 0.64560  0.45630  0.69880  Biso   1.000  H  0.148096
  H264     1.0000 0.30120  0.14560  0.04370  Biso   1.000  H  0.148079
  H265     1.0000 0.84560  0.79830  0.45410  Biso   1.000  H  0.162362
  H266     1.0000 0.65440  0.20170  0.95410  Biso   1.000  H  0.162342
  H267     1.0000 0.34560  0.70170  0.54590  Biso   1.000  H  0.162344
  H268     1.0000 0.15440  0.29830  0.04590  Biso   1.000  H  0.162343
  H269     1.0000 0.45410  0.84560  0.79830  Biso   1.000  H  0.162342
  H270     1.0000 0.79830  0.45410  0.84560  Biso   1.000  H  0.162337
  H271     1.0000 0.04590  0.15440  0.29830  Biso   1.000  H  0.162344
  H272     1.0000 0.20170  0.95410  0.65440  Biso   1.000  H  0.162340
  H273     1.0000 0.95410  0.65440  0.20170  Biso   1.000  H  0.162353
  H274     1.0000 0.70170  0.54590  0.34560  Biso   1.000  H  0.162330
  H275     1.0000 0.54590  0.34560  0.70170  Biso   1.000  H  0.162342
  H276     1.0000 0.29830  0.04590  0.15440  Biso   1.000  H  0.162343
  H277     1.0000 0.84900  0.73360  0.46700  Biso   1.000  H  0.152427
  H278     1.0000 0.65100  0.26640  0.96700  Biso   1.000  H  0.152438
  H279     1.0000 0.34900  0.76640  0.53300  Biso   1.000  H  0.152434
  H280     1.0000 0.15100  0.23360  0.03300  Biso   1.000  H  0.152445
  H281     1.0000 0.46700  0.84900  0.73360  Biso   1.000  H  0.152446
  H282     1.0000 0.73360  0.46700  0.84900  Biso   1.000  H  0.152451
  H283     1.0000 0.03300  0.15100  0.23360  Biso   1.000  H  0.152442
  H284     1.0000 0.26640  0.96700  0.65100  Biso   1.000  H  0.152445
  H285     1.0000 0.96700  0.65100  0.26640  Biso   1.000  H  0.152447
  H286     1.0000 0.76640  0.53300  0.34900  Biso   1.000  H  0.152596
  H287     1.0000 0.53300  0.34900  0.76640  Biso   1.000  H  0.152438
  H288     1.0000 0.23360  0.03300  0.15100  Biso   1.000  H  0.152443
  H289     1.0000 0.82540  0.75440  0.40890  Biso   1.000  H  0.141818
  H290     1.0000 0.67460  0.24560  0.90890  Biso   1.000  H  0.141839
  H291     1.0000 0.32540  0.74560  0.59110  Biso   1.000  H  0.141831
  H292     1.0000 0.17460  0.25440  0.09110  Biso   1.000  H  0.141837
  H293     1.0000 0.40890  0.82540  0.75440  Biso   1.000  H  0.141840
  H294     1.0000 0.75440  0.40890  0.82540  Biso   1.000  H  0.141839
  H295     1.0000 0.09110  0.17460  0.25440  Biso   1.000  H  0.141837
  H296     1.0000 0.24560  0.90890  0.67460  Biso   1.000  H  0.141841
  H297     1.0000 0.90890  0.67460  0.24560  Biso   1.000  H  0.141832
  H298     1.0000 0.74560  0.59110  0.32540  Biso   1.000  H  0.141986
  H299     1.0000 0.59110  0.32540  0.74560  Biso   1.000  H  0.141818
  H300     1.0000 0.25440  0.09110  0.17460  Biso   1.000  H  0.141835
  H301     1.0000 0.89470  0.69260  0.36210  Biso   1.000  H  0.148326
  H302     1.0000 0.60530  0.30740  0.86210  Biso   1.000  H  0.148353
  H303     1.0000 0.39470  0.80740  0.63790  Biso   1.000  H  0.148342
  H304     1.0000 0.10530  0.19260  0.13790  Biso   1.000  H  0.148347
  H305     1.0000 0.36210  0.89470  0.69260  Biso   1.000  H  0.148347
  H306     1.0000 0.69260  0.36210  0.89470  Biso   1.000  H  0.148353
  H307     1.0000 0.13790  0.10530  0.19260  Biso   1.000  H  0.148348
  H308     1.0000 0.30740  0.86210  0.60530  Biso   1.000  H  0.148354
  H309     1.0000 0.86210  0.60530  0.30740  Biso   1.000  H  0.148317
  H310     1.0000 0.80740  0.63790  0.39470  Biso   1.000  H  0.148493
  H311     1.0000 0.63790  0.39470  0.80740  Biso   1.000  H  0.148331
  H312     1.0000 0.19260  0.13790  0.10530  Biso   1.000  H  0.148345
  H313     1.0000 0.92760  0.67510  0.41680  Biso   1.000  H  0.151154
  H314     1.0000 0.57240  0.32490  0.91680  Biso   1.000  H  0.151166
  H315     1.0000 0.42760  0.82490  0.58320  Biso   1.000  H  0.151158
  H316     1.0000 0.07240  0.17510  0.08320  Biso   1.000  H  0.151170
  H317     1.0000 0.41680  0.92760  0.67510  Biso   1.000  H  0.151169
  H318     1.0000 0.67510  0.41680  0.92760  Biso   1.000  H  0.151173
  H319     1.0000 0.08320  0.07240  0.17510  Biso   1.000  H  0.151169
  H320     1.0000 0.32490  0.91680  0.57240  Biso   1.000  H  0.151170
  H321     1.0000 0.91680  0.57240  0.32490  Biso   1.000  H  0.151174
  H322     1.0000 0.82490  0.58320  0.42760  Biso   1.000  H  0.151252
  H323     1.0000 0.58320  0.42760  0.82490  Biso   1.000  H  0.151160
  H324     1.0000 0.17510  0.08320  0.07240  Biso   1.000  H  0.151169
  H325     1.0000 0.95960  0.70460  0.36700  Biso   1.000  H  0.151121
  H326     1.0000 0.54040  0.29540  0.86700  Biso   1.000  H  0.151110
  H327     1.0000 0.45960  0.79540  0.63300  Biso   1.000  H  0.151108
  H328     1.0000 0.04040  0.20460  0.13300  Biso   1.000  H  0.151104
  H329     1.0000 0.36700  0.95960  0.70460  Biso   1.000  H  0.151098
  H330     1.0000 0.70460  0.36700  0.95960  Biso   1.000  H  0.151099
  H331     1.0000 0.13300  0.04040  0.20460  Biso   1.000  H  0.151104
  H332     1.0000 0.29540  0.86700  0.54040  Biso   1.000  H  0.151106
  H333     1.0000 0.86700  0.54040  0.29540  Biso   1.000  H  0.151105
  H334     1.0000 0.79540  0.63300  0.45960  Biso   1.000  H  0.151192
  H335     1.0000 0.63300  0.45960  0.79540  Biso   1.000  H  0.151104
  H336     1.0000 0.20460  0.13300  0.04040  Biso   1.000  H  0.151104
  H337     1.0000 0.52560  0.58940  0.64150  Biso   1.000  H  0.100453
  H338     1.0000 0.97440  0.41060  0.14150  Biso   1.000  H  0.100537
  H339     1.0000 0.02560  0.91060  0.35850  Biso   1.000  H  0.100533
  H340     1.0000 0.47440  0.08940  0.85850  Biso   1.000  H  0.100536
  H341     1.0000 0.64150  0.52560  0.58940  Biso   1.000  H  0.100384
  H342     1.0000 0.58940  0.64150  0.52560  Biso   1.000  H  0.100445
  H343     1.0000 0.85850  0.47440  0.08940  Biso   1.000  H  0.100532
  H344     1.0000 0.41060  0.14150  0.97440  Biso   1.000  H  0.100533
  H345     1.0000 0.14150  0.97440  0.41060  Biso   1.000  H  0.100536
  H346     1.0000 0.91060  0.35850  0.02560  Biso   1.000  H  0.100537
  H347     1.0000 0.35850  0.02560  0.91060  Biso   1.000  H  0.100537
  H348     1.0000 0.08940  0.85850  0.47440  Biso   1.000  H  0.100538
  H349     1.0000 0.56740  0.53890  0.65070  Biso   1.000  H  0.094666
  H350     1.0000 0.93260  0.46110  0.15070  Biso   1.000  H  0.094720
  H351     1.0000 0.06740  0.96110  0.34930  Biso   1.000  H  0.094723
  H352     1.0000 0.43260  0.03890  0.84930  Biso   1.000  H  0.094725
  H353     1.0000 0.65070  0.56740  0.53890  Biso   1.000  H  0.094568
  H354     1.0000 0.53890  0.65070  0.56740  Biso   1.000  H  0.094647
  H355     1.0000 0.84930  0.43260  0.03890  Biso   1.000  H  0.094723
  H356     1.0000 0.46110  0.15070  0.93260  Biso   1.000  H  0.094723
  H357     1.0000 0.15070  0.93260  0.46110  Biso   1.000  H  0.094724
  H358     1.0000 0.96110  0.34930  0.06740  Biso   1.000  H  0.094724
  H359     1.0000 0.34930  0.06740  0.96110  Biso   1.000  H  0.094721
  H360     1.0000 0.03890  0.84930  0.43260  Biso   1.000  H  0.094721
  H361     1.0000 0.45950  0.53490  0.52130  Biso   1.000  H  0.103078
  H362     1.0000 0.04050  0.46510  0.02130  Biso   1.000  H  0.103154
  H363     1.0000 0.95950  0.96510  0.47870  Biso   1.000  H  0.103155
  H364     1.0000 0.54050  0.03490  0.97870  Biso   1.000  H  0.103153
  H365     1.0000 0.52130  0.45950  0.53490  Biso   1.000  H  0.103041
  H366     1.0000 0.53490  0.52130  0.45950  Biso   1.000  H  0.103000
  H367     1.0000 0.97870  0.54050  0.03490  Biso   1.000  H  0.103155
  H368     1.0000 0.46510  0.02130  0.04050  Biso   1.000  H  0.103153
  H369     1.0000 0.02130  0.04050  0.46510  Biso   1.000  H  0.103155
  H370     1.0000 0.96510  0.47870  0.95950  Biso   1.000  H  0.103154
  H371     1.0000 0.47870  0.95950  0.96510  Biso   1.000  H  0.103154
  H372     1.0000 0.03490  0.97870  0.54050  Biso   1.000  H  0.103154
  H373     1.0000 0.45780  0.58600  0.56330  Biso   1.000  H  0.103492
  H374     1.0000 0.04220  0.41400  0.06330  Biso   1.000  H  0.103574
  H375     1.0000 0.95780  0.91400  0.43670  Biso   1.000  H  0.103571
  H376     1.0000 0.54220  0.08600  0.93670  Biso   1.000  H  0.103573
  H377     1.0000 0.56330  0.45780  0.58600  Biso   1.000  H  0.103472
  H378     1.0000 0.58600  0.56330  0.45780  Biso   1.000  H  0.103392
  H379     1.0000 0.93670  0.54220  0.08600  Biso   1.000  H  0.103571
  H380     1.0000 0.41400  0.06330  0.04220  Biso   1.000  H  0.103571
  H381     1.0000 0.06330  0.04220  0.41400  Biso   1.000  H  0.103574
  H382     1.0000 0.91400  0.43670  0.95780  Biso   1.000  H  0.103574
  H383     1.0000 0.43670  0.95780  0.91400  Biso   1.000  H  0.103576
  H384     1.0000 0.08600  0.93670  0.54220  Biso   1.000  H  0.103575
  N1       1.0000 0.51090  0.52410  0.58850  Biso   1.000  N  -0.218653
  N2       1.0000 0.98910  0.47590  0.08850  Biso   1.000  N  -0.218459
  N3       1.0000 0.01090  0.97590  0.41150  Biso   1.000  N  -0.218457
  N4       1.0000 0.48910  0.02410  0.91150  Biso   1.000  N  -0.218454
  N5       1.0000 0.58850  0.51090  0.52410  Biso   1.000  N  -0.216200
  N6       1.0000 0.52410  0.58850  0.51090  Biso   1.000  N  -0.218699
  N7       1.0000 0.91150  0.48910  0.02410  Biso   1.000  N  -0.218458
  N8       1.0000 0.47590  0.08850  0.98910  Biso   1.000  N  -0.218460
  N9       1.0000 0.08850  0.98910  0.47590  Biso   1.000  N  -0.218457
  N10      1.0000 0.97590  0.41150  0.01090  Biso   1.000  N  -0.218457
  N11      1.0000 0.41150  0.01090  0.97590  Biso   1.000  N  -0.218457
  N12      1.0000 0.02410  0.91150  0.48910  Biso   1.000  N  -0.218458
  N13      1.0000 0.58860  0.58860  0.58860  Biso   1.000  N  -0.182724
  N14      1.0000 0.91140  0.41140  0.08860  Biso   1.000  N  -0.182383
  N15      1.0000 0.08860  0.91140  0.41140  Biso   1.000  N  -0.182384
  N16      1.0000 0.41140  0.08860  0.91140  Biso   1.000  N  -0.182384
  O1       1.0000 0.43980  0.41420  0.60570  Biso   1.000  O  -0.462811
  O2       1.0000 0.06020  0.58580  0.10570  Biso   1.000  O  -0.462854
  O3       1.0000 0.93980  0.08580  0.39430  Biso   1.000  O  -0.462853
  O4       1.0000 0.56020  0.91420  0.89430  Biso   1.000  O  -0.462852
  O5       1.0000 0.60570  0.43980  0.41420  Biso   1.000  O  -0.454839
  O6       1.0000 0.41420  0.60570  0.43980  Biso   1.000  O  -0.462781
  O7       1.0000 0.89430  0.56020  0.91420  Biso   1.000  O  -0.462853
  O8       1.0000 0.58580  0.10570  0.06020  Biso   1.000  O  -0.462849
  O9       1.0000 0.10570  0.06020  0.58580  Biso   1.000  O  -0.462852
  O10      1.0000 0.08580  0.39430  0.93980  Biso   1.000  O  -0.462851
  O11      1.0000 0.39430  0.93980  0.08580  Biso   1.000  O  -0.462860
  O12      1.0000 0.91420  0.89430  0.56020  Biso   1.000  O  -0.462855
  O13      1.0000 0.38490  0.51142  0.62520  Biso   1.000  O  -0.481128
  O14      1.0000 0.11510  0.48858  0.12520  Biso   1.000  O  -0.481165
  O15      1.0000 0.88490  0.98858  0.37480  Biso   1.000  O  -0.481172
  O16      1.0000 0.61510  0.01142  0.87480  Biso   1.000  O  -0.481171
  O17      1.0000 0.62520  0.38490  0.51142  Biso   1.000  O  -0.473072
  O18      1.0000 0.51142  0.62520  0.38490  Biso   1.000  O  -0.481143
  O19      1.0000 0.87480  0.61510  0.01142  Biso   1.000  O  -0.481172
  O20      1.0000 0.48858  0.12520  0.11510  Biso   1.000  O  -0.481171
  O21      1.0000 0.12520  0.11510  0.48858  Biso   1.000  O  -0.481167
  O22      1.0000 0.98858  0.37480  0.88490  Biso   1.000  O  -0.481168
  O23      1.0000 0.37480  0.88490  0.98858  Biso   1.000  O  -0.481165
  O24      1.0000 0.01142  0.87480  0.61510  Biso   1.000  O  -0.481164
  O25      1.0000 0.03327  0.79210  0.54380  Biso   1.000  O  -0.458317
  O26      1.0000 0.46673  0.20790  0.04380  Biso   1.000  O  -0.458330
  O27      1.0000 0.53327  0.70790  0.45620  Biso   1.000  O  -0.458309
  O28      1.0000 0.96673  0.29210  0.95620  Biso   1.000  O  -0.458326
  O29      1.0000 0.54380  0.03327  0.79210  Biso   1.000  O  -0.458333
  O30      1.0000 0.79210  0.54380  0.03327  Biso   1.000  O  -0.458328
  O31      1.0000 0.95620  0.96673  0.29210  Biso   1.000  O  -0.458327
  O32      1.0000 0.20790  0.04380  0.46673  Biso   1.000  O  -0.458326
  O33      1.0000 0.04380  0.46673  0.20790  Biso   1.000  O  -0.458318
  O34      1.0000 0.70790  0.45620  0.53327  Biso   1.000  O  -0.450830
  O35      1.0000 0.45620  0.53327  0.70790  Biso   1.000  O  -0.458292
  O36      1.0000 0.29210  0.95620  0.96673  Biso   1.000  O  -0.458320
  O37      1.0000 0.93959  0.81810  0.48470  Biso   1.000  O  -0.477473
  O38      1.0000 0.56041  0.18190  0.98470  Biso   1.000  O  -0.477464
  O39      1.0000 0.43959  0.68190  0.51530  Biso   1.000  O  -0.477405
  O40      1.0000 0.06041  0.31810  0.01530  Biso   1.000  O  -0.477471
  O41      1.0000 0.48470  0.93959  0.81810  Biso   1.000  O  -0.477471
  O42      1.0000 0.81810  0.48470  0.93959  Biso   1.000  O  -0.477464
  O43      1.0000 0.01530  0.06041  0.31810  Biso   1.000  O  -0.477467
  O44      1.0000 0.18190  0.98470  0.56041  Biso   1.000  O  -0.477468
  O45      1.0000 0.98470  0.56041  0.18190  Biso   1.000  O  -0.477470
  O46      1.0000 0.68190  0.51530  0.43959  Biso   1.000  O  -0.469350
  O47      1.0000 0.51530  0.43959  0.68190  Biso   1.000  O  -0.477418
  O48      1.0000 0.31810  0.01530  0.06041  Biso   1.000  O  -0.477470
