data_image0
_cell_length_a       29.5723
_cell_length_b       29.5723
_cell_length_c       34.1452
_cell_angle_alpha    90
_cell_angle_beta     90
_cell_angle_gamma    120

_symmetry_space_group_name_H-M    "P 1"
_symmetry_int_tables_number       1

loop_
  _symmetry_equiv_pos_as_xyz
  'x, y, z'

loop_
  _atom_site_label
  _atom_site_occupancy
  _atom_site_fract_x
  _atom_site_fract_y
  _atom_site_fract_z
  _atom_site_thermal_displace_type
  _atom_site_B_iso_or_equiv
  _atom_site_type_symbol
  _atom_site_charge
  C1       1.0000 0.39808  0.20635  0.07547  Biso   1.000  C  -0.094447
  C2       1.0000 0.79365  0.19173  0.07547  Biso   1.000  C  -0.094447
  C3       1.0000 0.80827  0.60192  0.07547  Biso   1.000  C  -0.094440
  C4       1.0000 0.20635  0.39808  0.92453  Biso   1.000  C  -0.094443
  C5       1.0000 0.60192  0.80827  0.92453  Biso   1.000  C  -0.094436
  C6       1.0000 0.19173  0.79365  0.92453  Biso   1.000  C  -0.094443
  C7       1.0000 0.06475  0.53968  0.40880  Biso   1.000  C  -0.094436
  C8       1.0000 0.46032  0.52506  0.40880  Biso   1.000  C  -0.094400
  C9       1.0000 0.47494  0.93525  0.40880  Biso   1.000  C  -0.094513
  C10      1.0000 0.87302  0.73141  0.25786  Biso   1.000  C  -0.094439
  C11      1.0000 0.26859  0.14160  0.25786  Biso   1.000  C  -0.094373
  C12      1.0000 0.85840  0.12698  0.25786  Biso   1.000  C  -0.094482
  C13      1.0000 0.73141  0.87302  0.74214  Biso   1.000  C  -0.094436
  C14      1.0000 0.12698  0.85840  0.74214  Biso   1.000  C  -0.094480
  C15      1.0000 0.14160  0.26859  0.74214  Biso   1.000  C  -0.094370
  C16      1.0000 0.53968  0.06475  0.59120  Biso   1.000  C  -0.094435
  C17      1.0000 0.93525  0.47494  0.59120  Biso   1.000  C  -0.094512
  C18      1.0000 0.52506  0.46032  0.59120  Biso   1.000  C  -0.094399
  C19      1.0000 0.45267  0.23368  0.07185  Biso   1.000  C  -0.047419
  C20      1.0000 0.76632  0.21899  0.07185  Biso   1.000  C  -0.047415
  C21      1.0000 0.78101  0.54733  0.07185  Biso   1.000  C  -0.047419
  C22      1.0000 0.23368  0.45267  0.92815  Biso   1.000  C  -0.047400
  C23      1.0000 0.54733  0.78101  0.92815  Biso   1.000  C  -0.047400
  C24      1.0000 0.21899  0.76632  0.92815  Biso   1.000  C  -0.047395
  C25      1.0000 0.11934  0.56701  0.40518  Biso   1.000  C  -0.047396
  C26      1.0000 0.43299  0.55232  0.40518  Biso   1.000  C  -0.047346
  C27      1.0000 0.44768  0.88066  0.40518  Biso   1.000  C  -0.047318
  C28      1.0000 0.90035  0.78600  0.26148  Biso   1.000  C  -0.047375
  C29      1.0000 0.21400  0.11434  0.26148  Biso   1.000  C  -0.047638
  C30      1.0000 0.88566  0.09965  0.26148  Biso   1.000  C  -0.047422
  C31      1.0000 0.78600  0.90035  0.73852  Biso   1.000  C  -0.047377
  C32      1.0000 0.09965  0.88566  0.73852  Biso   1.000  C  -0.047426
  C33      1.0000 0.11434  0.21400  0.73852  Biso   1.000  C  -0.047641
  C34      1.0000 0.56701  0.11934  0.59482  Biso   1.000  C  -0.047396
  C35      1.0000 0.88066  0.44768  0.59482  Biso   1.000  C  -0.047319
  C36      1.0000 0.55232  0.43299  0.59482  Biso   1.000  C  -0.047346
  C37      1.0000 0.44950  0.15200  0.07446  Biso   1.000  C  -0.140707
  C38      1.0000 0.84800  0.29750  0.07446  Biso   1.000  C  -0.140706
  C39      1.0000 0.70250  0.55050  0.07446  Biso   1.000  C  -0.140707
  C40      1.0000 0.15200  0.44950  0.92554  Biso   1.000  C  -0.140709
  C41      1.0000 0.55050  0.70250  0.92554  Biso   1.000  C  -0.140708
  C42      1.0000 0.29750  0.84800  0.92554  Biso   1.000  C  -0.140708
  C43      1.0000 0.11617  0.48533  0.40779  Biso   1.000  C  -0.140831
  C44      1.0000 0.51467  0.63083  0.40779  Biso   1.000  C  -0.140727
  C45      1.0000 0.36917  0.88383  0.40779  Biso   1.000  C  -0.140615
  C46      1.0000 0.81867  0.78283  0.25887  Biso   1.000  C  -0.140711
  C47      1.0000 0.21717  0.03583  0.25887  Biso   1.000  C  -0.140855
  C48      1.0000 0.96417  0.18133  0.25887  Biso   1.000  C  -0.140537
  C49      1.0000 0.78283  0.81867  0.74113  Biso   1.000  C  -0.140713
  C50      1.0000 0.18133  0.96417  0.74113  Biso   1.000  C  -0.140539
  C51      1.0000 0.03583  0.21717  0.74113  Biso   1.000  C  -0.140857
  C52      1.0000 0.48533  0.11617  0.59221  Biso   1.000  C  -0.140831
  C53      1.0000 0.88383  0.36917  0.59221  Biso   1.000  C  -0.140615
  C54      1.0000 0.63083  0.51467  0.59221  Biso   1.000  C  -0.140727
  C55      1.0000 0.40430  0.88760  0.01244  Biso   1.000  C  -0.039292
  C56      1.0000 0.11240  0.51670  0.01244  Biso   1.000  C  -0.039290
  C57      1.0000 0.48330  0.59570  0.01244  Biso   1.000  C  -0.039290
  C58      1.0000 0.88760  0.40430  0.98756  Biso   1.000  C  -0.039333
  C59      1.0000 0.59570  0.48330  0.98756  Biso   1.000  C  -0.039331
  C60      1.0000 0.51670  0.11240  0.98756  Biso   1.000  C  -0.039331
  C61      1.0000 0.07097  0.22093  0.34577  Biso   1.000  C  -0.039426
  C62      1.0000 0.77907  0.85003  0.34577  Biso   1.000  C  -0.039399
  C63      1.0000 0.14997  0.92903  0.34577  Biso   1.000  C  -0.039381
  C64      1.0000 0.55427  0.73763  0.32089  Biso   1.000  C  -0.039225
  C65      1.0000 0.26237  0.81663  0.32089  Biso   1.000  C  -0.039345
  C66      1.0000 0.18337  0.44573  0.32089  Biso   1.000  C  -0.039279
  C67      1.0000 0.73763  0.55427  0.67911  Biso   1.000  C  -0.039229
  C68      1.0000 0.44573  0.18337  0.67911  Biso   1.000  C  -0.039283
  C69      1.0000 0.81663  0.26237  0.67911  Biso   1.000  C  -0.039349
  C70      1.0000 0.22093  0.07097  0.65423  Biso   1.000  C  -0.039425
  C71      1.0000 0.92903  0.14997  0.65423  Biso   1.000  C  -0.039380
  C72      1.0000 0.85003  0.77907  0.65423  Biso   1.000  C  -0.039398
  C73      1.0000 0.39850  0.12726  0.07866  Biso   1.000  C  0.082843
  C74      1.0000 0.87274  0.27124  0.07866  Biso   1.000  C  0.082843
  C75      1.0000 0.72876  0.60150  0.07866  Biso   1.000  C  0.082840
  C76      1.0000 0.12726  0.39850  0.92134  Biso   1.000  C  0.082824
  C77      1.0000 0.60150  0.72876  0.92134  Biso   1.000  C  0.082821
  C78      1.0000 0.27124  0.87274  0.92134  Biso   1.000  C  0.082825
  C79      1.0000 0.06517  0.46059  0.41199  Biso   1.000  C  0.082900
  C80      1.0000 0.53941  0.60457  0.41199  Biso   1.000  C  0.082870
  C81      1.0000 0.39543  0.93483  0.41199  Biso   1.000  C  0.082663
  C82      1.0000 0.79393  0.73183  0.25467  Biso   1.000  C  0.082820
  C83      1.0000 0.26817  0.06209  0.25467  Biso   1.000  C  0.082833
  C84      1.0000 0.93791  0.20607  0.25467  Biso   1.000  C  0.082746
  C85      1.0000 0.73183  0.79393  0.74533  Biso   1.000  C  0.082822
  C86      1.0000 0.20607  0.93791  0.74533  Biso   1.000  C  0.082749
  C87      1.0000 0.06209  0.26817  0.74533  Biso   1.000  C  0.082835
  C88      1.0000 0.46059  0.06517  0.58801  Biso   1.000  C  0.082900
  C89      1.0000 0.93483  0.39543  0.58801  Biso   1.000  C  0.082664
  C90      1.0000 0.60457  0.53941  0.58801  Biso   1.000  C  0.082871
  C91      1.0000 0.29389  0.99150  0.11581  Biso   1.000  C  0.088160
  C92      1.0000 0.00850  0.30239  0.11581  Biso   1.000  C  0.088162
  C93      1.0000 0.69761  0.70611  0.11581  Biso   1.000  C  0.088163
  C94      1.0000 0.99150  0.29389  0.88419  Biso   1.000  C  0.088157
  C95      1.0000 0.70611  0.69761  0.88419  Biso   1.000  C  0.088159
  C96      1.0000 0.30239  0.00850  0.88419  Biso   1.000  C  0.088159
  C97      1.0000 0.96056  0.32483  0.44914  Biso   1.000  C  0.088167
  C98      1.0000 0.67517  0.63572  0.44914  Biso   1.000  C  0.088150
  C99      1.0000 0.36428  0.03944  0.44914  Biso   1.000  C  0.088096
  C100     1.0000 0.65817  0.62722  0.21752  Biso   1.000  C  0.088099
  C101     1.0000 0.37278  0.03094  0.21752  Biso   1.000  C  0.088146
  C102     1.0000 0.96906  0.34183  0.21752  Biso   1.000  C  0.088263
  C103     1.0000 0.62722  0.65817  0.78248  Biso   1.000  C  0.088107
  C104     1.0000 0.34183  0.96906  0.78248  Biso   1.000  C  0.088271
  C105     1.0000 0.03094  0.37278  0.78248  Biso   1.000  C  0.088153
  C106     1.0000 0.32483  0.96056  0.55086  Biso   1.000  C  0.088165
  C107     1.0000 0.03944  0.36428  0.55086  Biso   1.000  C  0.088095
  C108     1.0000 0.63572  0.67517  0.55086  Biso   1.000  C  0.088149
  C109     1.0000 0.36640  0.06659  0.08618  Biso   1.000  C  0.084414
  C110     1.0000 0.93341  0.29981  0.08618  Biso   1.000  C  0.084413
  C111     1.0000 0.70019  0.63360  0.08618  Biso   1.000  C  0.084413
  C112     1.0000 0.06659  0.36640  0.91382  Biso   1.000  C  0.084423
  C113     1.0000 0.63360  0.70019  0.91382  Biso   1.000  C  0.084423
  C114     1.0000 0.29981  0.93341  0.91382  Biso   1.000  C  0.084423
  C115     1.0000 0.03307  0.39992  0.41951  Biso   1.000  C  0.084476
  C116     1.0000 0.60008  0.63314  0.41951  Biso   1.000  C  0.084425
  C117     1.0000 0.36686  0.96693  0.41951  Biso   1.000  C  0.084319
  C118     1.0000 0.73326  0.69973  0.24715  Biso   1.000  C  0.084409
  C119     1.0000 0.30027  0.03352  0.24715  Biso   1.000  C  0.084463
  C120     1.0000 0.96648  0.26674  0.24715  Biso   1.000  C  0.084382
  C121     1.0000 0.69973  0.73326  0.75285  Biso   1.000  C  0.084407
  C122     1.0000 0.26674  0.96648  0.75285  Biso   1.000  C  0.084380
  C123     1.0000 0.03352  0.30027  0.75285  Biso   1.000  C  0.084461
  C124     1.0000 0.39992  0.03307  0.58049  Biso   1.000  C  0.084477
  C125     1.0000 0.96693  0.36686  0.58049  Biso   1.000  C  0.084319
  C126     1.0000 0.63314  0.60008  0.58049  Biso   1.000  C  0.084425
  C127     1.0000 0.35640  0.98350  0.07347  Biso   1.000  C  0.095731
  C128     1.0000 0.01650  0.37290  0.07347  Biso   1.000  C  0.095733
  C129     1.0000 0.62710  0.64360  0.07347  Biso   1.000  C  0.095733
  C130     1.0000 0.98350  0.35640  0.92653  Biso   1.000  C  0.095722
  C131     1.0000 0.64360  0.62710  0.92653  Biso   1.000  C  0.095724
  C132     1.0000 0.37290  0.01650  0.92653  Biso   1.000  C  0.095725
  C133     1.0000 0.02307  0.31683  0.40680  Biso   1.000  C  0.095714
  C134     1.0000 0.68317  0.70623  0.40680  Biso   1.000  C  0.095598
  C135     1.0000 0.29377  0.97693  0.40680  Biso   1.000  C  0.095734
  C136     1.0000 0.65017  0.68973  0.25986  Biso   1.000  C  0.095708
  C137     1.0000 0.31027  0.96043  0.25986  Biso   1.000  C  0.095676
  C138     1.0000 0.03957  0.34983  0.25986  Biso   1.000  C  0.095777
  C139     1.0000 0.68973  0.65017  0.74014  Biso   1.000  C  0.095703
  C140     1.0000 0.34983  0.03957  0.74014  Biso   1.000  C  0.095773
  C141     1.0000 0.96043  0.31027  0.74014  Biso   1.000  C  0.095672
  C142     1.0000 0.31683  0.02307  0.59320  Biso   1.000  C  0.095715
  C143     1.0000 0.97693  0.29377  0.59320  Biso   1.000  C  0.095735
  C144     1.0000 0.70623  0.68317  0.59320  Biso   1.000  C  0.095598
  C145     1.0000 0.38138  0.03680  0.06630  Biso   1.000  C  -0.197632
  C146     1.0000 0.96320  0.34458  0.06630  Biso   1.000  C  -0.197630
  C147     1.0000 0.65542  0.61862  0.06630  Biso   1.000  C  -0.197632
  C148     1.0000 0.03680  0.38138  0.93370  Biso   1.000  C  -0.197631
  C149     1.0000 0.61862  0.65542  0.93370  Biso   1.000  C  -0.197630
  C150     1.0000 0.34458  0.96320  0.93370  Biso   1.000  C  -0.197629
  C151     1.0000 0.04805  0.37013  0.39963  Biso   1.000  C  -0.197625
  C152     1.0000 0.62987  0.67791  0.39963  Biso   1.000  C  -0.197573
  C153     1.0000 0.32209  0.95195  0.39963  Biso   1.000  C  -0.197546
  C154     1.0000 0.70347  0.71471  0.26703  Biso   1.000  C  -0.197679
  C155     1.0000 0.28529  0.98875  0.26703  Biso   1.000  C  -0.197706
  C156     1.0000 0.01125  0.29653  0.26703  Biso   1.000  C  -0.197698
  C157     1.0000 0.71471  0.70347  0.73297  Biso   1.000  C  -0.197687
  C158     1.0000 0.29653  0.01125  0.73297  Biso   1.000  C  -0.197706
  C159     1.0000 0.98875  0.28529  0.73297  Biso   1.000  C  -0.197715
  C160     1.0000 0.37013  0.04805  0.60037  Biso   1.000  C  -0.197622
  C161     1.0000 0.95195  0.32209  0.60037  Biso   1.000  C  -0.197543
  C162     1.0000 0.67791  0.62987  0.60037  Biso   1.000  C  -0.197571
  C163     1.0000 0.24900  0.96870  0.14191  Biso   1.000  C  0.091104
  C164     1.0000 0.03130  0.28030  0.14191  Biso   1.000  C  0.091111
  C165     1.0000 0.71970  0.75100  0.14191  Biso   1.000  C  0.091107
  C166     1.0000 0.96870  0.24900  0.85809  Biso   1.000  C  0.091105
  C167     1.0000 0.75100  0.71970  0.85809  Biso   1.000  C  0.091108
  C168     1.0000 0.28030  0.03130  0.85809  Biso   1.000  C  0.091112
  C169     1.0000 0.91567  0.30203  0.47524  Biso   1.000  C  0.091063
  C170     1.0000 0.69797  0.61363  0.47524  Biso   1.000  C  0.091001
  C171     1.0000 0.38637  0.08433  0.47524  Biso   1.000  C  0.090968
  C172     1.0000 0.63537  0.58233  0.19142  Biso   1.000  C  0.091078
  C173     1.0000 0.41767  0.05303  0.19142  Biso   1.000  C  0.091032
  C174     1.0000 0.94697  0.36463  0.19142  Biso   1.000  C  0.091092
  C175     1.0000 0.58233  0.63537  0.80858  Biso   1.000  C  0.091063
  C176     1.0000 0.36463  0.94697  0.80858  Biso   1.000  C  0.091078
  C177     1.0000 0.05303  0.41767  0.80858  Biso   1.000  C  0.091018
  C178     1.0000 0.30203  0.91567  0.52476  Biso   1.000  C  0.091065
  C179     1.0000 0.08433  0.38637  0.52476  Biso   1.000  C  0.090970
  C180     1.0000 0.61363  0.69797  0.52476  Biso   1.000  C  0.091002
  C181     1.0000 0.31220  0.96175  0.09650  Biso   1.000  C  -0.213893
  C182     1.0000 0.03825  0.35045  0.09650  Biso   1.000  C  -0.213890
  C183     1.0000 0.64955  0.68780  0.09650  Biso   1.000  C  -0.213890
  C184     1.0000 0.96175  0.31220  0.90350  Biso   1.000  C  -0.213899
  C185     1.0000 0.68780  0.64955  0.90350  Biso   1.000  C  -0.213895
  C186     1.0000 0.35045  0.03825  0.90350  Biso   1.000  C  -0.213896
  C187     1.0000 0.97887  0.29508  0.42983  Biso   1.000  C  -0.213842
  C188     1.0000 0.70492  0.68378  0.42983  Biso   1.000  C  -0.213898
  C189     1.0000 0.31622  0.02113  0.42983  Biso   1.000  C  -0.213909
  C190     1.0000 0.62842  0.64553  0.23683  Biso   1.000  C  -0.213940
  C191     1.0000 0.35447  0.98288  0.23683  Biso   1.000  C  -0.213882
  C192     1.0000 0.01712  0.37158  0.23683  Biso   1.000  C  -0.213984
  C193     1.0000 0.64553  0.62842  0.76317  Biso   1.000  C  -0.213942
  C194     1.0000 0.37158  0.01712  0.76317  Biso   1.000  C  -0.213985
  C195     1.0000 0.98288  0.35447  0.76317  Biso   1.000  C  -0.213884
  C196     1.0000 0.29508  0.97887  0.57017  Biso   1.000  C  -0.213842
  C197     1.0000 0.02113  0.31622  0.57017  Biso   1.000  C  -0.213909
  C198     1.0000 0.68378  0.70492  0.57017  Biso   1.000  C  -0.213897
  C199     1.0000 0.11970  0.90500  0.22080  Biso   1.000  C  0.608280
  C200     1.0000 0.09500  0.21470  0.22080  Biso   1.000  C  0.608282
  C201     1.0000 0.78530  0.88030  0.22080  Biso   1.000  C  0.608284
  C202     1.0000 0.90500  0.11970  0.77920  Biso   1.000  C  0.608282
  C203     1.0000 0.88030  0.78530  0.77920  Biso   1.000  C  0.608287
  C204     1.0000 0.21470  0.09500  0.77920  Biso   1.000  C  0.608284
  C205     1.0000 0.78637  0.23833  0.55413  Biso   1.000  C  0.608205
  C206     1.0000 0.76167  0.54803  0.55413  Biso   1.000  C  0.608182
  C207     1.0000 0.45197  0.21363  0.55413  Biso   1.000  C  0.608167
  C208     1.0000 0.57167  0.45303  0.11253  Biso   1.000  C  0.608259
  C209     1.0000 0.54697  0.11863  0.11253  Biso   1.000  C  0.608323
  C210     1.0000 0.88137  0.42833  0.11253  Biso   1.000  C  0.608342
  C211     1.0000 0.45303  0.57167  0.88747  Biso   1.000  C  0.608242
  C212     1.0000 0.42833  0.88137  0.88747  Biso   1.000  C  0.608325
  C213     1.0000 0.11863  0.54697  0.88747  Biso   1.000  C  0.608305
  C214     1.0000 0.23833  0.78637  0.44587  Biso   1.000  C  0.608205
  C215     1.0000 0.21363  0.45197  0.44587  Biso   1.000  C  0.608167
  C216     1.0000 0.54803  0.76167  0.44587  Biso   1.000  C  0.608181
  C217     1.0000 0.47756  0.20510  0.07137  Biso   1.000  C  -0.073573
  C218     1.0000 0.79490  0.27246  0.07137  Biso   1.000  C  -0.073571
  C219     1.0000 0.72754  0.52244  0.07137  Biso   1.000  C  -0.073574
  C220     1.0000 0.20510  0.47756  0.92863  Biso   1.000  C  -0.073587
  C221     1.0000 0.52244  0.72754  0.92863  Biso   1.000  C  -0.073588
  C222     1.0000 0.27246  0.79490  0.92863  Biso   1.000  C  -0.073585
  C223     1.0000 0.14423  0.53843  0.40470  Biso   1.000  C  -0.073527
  C224     1.0000 0.46157  0.60579  0.40470  Biso   1.000  C  -0.073633
  C225     1.0000 0.39421  0.85577  0.40470  Biso   1.000  C  -0.073556
  C226     1.0000 0.87177  0.81089  0.26196  Biso   1.000  C  -0.073587
  C227     1.0000 0.18911  0.06087  0.26196  Biso   1.000  C  -0.073437
  C228     1.0000 0.93913  0.12823  0.26196  Biso   1.000  C  -0.073615
  C229     1.0000 0.81089  0.87177  0.73804  Biso   1.000  C  -0.073590
  C230     1.0000 0.12823  0.93913  0.73804  Biso   1.000  C  -0.073618
  C231     1.0000 0.06087  0.18911  0.73804  Biso   1.000  C  -0.073440
  C232     1.0000 0.53843  0.14423  0.59530  Biso   1.000  C  -0.073527
  C233     1.0000 0.85577  0.39421  0.59530  Biso   1.000  C  -0.073556
  C234     1.0000 0.60579  0.46157  0.59530  Biso   1.000  C  -0.073633
  C235     1.0000 0.32260  0.04550  0.11020  Biso   1.000  C  -0.214829
  C236     1.0000 0.95450  0.27710  0.11020  Biso   1.000  C  -0.214827
  C237     1.0000 0.72290  0.67740  0.11020  Biso   1.000  C  -0.214829
  C238     1.0000 0.04550  0.32260  0.88980  Biso   1.000  C  -0.214821
  C239     1.0000 0.67740  0.72290  0.88980  Biso   1.000  C  -0.214820
  C240     1.0000 0.27710  0.95450  0.88980  Biso   1.000  C  -0.214819
  C241     1.0000 0.98927  0.37883  0.44353  Biso   1.000  C  -0.214799
  C242     1.0000 0.62117  0.61043  0.44353  Biso   1.000  C  -0.214806
  C243     1.0000 0.38957  0.01073  0.44353  Biso   1.000  C  -0.214660
  C244     1.0000 0.71217  0.65593  0.22313  Biso   1.000  C  -0.214749
  C245     1.0000 0.34407  0.05623  0.22313  Biso   1.000  C  -0.214619
  C246     1.0000 0.94377  0.28783  0.22313  Biso   1.000  C  -0.214690
  C247     1.0000 0.65593  0.71217  0.77687  Biso   1.000  C  -0.214749
  C248     1.0000 0.28783  0.94377  0.77687  Biso   1.000  C  -0.214691
  C249     1.0000 0.05623  0.34407  0.77687  Biso   1.000  C  -0.214619
  C250     1.0000 0.37883  0.98927  0.55647  Biso   1.000  C  -0.214799
  C251     1.0000 0.01073  0.38957  0.55647  Biso   1.000  C  -0.214661
  C252     1.0000 0.61043  0.62117  0.55647  Biso   1.000  C  -0.214806
  C253     1.0000 0.35180  0.87070  0.01933  Biso   1.000  C  -0.097641
  C254     1.0000 0.12930  0.48110  0.01933  Biso   1.000  C  -0.097646
  C255     1.0000 0.51890  0.64820  0.01933  Biso   1.000  C  -0.097646
  C256     1.0000 0.87070  0.35180  0.98067  Biso   1.000  C  -0.097644
  C257     1.0000 0.64820  0.51890  0.98067  Biso   1.000  C  -0.097650
  C258     1.0000 0.48110  0.12930  0.98067  Biso   1.000  C  -0.097650
  C259     1.0000 0.01847  0.20403  0.35266  Biso   1.000  C  -0.097449
  C260     1.0000 0.79597  0.81443  0.35266  Biso   1.000  C  -0.097444
  C261     1.0000 0.18557  0.98153  0.35266  Biso   1.000  C  -0.097697
  C262     1.0000 0.53737  0.68513  0.31400  Biso   1.000  C  -0.097776
  C263     1.0000 0.31487  0.85223  0.31400  Biso   1.000  C  -0.097444
  C264     1.0000 0.14777  0.46263  0.31400  Biso   1.000  C  -0.097678
  C265     1.0000 0.68513  0.53737  0.68600  Biso   1.000  C  -0.097776
  C266     1.0000 0.46263  0.14777  0.68600  Biso   1.000  C  -0.097679
  C267     1.0000 0.85223  0.31487  0.68600  Biso   1.000  C  -0.097446
  C268     1.0000 0.20403  0.01847  0.64734  Biso   1.000  C  -0.097448
  C269     1.0000 0.98153  0.18557  0.64734  Biso   1.000  C  -0.097696
  C270     1.0000 0.81443  0.79597  0.64734  Biso   1.000  C  -0.097442
  C271     1.0000 0.37110  0.94930  0.05192  Biso   1.000  C  0.075303
  C272     1.0000 0.05070  0.42180  0.05192  Biso   1.000  C  0.075305
  C273     1.0000 0.57820  0.62890  0.05192  Biso   1.000  C  0.075304
  C274     1.0000 0.94930  0.37110  0.94808  Biso   1.000  C  0.075315
  C275     1.0000 0.62890  0.57820  0.94808  Biso   1.000  C  0.075317
  C276     1.0000 0.42180  0.05070  0.94808  Biso   1.000  C  0.075317
  C277     1.0000 0.03777  0.28263  0.38525  Biso   1.000  C  0.075333
  C278     1.0000 0.71737  0.75513  0.38525  Biso   1.000  C  0.075376
  C279     1.0000 0.24487  0.96223  0.38525  Biso   1.000  C  0.075272
  C280     1.0000 0.61597  0.70443  0.28141  Biso   1.000  C  0.075391
  C281     1.0000 0.29557  0.91153  0.28141  Biso   1.000  C  0.075296
  C282     1.0000 0.08847  0.38403  0.28141  Biso   1.000  C  0.075293
  C283     1.0000 0.70443  0.61597  0.71859  Biso   1.000  C  0.075397
  C284     1.0000 0.38403  0.08847  0.71859  Biso   1.000  C  0.075297
  C285     1.0000 0.91153  0.29557  0.71859  Biso   1.000  C  0.075300
  C286     1.0000 0.28263  0.03777  0.61475  Biso   1.000  C  0.075332
  C287     1.0000 0.96223  0.24487  0.61475  Biso   1.000  C  0.075271
  C288     1.0000 0.75513  0.71737  0.61475  Biso   1.000  C  0.075376
  C289     1.0000 0.21500  0.98710  0.14402  Biso   1.000  C  -0.150839
  C290     1.0000 0.01290  0.22790  0.14402  Biso   1.000  C  -0.150847
  C291     1.0000 0.77210  0.78500  0.14402  Biso   1.000  C  -0.150841
  C292     1.0000 0.98710  0.21500  0.85598  Biso   1.000  C  -0.150840
  C293     1.0000 0.78500  0.77210  0.85598  Biso   1.000  C  -0.150842
  C294     1.0000 0.22790  0.01290  0.85598  Biso   1.000  C  -0.150848
  C295     1.0000 0.88167  0.32043  0.47735  Biso   1.000  C  -0.150910
  C296     1.0000 0.67957  0.56123  0.47735  Biso   1.000  C  -0.150713
  C297     1.0000 0.43877  0.11833  0.47735  Biso   1.000  C  -0.150754
  C298     1.0000 0.65377  0.54833  0.18931  Biso   1.000  C  -0.150702
  C299     1.0000 0.45167  0.10543  0.18931  Biso   1.000  C  -0.150985
  C300     1.0000 0.89457  0.34623  0.18931  Biso   1.000  C  -0.150891
  C301     1.0000 0.54833  0.65377  0.81069  Biso   1.000  C  -0.150704
  C302     1.0000 0.34623  0.89457  0.81069  Biso   1.000  C  -0.150893
  C303     1.0000 0.10543  0.45167  0.81069  Biso   1.000  C  -0.150987
  C304     1.0000 0.32043  0.88167  0.52265  Biso   1.000  C  -0.150909
  C305     1.0000 0.11833  0.43877  0.52265  Biso   1.000  C  -0.150752
  C306     1.0000 0.56123  0.67957  0.52265  Biso   1.000  C  -0.150711
  C307     1.0000 0.42460  0.96630  0.04515  Biso   1.000  C  -0.148333
  C308     1.0000 0.03370  0.45830  0.04515  Biso   1.000  C  -0.148331
  C309     1.0000 0.54170  0.57540  0.04515  Biso   1.000  C  -0.148331
  C310     1.0000 0.96630  0.42460  0.95485  Biso   1.000  C  -0.148298
  C311     1.0000 0.57540  0.54170  0.95485  Biso   1.000  C  -0.148296
  C312     1.0000 0.45830  0.03370  0.95485  Biso   1.000  C  -0.148296
  C313     1.0000 0.09127  0.29963  0.37848  Biso   1.000  C  -0.148412
  C314     1.0000 0.70037  0.79163  0.37848  Biso   1.000  C  -0.148408
  C315     1.0000 0.20837  0.90873  0.37848  Biso   1.000  C  -0.148247
  C316     1.0000 0.63297  0.75793  0.28818  Biso   1.000  C  -0.148399
  C317     1.0000 0.24207  0.87503  0.28818  Biso   1.000  C  -0.148352
  C318     1.0000 0.12497  0.36703  0.28818  Biso   1.000  C  -0.148288
  C319     1.0000 0.75793  0.63297  0.71182  Biso   1.000  C  -0.148400
  C320     1.0000 0.36703  0.12497  0.71182  Biso   1.000  C  -0.148288
  C321     1.0000 0.87503  0.24207  0.71182  Biso   1.000  C  -0.148352
  C322     1.0000 0.29963  0.09127  0.62152  Biso   1.000  C  -0.148413
  C323     1.0000 0.90873  0.20837  0.62152  Biso   1.000  C  -0.148248
  C324     1.0000 0.79163  0.70037  0.62152  Biso   1.000  C  -0.148409
  C325     1.0000 0.42340  0.85490  0.98935  Biso   1.000  C  0.613935
  C326     1.0000 0.14510  0.56850  0.98935  Biso   1.000  C  0.613942
  C327     1.0000 0.43150  0.57660  0.98935  Biso   1.000  C  0.613944
  C328     1.0000 0.85490  0.42340  0.01065  Biso   1.000  C  0.613963
  C329     1.0000 0.57660  0.43150  0.01065  Biso   1.000  C  0.613972
  C330     1.0000 0.56850  0.14510  0.01065  Biso   1.000  C  0.613970
  C331     1.0000 0.09007  0.18823  0.32268  Biso   1.000  C  0.613980
  C332     1.0000 0.81177  0.90183  0.32268  Biso   1.000  C  0.613929
  C333     1.0000 0.09817  0.90993  0.32268  Biso   1.000  C  0.614044
  C334     1.0000 0.52157  0.75673  0.34398  Biso   1.000  C  0.613917
  C335     1.0000 0.24327  0.76483  0.34398  Biso   1.000  C  0.613877
  C336     1.0000 0.23517  0.47843  0.34398  Biso   1.000  C  0.613934
  C337     1.0000 0.75673  0.52157  0.65602  Biso   1.000  C  0.613919
  C338     1.0000 0.47843  0.23517  0.65602  Biso   1.000  C  0.613935
  C339     1.0000 0.76483  0.24327  0.65602  Biso   1.000  C  0.613878
  C340     1.0000 0.18823  0.09007  0.67732  Biso   1.000  C  0.613980
  C341     1.0000 0.90993  0.09817  0.67732  Biso   1.000  C  0.614044
  C342     1.0000 0.90183  0.81177  0.67732  Biso   1.000  C  0.613930
  C343     1.0000 0.17210  0.96640  0.16782  Biso   1.000  C  -0.079949
  C344     1.0000 0.03360  0.20570  0.16782  Biso   1.000  C  -0.079951
  C345     1.0000 0.79430  0.82790  0.16782  Biso   1.000  C  -0.079949
  C346     1.0000 0.96640  0.17210  0.83218  Biso   1.000  C  -0.079950
  C347     1.0000 0.82790  0.79430  0.83218  Biso   1.000  C  -0.079949
  C348     1.0000 0.20570  0.03360  0.83218  Biso   1.000  C  -0.079952
  C349     1.0000 0.83877  0.29973  0.50115  Biso   1.000  C  -0.079878
  C350     1.0000 0.70027  0.53903  0.50115  Biso   1.000  C  -0.079915
  C351     1.0000 0.46097  0.16123  0.50115  Biso   1.000  C  -0.079782
  C352     1.0000 0.63307  0.50543  0.16551  Biso   1.000  C  -0.079785
  C353     1.0000 0.49457  0.12763  0.16551  Biso   1.000  C  -0.079832
  C354     1.0000 0.87237  0.36693  0.16551  Biso   1.000  C  -0.079870
  C355     1.0000 0.50543  0.63307  0.83449  Biso   1.000  C  -0.079791
  C356     1.0000 0.36693  0.87237  0.83449  Biso   1.000  C  -0.079876
  C357     1.0000 0.12763  0.49457  0.83449  Biso   1.000  C  -0.079838
  C358     1.0000 0.29973  0.83877  0.49885  Biso   1.000  C  -0.079877
  C359     1.0000 0.16123  0.46097  0.49885  Biso   1.000  C  -0.079781
  C360     1.0000 0.53903  0.70027  0.49885  Biso   1.000  C  -0.079914
  C361     1.0000 0.23890  0.92480  0.16725  Biso   1.000  C  -0.146701
  C362     1.0000 0.07520  0.31410  0.16725  Biso   1.000  C  -0.146699
  C363     1.0000 0.68590  0.76110  0.16725  Biso   1.000  C  -0.146704
  C364     1.0000 0.92480  0.23890  0.83275  Biso   1.000  C  -0.146701
  C365     1.0000 0.76110  0.68590  0.83275  Biso   1.000  C  -0.146703
  C366     1.0000 0.31410  0.07520  0.83275  Biso   1.000  C  -0.146699
  C367     1.0000 0.90557  0.25813  0.50058  Biso   1.000  C  -0.146718
  C368     1.0000 0.74187  0.64743  0.50058  Biso   1.000  C  -0.146776
  C369     1.0000 0.35257  0.09443  0.50058  Biso   1.000  C  -0.146716
  C370     1.0000 0.59147  0.57223  0.16608  Biso   1.000  C  -0.146753
  C371     1.0000 0.42777  0.01923  0.16608  Biso   1.000  C  -0.146624
  C372     1.0000 0.98077  0.40853  0.16608  Biso   1.000  C  -0.146691
  C373     1.0000 0.57223  0.59147  0.83392  Biso   1.000  C  -0.146760
  C374     1.0000 0.40853  0.98077  0.83392  Biso   1.000  C  -0.146698
  C375     1.0000 0.01923  0.42777  0.83392  Biso   1.000  C  -0.146631
  C376     1.0000 0.25813  0.90557  0.49942  Biso   1.000  C  -0.146719
  C377     1.0000 0.09443  0.35257  0.49942  Biso   1.000  C  -0.146717
  C378     1.0000 0.64743  0.74187  0.49942  Biso   1.000  C  -0.146777
  C379     1.0000 0.43970  0.93490  0.02572  Biso   1.000  C  -0.096433
  C380     1.0000 0.06510  0.50480  0.02572  Biso   1.000  C  -0.096431
  C381     1.0000 0.49520  0.56030  0.02572  Biso   1.000  C  -0.096432
  C382     1.0000 0.93490  0.43970  0.97428  Biso   1.000  C  -0.096422
  C383     1.0000 0.56030  0.49520  0.97428  Biso   1.000  C  -0.096420
  C384     1.0000 0.50480  0.06510  0.97428  Biso   1.000  C  -0.096419
  C385     1.0000 0.10637  0.26823  0.35905  Biso   1.000  C  -0.096303
  C386     1.0000 0.73177  0.83813  0.35905  Biso   1.000  C  -0.096386
  C387     1.0000 0.16187  0.89363  0.35905  Biso   1.000  C  -0.096403
  C388     1.0000 0.60157  0.77303  0.30761  Biso   1.000  C  -0.096401
  C389     1.0000 0.22697  0.82853  0.30761  Biso   1.000  C  -0.096433
  C390     1.0000 0.17147  0.39843  0.30761  Biso   1.000  C  -0.096575
  C391     1.0000 0.77303  0.60157  0.69239  Biso   1.000  C  -0.096403
  C392     1.0000 0.39843  0.17147  0.69239  Biso   1.000  C  -0.096577
  C393     1.0000 0.82853  0.22697  0.69239  Biso   1.000  C  -0.096435
  C394     1.0000 0.26823  0.10637  0.64095  Biso   1.000  C  -0.096304
  C395     1.0000 0.89363  0.16187  0.64095  Biso   1.000  C  -0.096404
  C396     1.0000 0.83813  0.73177  0.64095  Biso   1.000  C  -0.096387
  C397     1.0000 0.16320  0.92520  0.19274  Biso   1.000  C  -0.050979
  C398     1.0000 0.07480  0.23800  0.19274  Biso   1.000  C  -0.050976
  C399     1.0000 0.76200  0.83680  0.19274  Biso   1.000  C  -0.050977
  C400     1.0000 0.92520  0.16320  0.80726  Biso   1.000  C  -0.050980
  C401     1.0000 0.83680  0.76200  0.80726  Biso   1.000  C  -0.050979
  C402     1.0000 0.23800  0.07480  0.80726  Biso   1.000  C  -0.050977
  C403     1.0000 0.82987  0.25853  0.52607  Biso   1.000  C  -0.050988
  C404     1.0000 0.74147  0.57133  0.52607  Biso   1.000  C  -0.050983
  C405     1.0000 0.42867  0.17013  0.52607  Biso   1.000  C  -0.051064
  C406     1.0000 0.59187  0.49653  0.14059  Biso   1.000  C  -0.051068
  C407     1.0000 0.50347  0.09533  0.14059  Biso   1.000  C  -0.051056
  C408     1.0000 0.90467  0.40813  0.14059  Biso   1.000  C  -0.051015
  C409     1.0000 0.49653  0.59187  0.85941  Biso   1.000  C  -0.051052
  C410     1.0000 0.40813  0.90467  0.85941  Biso   1.000  C  -0.050999
  C411     1.0000 0.09533  0.50347  0.85941  Biso   1.000  C  -0.051040
  C412     1.0000 0.25853  0.82987  0.47393  Biso   1.000  C  -0.050990
  C413     1.0000 0.17013  0.42867  0.47393  Biso   1.000  C  -0.051065
  C414     1.0000 0.57133  0.74147  0.47393  Biso   1.000  C  -0.050984
  C415     1.0000 0.33550  0.89970  0.03909  Biso   1.000  C  -0.149504
  C416     1.0000 0.10030  0.43580  0.03909  Biso   1.000  C  -0.149510
  C417     1.0000 0.56420  0.66450  0.03909  Biso   1.000  C  -0.149511
  C418     1.0000 0.89970  0.33550  0.96091  Biso   1.000  C  -0.149504
  C419     1.0000 0.66450  0.56420  0.96091  Biso   1.000  C  -0.149512
  C420     1.0000 0.43580  0.10030  0.96091  Biso   1.000  C  -0.149510
  C421     1.0000 0.00217  0.23303  0.37242  Biso   1.000  C  -0.149592
  C422     1.0000 0.76697  0.76913  0.37242  Biso   1.000  C  -0.149529
  C423     1.0000 0.23087  0.99783  0.37242  Biso   1.000  C  -0.149493
  C424     1.0000 0.56637  0.66883  0.29424  Biso   1.000  C  -0.149417
  C425     1.0000 0.33117  0.89753  0.29424  Biso   1.000  C  -0.149528
  C426     1.0000 0.10247  0.43363  0.29424  Biso   1.000  C  -0.149517
  C427     1.0000 0.66883  0.56637  0.70576  Biso   1.000  C  -0.149415
  C428     1.0000 0.43363  0.10247  0.70576  Biso   1.000  C  -0.149516
  C429     1.0000 0.89753  0.33117  0.70576  Biso   1.000  C  -0.149528
  C430     1.0000 0.23303  0.00217  0.62758  Biso   1.000  C  -0.149591
  C431     1.0000 0.99783  0.23087  0.62758  Biso   1.000  C  -0.149491
  C432     1.0000 0.76913  0.76697  0.62758  Biso   1.000  C  -0.149527
  C433     1.0000 0.48380  0.29189  0.06949  Biso   1.000  C  0.624943
  C434     1.0000 0.70811  0.19191  0.06949  Biso   1.000  C  0.624938
  C435     1.0000 0.80809  0.51620  0.06949  Biso   1.000  C  0.624955
  C436     1.0000 0.29189  0.48380  0.93051  Biso   1.000  C  0.624917
  C437     1.0000 0.51620  0.80809  0.93051  Biso   1.000  C  0.624929
  C438     1.0000 0.19191  0.70811  0.93051  Biso   1.000  C  0.624913
  C439     1.0000 0.15047  0.62522  0.40282  Biso   1.000  C  0.624908
  C440     1.0000 0.37478  0.52524  0.40282  Biso   1.000  C  0.624820
  C441     1.0000 0.47476  0.84953  0.40282  Biso   1.000  C  0.624843
  C442     1.0000 0.95856  0.81713  0.26384  Biso   1.000  C  0.624872
  C443     1.0000 0.18287  0.14142  0.26384  Biso   1.000  C  0.624921
  C444     1.0000 0.85858  0.04144  0.26384  Biso   1.000  C  0.624891
  C445     1.0000 0.81713  0.95856  0.73616  Biso   1.000  C  0.624874
  C446     1.0000 0.04144  0.85858  0.73616  Biso   1.000  C  0.624893
  C447     1.0000 0.14142  0.18287  0.73616  Biso   1.000  C  0.624923
  C448     1.0000 0.62522  0.15047  0.59718  Biso   1.000  C  0.624909
  C449     1.0000 0.84953  0.47476  0.59718  Biso   1.000  C  0.624845
  C450     1.0000 0.52524  0.37478  0.59718  Biso   1.000  C  0.624820
  C451     1.0000 0.37040  0.15540  0.08026  Biso   1.000  C  -0.154475
  C452     1.0000 0.84460  0.21500  0.08026  Biso   1.000  C  -0.154479
  C453     1.0000 0.78500  0.62960  0.08026  Biso   1.000  C  -0.154469
  C454     1.0000 0.15540  0.37040  0.91974  Biso   1.000  C  -0.154487
  C455     1.0000 0.62960  0.78500  0.91974  Biso   1.000  C  -0.154481
  C456     1.0000 0.21500  0.84460  0.91974  Biso   1.000  C  -0.154491
  C457     1.0000 0.03707  0.48873  0.41359  Biso   1.000  C  -0.154523
  C458     1.0000 0.51127  0.54833  0.41359  Biso   1.000  C  -0.154557
  C459     1.0000 0.45167  0.96293  0.41359  Biso   1.000  C  -0.154248
  C460     1.0000 0.82207  0.70373  0.25307  Biso   1.000  C  -0.154418
  C461     1.0000 0.29627  0.11833  0.25307  Biso   1.000  C  -0.154427
  C462     1.0000 0.88167  0.17793  0.25307  Biso   1.000  C  -0.154263
  C463     1.0000 0.70373  0.82207  0.74693  Biso   1.000  C  -0.154414
  C464     1.0000 0.17793  0.88167  0.74693  Biso   1.000  C  -0.154259
  C465     1.0000 0.11833  0.29627  0.74693  Biso   1.000  C  -0.154424
  C466     1.0000 0.48873  0.03707  0.58641  Biso   1.000  C  -0.154522
  C467     1.0000 0.96293  0.45167  0.58641  Biso   1.000  C  -0.154247
  C468     1.0000 0.54833  0.51127  0.58641  Biso   1.000  C  -0.154555
  C469     1.0000 0.19530  0.90320  0.19030  Biso   1.000  C  -0.095134
  C470     1.0000 0.09680  0.29210  0.19030  Biso   1.000  C  -0.095141
  C471     1.0000 0.70790  0.80470  0.19030  Biso   1.000  C  -0.095144
  C472     1.0000 0.90320  0.19530  0.80970  Biso   1.000  C  -0.095133
  C473     1.0000 0.80470  0.70790  0.80970  Biso   1.000  C  -0.095143
  C474     1.0000 0.29210  0.09680  0.80970  Biso   1.000  C  -0.095140
  C475     1.0000 0.86197  0.23653  0.52363  Biso   1.000  C  -0.094944
  C476     1.0000 0.76347  0.62543  0.52363  Biso   1.000  C  -0.094913
  C477     1.0000 0.37457  0.13803  0.52363  Biso   1.000  C  -0.095022
  C478     1.0000 0.56987  0.52863  0.14303  Biso   1.000  C  -0.095084
  C479     1.0000 0.47137  0.04123  0.14303  Biso   1.000  C  -0.095007
  C480     1.0000 0.95877  0.43013  0.14303  Biso   1.000  C  -0.095245
  C481     1.0000 0.52863  0.56987  0.85697  Biso   1.000  C  -0.095086
  C482     1.0000 0.43013  0.95877  0.85697  Biso   1.000  C  -0.095246
  C483     1.0000 0.04123  0.47137  0.85697  Biso   1.000  C  -0.095009
  C484     1.0000 0.23653  0.86197  0.47637  Biso   1.000  C  -0.094945
  C485     1.0000 0.13803  0.37457  0.47637  Biso   1.000  C  -0.095023
  C486     1.0000 0.62543  0.76347  0.47637  Biso   1.000  C  -0.094914
  C487     1.0000 0.06534  0.73201  0.33330  Biso   1.000  C  0.473558
  C488     1.0000 0.26799  0.33333  0.33330  Biso   1.000  C  0.473545
  C489     1.0000 0.66667  0.93466  0.33330  Biso   1.000  C  0.473536
  C490     1.0000 0.73201  0.06534  0.66670  Biso   1.000  C  0.473575
  C491     1.0000 0.93466  0.66667  0.66670  Biso   1.000  C  0.473564
  C492     1.0000 0.33333  0.26799  0.66670  Biso   1.000  C  0.473561
  C493     1.0000 0.39868  0.39867  0.00003  Biso   1.000  C  0.473624
  C494     1.0000 0.60133  0.00000  0.00003  Biso   1.000  C  0.473536
  C495     1.0000 1.00000  0.60132  0.00003  Biso   1.000  C  0.473640
  H1       1.0000 0.38060  0.22510  0.07440  Biso   1.000  H  0.110635
  H2       1.0000 0.77490  0.15550  0.07440  Biso   1.000  H  0.110628
  H3       1.0000 0.84450  0.61940  0.07440  Biso   1.000  H  0.110629
  H4       1.0000 0.22510  0.38060  0.92560  Biso   1.000  H  0.110646
  H5       1.0000 0.61940  0.84450  0.92560  Biso   1.000  H  0.110640
  H6       1.0000 0.15550  0.77490  0.92560  Biso   1.000  H  0.110638
  H7       1.0000 0.04727  0.55843  0.40773  Biso   1.000  H  0.110602
  H8       1.0000 0.44157  0.48883  0.40773  Biso   1.000  H  0.110657
  H9       1.0000 0.51117  0.95273  0.40773  Biso   1.000  H  0.110653
  H10      1.0000 0.89177  0.71393  0.25893  Biso   1.000  H  0.110648
  H11      1.0000 0.28607  0.17783  0.25893  Biso   1.000  H  0.110623
  H12      1.0000 0.82217  0.10823  0.25893  Biso   1.000  H  0.110606
  H13      1.0000 0.71393  0.89177  0.74107  Biso   1.000  H  0.110649
  H14      1.0000 0.10823  0.82217  0.74107  Biso   1.000  H  0.110608
  H15      1.0000 0.17783  0.28607  0.74107  Biso   1.000  H  0.110625
  H16      1.0000 0.55843  0.04727  0.59227  Biso   1.000  H  0.110602
  H17      1.0000 0.95273  0.51117  0.59227  Biso   1.000  H  0.110653
  H18      1.0000 0.48883  0.44157  0.59227  Biso   1.000  H  0.110657
  H19      1.0000 0.46680  0.13300  0.07360  Biso   1.000  H  0.109853
  H20      1.0000 0.86700  0.33380  0.07360  Biso   1.000  H  0.109860
  H21      1.0000 0.66620  0.53320  0.07360  Biso   1.000  H  0.109855
  H22      1.0000 0.13300  0.46680  0.92640  Biso   1.000  H  0.109852
  H23      1.0000 0.53320  0.66620  0.92640  Biso   1.000  H  0.109854
  H24      1.0000 0.33380  0.86700  0.92640  Biso   1.000  H  0.109859
  H25      1.0000 0.13347  0.46633  0.40693  Biso   1.000  H  0.109991
  H26      1.0000 0.53367  0.66713  0.40693  Biso   1.000  H  0.109826
  H27      1.0000 0.33287  0.86653  0.40693  Biso   1.000  H  0.109821
  H28      1.0000 0.79967  0.80013  0.25973  Biso   1.000  H  0.109814
  H29      1.0000 0.19987  0.99953  0.25973  Biso   1.000  H  0.109974
  H30      1.0000 0.00047  0.20033  0.25973  Biso   1.000  H  0.109829
  H31      1.0000 0.80013  0.79967  0.74027  Biso   1.000  H  0.109813
  H32      1.0000 0.20033  0.00047  0.74027  Biso   1.000  H  0.109829
  H33      1.0000 0.99953  0.19987  0.74027  Biso   1.000  H  0.109973
  H34      1.0000 0.46633  0.13347  0.59307  Biso   1.000  H  0.109991
  H35      1.0000 0.86653  0.33287  0.59307  Biso   1.000  H  0.109822
  H36      1.0000 0.66713  0.53367  0.59307  Biso   1.000  H  0.109825
  H37      1.0000 0.40820  0.05190  0.04800  Biso   1.000  H  0.122072
  H38      1.0000 0.94810  0.35630  0.04800  Biso   1.000  H  0.122073
  H39      1.0000 0.64370  0.59180  0.04800  Biso   1.000  H  0.122073
  H40      1.0000 0.05190  0.40820  0.95200  Biso   1.000  H  0.122073
  H41      1.0000 0.59180  0.64370  0.95200  Biso   1.000  H  0.122074
  H42      1.0000 0.35630  0.94810  0.95200  Biso   1.000  H  0.122073
  H43      1.0000 0.07487  0.38523  0.38133  Biso   1.000  H  0.122091
  H44      1.0000 0.61477  0.68963  0.38133  Biso   1.000  H  0.122051
  H45      1.0000 0.31037  0.92513  0.38133  Biso   1.000  H  0.122106
  H46      1.0000 0.71857  0.74153  0.28533  Biso   1.000  H  0.122076
  H47      1.0000 0.25847  0.97703  0.28533  Biso   1.000  H  0.122057
  H48      1.0000 0.02297  0.28143  0.28533  Biso   1.000  H  0.122108
  H49      1.0000 0.74153  0.71857  0.71467  Biso   1.000  H  0.122073
  H50      1.0000 0.28143  0.02297  0.71467  Biso   1.000  H  0.122105
  H51      1.0000 0.97703  0.25847  0.71467  Biso   1.000  H  0.122055
  H52      1.0000 0.38523  0.07487  0.61867  Biso   1.000  H  0.122092
  H53      1.0000 0.92513  0.31037  0.61867  Biso   1.000  H  0.122107
  H54      1.0000 0.68963  0.61477  0.61867  Biso   1.000  H  0.122052
  H55      1.0000 0.29360  0.92560  0.09940  Biso   1.000  H  0.114918
  H56      1.0000 0.07440  0.36800  0.09940  Biso   1.000  H  0.114914
  H57      1.0000 0.63200  0.70640  0.09940  Biso   1.000  H  0.114915
  H58      1.0000 0.92560  0.29360  0.90060  Biso   1.000  H  0.114915
  H59      1.0000 0.70640  0.63200  0.90060  Biso   1.000  H  0.114912
  H60      1.0000 0.36800  0.07440  0.90060  Biso   1.000  H  0.114911
  H61      1.0000 0.96027  0.25893  0.43273  Biso   1.000  H  0.114920
  H62      1.0000 0.74107  0.70133  0.43273  Biso   1.000  H  0.114960
  H63      1.0000 0.29867  0.03973  0.43273  Biso   1.000  H  0.114909
  H64      1.0000 0.59227  0.62693  0.23393  Biso   1.000  H  0.114930
  H65      1.0000 0.37307  0.96533  0.23393  Biso   1.000  H  0.115014
  H66      1.0000 0.03467  0.40773  0.23393  Biso   1.000  H  0.114922
  H67      1.0000 0.62693  0.59227  0.76607  Biso   1.000  H  0.114931
  H68      1.0000 0.40773  0.03467  0.76607  Biso   1.000  H  0.114922
  H69      1.0000 0.96533  0.37307  0.76607  Biso   1.000  H  0.115015
  H70      1.0000 0.25893  0.96027  0.56727  Biso   1.000  H  0.114920
  H71      1.0000 0.03973  0.29867  0.56727  Biso   1.000  H  0.114909
  H72      1.0000 0.70133  0.74107  0.56727  Biso   1.000  H  0.114960
  H73      1.0000 0.51370  0.22200  0.06890  Biso   1.000  H  0.117960
  H74      1.0000 0.77800  0.29170  0.06890  Biso   1.000  H  0.117962
  H75      1.0000 0.70830  0.48630  0.06890  Biso   1.000  H  0.117962
  H76      1.0000 0.22200  0.51370  0.93110  Biso   1.000  H  0.117957
  H77      1.0000 0.48630  0.70830  0.93110  Biso   1.000  H  0.117960
  H78      1.0000 0.29170  0.77800  0.93110  Biso   1.000  H  0.117959
  H79      1.0000 0.18037  0.55533  0.40223  Biso   1.000  H  0.117954
  H80      1.0000 0.44467  0.62503  0.40223  Biso   1.000  H  0.117933
  H81      1.0000 0.37497  0.81963  0.40223  Biso   1.000  H  0.117932
  H82      1.0000 0.88867  0.84703  0.26443  Biso   1.000  H  0.117933
  H83      1.0000 0.15297  0.04163  0.26443  Biso   1.000  H  0.117922
  H84      1.0000 0.95837  0.11133  0.26443  Biso   1.000  H  0.118025
  H85      1.0000 0.84703  0.88867  0.73557  Biso   1.000  H  0.117931
  H86      1.0000 0.11133  0.95837  0.73557  Biso   1.000  H  0.118023
  H87      1.0000 0.04163  0.15297  0.73557  Biso   1.000  H  0.117920
  H88      1.0000 0.55533  0.18037  0.59777  Biso   1.000  H  0.117954
  H89      1.0000 0.81963  0.37497  0.59777  Biso   1.000  H  0.117931
  H90      1.0000 0.62503  0.44467  0.59777  Biso   1.000  H  0.117933
  H91      1.0000 0.31250  0.06710  0.12240  Biso   1.000  H  0.119186
  H92      1.0000 0.93290  0.24540  0.12240  Biso   1.000  H  0.119189
  H93      1.0000 0.75460  0.68750  0.12240  Biso   1.000  H  0.119187
  H94      1.0000 0.06710  0.31250  0.87760  Biso   1.000  H  0.119189
  H95      1.0000 0.68750  0.75460  0.87760  Biso   1.000  H  0.119189
  H96      1.0000 0.24540  0.93290  0.87760  Biso   1.000  H  0.119191
  H97      1.0000 0.97917  0.40043  0.45573  Biso   1.000  H  0.119044
  H98      1.0000 0.59957  0.57873  0.45573  Biso   1.000  H  0.119194
  H99      1.0000 0.42127  0.02083  0.45573  Biso   1.000  H  0.119140
  H100     1.0000 0.73377  0.64583  0.21093  Biso   1.000  H  0.119188
  H101     1.0000 0.35417  0.08793  0.21093  Biso   1.000  H  0.119004
  H102     1.0000 0.91207  0.26623  0.21093  Biso   1.000  H  0.119070
  H103     1.0000 0.64583  0.73377  0.78907  Biso   1.000  H  0.119191
  H104     1.0000 0.26623  0.91207  0.78907  Biso   1.000  H  0.119072
  H105     1.0000 0.08793  0.35417  0.78907  Biso   1.000  H  0.119006
  H106     1.0000 0.40043  0.97917  0.54427  Biso   1.000  H  0.119044
  H107     1.0000 0.02083  0.42127  0.54427  Biso   1.000  H  0.119139
  H108     1.0000 0.57873  0.59957  0.54427  Biso   1.000  H  0.119194
  H109     1.0000 0.32680  0.83810  0.01000  Biso   1.000  H  0.111269
  H110     1.0000 0.16190  0.48870  0.01000  Biso   1.000  H  0.111271
  H111     1.0000 0.51130  0.67320  0.01000  Biso   1.000  H  0.111268
  H112     1.0000 0.83810  0.32680  0.99000  Biso   1.000  H  0.111263
  H113     1.0000 0.67320  0.51130  0.99000  Biso   1.000  H  0.111263
  H114     1.0000 0.48870  0.16190  0.99000  Biso   1.000  H  0.111266
  H115     1.0000 0.99347  0.17143  0.34333  Biso   1.000  H  0.111231
  H116     1.0000 0.82857  0.82203  0.34333  Biso   1.000  H  0.111252
  H117     1.0000 0.17797  0.00653  0.34333  Biso   1.000  H  0.111255
  H118     1.0000 0.50477  0.66013  0.32333  Biso   1.000  H  0.111320
  H119     1.0000 0.33987  0.84463  0.32333  Biso   1.000  H  0.111266
  H120     1.0000 0.15537  0.49523  0.32333  Biso   1.000  H  0.111270
  H121     1.0000 0.66013  0.50477  0.67667  Biso   1.000  H  0.111319
  H122     1.0000 0.49523  0.15537  0.67667  Biso   1.000  H  0.111270
  H123     1.0000 0.84463  0.33987  0.67667  Biso   1.000  H  0.111266
  H124     1.0000 0.17143  0.99347  0.65667  Biso   1.000  H  0.111231
  H125     1.0000 0.00653  0.17797  0.65667  Biso   1.000  H  0.111256
  H126     1.0000 0.82203  0.82857  0.65667  Biso   1.000  H  0.111253
  H127     1.0000 0.22140  0.01540  0.12830  Biso   1.000  H  0.113658
  H128     1.0000 0.98460  0.20600  0.12830  Biso   1.000  H  0.113659
  H129     1.0000 0.79400  0.77860  0.12830  Biso   1.000  H  0.113661
  H130     1.0000 0.01540  0.22140  0.87170  Biso   1.000  H  0.113658
  H131     1.0000 0.77860  0.79400  0.87170  Biso   1.000  H  0.113661
  H132     1.0000 0.20600  0.98460  0.87170  Biso   1.000  H  0.113658
  H133     1.0000 0.88807  0.34873  0.46163  Biso   1.000  H  0.113671
  H134     1.0000 0.65127  0.53933  0.46163  Biso   1.000  H  0.113616
  H135     1.0000 0.46067  0.11193  0.46163  Biso   1.000  H  0.113669
  H136     1.0000 0.68207  0.55473  0.20503  Biso   1.000  H  0.113564
  H137     1.0000 0.44527  0.12733  0.20503  Biso   1.000  H  0.113636
  H138     1.0000 0.87267  0.31793  0.20503  Biso   1.000  H  0.113644
  H139     1.0000 0.55473  0.68207  0.79497  Biso   1.000  H  0.113561
  H140     1.0000 0.31793  0.87267  0.79497  Biso   1.000  H  0.113642
  H141     1.0000 0.12733  0.44527  0.79497  Biso   1.000  H  0.113634
  H142     1.0000 0.34873  0.88807  0.53837  Biso   1.000  H  0.113672
  H143     1.0000 0.11193  0.46067  0.53837  Biso   1.000  H  0.113669
  H144     1.0000 0.53933  0.65127  0.53837  Biso   1.000  H  0.113617
  H145     1.0000 0.44990  0.99900  0.05400  Biso   1.000  H  0.112706
  H146     1.0000 0.00100  0.45090  0.05400  Biso   1.000  H  0.112706
  H147     1.0000 0.54910  0.55010  0.05400  Biso   1.000  H  0.112703
  H148     1.0000 0.99900  0.44990  0.94600  Biso   1.000  H  0.112725
  H149     1.0000 0.55010  0.54910  0.94600  Biso   1.000  H  0.112722
  H150     1.0000 0.45090  0.00100  0.94600  Biso   1.000  H  0.112726
  H151     1.0000 0.11657  0.33233  0.38733  Biso   1.000  H  0.112730
  H152     1.0000 0.66767  0.78423  0.38733  Biso   1.000  H  0.112728
  H153     1.0000 0.21577  0.88343  0.38733  Biso   1.000  H  0.112738
  H154     1.0000 0.66567  0.78323  0.27933  Biso   1.000  H  0.112758
  H155     1.0000 0.21677  0.88243  0.27933  Biso   1.000  H  0.112697
  H156     1.0000 0.11757  0.33433  0.27933  Biso   1.000  H  0.112732
  H157     1.0000 0.78323  0.66567  0.72067  Biso   1.000  H  0.112758
  H158     1.0000 0.33433  0.11757  0.72067  Biso   1.000  H  0.112732
  H159     1.0000 0.88243  0.21677  0.72067  Biso   1.000  H  0.112698
  H160     1.0000 0.33233  0.11657  0.61267  Biso   1.000  H  0.112730
  H161     1.0000 0.88343  0.21577  0.61267  Biso   1.000  H  0.112737
  H162     1.0000 0.78423  0.66767  0.61267  Biso   1.000  H  0.112727
  H163     1.0000 0.14920  0.97950  0.16750  Biso   1.000  H  0.124854
  H164     1.0000 0.02050  0.16970  0.16750  Biso   1.000  H  0.124854
  H165     1.0000 0.83030  0.85080  0.16750  Biso   1.000  H  0.124855
  H166     1.0000 0.97950  0.14920  0.83250  Biso   1.000  H  0.124853
  H167     1.0000 0.85080  0.83030  0.83250  Biso   1.000  H  0.124855
  H168     1.0000 0.16970  0.02050  0.83250  Biso   1.000  H  0.124853
  H169     1.0000 0.81587  0.31283  0.50083  Biso   1.000  H  0.124772
  H170     1.0000 0.68717  0.50303  0.50083  Biso   1.000  H  0.124862
  H171     1.0000 0.49697  0.18413  0.50083  Biso   1.000  H  0.124826
  H172     1.0000 0.64617  0.48253  0.16583  Biso   1.000  H  0.124867
  H173     1.0000 0.51747  0.16363  0.16583  Biso   1.000  H  0.124851
  H174     1.0000 0.83637  0.35383  0.16583  Biso   1.000  H  0.124792
  H175     1.0000 0.48253  0.64617  0.83417  Biso   1.000  H  0.124867
  H176     1.0000 0.35383  0.83637  0.83417  Biso   1.000  H  0.124792
  H177     1.0000 0.16363  0.51747  0.83417  Biso   1.000  H  0.124850
  H178     1.0000 0.31283  0.81587  0.49917  Biso   1.000  H  0.124772
  H179     1.0000 0.18413  0.49697  0.49917  Biso   1.000  H  0.124827
  H180     1.0000 0.50303  0.68717  0.49917  Biso   1.000  H  0.124862
  H181     1.0000 0.26180  0.91180  0.16770  Biso   1.000  H  0.120380
  H182     1.0000 0.08820  0.35000  0.16770  Biso   1.000  H  0.120377
  H183     1.0000 0.65000  0.73820  0.16770  Biso   1.000  H  0.120377
  H184     1.0000 0.91180  0.26180  0.83230  Biso   1.000  H  0.120380
  H185     1.0000 0.73820  0.65000  0.83230  Biso   1.000  H  0.120377
  H186     1.0000 0.35000  0.08820  0.83230  Biso   1.000  H  0.120377
  H187     1.0000 0.92847  0.24513  0.50103  Biso   1.000  H  0.120432
  H188     1.0000 0.75487  0.68333  0.50103  Biso   1.000  H  0.120362
  H189     1.0000 0.31667  0.07153  0.50103  Biso   1.000  H  0.120372
  H190     1.0000 0.57847  0.59513  0.16563  Biso   1.000  H  0.120343
  H191     1.0000 0.40487  0.98333  0.16563  Biso   1.000  H  0.120349
  H192     1.0000 0.01667  0.42153  0.16563  Biso   1.000  H  0.120430
  H193     1.0000 0.59513  0.57847  0.83437  Biso   1.000  H  0.120338
  H194     1.0000 0.42153  0.01667  0.83437  Biso   1.000  H  0.120425
  H195     1.0000 0.98333  0.40487  0.83437  Biso   1.000  H  0.120344
  H196     1.0000 0.24513  0.92847  0.49897  Biso   1.000  H  0.120431
  H197     1.0000 0.07153  0.31667  0.49897  Biso   1.000  H  0.120371
  H198     1.0000 0.68333  0.75487  0.49897  Biso   1.000  H  0.120362
  H199     1.0000 0.47500  0.94690  0.02180  Biso   1.000  H  0.112049
  H200     1.0000 0.05310  0.52810  0.02180  Biso   1.000  H  0.112052
  H201     1.0000 0.47190  0.52500  0.02180  Biso   1.000  H  0.112048
  H202     1.0000 0.94690  0.47500  0.97820  Biso   1.000  H  0.112057
  H203     1.0000 0.52500  0.47190  0.97820  Biso   1.000  H  0.112055
  H204     1.0000 0.52810  0.05310  0.97820  Biso   1.000  H  0.112058
  H205     1.0000 0.14167  0.28023  0.35513  Biso   1.000  H  0.112055
  H206     1.0000 0.71977  0.86143  0.35513  Biso   1.000  H  0.111992
  H207     1.0000 0.13857  0.85833  0.35513  Biso   1.000  H  0.112038
  H208     1.0000 0.61357  0.80833  0.31153  Biso   1.000  H  0.111955
  H209     1.0000 0.19167  0.80523  0.31153  Biso   1.000  H  0.112036
  H210     1.0000 0.19477  0.38643  0.31153  Biso   1.000  H  0.112183
  H211     1.0000 0.80833  0.61357  0.68847  Biso   1.000  H  0.111953
  H212     1.0000 0.38643  0.19477  0.68847  Biso   1.000  H  0.112182
  H213     1.0000 0.80523  0.19167  0.68847  Biso   1.000  H  0.112035
  H214     1.0000 0.28023  0.14167  0.64487  Biso   1.000  H  0.112054
  H215     1.0000 0.85833  0.13857  0.64487  Biso   1.000  H  0.112037
  H216     1.0000 0.86143  0.71977  0.64487  Biso   1.000  H  0.111990
  H217     1.0000 0.30010  0.88620  0.04400  Biso   1.000  H  0.117837
  H218     1.0000 0.11380  0.41390  0.04400  Biso   1.000  H  0.117841
  H219     1.0000 0.58610  0.69990  0.04400  Biso   1.000  H  0.117841
  H220     1.0000 0.88620  0.30010  0.95600  Biso   1.000  H  0.117838
  H221     1.0000 0.69990  0.58610  0.95600  Biso   1.000  H  0.117842
  H222     1.0000 0.41390  0.11380  0.95600  Biso   1.000  H  0.117842
  H223     1.0000 0.96677  0.21953  0.37733  Biso   1.000  H  0.117821
  H224     1.0000 0.78047  0.74723  0.37733  Biso   1.000  H  0.117857
  H225     1.0000 0.25277  0.03323  0.37733  Biso   1.000  H  0.117845
  H226     1.0000 0.55287  0.63343  0.28933  Biso   1.000  H  0.117851
  H227     1.0000 0.36657  0.91943  0.28933  Biso   1.000  H  0.117836
  H228     1.0000 0.08057  0.44713  0.28933  Biso   1.000  H  0.117826
  H229     1.0000 0.63343  0.55287  0.71067  Biso   1.000  H  0.117853
  H230     1.0000 0.44713  0.08057  0.71067  Biso   1.000  H  0.117827
  H231     1.0000 0.91943  0.36657  0.71067  Biso   1.000  H  0.117838
  H232     1.0000 0.21953  0.96677  0.62267  Biso   1.000  H  0.117822
  H233     1.0000 0.03323  0.25277  0.62267  Biso   1.000  H  0.117845
  H234     1.0000 0.74723  0.78047  0.62267  Biso   1.000  H  0.117858
  H235     1.0000 0.33450  0.13840  0.08450  Biso   1.000  H  0.122067
  H236     1.0000 0.86160  0.19610  0.08450  Biso   1.000  H  0.122064
  H237     1.0000 0.80390  0.66550  0.08450  Biso   1.000  H  0.122068
  H238     1.0000 0.13840  0.33450  0.91550  Biso   1.000  H  0.122062
  H239     1.0000 0.66550  0.80390  0.91550  Biso   1.000  H  0.122063
  H240     1.0000 0.19610  0.86160  0.91550  Biso   1.000  H  0.122058
  H241     1.0000 0.00117  0.47173  0.41783  Biso   1.000  H  0.122003
  H242     1.0000 0.52827  0.52943  0.41783  Biso   1.000  H  0.122126
  H243     1.0000 0.47057  0.99883  0.41783  Biso   1.000  H  0.121894
  H244     1.0000 0.80507  0.66783  0.24883  Biso   1.000  H  0.122044
  H245     1.0000 0.33217  0.13723  0.24883  Biso   1.000  H  0.122069
  H246     1.0000 0.86277  0.19493  0.24883  Biso   1.000  H  0.121870
  H247     1.0000 0.66783  0.80507  0.75117  Biso   1.000  H  0.122047
  H248     1.0000 0.19493  0.86277  0.75117  Biso   1.000  H  0.121873
  H249     1.0000 0.13723  0.33217  0.75117  Biso   1.000  H  0.122071
  H250     1.0000 0.47173  0.00117  0.58217  Biso   1.000  H  0.122004
  H251     1.0000 0.99883  0.47057  0.58217  Biso   1.000  H  0.121895
  H252     1.0000 0.52943  0.52827  0.58217  Biso   1.000  H  0.122126
  H253     1.0000 0.18680  0.87320  0.20460  Biso   1.000  H  0.118927
  H254     1.0000 0.12680  0.31360  0.20460  Biso   1.000  H  0.118924
  H255     1.0000 0.68640  0.81320  0.20460  Biso   1.000  H  0.118924
  H256     1.0000 0.87320  0.18680  0.79540  Biso   1.000  H  0.118927
  H257     1.0000 0.81320  0.68640  0.79540  Biso   1.000  H  0.118924
  H258     1.0000 0.31360  0.12680  0.79540  Biso   1.000  H  0.118924
  H259     1.0000 0.85347  0.20653  0.53793  Biso   1.000  H  0.118799
  H260     1.0000 0.79347  0.64693  0.53793  Biso   1.000  H  0.118760
  H261     1.0000 0.35307  0.14653  0.53793  Biso   1.000  H  0.118786
  H262     1.0000 0.53987  0.52013  0.12873  Biso   1.000  H  0.118900
  H263     1.0000 0.47987  0.01973  0.12873  Biso   1.000  H  0.118911
  H264     1.0000 0.98027  0.46013  0.12873  Biso   1.000  H  0.118958
  H265     1.0000 0.52013  0.53987  0.87127  Biso   1.000  H  0.118907
  H266     1.0000 0.46013  0.98027  0.87127  Biso   1.000  H  0.118966
  H267     1.0000 0.01973  0.47987  0.87127  Biso   1.000  H  0.118918
  H268     1.0000 0.20653  0.85347  0.46207  Biso   1.000  H  0.118798
  H269     1.0000 0.14653  0.35307  0.46207  Biso   1.000  H  0.118785
  H270     1.0000 0.64693  0.79347  0.46207  Biso   1.000  H  0.118760
  H271     1.0000 0.03390  0.70060  0.33330  Biso   1.000  H  0.078447
  H272     1.0000 0.29940  0.33330  0.33330  Biso   1.000  H  0.078441
  H273     1.0000 0.66670  0.96610  0.33330  Biso   1.000  H  0.078442
  H274     1.0000 0.70060  0.03390  0.66670  Biso   1.000  H  0.078451
  H275     1.0000 0.96610  0.66670  0.66670  Biso   1.000  H  0.078450
  H276     1.0000 0.33330  0.29940  0.66670  Biso   1.000  H  0.078446
  H277     1.0000 0.36727  0.36723  0.00003  Biso   1.000  H  0.078421
  H278     1.0000 0.63277  0.00003  0.00003  Biso   1.000  H  0.078473
  H279     1.0000 0.99997  0.63273  0.00003  Biso   1.000  H  0.078370
  O1       1.0000 0.11492  0.86961  0.24387  Biso   1.000  O  -0.578841
  O2       1.0000 0.13039  0.24531  0.24387  Biso   1.000  O  -0.578829
  O3       1.0000 0.75469  0.88508  0.24387  Biso   1.000  O  -0.578838
  O4       1.0000 0.86961  0.11492  0.75613  Biso   1.000  O  -0.578842
  O5       1.0000 0.88508  0.75469  0.75613  Biso   1.000  O  -0.578841
  O6       1.0000 0.24531  0.13039  0.75613  Biso   1.000  O  -0.578830
  O7       1.0000 0.78159  0.20294  0.57720  Biso   1.000  O  -0.578737
  O8       1.0000 0.79706  0.57864  0.57720  Biso   1.000  O  -0.578794
  O9       1.0000 0.42136  0.21841  0.57720  Biso   1.000  O  -0.578784
  O10      1.0000 0.53628  0.44825  0.08946  Biso   1.000  O  -0.578848
  O11      1.0000 0.55175  0.08802  0.08946  Biso   1.000  O  -0.578800
  O12      1.0000 0.91198  0.46372  0.08946  Biso   1.000  O  -0.578811
  O13      1.0000 0.44825  0.53628  0.91054  Biso   1.000  O  -0.578792
  O14      1.0000 0.46372  0.91198  0.91054  Biso   1.000  O  -0.578754
  O15      1.0000 0.08802  0.55175  0.91054  Biso   1.000  O  -0.578744
  O16      1.0000 0.20294  0.78159  0.42280  Biso   1.000  O  -0.578738
  O17      1.0000 0.21841  0.42136  0.42280  Biso   1.000  O  -0.578785
  O18      1.0000 0.57864  0.79706  0.42280  Biso   1.000  O  -0.578793
  O19      1.0000 0.08912  0.92375  0.21915  Biso   1.000  O  -0.567033
  O20      1.0000 0.07625  0.16537  0.21915  Biso   1.000  O  -0.567041
  O21      1.0000 0.83463  0.91088  0.21915  Biso   1.000  O  -0.567044
  O22      1.0000 0.92375  0.08912  0.78085  Biso   1.000  O  -0.567034
  O23      1.0000 0.91088  0.83463  0.78085  Biso   1.000  O  -0.567044
  O24      1.0000 0.16537  0.07625  0.78085  Biso   1.000  O  -0.567041
  O25      1.0000 0.75579  0.25708  0.55248  Biso   1.000  O  -0.567057
  O26      1.0000 0.74292  0.49870  0.55248  Biso   1.000  O  -0.566961
  O27      1.0000 0.50130  0.24421  0.55248  Biso   1.000  O  -0.566954
  O28      1.0000 0.59042  0.42245  0.11418  Biso   1.000  O  -0.566983
  O29      1.0000 0.57755  0.16796  0.11418  Biso   1.000  O  -0.567100
  O30      1.0000 0.83204  0.40958  0.11418  Biso   1.000  O  -0.567079
  O31      1.0000 0.42245  0.59042  0.88582  Biso   1.000  O  -0.566998
  O32      1.0000 0.40958  0.83204  0.88582  Biso   1.000  O  -0.567094
  O33      1.0000 0.16796  0.57755  0.88582  Biso   1.000  O  -0.567115
  O34      1.0000 0.25708  0.75579  0.44752  Biso   1.000  O  -0.567056
  O35      1.0000 0.24421  0.50130  0.44752  Biso   1.000  O  -0.566953
  O36      1.0000 0.49870  0.74292  0.44752  Biso   1.000  O  -0.566960
  O37      1.0000 0.45824  0.31660  0.06750  Biso   1.000  O  -0.592466
  O38      1.0000 0.68340  0.14164  0.06750  Biso   1.000  O  -0.592459
  O39      1.0000 0.85836  0.54176  0.06750  Biso   1.000  O  -0.592489
  O40      1.0000 0.31660  0.45824  0.93250  Biso   1.000  O  -0.592423
  O41      1.0000 0.54176  0.85836  0.93250  Biso   1.000  O  -0.592444
  O42      1.0000 0.14164  0.68340  0.93250  Biso   1.000  O  -0.592415
  O43      1.0000 0.12491  0.64993  0.40083  Biso   1.000  O  -0.592454
  O44      1.0000 0.35007  0.47497  0.40083  Biso   1.000  O  -0.592344
  O45      1.0000 0.52503  0.87509  0.40083  Biso   1.000  O  -0.592370
  O46      1.0000 0.98327  0.79157  0.26583  Biso   1.000  O  -0.592384
  O47      1.0000 0.20843  0.19169  0.26583  Biso   1.000  O  -0.592458
  O48      1.0000 0.80831  0.01673  0.26583  Biso   1.000  O  -0.592510
  O49      1.0000 0.79157  0.98327  0.73417  Biso   1.000  O  -0.592382
  O50      1.0000 0.01673  0.80831  0.73417  Biso   1.000  O  -0.592510
  O51      1.0000 0.19169  0.20843  0.73417  Biso   1.000  O  -0.592456
  O52      1.0000 0.64993  0.12491  0.59917  Biso   1.000  O  -0.592455
  O53      1.0000 0.87509  0.52503  0.59917  Biso   1.000  O  -0.592372
  O54      1.0000 0.47497  0.35007  0.59917  Biso   1.000  O  -0.592344
  O55      1.0000 0.53284  0.31210  0.06929  Biso   1.000  O  -0.553307
  O56      1.0000 0.68790  0.22074  0.06929  Biso   1.000  O  -0.553288
  O57      1.0000 0.77926  0.46716  0.06929  Biso   1.000  O  -0.553324
  O58      1.0000 0.31210  0.53284  0.93071  Biso   1.000  O  -0.553338
  O59      1.0000 0.46716  0.77926  0.93071  Biso   1.000  O  -0.553355
  O60      1.0000 0.22074  0.68790  0.93071  Biso   1.000  O  -0.553318
  O61      1.0000 0.19951  0.64543  0.40262  Biso   1.000  O  -0.553329
  O62      1.0000 0.35457  0.55407  0.40262  Biso   1.000  O  -0.553395
  O63      1.0000 0.44593  0.80049  0.40262  Biso   1.000  O  -0.553313
  O64      1.0000 0.97877  0.86617  0.26404  Biso   1.000  O  -0.553339
  O65      1.0000 0.13383  0.11259  0.26404  Biso   1.000  O  -0.553311
  O66      1.0000 0.88741  0.02123  0.26404  Biso   1.000  O  -0.553221
  O67      1.0000 0.86617  0.97877  0.73596  Biso   1.000  O  -0.553343
  O68      1.0000 0.02123  0.88741  0.73596  Biso   1.000  O  -0.553224
  O69      1.0000 0.11259  0.13383  0.73596  Biso   1.000  O  -0.553315
  O70      1.0000 0.64543  0.19951  0.59738  Biso   1.000  O  -0.553329
  O71      1.0000 0.80049  0.44593  0.59738  Biso   1.000  O  -0.553313
  O72      1.0000 0.55407  0.35457  0.59738  Biso   1.000  O  -0.553396
  O73      1.0000 0.47017  0.87148  0.98589  Biso   1.000  O  -0.588842
  O74      1.0000 0.12852  0.59869  0.98589  Biso   1.000  O  -0.588851
  O75      1.0000 0.40131  0.52983  0.98589  Biso   1.000  O  -0.588866
  O76      1.0000 0.87148  0.47017  0.01411  Biso   1.000  O  -0.588865
  O77      1.0000 0.52983  0.40131  0.01411  Biso   1.000  O  -0.588886
  O78      1.0000 0.59869  0.12852  0.01411  Biso   1.000  O  -0.588872
  O79      1.0000 0.13684  0.20481  0.31922  Biso   1.000  O  -0.588846
  O80      1.0000 0.79519  0.93202  0.31922  Biso   1.000  O  -0.588946
  O81      1.0000 0.06798  0.86316  0.31922  Biso   1.000  O  -0.588885
  O82      1.0000 0.53815  0.80350  0.34744  Biso   1.000  O  -0.588941
  O83      1.0000 0.19650  0.73464  0.34744  Biso   1.000  O  -0.588863
  O84      1.0000 0.26536  0.46185  0.34744  Biso   1.000  O  -0.588807
  O85      1.0000 0.80350  0.53815  0.65256  Biso   1.000  O  -0.588943
  O86      1.0000 0.46185  0.26536  0.65256  Biso   1.000  O  -0.588807
  O87      1.0000 0.73464  0.19650  0.65256  Biso   1.000  O  -0.588864
  O88      1.0000 0.20481  0.13684  0.68078  Biso   1.000  O  -0.588849
  O89      1.0000 0.86316  0.06798  0.68078  Biso   1.000  O  -0.588887
  O90      1.0000 0.93202  0.79519  0.68078  Biso   1.000  O  -0.588950
  O91      1.0000 0.38674  0.81556  0.97301  Biso   1.000  O  -0.550230
  O92      1.0000 0.18444  0.57118  0.97301  Biso   1.000  O  -0.550250
  O93      1.0000 0.42882  0.61326  0.97301  Biso   1.000  O  -0.550231
  O94      1.0000 0.81556  0.38674  0.02699  Biso   1.000  O  -0.550200
  O95      1.0000 0.61326  0.42882  0.02699  Biso   1.000  O  -0.550201
  O96      1.0000 0.57118  0.18444  0.02699  Biso   1.000  O  -0.550221
  O97      1.0000 0.05341  0.14889  0.30634  Biso   1.000  O  -0.550222
  O98      1.0000 0.85111  0.90451  0.30634  Biso   1.000  O  -0.550138
  O99      1.0000 0.09549  0.94659  0.30634  Biso   1.000  O  -0.550288
  O100     1.0000 0.48223  0.72007  0.36032  Biso   1.000  O  -0.550313
  O101     1.0000 0.27993  0.76215  0.36032  Biso   1.000  O  -0.550199
  O102     1.0000 0.23785  0.51777  0.36032  Biso   1.000  O  -0.550270
  O103     1.0000 0.72007  0.48223  0.63968  Biso   1.000  O  -0.550312
  O104     1.0000 0.51777  0.23785  0.63968  Biso   1.000  O  -0.550271
  O105     1.0000 0.76215  0.27993  0.63968  Biso   1.000  O  -0.550200
  O106     1.0000 0.14889  0.05341  0.69366  Biso   1.000  O  -0.550222
  O107     1.0000 0.94659  0.09549  0.69366  Biso   1.000  O  -0.550288
  O108     1.0000 0.90451  0.85111  0.69366  Biso   1.000  O  -0.550136
  O109     1.0000 0.07500  0.76670  0.29970  Biso   1.000  O  -0.539170
  O110     1.0000 0.23330  0.30830  0.29970  Biso   1.000  O  -0.539114
  O111     1.0000 0.69170  0.92500  0.29970  Biso   1.000  O  -0.539157
  O112     1.0000 0.76670  0.07500  0.70030  Biso   1.000  O  -0.539156
  O113     1.0000 0.92500  0.69170  0.70030  Biso   1.000  O  -0.539134
  O114     1.0000 0.30830  0.23330  0.70030  Biso   1.000  O  -0.539099
  O115     1.0000 0.74167  0.10003  0.63303  Biso   1.000  O  -0.540347
  O116     1.0000 0.89997  0.64163  0.63303  Biso   1.000  O  -0.540347
  O117     1.0000 0.35837  0.25833  0.63303  Biso   1.000  O  -0.540346
  O118     1.0000 0.43337  0.40833  0.03363  Biso   1.000  O  -0.539181
  O119     1.0000 0.59167  0.02503  0.03363  Biso   1.000  O  -0.539174
  O120     1.0000 0.97497  0.56663  0.03363  Biso   1.000  O  -0.539099
  O121     1.0000 0.40833  0.43337  0.96637  Biso   1.000  O  -0.540431
  O122     1.0000 0.56663  0.97497  0.96637  Biso   1.000  O  -0.540296
  O123     1.0000 0.02503  0.59167  0.96637  Biso   1.000  O  -0.540370
  O124     1.0000 0.10003  0.74167  0.36697  Biso   1.000  O  -0.540353
  O125     1.0000 0.25833  0.35837  0.36697  Biso   1.000  O  -0.540351
  O126     1.0000 0.64163  0.89997  0.36697  Biso   1.000  O  -0.540360
  O127     1.0000 0.03572  0.98267  0.24972  Biso   1.000  O  -0.552640
  O128     1.0000 0.01733  0.05305  0.24972  Biso   1.000  O  -0.552633
  O129     1.0000 0.94695  0.96428  0.24972  Biso   1.000  O  -0.552629
  O130     1.0000 0.98267  0.03572  0.75028  Biso   1.000  O  -0.552632
  O131     1.0000 0.96428  0.94695  0.75028  Biso   1.000  O  -0.552621
  O132     1.0000 0.05305  0.01733  0.75028  Biso   1.000  O  -0.552625
  O133     1.0000 0.70239  0.31600  0.58305  Biso   1.000  O  -0.552599
  O134     1.0000 0.68400  0.38638  0.58305  Biso   1.000  O  -0.552807
  O135     1.0000 0.61362  0.29761  0.58305  Biso   1.000  O  -0.552677
  O136     1.0000 0.64934  0.36905  0.08361  Biso   1.000  O  -0.552903
  O137     1.0000 0.63095  0.28028  0.08361  Biso   1.000  O  -0.552745
  O138     1.0000 0.71972  0.35066  0.08361  Biso   1.000  O  -0.552652
  O139     1.0000 0.36905  0.64934  0.91639  Biso   1.000  O  -0.552867
  O140     1.0000 0.35066  0.71972  0.91639  Biso   1.000  O  -0.552616
  O141     1.0000 0.28028  0.63095  0.91639  Biso   1.000  O  -0.552710
  O142     1.0000 0.31600  0.70239  0.41695  Biso   1.000  O  -0.552601
  O143     1.0000 0.29761  0.61362  0.41695  Biso   1.000  O  -0.552680
  O144     1.0000 0.38638  0.68400  0.41695  Biso   1.000  O  -0.552809
  S1       1.0000 0.00000  0.00000  0.25915  Biso   1.000  S  0.917682
  S2       1.0000 0.00000  0.00000  0.74085  Biso   1.000  S  0.917708
  S3       1.0000 0.66667  0.33333  0.59248  Biso   1.000  S  0.918161
  S4       1.0000 0.66667  0.33333  0.07418  Biso   1.000  S  0.918015
  S5       1.0000 0.33333  0.66667  0.92582  Biso   1.000  S  0.918150
  S6       1.0000 0.33333  0.66667  0.40752  Biso   1.000  S  0.918156
  Zn1      1.0000 0.04666  0.92652  0.26267  Biso   1.000  Zn  0.981335
  Zn2      1.0000 0.07348  0.12014  0.26267  Biso   1.000  Zn  0.981332
  Zn3      1.0000 0.87986  0.95334  0.26267  Biso   1.000  Zn  0.981335
  Zn4      1.0000 0.92652  0.04666  0.73733  Biso   1.000  Zn  0.981335
  Zn5      1.0000 0.95334  0.87986  0.73733  Biso   1.000  Zn  0.981335
  Zn6      1.0000 0.12014  0.07348  0.73733  Biso   1.000  Zn  0.981331
  Zn7      1.0000 0.71333  0.25985  0.59601  Biso   1.000  Zn  0.981325
  Zn8      1.0000 0.74015  0.45347  0.59601  Biso   1.000  Zn  0.981378
  Zn9      1.0000 0.54653  0.28667  0.59601  Biso   1.000  Zn  0.981250
  Zn10     1.0000 0.59319  0.37999  0.07066  Biso   1.000  Zn  0.981293
  Zn11     1.0000 0.62001  0.21319  0.07066  Biso   1.000  Zn  0.981364
  Zn12     1.0000 0.78681  0.40681  0.07066  Biso   1.000  Zn  0.981316
  Zn13     1.0000 0.37999  0.59319  0.92934  Biso   1.000  Zn  0.981305
  Zn14     1.0000 0.40681  0.78681  0.92934  Biso   1.000  Zn  0.981328
  Zn15     1.0000 0.21319  0.62001  0.92934  Biso   1.000  Zn  0.981376
  Zn16     1.0000 0.25985  0.71333  0.40399  Biso   1.000  Zn  0.981325
  Zn17     1.0000 0.28667  0.54653  0.40399  Biso   1.000  Zn  0.981250
  Zn18     1.0000 0.45347  0.74015  0.40399  Biso   1.000  Zn  0.981377
  Zn19     1.0000 0.05624  0.81383  0.27422  Biso   1.000  Zn  1.038588
  Zn20     1.0000 0.18617  0.24241  0.27422  Biso   1.000  Zn  1.038511
  Zn21     1.0000 0.75759  0.94376  0.27422  Biso   1.000  Zn  1.038580
  Zn22     1.0000 0.81383  0.05624  0.72578  Biso   1.000  Zn  1.038594
  Zn23     1.0000 0.94376  0.75759  0.72578  Biso   1.000  Zn  1.038588
  Zn24     1.0000 0.24241  0.18617  0.72578  Biso   1.000  Zn  1.038517
  Zn25     1.0000 0.72291  0.14716  0.60755  Biso   1.000  Zn  1.038537
  Zn26     1.0000 0.85284  0.57574  0.60755  Biso   1.000  Zn  1.038644
  Zn27     1.0000 0.42426  0.27709  0.60755  Biso   1.000  Zn  1.038543
  Zn28     1.0000 0.48050  0.38957  0.05911  Biso   1.000  Zn  1.038557
  Zn29     1.0000 0.61043  0.09092  0.05911  Biso   1.000  Zn  1.038522
  Zn30     1.0000 0.90908  0.51950  0.05911  Biso   1.000  Zn  1.038476
  Zn31     1.0000 0.38957  0.48050  0.94089  Biso   1.000  Zn  1.038596
  Zn32     1.0000 0.51950  0.90908  0.94089  Biso   1.000  Zn  1.038500
  Zn33     1.0000 0.09092  0.61043  0.94089  Biso   1.000  Zn  1.038549
  Zn34     1.0000 0.14716  0.72291  0.39245  Biso   1.000  Zn  1.038535
  Zn35     1.0000 0.27709  0.42426  0.39245  Biso   1.000  Zn  1.038541
  Zn36     1.0000 0.57574  0.85284  0.39245  Biso   1.000  Zn  1.038641
