data_image0
_cell_length_a       18.261
_cell_length_b       20.045
_cell_length_c       33.017
_cell_angle_alpha    90
_cell_angle_beta     100.124
_cell_angle_gamma    90

_symmetry_space_group_name_H-M    "P 1"
_symmetry_int_tables_number       1

loop_
  _symmetry_equiv_pos_as_xyz
  'x, y, z'

loop_
  _atom_site_label
  _atom_site_occupancy
  _atom_site_fract_x
  _atom_site_fract_y
  _atom_site_fract_z
  _atom_site_thermal_displace_type
  _atom_site_B_iso_or_equiv
  _atom_site_type_symbol
  _atom_site_charge
  C1       1.0000 0.98864  0.42453  0.43641  Biso   1.000  C  0.606211
  C2       1.0000 0.01136  0.92453  0.06359  Biso   1.000  C  0.606211
  C3       1.0000 0.01136  0.57547  0.56359  Biso   1.000  C  0.606211
  C4       1.0000 0.98864  0.07547  0.93641  Biso   1.000  C  0.606211
  C5       1.0000 0.98798  0.38945  0.39658  Biso   1.000  C  -0.026484
  C6       1.0000 0.01202  0.88945  0.10342  Biso   1.000  C  -0.026484
  C7       1.0000 0.01202  0.61055  0.60342  Biso   1.000  C  -0.026484
  C8       1.0000 0.98798  0.11055  0.89658  Biso   1.000  C  -0.026484
  C9       1.0000 0.92510  0.38884  0.36663  Biso   1.000  C  -0.101439
  C10      1.0000 0.07490  0.88884  0.13337  Biso   1.000  C  -0.101439
  C11      1.0000 0.07490  0.61116  0.63337  Biso   1.000  C  -0.101439
  C12      1.0000 0.92510  0.11116  0.86663  Biso   1.000  C  -0.101439
  C13      1.0000 0.92493  0.35812  0.32908  Biso   1.000  C  -0.160697
  C14      1.0000 0.07507  0.85812  0.17092  Biso   1.000  C  -0.160697
  C15      1.0000 0.07507  0.64188  0.67092  Biso   1.000  C  -0.160697
  C16      1.0000 0.92493  0.14188  0.82908  Biso   1.000  C  -0.160697
  C17      1.0000 0.98714  0.32635  0.32073  Biso   1.000  C  0.095518
  C18      1.0000 0.01286  0.82635  0.17927  Biso   1.000  C  0.095518
  C19      1.0000 0.01286  0.67365  0.67927  Biso   1.000  C  0.095518
  C20      1.0000 0.98714  0.17365  0.82073  Biso   1.000  C  0.095518
  C21      1.0000 0.05073  0.32566  0.35137  Biso   1.000  C  -0.152787
  C22      1.0000 0.94927  0.82566  0.14863  Biso   1.000  C  -0.152787
  C23      1.0000 0.94927  0.67434  0.64863  Biso   1.000  C  -0.152787
  C24      1.0000 0.05073  0.17434  0.85137  Biso   1.000  C  -0.152787
  C25      1.0000 0.05145  0.35727  0.38876  Biso   1.000  C  -0.110886
  C26      1.0000 0.94855  0.85727  0.11124  Biso   1.000  C  -0.110886
  C27      1.0000 0.94855  0.64273  0.61124  Biso   1.000  C  -0.110886
  C28      1.0000 0.05145  0.14273  0.88876  Biso   1.000  C  -0.110886
  C29      1.0000 0.98782  0.29448  0.28003  Biso   1.000  C  0.004613
  C30      1.0000 0.01218  0.79448  0.21997  Biso   1.000  C  0.004613
  C31      1.0000 0.01218  0.70552  0.71997  Biso   1.000  C  0.004613
  C32      1.0000 0.98782  0.20552  0.78003  Biso   1.000  C  0.004613
  C33      1.0000 0.97384  0.33378  0.24466  Biso   1.000  C  -0.235171
  C34      1.0000 0.02616  0.83378  0.25534  Biso   1.000  C  -0.235171
  C35      1.0000 0.02616  0.66622  0.75534  Biso   1.000  C  -0.235171
  C36      1.0000 0.97384  0.16622  0.74466  Biso   1.000  C  -0.235171
  C37      1.0000 0.00167  0.22602  0.27684  Biso   1.000  C  0.136483
  C38      1.0000 0.99833  0.72602  0.22316  Biso   1.000  C  0.136483
  C39      1.0000 0.99833  0.77398  0.72316  Biso   1.000  C  0.136483
  C40      1.0000 0.00167  0.27398  0.77684  Biso   1.000  C  0.136483
  C41      1.0000 0.01335  0.17885  0.31360  Biso   1.000  C  -0.521675
  C42      1.0000 0.98665  0.67885  0.18640  Biso   1.000  C  -0.521675
  C43      1.0000 0.98665  0.82115  0.68640  Biso   1.000  C  -0.521675
  C44      1.0000 0.01335  0.32115  0.81360  Biso   1.000  C  -0.521675
  C45      1.0000 0.97461  0.30721  0.20541  Biso   1.000  C  0.147934
  C46      1.0000 0.02539  0.80721  0.29459  Biso   1.000  C  0.147934
  C47      1.0000 0.02539  0.69279  0.79459  Biso   1.000  C  0.147934
  C48      1.0000 0.97461  0.19279  0.70541  Biso   1.000  C  0.147934
  C49      1.0000 0.96063  0.35214  0.16871  Biso   1.000  C  -0.526955
  C50      1.0000 0.03937  0.85214  0.33129  Biso   1.000  C  -0.526955
  C51      1.0000 0.03937  0.64786  0.83129  Biso   1.000  C  -0.526955
  C52      1.0000 0.96063  0.14786  0.66871  Biso   1.000  C  -0.526955
  C53      1.0000 0.98960  0.23949  0.20226  Biso   1.000  C  0.008271
  C54      1.0000 0.01040  0.73949  0.29774  Biso   1.000  C  0.008271
  C55      1.0000 0.01040  0.76051  0.79774  Biso   1.000  C  0.008271
  C56      1.0000 0.98960  0.26051  0.70226  Biso   1.000  C  0.008271
  C57      1.0000 0.00287  0.20061  0.23747  Biso   1.000  C  -0.237600
  C58      1.0000 0.99713  0.70061  0.26253  Biso   1.000  C  -0.237600
  C59      1.0000 0.99713  0.79939  0.76253  Biso   1.000  C  -0.237600
  C60      1.0000 0.00287  0.29939  0.73747  Biso   1.000  C  -0.237600
  C61      1.0000 0.99272  0.20637  0.16262  Biso   1.000  C  0.099376
  C62      1.0000 0.00728  0.70637  0.33738  Biso   1.000  C  0.099376
  C63      1.0000 0.00728  0.79363  0.83738  Biso   1.000  C  0.099376
  C64      1.0000 0.99272  0.29363  0.66262  Biso   1.000  C  0.099376
  C65      1.0000 0.92930  0.19768  0.13344  Biso   1.000  C  -0.160919
  C66      1.0000 0.07070  0.69768  0.36656  Biso   1.000  C  -0.160919
  C67      1.0000 0.07070  0.80232  0.86656  Biso   1.000  C  -0.160919
  C68      1.0000 0.92930  0.30232  0.63344  Biso   1.000  C  -0.160919
  C69      1.0000 0.93126  0.16180  0.09747  Biso   1.000  C  -0.106704
  C70      1.0000 0.06874  0.66180  0.40253  Biso   1.000  C  -0.106704
  C71      1.0000 0.06874  0.83820  0.90253  Biso   1.000  C  -0.106705
  C72      1.0000 0.93126  0.33820  0.59747  Biso   1.000  C  -0.106705
  C73      1.0000 0.99778  0.13522  0.09040  Biso   1.000  C  -0.025422
  C74      1.0000 0.00222  0.63522  0.40960  Biso   1.000  C  -0.025422
  C75      1.0000 0.00222  0.86478  0.90960  Biso   1.000  C  -0.025422
  C76      1.0000 0.99778  0.36478  0.59040  Biso   1.000  C  -0.025422
  C77      1.0000 0.06106  0.14412  0.11941  Biso   1.000  C  -0.100549
  C78      1.0000 0.93894  0.64412  0.38059  Biso   1.000  C  -0.100549
  C79      1.0000 0.93894  0.85588  0.88059  Biso   1.000  C  -0.100549
  C80      1.0000 0.06106  0.35588  0.61941  Biso   1.000  C  -0.100549
  C81      1.0000 0.05868  0.17945  0.15501  Biso   1.000  C  -0.161350
  C82      1.0000 0.94132  0.67945  0.34499  Biso   1.000  C  -0.161350
  C83      1.0000 0.94132  0.82055  0.84499  Biso   1.000  C  -0.161350
  C84      1.0000 0.05868  0.32055  0.65501  Biso   1.000  C  -0.161350
  C85      1.0000 0.00030  0.09266  0.05364  Biso   1.000  C  0.608753
  C86      1.0000 0.99970  0.59266  0.44636  Biso   1.000  C  0.608753
  C87      1.0000 0.99970  0.90734  0.94636  Biso   1.000  C  0.608753
  C88      1.0000 0.00030  0.40734  0.55364  Biso   1.000  C  0.608753
  C89      1.0000 0.21767  0.48609  0.47293  Biso   1.000  C  0.106289
  C90      1.0000 0.78233  0.98609  0.02707  Biso   1.000  C  0.106289
  C91      1.0000 0.78233  0.51391  0.52707  Biso   1.000  C  0.106289
  C92      1.0000 0.21767  0.01391  0.97293  Biso   1.000  C  0.106289
  C93      1.0000 0.29102  0.48832  0.47040  Biso   1.000  C  -0.189545
  C94      1.0000 0.70898  0.98832  0.02960  Biso   1.000  C  -0.189545
  C95      1.0000 0.70898  0.51168  0.52960  Biso   1.000  C  -0.189545
  C96      1.0000 0.29102  0.01168  0.97040  Biso   1.000  C  -0.189545
  C97      1.0000 0.34416  0.49702  0.50482  Biso   1.000  C  0.121221
  C98      1.0000 0.65584  0.99702  0.99518  Biso   1.000  C  0.121221
  C99      1.0000 0.65584  0.50298  0.49518  Biso   1.000  C  0.121221
  C100     1.0000 0.34416  0.00298  0.00482  Biso   1.000  C  0.121221
  C101     1.0000 0.31790  0.50790  0.54093  Biso   1.000  C  -0.196405
  C102     1.0000 0.68210  0.00790  0.95907  Biso   1.000  C  -0.196405
  C103     1.0000 0.68210  0.49210  0.45907  Biso   1.000  C  -0.196405
  C104     1.0000 0.31790  0.99210  0.04093  Biso   1.000  C  -0.196405
  C105     1.0000 0.24350  0.50460  0.54189  Biso   1.000  C  0.110507
  C106     1.0000 0.75650  0.00460  0.95811  Biso   1.000  C  0.110507
  C107     1.0000 0.75650  0.49540  0.45811  Biso   1.000  C  0.110507
  C108     1.0000 0.24350  0.99540  0.04189  Biso   1.000  C  0.110507
  C109     1.0000 0.42383  0.49911  0.50252  Biso   1.000  C  0.075533
  C110     1.0000 0.57617  0.99911  0.99748  Biso   1.000  C  0.075533
  C111     1.0000 0.57617  0.50089  0.49748  Biso   1.000  C  0.075533
  C112     1.0000 0.42383  0.00089  0.00252  Biso   1.000  C  0.075533
  C113     1.0000 0.44990  0.47680  0.46975  Biso   1.000  C  -0.127532
  C114     1.0000 0.55010  0.97680  0.03025  Biso   1.000  C  -0.127532
  C115     1.0000 0.55010  0.52320  0.53025  Biso   1.000  C  -0.127532
  C116     1.0000 0.44990  0.02320  0.96975  Biso   1.000  C  -0.127532
  C117     1.0000 0.47620  0.51810  0.53361  Biso   1.000  C  -0.127161
  C118     1.0000 0.52380  0.01810  0.96639  Biso   1.000  C  -0.127161
  C119     1.0000 0.52380  0.48190  0.46639  Biso   1.000  C  -0.127161
  C120     1.0000 0.47620  0.98190  0.03361  Biso   1.000  C  -0.127161
  C121     1.0000 0.25133  0.41084  0.16374  Biso   1.000  C  0.603253
  C122     1.0000 0.74867  0.91084  0.33626  Biso   1.000  C  0.603253
  C123     1.0000 0.74867  0.58916  0.83626  Biso   1.000  C  0.603253
  C124     1.0000 0.25133  0.08916  0.66374  Biso   1.000  C  0.603253
  C125     1.0000 0.24871  0.36970  0.20161  Biso   1.000  C  -0.025675
  C126     1.0000 0.75129  0.86970  0.29839  Biso   1.000  C  -0.025675
  C127     1.0000 0.75129  0.63030  0.79839  Biso   1.000  C  -0.025675
  C128     1.0000 0.24871  0.13030  0.70161  Biso   1.000  C  -0.025675
  C129     1.0000 0.18203  0.34505  0.20964  Biso   1.000  C  -0.099219
  C130     1.0000 0.81797  0.84505  0.29036  Biso   1.000  C  -0.099219
  C131     1.0000 0.81797  0.65495  0.79036  Biso   1.000  C  -0.099219
  C132     1.0000 0.18203  0.15495  0.70964  Biso   1.000  C  -0.099219
  C133     1.0000 0.17902  0.31061  0.24501  Biso   1.000  C  -0.157224
  C134     1.0000 0.82098  0.81061  0.25499  Biso   1.000  C  -0.157224
  C135     1.0000 0.82098  0.68939  0.75499  Biso   1.000  C  -0.157224
  C136     1.0000 0.17902  0.18939  0.74501  Biso   1.000  C  -0.157224
  C137     1.0000 0.24211  0.29941  0.27401  Biso   1.000  C  0.092618
  C138     1.0000 0.75789  0.79941  0.22599  Biso   1.000  C  0.092618
  C139     1.0000 0.75789  0.70059  0.72599  Biso   1.000  C  0.092618
  C140     1.0000 0.24211  0.20059  0.77401  Biso   1.000  C  0.092618
  C141     1.0000 0.31010  0.32530  0.26595  Biso   1.000  C  -0.168309
  C142     1.0000 0.68990  0.82530  0.23405  Biso   1.000  C  -0.168309
  C143     1.0000 0.68990  0.67470  0.73405  Biso   1.000  C  -0.168309
  C144     1.0000 0.31010  0.17470  0.76595  Biso   1.000  C  -0.168309
  C145     1.0000 0.31160  0.35940  0.23034  Biso   1.000  C  -0.101902
  C146     1.0000 0.68840  0.85940  0.26966  Biso   1.000  C  -0.101902
  C147     1.0000 0.68840  0.64060  0.76966  Biso   1.000  C  -0.101902
  C148     1.0000 0.31160  0.14060  0.73034  Biso   1.000  C  -0.101902
  C149     1.0000 0.23956  0.26751  0.31455  Biso   1.000  C  0.002404
  C150     1.0000 0.76044  0.76751  0.18545  Biso   1.000  C  0.002404
  C151     1.0000 0.76044  0.73249  0.68545  Biso   1.000  C  0.002404
  C152     1.0000 0.23956  0.23249  0.81455  Biso   1.000  C  0.002404
  C153     1.0000 0.25747  0.30637  0.34923  Biso   1.000  C  -0.227311
  C154     1.0000 0.74253  0.80637  0.15077  Biso   1.000  C  -0.227311
  C155     1.0000 0.74253  0.69363  0.65077  Biso   1.000  C  -0.227311
  C156     1.0000 0.25747  0.19363  0.84923  Biso   1.000  C  -0.227311
  C157     1.0000 0.21804  0.20067  0.31759  Biso   1.000  C  0.150637
  C158     1.0000 0.78196  0.70067  0.18241  Biso   1.000  C  0.150637
  C159     1.0000 0.78196  0.79933  0.68241  Biso   1.000  C  0.150637
  C160     1.0000 0.21804  0.29933  0.81759  Biso   1.000  C  0.150637
  C161     1.0000 0.19950  0.15570  0.28220  Biso   1.000  C  -0.519234
  C162     1.0000 0.80050  0.65570  0.21780  Biso   1.000  C  -0.519234
  C163     1.0000 0.80050  0.84430  0.71780  Biso   1.000  C  -0.519234
  C164     1.0000 0.19950  0.34430  0.78220  Biso   1.000  C  -0.519234
  C165     1.0000 0.27940  0.80207  0.89966  Biso   1.000  C  0.143280
  C166     1.0000 0.72060  0.30207  0.60034  Biso   1.000  C  0.143280
  C167     1.0000 0.72060  0.19793  0.10034  Biso   1.000  C  0.143280
  C168     1.0000 0.27940  0.69793  0.39966  Biso   1.000  C  0.143280
  C169     1.0000 0.29410  0.84690  0.93666  Biso   1.000  C  -0.523089
  C170     1.0000 0.70590  0.34690  0.56334  Biso   1.000  C  -0.523089
  C171     1.0000 0.70590  0.15310  0.06334  Biso   1.000  C  -0.523089
  C172     1.0000 0.29410  0.65310  0.43666  Biso   1.000  C  -0.523089
  C173     1.0000 0.24518  0.69585  0.86822  Biso   1.000  C  -0.235508
  C174     1.0000 0.75482  0.19585  0.63178  Biso   1.000  C  -0.235508
  C175     1.0000 0.75482  0.30415  0.13178  Biso   1.000  C  -0.235508
  C176     1.0000 0.24518  0.80415  0.36822  Biso   1.000  C  -0.235508
  C177     1.0000 0.26163  0.73441  0.90339  Biso   1.000  C  -0.002227
  C178     1.0000 0.73837  0.23441  0.59661  Biso   1.000  C  -0.002227
  C179     1.0000 0.73837  0.26559  0.09661  Biso   1.000  C  -0.002227
  C180     1.0000 0.26163  0.76559  0.40339  Biso   1.000  C  -0.002227
  C181     1.0000 0.25894  0.70316  0.94401  Biso   1.000  C  0.101042
  C182     1.0000 0.74106  0.20316  0.55599  Biso   1.000  C  0.101042
  C183     1.0000 0.74106  0.29684  0.05599  Biso   1.000  C  0.101042
  C184     1.0000 0.25894  0.79684  0.44401  Biso   1.000  C  0.101042
  C185     1.0000 0.32381  0.68288  0.96905  Biso   1.000  C  -0.166469
  C186     1.0000 0.67619  0.18288  0.53095  Biso   1.000  C  -0.166469
  C187     1.0000 0.67619  0.31712  0.03095  Biso   1.000  C  -0.166469
  C188     1.0000 0.32381  0.81712  0.46905  Biso   1.000  C  -0.166469
  C189     1.0000 0.32093  0.64884  0.00554  Biso   1.000  C  -0.108434
  C190     1.0000 0.67907  0.14884  0.49446  Biso   1.000  C  -0.108434
  C191     1.0000 0.67907  0.35116  0.99446  Biso   1.000  C  -0.108434
  C192     1.0000 0.32093  0.85116  0.50554  Biso   1.000  C  -0.108434
  C193     1.0000 0.25340  0.63368  0.01652  Biso   1.000  C  -0.031110
  C194     1.0000 0.74660  0.13368  0.48348  Biso   1.000  C  -0.031110
  C195     1.0000 0.74660  0.36632  0.98348  Biso   1.000  C  -0.031110
  C196     1.0000 0.25340  0.86632  0.51652  Biso   1.000  C  -0.031110
  C197     1.0000 0.18868  0.65429  0.99150  Biso   1.000  C  -0.104037
  C198     1.0000 0.81132  0.15429  0.50850  Biso   1.000  C  -0.104037
  C199     1.0000 0.81132  0.34571  0.00850  Biso   1.000  C  -0.104037
  C200     1.0000 0.18868  0.84571  0.49150  Biso   1.000  C  -0.104037
  C201     1.0000 0.19146  0.68790  0.95514  Biso   1.000  C  -0.150922
  C202     1.0000 0.80854  0.18790  0.54486  Biso   1.000  C  -0.150922
  C203     1.0000 0.80854  0.31210  0.04486  Biso   1.000  C  -0.150922
  C204     1.0000 0.19146  0.81210  0.45514  Biso   1.000  C  -0.150922
  C205     1.0000 0.25006  0.59099  0.05338  Biso   1.000  C  0.603629
  C206     1.0000 0.74994  0.09099  0.44662  Biso   1.000  C  0.603629
  C207     1.0000 0.74994  0.40901  0.94662  Biso   1.000  C  0.603629
  C208     1.0000 0.25006  0.90901  0.55338  Biso   1.000  C  0.603629
  C209     1.0000 0.23556  0.07978  0.54618  Biso   1.000  C  0.593698
  C210     1.0000 0.76444  0.57978  0.95382  Biso   1.000  C  0.593698
  C211     1.0000 0.76444  0.92022  0.45382  Biso   1.000  C  0.593698
  C212     1.0000 0.23556  0.42022  0.04618  Biso   1.000  C  0.593698
  C213     1.0000 0.23351  0.11861  0.50758  Biso   1.000  C  -0.028312
  C214     1.0000 0.76649  0.61861  0.99242  Biso   1.000  C  -0.028312
  C215     1.0000 0.76649  0.88139  0.49242  Biso   1.000  C  -0.028312
  C216     1.0000 0.23351  0.38139  0.00758  Biso   1.000  C  -0.028312
  C217     1.0000 0.16792  0.12612  0.47984  Biso   1.000  C  -0.099012
  C218     1.0000 0.83208  0.62612  0.02016  Biso   1.000  C  -0.099012
  C219     1.0000 0.83208  0.87388  0.52016  Biso   1.000  C  -0.099012
  C220     1.0000 0.16792  0.37388  0.97984  Biso   1.000  C  -0.099012
  C221     1.0000 0.16839  0.15867  0.44225  Biso   1.000  C  -0.156259
  C222     1.0000 0.83161  0.65867  0.05775  Biso   1.000  C  -0.156259
  C223     1.0000 0.83161  0.84133  0.55775  Biso   1.000  C  -0.156259
  C224     1.0000 0.16839  0.34133  0.94225  Biso   1.000  C  -0.156259
  C225     1.0000 0.23323  0.18436  0.43312  Biso   1.000  C  0.101754
  C226     1.0000 0.76677  0.68436  0.06688  Biso   1.000  C  0.101754
  C227     1.0000 0.76677  0.81564  0.56688  Biso   1.000  C  0.101754
  C228     1.0000 0.23323  0.31564  0.93312  Biso   1.000  C  0.101754
  C229     1.0000 0.29860  0.17696  0.46116  Biso   1.000  C  -0.161390
  C230     1.0000 0.70140  0.67696  0.03884  Biso   1.000  C  -0.161390
  C231     1.0000 0.70140  0.82304  0.53884  Biso   1.000  C  -0.161390
  C232     1.0000 0.29860  0.32304  0.96116  Biso   1.000  C  -0.161390
  C233     1.0000 0.29869  0.14423  0.49826  Biso   1.000  C  -0.110213
  C234     1.0000 0.70131  0.64423  0.00174  Biso   1.000  C  -0.110213
  C235     1.0000 0.70131  0.85577  0.50174  Biso   1.000  C  -0.110213
  C236     1.0000 0.29869  0.35577  0.99826  Biso   1.000  C  -0.110213
  C237     1.0000 0.23461  0.21580  0.39226  Biso   1.000  C  -0.002633
  C238     1.0000 0.76539  0.71580  0.10774  Biso   1.000  C  -0.002633
  C239     1.0000 0.76539  0.78420  0.60774  Biso   1.000  C  -0.002633
  C240     1.0000 0.23461  0.28420  0.89226  Biso   1.000  C  -0.002633
  C241     1.0000 0.21583  0.17714  0.35725  Biso   1.000  C  -0.241751
  C242     1.0000 0.78417  0.67714  0.14275  Biso   1.000  C  -0.241751
  C243     1.0000 0.78417  0.82286  0.64275  Biso   1.000  C  -0.241751
  C244     1.0000 0.21583  0.32286  0.85725  Biso   1.000  C  -0.241751
  C245     1.0000 0.25587  0.28245  0.38855  Biso   1.000  C  0.137924
  C246     1.0000 0.74413  0.78245  0.11145  Biso   1.000  C  0.137924
  C247     1.0000 0.74413  0.71755  0.61145  Biso   1.000  C  0.137924
  C248     1.0000 0.25587  0.21755  0.88855  Biso   1.000  C  0.137924
  C249     1.0000 0.27350  0.32824  0.42531  Biso   1.000  C  -0.522229
  C250     1.0000 0.72650  0.82824  0.07469  Biso   1.000  C  -0.522229
  C251     1.0000 0.72650  0.67176  0.57469  Biso   1.000  C  -0.522229
  C252     1.0000 0.27350  0.17176  0.92531  Biso   1.000  C  -0.522229
  C253     1.0000 0.24545  0.72024  0.82904  Biso   1.000  C  0.139607
  C254     1.0000 0.75455  0.22024  0.67096  Biso   1.000  C  0.139607
  C255     1.0000 0.75455  0.27976  0.17096  Biso   1.000  C  0.139607
  C256     1.0000 0.24545  0.77976  0.32904  Biso   1.000  C  0.139607
  C257     1.0000 0.22950  0.67372  0.79194  Biso   1.000  C  -0.519702
  C258     1.0000 0.77050  0.17372  0.70806  Biso   1.000  C  -0.519702
  C259     1.0000 0.77050  0.32628  0.20806  Biso   1.000  C  -0.519702
  C260     1.0000 0.22950  0.82628  0.29194  Biso   1.000  C  -0.519702
  C261     1.0000 0.26278  0.78774  0.82571  Biso   1.000  C  0.007732
  C262     1.0000 0.73722  0.28774  0.67429  Biso   1.000  C  0.007732
  C263     1.0000 0.73722  0.21226  0.17429  Biso   1.000  C  0.007732
  C264     1.0000 0.26278  0.71226  0.32571  Biso   1.000  C  0.007732
  C265     1.0000 0.27918  0.82648  0.86062  Biso   1.000  C  -0.229627
  C266     1.0000 0.72082  0.32648  0.63938  Biso   1.000  C  -0.229627
  C267     1.0000 0.72082  0.17352  0.13938  Biso   1.000  C  -0.229627
  C268     1.0000 0.27918  0.67352  0.36062  Biso   1.000  C  -0.229627
  C269     1.0000 0.26212  0.81841  0.78443  Biso   1.000  C  0.091446
  C270     1.0000 0.73788  0.31841  0.71557  Biso   1.000  C  0.091446
  C271     1.0000 0.73788  0.18159  0.21557  Biso   1.000  C  0.091446
  C272     1.0000 0.26212  0.68159  0.28443  Biso   1.000  C  0.091446
  C273     1.0000 0.19778  0.82420  0.75559  Biso   1.000  C  -0.150336
  C274     1.0000 0.80222  0.32420  0.74441  Biso   1.000  C  -0.150336
  C275     1.0000 0.80222  0.17580  0.24441  Biso   1.000  C  -0.150336
  C276     1.0000 0.19778  0.67580  0.25559  Biso   1.000  C  -0.150336
  C277     1.0000 0.19630  0.85658  0.71898  Biso   1.000  C  -0.104343
  C278     1.0000 0.80370  0.35658  0.78102  Biso   1.000  C  -0.104343
  C279     1.0000 0.80370  0.14342  0.28102  Biso   1.000  C  -0.104343
  C280     1.0000 0.19630  0.64342  0.21898  Biso   1.000  C  -0.104343
  C281     1.0000 0.26018  0.88209  0.70877  Biso   1.000  C  -0.025439
  C282     1.0000 0.73982  0.38209  0.79123  Biso   1.000  C  -0.025439
  C283     1.0000 0.73982  0.11791  0.29123  Biso   1.000  C  -0.025439
  C284     1.0000 0.26018  0.61791  0.20877  Biso   1.000  C  -0.025438
  C285     1.0000 0.32580  0.87450  0.73599  Biso   1.000  C  -0.105593
  C286     1.0000 0.67420  0.37450  0.76401  Biso   1.000  C  -0.105593
  C287     1.0000 0.67420  0.12550  0.26401  Biso   1.000  C  -0.105593
  C288     1.0000 0.32580  0.62550  0.23599  Biso   1.000  C  -0.105593
  C289     1.0000 0.32610  0.84510  0.77376  Biso   1.000  C  -0.166902
  C290     1.0000 0.67390  0.34510  0.72624  Biso   1.000  C  -0.166902
  C291     1.0000 0.67390  0.15490  0.22624  Biso   1.000  C  -0.166902
  C292     1.0000 0.32610  0.65490  0.27376  Biso   1.000  C  -0.166902
  C293     1.0000 0.25858  0.91998  0.66953  Biso   1.000  C  0.605734
  C294     1.0000 0.74142  0.41998  0.83047  Biso   1.000  C  0.605734
  C295     1.0000 0.74142  0.08002  0.33047  Biso   1.000  C  0.605734
  C296     1.0000 0.25858  0.58002  0.16953  Biso   1.000  C  0.605734
  C297     1.0000 0.02970  0.52625  0.13199  Biso   1.000  C  0.107161
  C298     1.0000 0.97030  0.02625  0.36801  Biso   1.000  C  0.107161
  C299     1.0000 0.97030  0.47375  0.86801  Biso   1.000  C  0.107161
  C300     1.0000 0.02970  0.97375  0.63199  Biso   1.000  C  0.107161
  C301     1.0000 0.95558  0.52225  0.13462  Biso   1.000  C  -0.198504
  C302     1.0000 0.04442  0.02225  0.36538  Biso   1.000  C  -0.198504
  C303     1.0000 0.04442  0.47775  0.86538  Biso   1.000  C  -0.198504
  C304     1.0000 0.95558  0.97775  0.63462  Biso   1.000  C  -0.198504
  C305     1.0000 0.90453  0.49615  0.10288  Biso   1.000  C  0.120997
  C306     1.0000 0.09547  0.99615  0.39712  Biso   1.000  C  0.120997
  C307     1.0000 0.09547  0.50385  0.89712  Biso   1.000  C  0.120997
  C308     1.0000 0.90453  0.00385  0.60288  Biso   1.000  C  0.120997
  C309     1.0000 0.93281  0.47391  0.06861  Biso   1.000  C  -0.179524
  C310     1.0000 0.06719  0.97391  0.43139  Biso   1.000  C  -0.179524
  C311     1.0000 0.06719  0.52609  0.93139  Biso   1.000  C  -0.179524
  C312     1.0000 0.93281  0.02609  0.56861  Biso   1.000  C  -0.179524
  C313     1.0000 0.00724  0.47844  0.06789  Biso   1.000  C  0.098636
  C314     1.0000 0.99276  0.97844  0.43211  Biso   1.000  C  0.098636
  C315     1.0000 0.99276  0.52156  0.93211  Biso   1.000  C  0.098636
  C316     1.0000 0.00724  0.02156  0.56789  Biso   1.000  C  0.098636
  C317     1.0000 0.82481  0.49197  0.10557  Biso   1.000  C  0.062620
  C318     1.0000 0.17519  0.99197  0.39443  Biso   1.000  C  0.062620
  C319     1.0000 0.17519  0.50803  0.89443  Biso   1.000  C  0.062620
  C320     1.0000 0.82481  0.00803  0.60557  Biso   1.000  C  0.062620
  C321     1.0000 0.77110  0.48934  0.07011  Biso   1.000  C  -0.114582
  C322     1.0000 0.22890  0.98934  0.42989  Biso   1.000  C  -0.114582
  C323     1.0000 0.22890  0.51066  0.92989  Biso   1.000  C  -0.114582
  C324     1.0000 0.77110  0.01066  0.57011  Biso   1.000  C  -0.114582
  C325     1.0000 0.80173  0.49185  0.14381  Biso   1.000  C  -0.136203
  C326     1.0000 0.19827  0.99185  0.35619  Biso   1.000  C  -0.136203
  C327     1.0000 0.19827  0.50815  0.85619  Biso   1.000  C  -0.136203
  C328     1.0000 0.80173  0.00815  0.64381  Biso   1.000  C  -0.136203
  C329     1.0000 0.69604  0.48778  0.07281  Biso   1.000  C  -0.117730
  C330     1.0000 0.30396  0.98778  0.42719  Biso   1.000  C  -0.117730
  C331     1.0000 0.30396  0.51222  0.92719  Biso   1.000  C  -0.117730
  C332     1.0000 0.69604  0.01222  0.57281  Biso   1.000  C  -0.117730
  C333     1.0000 0.67270  0.48758  0.11059  Biso   1.000  C  0.061938
  C334     1.0000 0.32730  0.98758  0.38941  Biso   1.000  C  0.061938
  C335     1.0000 0.32730  0.51242  0.88941  Biso   1.000  C  0.061938
  C336     1.0000 0.67270  0.01242  0.61059  Biso   1.000  C  0.061938
  C337     1.0000 0.72732  0.48958  0.14585  Biso   1.000  C  -0.126340
  C338     1.0000 0.27268  0.98958  0.35415  Biso   1.000  C  -0.126340
  C339     1.0000 0.27268  0.51042  0.85415  Biso   1.000  C  -0.126340
  C340     1.0000 0.72732  0.01042  0.64585  Biso   1.000  C  -0.126340
  C341     1.0000 0.59350  0.48767  0.11320  Biso   1.000  C  0.129665
  C342     1.0000 0.40650  0.98767  0.38680  Biso   1.000  C  0.129665
  C343     1.0000 0.40650  0.51233  0.88680  Biso   1.000  C  0.129665
  C344     1.0000 0.59350  0.01233  0.61320  Biso   1.000  C  0.129665
  C345     1.0000 0.56540  0.48380  0.14840  Biso   1.000  C  -0.193621
  C346     1.0000 0.43460  0.98380  0.35160  Biso   1.000  C  -0.193621
  C347     1.0000 0.43460  0.51620  0.85160  Biso   1.000  C  -0.193621
  C348     1.0000 0.56540  0.01620  0.64840  Biso   1.000  C  -0.193621
  C349     1.0000 0.49170  0.48560  0.14936  Biso   1.000  C  0.110120
  C350     1.0000 0.50830  0.98560  0.35064  Biso   1.000  C  0.110120
  C351     1.0000 0.50830  0.51440  0.85064  Biso   1.000  C  0.110120
  C352     1.0000 0.49170  0.01440  0.64936  Biso   1.000  C  0.110120
  C353     1.0000 0.46480  0.49330  0.08113  Biso   1.000  C  0.096535
  C354     1.0000 0.53520  0.99330  0.41887  Biso   1.000  C  0.096535
  C355     1.0000 0.53520  0.50670  0.91887  Biso   1.000  C  0.096535
  C356     1.0000 0.46480  0.00670  0.58113  Biso   1.000  C  0.096535
  C357     1.0000 0.53960  0.49670  0.07858  Biso   1.000  C  -0.199363
  C358     1.0000 0.46040  0.99670  0.42142  Biso   1.000  C  -0.199363
  C359     1.0000 0.46040  0.50330  0.92142  Biso   1.000  C  -0.199363
  C360     1.0000 0.53960  0.00330  0.57858  Biso   1.000  C  -0.199363
  H1       1.0000 0.88200  0.40940  0.37170  Biso   1.000  H  0.110935
  H2       1.0000 0.11800  0.90940  0.12830  Biso   1.000  H  0.110935
  H3       1.0000 0.11800  0.59060  0.62830  Biso   1.000  H  0.110935
  H4       1.0000 0.88200  0.09060  0.87170  Biso   1.000  H  0.110935
  H5       1.0000 0.88200  0.35900  0.30920  Biso   1.000  H  0.111135
  H6       1.0000 0.11800  0.85900  0.19080  Biso   1.000  H  0.111135
  H7       1.0000 0.11800  0.64100  0.69080  Biso   1.000  H  0.111135
  H8       1.0000 0.88200  0.14100  0.80920  Biso   1.000  H  0.111135
  H9       1.0000 0.09320  0.30360  0.34660  Biso   1.000  H  0.103032
  H10      1.0000 0.90680  0.80360  0.15340  Biso   1.000  H  0.103032
  H11      1.0000 0.90680  0.69640  0.65340  Biso   1.000  H  0.103032
  H12      1.0000 0.09320  0.19640  0.84660  Biso   1.000  H  0.103032
  H13      1.0000 0.09440  0.35700  0.40860  Biso   1.000  H  0.112984
  H14      1.0000 0.90560  0.85700  0.09140  Biso   1.000  H  0.112984
  H15      1.0000 0.90560  0.64300  0.59140  Biso   1.000  H  0.112984
  H16      1.0000 0.09440  0.14300  0.90860  Biso   1.000  H  0.112984
  H17      1.0000 0.96370  0.37890  0.24720  Biso   1.000  H  0.119684
  H18      1.0000 0.03630  0.87890  0.25280  Biso   1.000  H  0.119684
  H19      1.0000 0.03630  0.62110  0.75280  Biso   1.000  H  0.119684
  H20      1.0000 0.96370  0.12110  0.74720  Biso   1.000  H  0.119684
  H21      1.0000 0.02240  0.13460  0.30450  Biso   1.000  H  0.157242
  H22      1.0000 0.97760  0.63460  0.19550  Biso   1.000  H  0.157242
  H23      1.0000 0.97760  0.86540  0.69550  Biso   1.000  H  0.157242
  H24      1.0000 0.02240  0.36540  0.80450  Biso   1.000  H  0.157242
  H25      1.0000 0.96970  0.17880  0.32610  Biso   1.000  H  0.169298
  H26      1.0000 0.03030  0.67880  0.17390  Biso   1.000  H  0.169298
  H27      1.0000 0.03030  0.82120  0.67390  Biso   1.000  H  0.169298
  H28      1.0000 0.96970  0.32120  0.82610  Biso   1.000  H  0.169298
  H29      1.0000 0.05530  0.19350  0.33330  Biso   1.000  H  0.160356
  H30      1.0000 0.94470  0.69350  0.16670  Biso   1.000  H  0.160356
  H31      1.0000 0.94470  0.80650  0.66670  Biso   1.000  H  0.160356
  H32      1.0000 0.05530  0.30650  0.83330  Biso   1.000  H  0.160356
  H33      1.0000 0.95140  0.39660  0.17730  Biso   1.000  H  0.151623
  H34      1.0000 0.04860  0.89660  0.32270  Biso   1.000  H  0.151623
  H35      1.0000 0.04860  0.60340  0.82270  Biso   1.000  H  0.151623
  H36      1.0000 0.95140  0.10340  0.67730  Biso   1.000  H  0.151623
  H37      1.0000 0.00340  0.35220  0.15540  Biso   1.000  H  0.173512
  H38      1.0000 0.99660  0.85220  0.34460  Biso   1.000  H  0.173512
  H39      1.0000 0.99660  0.64780  0.84460  Biso   1.000  H  0.173512
  H40      1.0000 0.00340  0.14780  0.65540  Biso   1.000  H  0.173512
  H41      1.0000 0.91810  0.33650  0.14980  Biso   1.000  H  0.159901
  H42      1.0000 0.08190  0.83650  0.35020  Biso   1.000  H  0.159901
  H43      1.0000 0.08190  0.66350  0.85020  Biso   1.000  H  0.159901
  H44      1.0000 0.91810  0.16350  0.64980  Biso   1.000  H  0.159901
  H45      1.0000 0.01300  0.15550  0.23480  Biso   1.000  H  0.119032
  H46      1.0000 0.98700  0.65550  0.26520  Biso   1.000  H  0.119032
  H47      1.0000 0.98700  0.84450  0.76520  Biso   1.000  H  0.119032
  H48      1.0000 0.01300  0.34450  0.73480  Biso   1.000  H  0.119032
  H49      1.0000 0.88460  0.21600  0.13790  Biso   1.000  H  0.101249
  H50      1.0000 0.11540  0.71600  0.36210  Biso   1.000  H  0.101249
  H51      1.0000 0.11540  0.78400  0.86210  Biso   1.000  H  0.101249
  H52      1.0000 0.88460  0.28400  0.63790  Biso   1.000  H  0.101249
  H53      1.0000 0.88800  0.15580  0.07830  Biso   1.000  H  0.110753
  H54      1.0000 0.11200  0.65580  0.42170  Biso   1.000  H  0.110753
  H55      1.0000 0.11200  0.84420  0.92170  Biso   1.000  H  0.110753
  H56      1.0000 0.88800  0.34420  0.57830  Biso   1.000  H  0.110753
  H57      1.0000 0.10590  0.12610  0.11500  Biso   1.000  H  0.114126
  H58      1.0000 0.89410  0.62610  0.38500  Biso   1.000  H  0.114126
  H59      1.0000 0.89410  0.87390  0.88500  Biso   1.000  H  0.114126
  H60      1.0000 0.10590  0.37390  0.61500  Biso   1.000  H  0.114126
  H61      1.0000 0.10210  0.18520  0.17420  Biso   1.000  H  0.112652
  H62      1.0000 0.89790  0.68520  0.32580  Biso   1.000  H  0.112652
  H63      1.0000 0.89790  0.81480  0.82580  Biso   1.000  H  0.112652
  H64      1.0000 0.10210  0.31480  0.67420  Biso   1.000  H  0.112652
  H65      1.0000 0.18340  0.47860  0.44900  Biso   1.000  H  0.102211
  H66      1.0000 0.81660  0.97860  0.05100  Biso   1.000  H  0.102211
  H67      1.0000 0.81660  0.52140  0.55100  Biso   1.000  H  0.102211
  H68      1.0000 0.18340  0.02140  0.94900  Biso   1.000  H  0.102211
  H69      1.0000 0.30540  0.48390  0.44490  Biso   1.000  H  0.123363
  H70      1.0000 0.69460  0.98390  0.05510  Biso   1.000  H  0.123363
  H71      1.0000 0.69460  0.51610  0.55510  Biso   1.000  H  0.123363
  H72      1.0000 0.30540  0.01610  0.94490  Biso   1.000  H  0.123363
  H73      1.0000 0.35120  0.51760  0.56490  Biso   1.000  H  0.127699
  H74      1.0000 0.64880  0.01760  0.93510  Biso   1.000  H  0.127699
  H75      1.0000 0.64880  0.48240  0.43510  Biso   1.000  H  0.127699
  H76      1.0000 0.35120  0.98240  0.06490  Biso   1.000  H  0.127699
  H77      1.0000 0.22800  0.50990  0.56710  Biso   1.000  H  0.103614
  H78      1.0000 0.77200  0.00990  0.93290  Biso   1.000  H  0.103614
  H79      1.0000 0.77200  0.49010  0.43290  Biso   1.000  H  0.103614
  H80      1.0000 0.22800  0.99010  0.06710  Biso   1.000  H  0.103614
  H81      1.0000 0.41690  0.45710  0.44840  Biso   1.000  H  0.104834
  H82      1.0000 0.58310  0.95710  0.05160  Biso   1.000  H  0.104834
  H83      1.0000 0.58310  0.54290  0.55160  Biso   1.000  H  0.104834
  H84      1.0000 0.41690  0.04290  0.94840  Biso   1.000  H  0.104834
  H85      1.0000 0.46230  0.52840  0.55870  Biso   1.000  H  0.107522
  H86      1.0000 0.53770  0.02840  0.94130  Biso   1.000  H  0.107522
  H87      1.0000 0.53770  0.47160  0.44130  Biso   1.000  H  0.107522
  H88      1.0000 0.46230  0.97160  0.05870  Biso   1.000  H  0.107522
  H89      1.0000 0.13860  0.35200  0.19070  Biso   1.000  H  0.111416
  H90      1.0000 0.86140  0.85200  0.30930  Biso   1.000  H  0.111416
  H91      1.0000 0.86140  0.64800  0.80930  Biso   1.000  H  0.111416
  H92      1.0000 0.13860  0.14800  0.69070  Biso   1.000  H  0.111416
  H93      1.0000 0.13350  0.29440  0.24970  Biso   1.000  H  0.101507
  H94      1.0000 0.86650  0.79440  0.25030  Biso   1.000  H  0.101507
  H95      1.0000 0.86650  0.70560  0.75030  Biso   1.000  H  0.101507
  H96      1.0000 0.13350  0.20560  0.74970  Biso   1.000  H  0.101507
  H97      1.0000 0.35370  0.31900  0.28490  Biso   1.000  H  0.109833
  H98      1.0000 0.64630  0.81900  0.21510  Biso   1.000  H  0.109833
  H99      1.0000 0.64630  0.68100  0.71510  Biso   1.000  H  0.109833
  H100     1.0000 0.35370  0.18100  0.78490  Biso   1.000  H  0.109833
  H101     1.0000 0.35670  0.37630  0.22540  Biso   1.000  H  0.109668
  H102     1.0000 0.64330  0.87630  0.27460  Biso   1.000  H  0.109668
  H103     1.0000 0.64330  0.62370  0.77460  Biso   1.000  H  0.109668
  H104     1.0000 0.35670  0.12370  0.72540  Biso   1.000  H  0.109668
  H105     1.0000 0.27120  0.35050  0.34620  Biso   1.000  H  0.121478
  H106     1.0000 0.72880  0.85050  0.15380  Biso   1.000  H  0.121478
  H107     1.0000 0.72880  0.64950  0.65380  Biso   1.000  H  0.121478
  H108     1.0000 0.27120  0.14950  0.84620  Biso   1.000  H  0.121478
  H109     1.0000 0.18450  0.11320  0.29140  Biso   1.000  H  0.156824
  H110     1.0000 0.81550  0.61320  0.20860  Biso   1.000  H  0.156824
  H111     1.0000 0.81550  0.88680  0.70860  Biso   1.000  H  0.156824
  H112     1.0000 0.18450  0.38680  0.79140  Biso   1.000  H  0.156824
  H113     1.0000 0.24230  0.15000  0.26930  Biso   1.000  H  0.167251
  H114     1.0000 0.75770  0.65000  0.23070  Biso   1.000  H  0.167251
  H115     1.0000 0.75770  0.85000  0.73070  Biso   1.000  H  0.167251
  H116     1.0000 0.24230  0.35000  0.76930  Biso   1.000  H  0.167251
  H117     1.0000 0.15950  0.17450  0.26280  Biso   1.000  H  0.162932
  H118     1.0000 0.84050  0.67450  0.23720  Biso   1.000  H  0.162932
  H119     1.0000 0.84050  0.82550  0.73720  Biso   1.000  H  0.162932
  H120     1.0000 0.15950  0.32550  0.76280  Biso   1.000  H  0.162932
  H121     1.0000 0.29350  0.82110  0.96110  Biso   1.000  H  0.162325
  H122     1.0000 0.70650  0.32110  0.53890  Biso   1.000  H  0.162325
  H123     1.0000 0.70650  0.17890  0.03890  Biso   1.000  H  0.162325
  H124     1.0000 0.29350  0.67890  0.46110  Biso   1.000  H  0.162325
  H125     1.0000 0.25620  0.88060  0.93430  Biso   1.000  H  0.164166
  H126     1.0000 0.74380  0.38060  0.56570  Biso   1.000  H  0.164166
  H127     1.0000 0.74380  0.11940  0.06570  Biso   1.000  H  0.164166
  H128     1.0000 0.25620  0.61940  0.43430  Biso   1.000  H  0.164166
  H129     1.0000 0.34180  0.86770  0.93820  Biso   1.000  H  0.159248
  H130     1.0000 0.65820  0.36770  0.56180  Biso   1.000  H  0.159248
  H131     1.0000 0.65820  0.13230  0.06180  Biso   1.000  H  0.159248
  H132     1.0000 0.34180  0.63230  0.43820  Biso   1.000  H  0.159248
  H133     1.0000 0.23330  0.65120  0.87110  Biso   1.000  H  0.110122
  H134     1.0000 0.76670  0.15120  0.62890  Biso   1.000  H  0.110122
  H135     1.0000 0.76670  0.34880  0.12890  Biso   1.000  H  0.110122
  H136     1.0000 0.23330  0.84880  0.37110  Biso   1.000  H  0.110122
  H137     1.0000 0.36950  0.69200  0.96150  Biso   1.000  H  0.114381
  H138     1.0000 0.63050  0.19200  0.53850  Biso   1.000  H  0.114381
  H139     1.0000 0.63050  0.30800  0.03850  Biso   1.000  H  0.114381
  H140     1.0000 0.36950  0.80800  0.46150  Biso   1.000  H  0.114381
  H141     1.0000 0.36480  0.63630  0.02260  Biso   1.000  H  0.110121
  H142     1.0000 0.63520  0.13630  0.47740  Biso   1.000  H  0.110121
  H143     1.0000 0.63520  0.36370  0.97740  Biso   1.000  H  0.110121
  H144     1.0000 0.36480  0.86370  0.52260  Biso   1.000  H  0.110121
  H145     1.0000 0.14290  0.64550  0.99910  Biso   1.000  H  0.117768
  H146     1.0000 0.85710  0.14550  0.50090  Biso   1.000  H  0.117768
  H147     1.0000 0.85710  0.35450  0.00090  Biso   1.000  H  0.117768
  H148     1.0000 0.14290  0.85450  0.49910  Biso   1.000  H  0.117768
  H149     1.0000 0.14750  0.70030  0.93810  Biso   1.000  H  0.115991
  H150     1.0000 0.85250  0.20030  0.56190  Biso   1.000  H  0.115991
  H151     1.0000 0.85250  0.29970  0.06190  Biso   1.000  H  0.115991
  H152     1.0000 0.14750  0.79970  0.43810  Biso   1.000  H  0.115991
  H153     1.0000 0.12360  0.10960  0.48610  Biso   1.000  H  0.113032
  H154     1.0000 0.87640  0.60960  0.01390  Biso   1.000  H  0.113032
  H155     1.0000 0.87640  0.89040  0.51390  Biso   1.000  H  0.113032
  H156     1.0000 0.12360  0.39040  0.98610  Biso   1.000  H  0.113032
  H157     1.0000 0.12440  0.16290  0.42340  Biso   1.000  H  0.116787
  H158     1.0000 0.87560  0.66290  0.07660  Biso   1.000  H  0.116787
  H159     1.0000 0.87560  0.83710  0.57660  Biso   1.000  H  0.116787
  H160     1.0000 0.12440  0.33710  0.92340  Biso   1.000  H  0.116787
  H161     1.0000 0.34270  0.19400  0.45510  Biso   1.000  H  0.114802
  H162     1.0000 0.65730  0.69400  0.04490  Biso   1.000  H  0.114802
  H163     1.0000 0.65730  0.80600  0.54490  Biso   1.000  H  0.114802
  H164     1.0000 0.34270  0.30600  0.95510  Biso   1.000  H  0.114802
  H165     1.0000 0.34290  0.13960  0.51690  Biso   1.000  H  0.113396
  H166     1.0000 0.65710  0.63960  0.98310  Biso   1.000  H  0.113396
  H167     1.0000 0.65710  0.86040  0.48310  Biso   1.000  H  0.113396
  H168     1.0000 0.34290  0.36040  0.01690  Biso   1.000  H  0.113396
  H169     1.0000 0.20100  0.13330  0.36020  Biso   1.000  H  0.108008
  H170     1.0000 0.79900  0.63330  0.13980  Biso   1.000  H  0.108008
  H171     1.0000 0.79900  0.86670  0.63980  Biso   1.000  H  0.108008
  H172     1.0000 0.20100  0.36670  0.86020  Biso   1.000  H  0.108008
  H173     1.0000 0.26900  0.30400  0.44980  Biso   1.000  H  0.163984
  H174     1.0000 0.73100  0.80400  0.05020  Biso   1.000  H  0.163984
  H175     1.0000 0.73100  0.69600  0.55020  Biso   1.000  H  0.163984
  H176     1.0000 0.26900  0.19600  0.94980  Biso   1.000  H  0.163984
  H177     1.0000 0.32330  0.34480  0.42740  Biso   1.000  H  0.157506
  H178     1.0000 0.67670  0.84480  0.07260  Biso   1.000  H  0.157506
  H179     1.0000 0.67670  0.65520  0.57260  Biso   1.000  H  0.157506
  H180     1.0000 0.32330  0.15520  0.92740  Biso   1.000  H  0.157506
  H181     1.0000 0.23930  0.36500  0.42200  Biso   1.000  H  0.163366
  H182     1.0000 0.76070  0.86500  0.07800  Biso   1.000  H  0.163366
  H183     1.0000 0.76070  0.63500  0.57800  Biso   1.000  H  0.163366
  H184     1.0000 0.23930  0.13500  0.92200  Biso   1.000  H  0.163366
  H185     1.0000 0.23270  0.69830  0.76740  Biso   1.000  H  0.162781
  H186     1.0000 0.76730  0.19830  0.73260  Biso   1.000  H  0.162781
  H187     1.0000 0.76730  0.30170  0.23260  Biso   1.000  H  0.162781
  H188     1.0000 0.23270  0.80170  0.26740  Biso   1.000  H  0.162781
  H189     1.0000 0.26530  0.63820  0.79520  Biso   1.000  H  0.158324
  H190     1.0000 0.73470  0.13820  0.70480  Biso   1.000  H  0.158324
  H191     1.0000 0.73470  0.36180  0.20480  Biso   1.000  H  0.158324
  H192     1.0000 0.26530  0.86180  0.29520  Biso   1.000  H  0.158324
  H193     1.0000 0.18040  0.65540  0.78990  Biso   1.000  H  0.162195
  H194     1.0000 0.81960  0.15540  0.71010  Biso   1.000  H  0.162195
  H195     1.0000 0.81960  0.34460  0.21010  Biso   1.000  H  0.162195
  H196     1.0000 0.18040  0.84460  0.28990  Biso   1.000  H  0.162195
  H197     1.0000 0.29070  0.87120  0.85770  Biso   1.000  H  0.120462
  H198     1.0000 0.70930  0.37120  0.64230  Biso   1.000  H  0.120462
  H199     1.0000 0.70930  0.12880  0.14230  Biso   1.000  H  0.120462
  H200     1.0000 0.29070  0.62880  0.35770  Biso   1.000  H  0.120462
  H201     1.0000 0.15410  0.80550  0.76120  Biso   1.000  H  0.105338
  H202     1.0000 0.84590  0.30550  0.73880  Biso   1.000  H  0.105338
  H203     1.0000 0.84590  0.19450  0.23880  Biso   1.000  H  0.105338
  H204     1.0000 0.15410  0.69450  0.26120  Biso   1.000  H  0.105338
  H205     1.0000 0.15150  0.86130  0.70090  Biso   1.000  H  0.107036
  H206     1.0000 0.84850  0.36130  0.79910  Biso   1.000  H  0.107036
  H207     1.0000 0.84850  0.13870  0.29910  Biso   1.000  H  0.107036
  H208     1.0000 0.15150  0.63870  0.20090  Biso   1.000  H  0.107036
  H209     1.0000 0.37020  0.88930  0.72890  Biso   1.000  H  0.113723
  H210     1.0000 0.62980  0.38930  0.77110  Biso   1.000  H  0.113723
  H211     1.0000 0.62980  0.11070  0.27110  Biso   1.000  H  0.113723
  H212     1.0000 0.37020  0.61070  0.22890  Biso   1.000  H  0.113723
  H213     1.0000 0.37040  0.84300  0.79260  Biso   1.000  H  0.108944
  H214     1.0000 0.62960  0.34300  0.70740  Biso   1.000  H  0.108944
  H215     1.0000 0.62960  0.15700  0.20740  Biso   1.000  H  0.108944
  H216     1.0000 0.37040  0.65700  0.29260  Biso   1.000  H  0.108944
  H217     1.0000 0.06260  0.54480  0.15380  Biso   1.000  H  0.103257
  H218     1.0000 0.93740  0.04480  0.34620  Biso   1.000  H  0.103257
  H219     1.0000 0.93740  0.45520  0.84620  Biso   1.000  H  0.103257
  H220     1.0000 0.06260  0.95520  0.65380  Biso   1.000  H  0.103257
  H221     1.0000 0.93960  0.53740  0.15820  Biso   1.000  H  0.120597
  H222     1.0000 0.06040  0.03740  0.34180  Biso   1.000  H  0.120597
  H223     1.0000 0.06040  0.46260  0.84180  Biso   1.000  H  0.120597
  H224     1.0000 0.93960  0.96260  0.65820  Biso   1.000  H  0.120597
  H225     1.0000 0.90090  0.45600  0.04620  Biso   1.000  H  0.129866
  H226     1.0000 0.09910  0.95600  0.45380  Biso   1.000  H  0.129866
  H227     1.0000 0.09910  0.54400  0.95380  Biso   1.000  H  0.129866
  H228     1.0000 0.90090  0.04400  0.54620  Biso   1.000  H  0.129866
  H229     1.0000 0.02470  0.46290  0.04480  Biso   1.000  H  0.103837
  H230     1.0000 0.97530  0.96290  0.45520  Biso   1.000  H  0.103837
  H231     1.0000 0.97530  0.53710  0.95520  Biso   1.000  H  0.103837
  H232     1.0000 0.02470  0.03710  0.54480  Biso   1.000  H  0.103837
  H233     1.0000 0.78550  0.48860  0.04450  Biso   1.000  H  0.117279
  H234     1.0000 0.21450  0.98860  0.45550  Biso   1.000  H  0.117279
  H235     1.0000 0.21450  0.51140  0.95550  Biso   1.000  H  0.117279
  H236     1.0000 0.78550  0.01140  0.54450  Biso   1.000  H  0.117279
  H237     1.0000 0.83690  0.49330  0.16790  Biso   1.000  H  0.113400
  H238     1.0000 0.16310  0.99330  0.33210  Biso   1.000  H  0.113400
  H239     1.0000 0.16310  0.50670  0.83210  Biso   1.000  H  0.113400
  H240     1.0000 0.83690  0.00670  0.66790  Biso   1.000  H  0.113400
  H241     1.0000 0.66070  0.48680  0.04880  Biso   1.000  H  0.109654
  H242     1.0000 0.33930  0.98680  0.45120  Biso   1.000  H  0.109654
  H243     1.0000 0.33930  0.51320  0.95120  Biso   1.000  H  0.109654
  H244     1.0000 0.66070  0.01320  0.54880  Biso   1.000  H  0.109654
  H245     1.0000 0.71290  0.48940  0.17150  Biso   1.000  H  0.111263
  H246     1.0000 0.28710  0.98940  0.32850  Biso   1.000  H  0.111263
  H247     1.0000 0.28710  0.51060  0.82850  Biso   1.000  H  0.111263
  H248     1.0000 0.71290  0.01060  0.67150  Biso   1.000  H  0.111263
  H249     1.0000 0.59830  0.47960  0.17320  Biso   1.000  H  0.120716
  H250     1.0000 0.40170  0.97960  0.32680  Biso   1.000  H  0.120716
  H251     1.0000 0.40170  0.52040  0.82680  Biso   1.000  H  0.120716
  H252     1.0000 0.59830  0.02040  0.67320  Biso   1.000  H  0.120716
  H253     1.0000 0.47660  0.48380  0.17480  Biso   1.000  H  0.099089
  H254     1.0000 0.52340  0.98380  0.32520  Biso   1.000  H  0.099089
  H255     1.0000 0.52340  0.51620  0.82520  Biso   1.000  H  0.099089
  H256     1.0000 0.47660  0.01620  0.67480  Biso   1.000  H  0.099089
  H257     1.0000 0.43000  0.49360  0.05690  Biso   1.000  H  0.095756
  H258     1.0000 0.57000  0.99360  0.44310  Biso   1.000  H  0.095756
  H259     1.0000 0.57000  0.50640  0.94310  Biso   1.000  H  0.095756
  H260     1.0000 0.43000  0.00640  0.55690  Biso   1.000  H  0.095756
  H261     1.0000 0.55370  0.50510  0.05330  Biso   1.000  H  0.124669
  H262     1.0000 0.44630  0.00510  0.44670  Biso   1.000  H  0.124669
  H263     1.0000 0.44630  0.49490  0.94670  Biso   1.000  H  0.124669
  H264     1.0000 0.55370  0.99490  0.55330  Biso   1.000  H  0.124669
  N1       1.0000 0.19223  0.49427  0.50854  Biso   1.000  N  -0.186170
  N2       1.0000 0.80777  0.99427  0.99146  Biso   1.000  N  -0.186170
  N3       1.0000 0.80777  0.50573  0.49146  Biso   1.000  N  -0.186170
  N4       1.0000 0.19223  0.00573  0.00854  Biso   1.000  N  -0.186170
  N5       1.0000 0.44072  0.48981  0.11641  Biso   1.000  N  -0.181916
  N6       1.0000 0.55928  0.98981  0.38359  Biso   1.000  N  -0.181916
  N7       1.0000 0.55928  0.51019  0.88359  Biso   1.000  N  -0.181916
  N8       1.0000 0.44072  0.01019  0.61641  Biso   1.000  N  -0.181916
  N9       1.0000 0.05634  0.50424  0.09899  Biso   1.000  N  -0.192293
  N10      1.0000 0.94366  0.00424  0.40101  Biso   1.000  N  -0.192293
  N11      1.0000 0.94366  0.49576  0.90101  Biso   1.000  N  -0.192293
  N12      1.0000 0.05634  0.99576  0.59899  Biso   1.000  N  -0.192293
  O1       1.0000 0.92662  0.44122  0.44485  Biso   1.000  O  -0.560041
  O2       1.0000 0.07338  0.94122  0.05515  Biso   1.000  O  -0.560041
  O3       1.0000 0.07338  0.55878  0.55515  Biso   1.000  O  -0.560041
  O4       1.0000 0.92662  0.05878  0.94485  Biso   1.000  O  -0.560041
  O5       1.0000 0.05076  0.43613  0.45832  Biso   1.000  O  -0.568922
  O6       1.0000 0.94924  0.93613  0.04168  Biso   1.000  O  -0.568922
  O7       1.0000 0.94924  0.56387  0.54168  Biso   1.000  O  -0.568922
  O8       1.0000 0.05076  0.06387  0.95832  Biso   1.000  O  -0.568922
  O9       1.0000 0.06301  0.07628  0.04646  Biso   1.000  O  -0.564520
  O10      1.0000 0.93699  0.57628  0.45354  Biso   1.000  O  -0.564520
  O11      1.0000 0.93699  0.92372  0.95354  Biso   1.000  O  -0.564520
  O12      1.0000 0.06301  0.42372  0.54646  Biso   1.000  O  -0.564520
  O13      1.0000 0.93961  0.07440  0.03289  Biso   1.000  O  -0.573531
  O14      1.0000 0.06039  0.57440  0.46711  Biso   1.000  O  -0.573531
  O15      1.0000 0.06039  0.92560  0.96711  Biso   1.000  O  -0.573531
  O16      1.0000 0.93961  0.42560  0.53289  Biso   1.000  O  -0.573531
  O17      1.0000 0.19105  0.42812  0.14246  Biso   1.000  O  -0.566118
  O18      1.0000 0.80895  0.92812  0.35754  Biso   1.000  O  -0.566118
  O19      1.0000 0.80895  0.57188  0.85754  Biso   1.000  O  -0.566118
  O20      1.0000 0.19105  0.07188  0.64246  Biso   1.000  O  -0.566118
  O21      1.0000 0.31469  0.42652  0.15708  Biso   1.000  O  -0.563834
  O22      1.0000 0.68531  0.92652  0.34292  Biso   1.000  O  -0.563834
  O23      1.0000 0.68531  0.57348  0.84292  Biso   1.000  O  -0.563834
  O24      1.0000 0.31469  0.07348  0.65708  Biso   1.000  O  -0.563834
  O25      1.0000 0.18755  0.57787  0.06136  Biso   1.000  O  -0.554062
  O26      1.0000 0.81245  0.07787  0.43864  Biso   1.000  O  -0.554062
  O27      1.0000 0.81245  0.42213  0.93864  Biso   1.000  O  -0.554062
  O28      1.0000 0.18755  0.92213  0.56136  Biso   1.000  O  -0.554062
  O29      1.0000 0.31062  0.56980  0.07293  Biso   1.000  O  -0.574808
  O30      1.0000 0.68938  0.06980  0.42707  Biso   1.000  O  -0.574808
  O31      1.0000 0.68938  0.43020  0.92707  Biso   1.000  O  -0.574808
  O32      1.0000 0.31062  0.93020  0.57293  Biso   1.000  O  -0.574808
  O33      1.0000 0.17298  0.05908  0.55368  Biso   1.000  O  -0.565456
  O34      1.0000 0.82702  0.55908  0.94632  Biso   1.000  O  -0.565456
  O35      1.0000 0.82702  0.94092  0.44632  Biso   1.000  O  -0.565456
  O36      1.0000 0.17298  0.44092  0.05368  Biso   1.000  O  -0.565456
  O37      1.0000 0.29672  0.06902  0.56856  Biso   1.000  O  -0.556794
  O38      1.0000 0.70328  0.56902  0.93144  Biso   1.000  O  -0.556794
  O39      1.0000 0.70328  0.93098  0.43144  Biso   1.000  O  -0.556794
  O40      1.0000 0.29672  0.43098  0.06856  Biso   1.000  O  -0.556794
  O41      1.0000 0.19586  0.93257  0.64864  Biso   1.000  O  -0.567061
  O42      1.0000 0.80414  0.43257  0.85136  Biso   1.000  O  -0.567061
  O43      1.0000 0.80414  0.06743  0.35136  Biso   1.000  O  -0.567061
  O44      1.0000 0.19586  0.56743  0.14864  Biso   1.000  O  -0.567061
  O45      1.0000 0.31948  0.93692  0.66028  Biso   1.000  O  -0.560183
  O46      1.0000 0.68052  0.43692  0.83972  Biso   1.000  O  -0.560183
  O47      1.0000 0.68052  0.06308  0.33972  Biso   1.000  O  -0.560183
  O48      1.0000 0.31948  0.56308  0.16028  Biso   1.000  O  -0.560183
  Zn1      1.0000 0.08174  0.49708  0.50773  Biso   1.000  Zn  0.850282
  Zn2      1.0000 0.91826  0.99708  0.99227  Biso   1.000  Zn  0.850282
  Zn3      1.0000 0.91826  0.50292  0.49227  Biso   1.000  Zn  0.850282
  Zn4      1.0000 0.08174  0.00292  0.00773  Biso   1.000  Zn  0.850282
  Zn5      1.0000 0.16738  0.50400  0.10024  Biso   1.000  Zn  0.842511
  Zn6      1.0000 0.83262  0.00400  0.39976  Biso   1.000  Zn  0.842511
  Zn7      1.0000 0.83262  0.49600  0.89976  Biso   1.000  Zn  0.842511
  Zn8      1.0000 0.16738  0.99600  0.60024  Biso   1.000  Zn  0.842511
  Zn9      1.0000 0.33022  0.49603  0.11556  Biso   1.000  Zn  0.848470
  Zn10     1.0000 0.66978  0.99603  0.38444  Biso   1.000  Zn  0.848470
  Zn11     1.0000 0.66978  0.50397  0.88444  Biso   1.000  Zn  0.848470
  Zn12     1.0000 0.33022  0.00397  0.61556  Biso   1.000  Zn  0.848470
