
#######################################################################
#
#                 Cambridge Crystallographic Data Centre
#                                CCDC 
#
#######################################################################
#
# If this CIF has been generated from an entry in the Cambridge 
# Structural Database, then it will include bibliographic, chemical, 
# crystal, experimental, refinement or atomic coordinate data resulting 
# from the CCDC's data processing and validation procedures.
#
#######################################################################

data_BIRSEC
_chemical_formula_moiety         '(C48 H36 Co7 N4 O26)n'
_chemical_name_systematic        
'catena-[bis(\m~5~-isophthalato)-bis(\m~4~-isonicotinato)-(\m~4~-isophthalato)-bis(\m~3~-isonicotinato)-tetrakis(\m~3~-hydroxo)-diaqua-hepta-cobalt unknown solvate]'
_symmetry_cell_setting           orthorhombic
_symmetry_space_group_name_H-M   'P b a 2'
_symmetry_Int_Tables_number      32
_space_group_name_Hall           'P 2 -2ab'
loop_
_symmetry_equiv_pos_site_id
_symmetry_equiv_pos_as_xyz
1 x,y,z
2 -x,-y,z
3 1/2+x,1/2-y,z
4 1/2-x,1/2+y,z
_cell_length_a                   13.848(6)
_cell_length_b                   19.978(9)
_cell_length_c                   13.111(6)
_cell_angle_alpha                90
_cell_angle_beta                 90
_cell_angle_gamma                90
_cell_volume                     3627.23
_cell_formula_units_Z            2
loop_
_atom_site_label
_atom_site_type_symbol
_atom_site_fract_x
_atom_site_fract_y
_atom_site_fract_z
Co1 Co 0.5000 1.0000 1.33695(6)
Co2 Co 0.70200(4) 1.09747(3) 1.41293(5)
Co3 Co 0.60368(4) 1.02522(3) 1.59468(4)
Co4 Co 0.52526(4) 0.88500(3) 1.74073(5)
O1 O 0.4952(2) 0.83746(17) 1.8790(3)
O2 O 0.61177(18) 1.01828(13) 1.4377(2)
H1 H 0.6542 0.9796 1.4274
O3 O 0.53694(17) 0.93444(13) 1.6062(2)
H2 H 0.5527 0.9046 1.5493
O4 O 0.59593(19) 1.04334(14) 1.7527(2)
O5 O 0.6132(2) 0.94579(15) 1.8312(2)
O6 O 0.7310(2) 1.06970(17) 2.2654(2)
O7 O 0.5954(2) 1.01903(18) 2.2150(2)
C1 C 0.6245(3) 1.0077(2) 1.8249(4)
C2 C 0.6735(3) 1.0481(2) 2.2002(3)
C3 C 0.6746(3) 1.0438(2) 1.9110(4)
C4 C 0.7371(4) 1.0959(3) 1.8896(4)
H3 H 0.7470 1.1089 1.8223
C5 C 0.7840(5) 1.1284(4) 1.9656(5)
H4 H 0.8282 1.1619 1.9499
C6 C 0.7666(4) 1.1119(3) 2.0663(4)
H5 H 0.7987 1.1344 2.1183
C7 C 0.7011(3) 1.0618(2) 2.0895(4)
C8 C 0.6569(3) 1.0268(2) 2.0113(3)
H6 H 0.6151 0.9917 2.0263
O8 O 0.8172(2) 1.03543(15) 1.4719(2)
O9 O 0.7458(2) 0.99131(14) 1.6090(3)
C9 C 0.8177(3) 1.0096(2) 1.5604(4)
C10 C 1.0000 1.0000 1.7708(7)
H7 H 1.0000 1.0000 1.8418
C11 C 0.9138(4) 0.9997(4) 1.7177(4)
H8 H 0.8557 0.9971 1.7531
C12 C 0.9134(3) 1.0032(2) 1.6130(4)
C13 C 1.0000 1.0000 1.5601(5)
H9 H 1.0000 1.0000 1.4891
N1 N 0.8669(3) 1.31464(18) 1.7026(3)
O10 O 0.6684(2) 1.12113(14) 1.5744(2)
O11 O 0.5706(2) 1.18209(15) 1.6749(3)
C14 C 0.6479(3) 1.1725(2) 1.6282(3)
C15 C 0.7756(3) 1.3341(2) 1.6853(4)
H10 H 0.7607 1.3793 1.6910
C16 C 0.7032(3) 1.2903(2) 1.6596(4)
H11 H 0.6403 1.3055 1.6512
C17 C 0.7250(3) 1.2236(2) 1.6463(3)
C18 C 0.8198(3) 1.2036(2) 1.6628(4)
H12 H 0.8372 1.1590 1.6547
C19 C 0.8876(3) 1.2501(2) 1.6912(4)
H13 H 0.9506 1.2358 1.7029
N2 N 0.6979(2) 0.67834(16) 1.3999(3)
O12 O 0.5441(2) 0.89942(14) 1.3498(3)
O13 O 0.4139(2) 0.83590(14) 1.3782(3)
C20 C 0.5013(3) 0.8454(2) 1.3687(3)
C21 C 0.7270(3) 0.7403(2) 1.3875(5)
H14 H 0.7931 0.7482 1.3847
C22 C 0.6669(3) 0.7939(2) 1.3785(4)
H15 H 0.6928 0.8366 1.3710
C23 C 0.5699(3) 0.7860(2) 1.3804(3)
C24 C 0.5375(3) 0.7222(2) 1.3948(5)
H16 H 0.4716 0.7135 1.3983
C25 C 0.6030(3) 0.6705(2) 1.4043(5)
H17 H 0.5791 0.6275 1.4143
O8A O 1.1828(2) 0.96457(15) 1.4719(2)
O9A O 1.2542(2) 1.00869(14) 1.6090(3)
C9A C 1.1823(3) 0.9904(2) 1.5604(4)
C11A C 1.0862(4) 1.0003(4) 1.7177(4)
H8A H 1.1443 1.0029 1.7531
C12A C 1.0866(3) 0.9968(2) 1.6130(4)
Co2A Co 0.29800(4) 0.90253(3) 1.41293(5)
Co3A Co 0.39632(4) 0.97478(3) 1.59468(4)
Co4A Co 0.47474(4) 1.11500(3) 1.74073(5)
O1A O 0.5048(2) 1.16254(17) 1.8790(3)
O2A O 0.38823(18) 0.98172(13) 1.4377(2)
H1A H 0.3458 1.0204 1.4274
O3A O 0.46306(17) 1.06556(13) 1.6062(2)
H2A H 0.4473 1.0954 1.5493
O4A O 0.40407(19) 0.95666(14) 1.7527(2)
O5A O 0.3868(2) 1.05421(15) 1.8312(2)
O6A O 0.2690(2) 0.93030(17) 2.2654(2)
O7A O 0.4046(2) 0.98097(18) 2.2150(2)
C1A C 0.3755(3) 0.9923(2) 1.8249(4)
C2A C 0.3265(3) 0.9519(2) 2.2002(3)
C3A C 0.3254(3) 0.9562(2) 1.9110(4)
C4A C 0.2629(4) 0.9041(3) 1.8896(4)
H3A H 0.2530 0.8911 1.8223
C5A C 0.2160(5) 0.8716(4) 1.9656(5)
H4A H 0.1718 0.8381 1.9499
C6A C 0.2334(4) 0.8881(3) 2.0663(4)
H5A H 0.2013 0.8656 2.1183
C7A C 0.2989(3) 0.9382(2) 2.0895(4)
C8A C 0.3431(3) 0.9732(2) 2.0113(3)
H6A H 0.3849 1.0083 2.0263
N1A N 0.1331(3) 0.68536(18) 1.7026(3)
O10A O 0.3316(2) 0.87887(14) 1.5744(2)
O11A O 0.4294(2) 0.81791(15) 1.6749(3)
C14A C 0.3521(3) 0.8275(2) 1.6282(3)
C15A C 0.2244(3) 0.6659(2) 1.6853(4)
H10A H 0.2393 0.6207 1.6910
C16A C 0.2968(3) 0.7097(2) 1.6596(4)
H11A H 0.3597 0.6945 1.6512
C17A C 0.2750(3) 0.7764(2) 1.6463(3)
C18A C 0.1802(3) 0.7964(2) 1.6628(4)
H12A H 0.1628 0.8410 1.6547
C19A C 0.1124(3) 0.7499(2) 1.6912(4)
H13A H 0.0494 0.7642 1.7029
N2A N 0.3021(2) 1.32166(16) 1.3999(3)
O12A O 0.4559(2) 1.10058(14) 1.3498(3)
O13A O 0.5861(2) 1.16410(14) 1.3782(3)
C20A C 0.4987(3) 1.1546(2) 1.3687(3)
C21A C 0.2730(3) 1.2597(2) 1.3875(5)
H14A H 0.2069 1.2518 1.3847
C22A C 0.3331(3) 1.2061(2) 1.3785(4)
H15A H 0.3072 1.1634 1.3710
C23A C 0.4301(3) 1.2140(2) 1.3804(3)
C24A C 0.4625(3) 1.2778(2) 1.3948(5)
H16A H 0.5284 1.2865 1.3983
C25A C 0.3970(3) 1.3295(2) 1.4043(5)
H17A H 0.4209 1.3725 1.4143
Co1_2 Co 0.5000 1.0000 2.33695(6)
Co2_2 Co 0.70200(4) 1.09747(3) 2.41293(5)
Co2A_2 Co 0.29800(4) 0.90253(3) 2.41293(5)
Co2A_3 Co 1.29800(4) 0.90253(3) 1.41293(5)
Co2B Co 0.20200(4) 1.40253(3) 1.41293(5)
Co2C Co 0.79800(4) 0.59747(3) 1.41293(5)
Co3A_2 Co 1.39632(4) 0.97478(3) 1.59468(4)
Co4B Co 0.02526(4) 0.61500(3) 1.74073(5)
Co4C Co 0.97474(4) 1.38500(3) 1.74073(5)
O6_2 O 0.7310(2) 1.06970(17) 1.2654(2)
O6A_2 O 0.2690(2) 0.93030(17) 1.2654(2)
O7_2 O 0.5954(2) 1.01903(18) 1.2150(2)
O7A_2 O 0.4046(2) 0.98097(18) 1.2150(2)
O8A_2 O 0.1828(2) 0.96457(15) 1.4719(2)
O9A_2 O 0.2542(2) 1.00869(14) 1.6090(3)
N1B N 0.3669(3) 1.18536(18) 1.7026(3)
N1C N 0.6331(3) 0.81464(18) 1.7026(3)
N2B N 0.1979(2) 0.82166(16) 1.3999(3)
N2C N 0.8021(2) 1.17834(16) 1.3999(3)
loop_
_geom_bond_atom_site_label_1
_geom_bond_atom_site_label_2
_geom_bond_site_symmetry_1
_geom_bond_site_symmetry_2
Co1 O2 1_555 1_555
Co2 O2 1_555 1_555
Co3 O2 1_555 1_555
Co4 O1 1_555 1_555
O2 H1 1_555 1_555
O3 Co3 1_555 1_555
H2 O3 1_555 1_555
O4 Co3 1_555 1_555
O5 Co4 1_555 1_555
O6 C2 1_555 1_555
O7 C2 1_555 1_555
C1 O4 1_555 1_555
C2 C7 1_555 1_555
C3 C1 1_555 1_555
C4 C3 1_555 1_555
H3 C4 1_555 1_555
C5 C4 1_555 1_555
H4 C5 1_555 1_555
C6 C5 1_555 1_555
H5 C6 1_555 1_555
C7 C6 1_555 1_555
C8 C3 1_555 1_555
H6 C8 1_555 1_555
O8 Co2 1_555 1_555
O9 Co3 1_555 1_555
C9 O8 1_555 1_555
C10 H7 1_555 1_555
C11 C10 1_555 1_555
H8 C11 1_555 1_555
C12 C9 1_555 1_555
C13 C12 1_555 1_555
H9 C13 1_555 1_555
N1 C15 1_555 1_555
O10 Co2 1_555 1_555
O11 C14 1_555 1_555
C14 O10 1_555 1_555
C15 H10 1_555 1_555
C16 C15 1_555 1_555
H11 C16 1_555 1_555
C17 C14 1_555 1_555
C18 C17 1_555 1_555
H12 C18 1_555 1_555
C19 N1 1_555 1_555
H13 C19 1_555 1_555
N2 C21 1_555 1_555
O12 Co1 1_555 1_555
O13 C20 1_555 1_555
C20 O12 1_555 1_555
C21 H14 1_555 1_555
C22 C21 1_555 1_555
H15 C22 1_555 1_555
C23 C20 1_555 1_555
C24 C23 1_555 1_555
H16 C24 1_555 1_555
C25 N2 1_555 1_555
H17 C25 1_555 1_555
O8A C9A 1_555 1_555
O9A C9A 1_555 1_555
C9A C12A 1_555 1_555
C11A C10 1_555 1_555
H8A C11A 1_555 1_555
C12A C13 1_555 1_555
Co2A O13 1_555 1_555
Co3A O3 1_555 1_555
Co4A O4 1_555 1_555
O1A Co4A 1_555 1_555
O2A Co1 1_555 1_555
H1A O2A 1_555 1_555
O3A Co3 1_555 1_555
H2A O3A 1_555 1_555
O4A Co4 1_555 1_555
O5A Co4A 1_555 1_555
O6A C2A 1_555 1_555
O7A C2A 1_555 1_555
C1A O4A 1_555 1_555
C2A C7A 1_555 1_555
C3A C1A 1_555 1_555
C4A C3A 1_555 1_555
H3A C4A 1_555 1_555
C5A C4A 1_555 1_555
H4A C5A 1_555 1_555
C6A C5A 1_555 1_555
H5A C6A 1_555 1_555
C7A C6A 1_555 1_555
C8A C3A 1_555 1_555
H6A C8A 1_555 1_555
N1A C15A 1_555 1_555
O10A Co2A 1_555 1_555
O11A Co4 1_555 1_555
C14A O10A 1_555 1_555
C15A H10A 1_555 1_555
C16A C15A 1_555 1_555
H11A C16A 1_555 1_555
C17A C14A 1_555 1_555
C18A C17A 1_555 1_555
H12A C18A 1_555 1_555
C19A N1A 1_555 1_555
H13A C19A 1_555 1_555
N2A C21A 1_555 1_555
O12A Co1 1_555 1_555
O13A Co2 1_555 1_555
C20A O12A 1_555 1_555
C21A H14A 1_555 1_555
C22A C21A 1_555 1_555
H15A C22A 1_555 1_555
C23A C20A 1_555 1_555
C24A C23A 1_555 1_555
H16A C24A 1_555 1_555
C25A N2A 1_555 1_555
H17A C25A 1_555 1_555
Co1_2 O7 1_555 1_555
Co2_2 O6 1_555 1_555
Co2A_2 O6A 1_555 1_555
Co2A_3 O8A 1_555 1_555
Co2B N2A 1_555 1_555
Co2C N2 1_555 1_555
Co3A_2 O9A 1_555 1_555
Co4B N1A 1_555 1_555
Co4C N1 1_555 1_555
O6_2 Co2 1_555 1_555
O6A_2 Co2A 1_555 1_555
O7_2 Co1 1_555 1_555
O7A_2 Co1 1_555 1_555
O8A_2 Co2A 1_555 1_555
O9A_2 Co3A 1_555 1_555
N1B Co4A 1_555 1_555
N1C Co4 1_555 1_555
N2B Co2A 1_555 1_555
N2C Co2 1_555 1_555
Co3 O10 1_555 1_555
Co4 O3 1_555 1_555
O5 C1 1_555 1_555
C7 C8 1_555 1_555
O9 C9 1_555 1_555
C11 C12 1_555 1_555
O11 Co4A 1_555 1_555
C16 C17 1_555 1_555
C18 C19 1_555 1_555
C22 C23 1_555 1_555
C24 C25 1_555 1_555
C11A C12A 1_555 1_555
Co2A O2A 1_555 1_555
Co3A O2A 1_555 1_555
Co3A O3A 1_555 1_555
Co3A O4A 1_555 1_555
Co3A O10A 1_555 1_555
Co4A O3A 1_555 1_555
O5A C1A 1_555 1_555
O7A Co1_2 1_555 1_555
C7A C8A 1_555 1_555
O11A C14A 1_555 1_555
C16A C17A 1_555 1_555
C18A C19A 1_555 1_555
O13A C20A 1_555 1_555
C22A C23A 1_555 1_555
C24A C25A 1_555 1_555

#END
