
#######################################################################
#
#                 Cambridge Crystallographic Data Centre
#                                CCDC 
#
#######################################################################
#
# If this CIF has been generated from an entry in the Cambridge 
# Structural Database, then it will include bibliographic, chemical, 
# crystal, experimental, refinement or atomic coordinate data resulting 
# from the CCDC's data processing and validation procedures.
#
#######################################################################

data_LUSVOL
_chemical_formula_moiety         '(C33 H26 Cu2 N2 O8)n,3n(C1 O2)'
_chemical_name_systematic        
'catena-(tetrakis(\m~2~-benzoato)-(\m~2~-2-methylpyrazine)-di-copper(ii) carbon dioxide solvate)'
_symmetry_cell_setting           triclinic
_symmetry_space_group_name_H-M   'P -1'
_symmetry_Int_Tables_number      2
_space_group_name_Hall           '-P 1'
loop_
_symmetry_equiv_pos_site_id
_symmetry_equiv_pos_as_xyz
1 x,y,z
2 -x,-y,-z
_cell_length_a                   9.748(6)
_cell_length_b                   10.547(7)
_cell_length_c                   11.230(11)
_cell_angle_alpha                67.951(7)
_cell_angle_beta                 64.28
_cell_angle_gamma                62.47
_cell_volume                     900.057
_exptl_crystal_colour            blue
_exptl_crystal_description       plate
_cell_formula_units_Z            1
loop_
_atom_site_label
_atom_site_type_symbol
_atom_site_fract_x
_atom_site_fract_y
_atom_site_fract_z
C2 C 0.6601(18) 0.2566(17) 0.4302(17)
C3 C 0.7530(18) 0.1091(17) 0.3901(17)
C4 C 0.9207(19) 0.0423(17) 0.3703(17)
H1 H 0.9743 0.0904 0.3821
C5 C 1.008(2) -0.0874(18) 0.3353(18)
H2 H 1.1216 -0.1302 0.3227
C6 C 0.930(2) -0.1612(19) 0.3170(18)
H3 H 0.9930 -0.2519 0.2895
C7 C 0.7662(19) -0.1024(18) 0.3389(17)
H4 H 0.7128 -0.1531 0.3306
C8 C 0.677(2) 0.0362(17) 0.3742(17)
H5 H 0.5633 0.0798 0.3871
C9 C 0.539(2) 0.641(2) 0.256(2)
C10 C 0.557(3) 0.725(2) 0.110(2)
C11 C 0.677(3) 0.782(2) 0.041(2)
H6 H 0.7520 0.7682 0.0816
C12 C 0.689(3) 0.871(3) -0.107(2)
H7 H 0.7626 0.9213 -0.1634
C13 C 0.577(3) 0.865(3) -0.141(3)
H8 H 0.5752 0.9233 -0.2286
C14 C 0.472(3) 0.804(3) -0.090(3)
H9 H 0.4163 0.8042 -0.1414
C15 C 0.447(3) 0.739(2) 0.046(2)
H10 H 0.3605 0.7026 0.0962
C16 C 0.1436(19) 0.4469(17) 0.4060(17)
C17 C 0.0026(19) 0.4498(17) 0.4015(17)
C18 C 0.273(7) 0.410(7) 0.276(7)
H11 H 0.3121 0.4922 0.2237
H12 H 0.2279 0.3932 0.2232
H13 H 0.3644 0.3220 0.2960
Cu1 Cu 0.3674(2) 0.4954(2) 0.5033(2)
N1 N 0.1432(15) 0.5074(14) 0.4936(14)
O3 O 0.7350(11) 0.3178(10) 0.4403(10)
O4 O 0.5094(11) 0.3081(10) 0.4449(11)
O5 O 0.6464(13) 0.6140(12) 0.3071(12)
O6 O 0.4212(13) 0.6043(12) 0.3143(12)
C2A C 0.3399(18) 0.7434(17) 0.5698(17)
C3A C 0.2470(18) 0.8909(17) 0.6099(17)
C4A C 0.0793(19) 0.9577(17) 0.6297(17)
H1A H 0.0257 0.9096 0.6179
C5A C -0.008(2) 1.0874(18) 0.6647(18)
H2A H -0.1216 1.1302 0.6773
C6A C 0.070(2) 1.1612(19) 0.6830(18)
H3A H 0.0070 1.2519 0.7105
C7A C 0.2338(19) 1.1024(18) 0.6611(17)
H4A H 0.2872 1.1531 0.6694
C8A C 0.323(2) 0.9638(17) 0.6258(17)
H5A H 0.4367 0.9202 0.6129
C9A C 0.461(2) 0.359(2) 0.744(2)
C10A C 0.443(3) 0.275(2) 0.890(2)
C11A C 0.323(3) 0.218(2) 0.959(2)
H6A H 0.2480 0.2318 0.9184
C12A C 0.311(3) 0.129(3) 1.107(2)
H7A H 0.2374 0.0787 1.1634
C13A C 0.423(3) 0.135(3) 1.141(3)
H8A H 0.4248 0.0767 1.2286
C14A C 0.528(3) 0.196(3) 1.090(3)
H9A H 0.5837 0.1958 1.1414
C15A C 0.553(3) 0.261(2) 0.954(2)
H10A H 0.6395 0.2974 0.9038
C16A C -0.1436(19) 0.5531(17) 0.5940(17)
C17A C -0.0026(19) 0.5502(17) 0.5985(17)
C18A C -0.273(7) 0.590(7) 0.724(7)
H11A H -0.3121 0.5078 0.7763
H12A H -0.2279 0.6068 0.7768
H13A H -0.3644 0.6780 0.7040
Cu1A Cu -0.3674(2) 0.5046(2) 0.4967(2)
Cu1A_2 Cu 0.6326(2) 0.5046(2) 0.4967(2)
Cu1_2 Cu -0.6326(2) 0.4954(2) 0.5033(2)
N1A N -0.1432(15) 0.4926(14) 0.5064(14)
O3A O 0.2650(11) 0.6822(10) 0.5597(10)
O3_2 O -0.2650(11) 0.3178(10) 0.4403(10)
O4A O 0.4906(11) 0.6919(10) 0.5551(11)
O4A_2 O -0.5094(11) 0.6919(10) 0.5551(11)
O5A O 0.3536(13) 0.3860(12) 0.6929(12)
O5_2 O -0.3536(13) 0.6140(12) 0.3071(12)
O6A O 0.5788(13) 0.3957(12) 0.6857(12)
O6A_2 O -0.4212(13) 0.3957(12) 0.6857(12)
C19 C 0.0000 1.0000 1.0000
O7 O 0.010(2) 0.8937(16) 0.989(2)
O7A O -0.010(2) 1.1063(16) 1.011(2)
C1 C 0.1773(18) 0.608(6) 0.907(4)
O1 O 0.067(2) 0.603(4) 0.902(3)
O2 O 0.291(3) 0.613(4) 0.904(4)
C20? C -0.033(7) 0.581(7) 0.729(7)
C21? C 0.177(6) 0.589(6) 0.995(4)
H14? H -0.0260 0.6765 0.7117
H15? H -0.0489 0.4955 0.2284
H16? H -0.1421 0.5823 0.7903
O8? O 0.200(5) 0.619(6) 0.882(4)
O9? O 0.158(5) 0.562(4) 1.107(4)
loop_
_geom_bond_atom_site_label_1
_geom_bond_atom_site_label_2
_geom_bond_site_symmetry_1
_geom_bond_site_symmetry_2
C1 O1 1_555 1_555
O2 C1 1_555 1_555
C2 C3 1_555 1_555
C3 C4 1_555 1_555
C4 H1 1_555 1_555
C5 C4 1_555 1_555
H2 C5 1_555 1_555
C6 C5 1_555 1_555
H3 C6 1_555 1_555
C7 C6 1_555 1_555
H4 C7 1_555 1_555
C8 C3 1_555 1_555
H5 C8 1_555 1_555
C9 C10 1_555 1_555
C10 C11 1_555 1_555
C11 H6 1_555 1_555
C12 C11 1_555 1_555
H7 C12 1_555 1_555
C13 C12 1_555 1_555
H8 C13 1_555 1_555
C14 C13 1_555 1_555
H9 C14 1_555 1_555
C15 C10 1_555 1_555
H10 C15 1_555 1_555
C16 C17 1_555 1_555
C17 N1A 1_555 1_555
C18 C16 1_555 1_555
H11 C18 1_555 1_555
H12 C18 1_555 1_555
H13 C18 1_555 1_555
C19 O7 1_555 1_555
Cu1 N1 1_555 1_555
N1 C16 1_555 1_555
O3 C2 1_555 1_555
O4 C2 1_555 1_555
O5 C9 1_555 1_555
O6 C9 1_555 1_555
C2A C3A 1_555 1_555
C3A C4A 1_555 1_555
C4A H1A 1_555 1_555
C5A C4A 1_555 1_555
H2A C5A 1_555 1_555
C6A C5A 1_555 1_555
H3A C6A 1_555 1_555
C7A C6A 1_555 1_555
H4A C7A 1_555 1_555
C8A C3A 1_555 1_555
H5A C8A 1_555 1_555
C9A C10A 1_555 1_555
C10A C11A 1_555 1_555
C11A H6A 1_555 1_555
C12A C11A 1_555 1_555
H7A C12A 1_555 1_555
C13A C12A 1_555 1_555
H8A C13A 1_555 1_555
C14A C13A 1_555 1_555
H9A C14A 1_555 1_555
C15A C10A 1_555 1_555
H10A C15A 1_555 1_555
C16A C17A 1_555 1_555
C17A N1 1_555 1_555
C18A C16A 1_555 1_555
H11A C18A 1_555 1_555
H12A C18A 1_555 1_555
H13A C18A 1_555 1_555
Cu1A Cu1_2 1_555 1_555
Cu1A_2 Cu1 1_555 1_555
N1A C16A 1_555 1_555
O3A Cu1 1_555 1_555
O3_2 Cu1A 1_555 1_555
O4A C2A 1_555 1_555
O4A_2 Cu1A 1_555 1_555
O5A Cu1 1_555 1_555
O5_2 Cu1A 1_555 1_555
O6A C9A 1_555 1_555
O6A_2 Cu1A 1_555 1_555
O7A C19 1_555 1_555
C7 C8 1_555 1_555
C14 C15 1_555 1_555
Cu1 O4 1_555 1_555
Cu1 O6 1_555 1_555
O3 Cu1A_2 1_555 1_555
O5 Cu1A_2 1_555 1_555
C2A O3A 1_555 1_555
C7A C8A 1_555 1_555
C9A O5A 1_555 1_555
C14A C15A 1_555 1_555
Cu1A N1A 1_555 1_555
Cu1A_2 O4A 1_555 1_555
Cu1A_2 O6A 1_555 1_555

#END
