
#######################################################################
#
#                 Cambridge Crystallographic Data Centre
#                                CCDC 
#
#######################################################################
#
# If this CIF has been generated from an entry in the Cambridge 
# Structural Database, then it will include bibliographic, chemical, 
# crystal, experimental, refinement or atomic coordinate data resulting 
# from the CCDC's data processing and validation procedures.
#
#######################################################################

data_JUXFOZ
_chemical_name_common            NPC-7-Zn
_chemical_formula_moiety         '(C35 H39 N3 O11 Zn2)n,3n(C3 H7 N1 O1)'
_chemical_name_systematic        
"catena-[(\m~7~-2',3',5',6'-Tetramethyl-1,1':4',1''-terphenyl-3,3'',5,5''-tetracarboxylato)-tris(N,N-dimethylformamide)-di-zinc(ii) N,N-dimethylformamide solvate]"
_symmetry_cell_setting           monoclinic
_symmetry_space_group_name_H-M   'P 21/c'
_symmetry_Int_Tables_number      14
_space_group_name_Hall           '-P 2ybc'
loop_
_symmetry_equiv_pos_site_id
_symmetry_equiv_pos_as_xyz
1 x,y,z
2 -x,1/2+y,1/2-z
3 -x,-y,-z
4 x,1/2-y,1/2+z
_cell_length_a                   14.7776(13)
_cell_length_b                   12.4094(11)
_cell_length_c                   29.9554(18)
_cell_angle_alpha                90
_cell_angle_beta                 115.572(3)
_cell_angle_gamma                90
_cell_volume                     4955.16
_exptl_crystal_colour            colorless
_exptl_crystal_description       block
_cell_formula_units_Z            4
_chemical_properties_physical    Moisture-sensitive
_exptl_crystal_preparation       porosity
loop_
_atom_site_label
_atom_site_type_symbol
_atom_site_fract_x
_atom_site_fract_y
_atom_site_fract_z
_atom_site_U_iso_or_equiv
_atom_site_thermal_displace_type
Zn1 Zn -0.25281(3) 1.00315(3) 0.759999(16) 0.0197 Uani
Zn2 Zn 0.37716(3) 0.68318(3) 0.824779(16) 0.0220 Uani
O1 O -0.1614(2) 0.8601(3) 0.73245(12) 0.0403 Uani
O2 O -0.16329(19) 0.8933(2) 0.80465(10) 0.0273 Uani
O3 O 0.3826(2) 0.8021(2) 1.25697(10) 0.0303 Uani
O4 O 0.3893(2) 0.6883(2) 0.89667(10) 0.0313 Uani
O5 O 0.2964(2) 0.8293(2) 0.81108(11) 0.0314 Uani
O6 O 0.5156(2) 0.7675(2) 0.85181(12) 0.0371 Uani
O7 O 0.0935(2) 0.6025(3) 0.72688(11) 0.0355 Uani
O8 O 0.61180(19) 0.5616(2) 1.22593(10) 0.0251 Uani
O9 O 0.5457(2) 0.4606(2) 1.15705(10) 0.0264 Uani
O10 O 0.23938(18) 0.5942(2) 0.79309(10) 0.0223 Uani
O11 O 0.27264(19) 0.8962(2) 1.19324(10) 0.0257 Uani
C1 C -0.1263(3) 0.8487(3) 0.77793(16) 0.0251 Uani
C2 C -0.0332(3) 0.7822(3) 0.80446(14) 0.0220 Uani
C3 C 0.0118(3) 0.7766(3) 0.85498(15) 0.0255 Uani
H1 H -0.0181 0.8103 0.8729 0.0300 Uiso
C4 C 0.3361(3) 0.8229(3) 1.21169(15) 0.0223 Uani
C5 C 0.3571(3) 0.7529(3) 1.17642(15) 0.0253 Uani
C6 C 0.4379(3) 0.6812(3) 1.19481(15) 0.0225 Uani
H2 H 0.4788 0.6787 1.2286 0.0270 Uiso
C7 C 0.2981(3) 0.7583(3) 1.12571(14) 0.0244 Uani
H3 H 0.2447 0.8065 1.1136 0.0300 Uiso
C8 C 0.3164(3) 0.6943(3) 1.09274(15) 0.0266 Uani
C9 C 0.2562(3) 0.7035(3) 1.03847(14) 0.0240 Uani
C10 C 0.2650(3) 0.7967(3) 1.01399(16) 0.0320 Uani
C11 C 0.1929(3) 0.6197(3) 1.01175(16) 0.0288 Uani
C12 C 0.5449(3) 0.5384(3) 1.18370(15) 0.0222 Uani
C13 C 0.4577(3) 0.6143(3) 1.16335(14) 0.0238 Uani
C14 C 0.3968(3) 0.6193(3) 1.11237(15) 0.0256 Uani
H4 H 0.4091 0.5732 1.0911 0.0300 Uiso
C15 C 0.1440(3) 0.6214(3) 0.77086(16) 0.0271 Uani
C16 C 0.1002(3) 0.6764(3) 0.80140(14) 0.0199 Uani
C17 C 0.0109(3) 0.7313(3) 0.77716(15) 0.0233 Uani
H5 H -0.0198 0.7344 0.7428 0.0280 Uiso
C18 C 0.1468(3) 0.6732(3) 0.85263(14) 0.0236 Uani
H6 H 0.2084 0.6389 0.8688 0.0280 Uiso
C19 C 0.1017(3) 0.7213(3) 0.88000(14) 0.0231 Uani
C20 C 0.1526(3) 0.7171(3) 0.93579(15) 0.0255 Uani
C21 C 0.1410(3) 0.6261(3) 0.96025(15) 0.0261 Uani
C22 C 0.2133(3) 0.8035(3) 0.96255(15) 0.0283 Uani
C23 C 0.2213(4) 0.9033(4) 0.93583(18) 0.0474 Uani
H7 H 0.2246 0.9657 0.9554 0.0710 Uiso
H8 H 0.1635 0.9085 0.9045 0.0710 Uiso
H9 H 0.2808 0.8994 0.9305 0.0710 Uiso
C24 C 0.0697(4) 0.5377(4) 0.93015(18) 0.0452 Uani
H10 H 0.0055 0.5481 0.9303 0.0670 Uiso
H11 H 0.0962 0.4688 0.9444 0.0670 Uiso
H12 H 0.0623 0.5402 0.8967 0.0670 Uiso
C25 C 0.5975(4) 0.7247(4) 0.8597(2) 0.0546 Uani
H13 H 0.5967 0.6502 0.8562 0.0660 Uiso
N1 N 0.6822(3) 0.7707(4) 0.87200(17) 0.0566 Uani
C26 C 0.4333(4) 0.7641(4) 0.92334(18) 0.0410 Uani
H14 H 0.4399 0.8267 0.9080 0.0490 Uiso
N2 N 0.4715(3) 0.7641(3) 0.97143(15) 0.0502 Uani
C27 C 0.2300(4) 0.8556(3) 0.77030(18) 0.0360 Uani
H15 H 0.2268 0.8181 0.7428 0.0430 Uiso
N3 N 0.1629(3) 0.9331(3) 0.76259(14) 0.0376 Uani
C28 C 0.1603(4) 0.9915(4) 0.8040(2) 0.0535 Uani
H16 H 0.1001 0.9736 0.8071 0.0800 Uiso
H17 H 0.1616 1.0676 0.7984 0.0800 Uiso
H18 H 0.2177 0.9722 0.8338 0.0800 Uiso
C29 C 0.3287(4) 0.8910(4) 1.04281(19) 0.0532 Uani
H19 H 0.3306 0.9446 1.0201 0.0800 Uiso
H20 H 0.3956 0.8665 1.0632 0.0800 Uiso
H21 H 0.3002 0.9216 1.0633 0.0800 Uiso
C30 C 0.1772(4) 0.5224(4) 1.03892(17) 0.0415 Uani
H22 H 0.1996 0.5396 1.0733 0.0620 Uiso
H23 H 0.2149 0.4622 1.0357 0.0620 Uiso
H24 H 0.1072 0.5041 1.0248 0.0620 Uiso
C31 C 0.7857(6) 0.7255(11) 0.8914(6) 0.0754 Uani
H25 H 0.8273 0.7595 0.9223 0.1130 Uiso
H26 H 0.8128 0.7387 0.8679 0.1130 Uiso
H27 H 0.7835 0.6493 0.8963 0.1130 Uiso
C32 C 0.6802(8) 0.8893(7) 0.8602(6) 0.0754 Uani
H28 H 0.6242 0.9229 0.8628 0.1130 Uiso
H29 H 0.6740 0.8979 0.8271 0.1130 Uiso
H30 H 0.7413 0.9225 0.8831 0.1130 Uiso
C33 C 0.5351(6) 0.8541(6) 1.0004(2) 0.0815 Uani
H31 H 0.6044 0.8365 1.0105 0.1230 Uiso
H32 H 0.5236 0.8663 1.0292 0.1230 Uiso
H33 H 0.5186 0.9181 0.9805 0.1230 Uiso
C34 C 0.4625(5) 0.6674(5) 0.9971(2) 0.0679 Uani
H34 H 0.3928 0.6521 0.9874 0.1020 Uiso
H35 H 0.4955 0.6791 1.0322 0.1020 Uiso
H36 H 0.4931 0.6076 0.9885 0.1020 Uiso
C35 C 0.0828(4) 0.9556(5) 0.71338(19) 0.0603 Uani
H37 H 0.0869 1.0294 0.7048 0.0900 Uiso
H38 H 0.0189 0.9429 0.7135 0.0900 Uiso
H39 H 0.0902 0.9092 0.6895 0.0900 Uiso
Zn1A Zn 0.25281(3) 0.50315(3) 0.740001(16) 0.0197 Uani
Zn1B Zn 0.25281(3) 0.99685(3) 1.240001(16) 0.0197 Uani
Zn1C Zn 0.74719(3) 0.49685(3) 1.259999(16) 0.0197 Uani
Zn2B Zn 0.62284(3) 0.31682(3) 1.175221(16) 0.0220 Uani
Zn2C Zn 0.37716(3) 0.81682(3) 1.324779(16) 0.0220 Uani
O3C O 0.3826(2) 0.6979(2) 0.75697(10) 0.0303 Uani
O7A O -0.0935(2) 1.1025(3) 0.77312(11) 0.0355 Uani
O8C O -0.38820(19) 0.9384(2) 0.72593(10) 0.0251 Uani
O9B O 0.4543(2) 0.5394(2) 0.84295(10) 0.0264 Uani
O10A O -0.23938(18) 1.0942(2) 0.70691(10) 0.0223 Uani
O11B O -0.27264(19) 1.1038(2) 0.80676(10) 0.0257 Uani
C36? C 0.7056(9) 0.8744(9) 0.8974(6) 0.0754 Uani
H40? H 0.6447 0.9077 0.8947 0.1130 Uiso
H41? H 0.7374 0.9202 0.8826 0.1130 Uiso
H42? H 0.7499 0.8636 0.9317 0.1130 Uiso
C37? C 0.7637(8) 0.7022(10) 0.8685(7) 0.0754 Uani
H43? H 0.7566 0.6290 0.8768 0.1130 Uiso
H44? H 0.8282 0.7292 0.8910 0.1130 Uiso
H45? H 0.7578 0.7050 0.8353 0.1130 Uiso
loop_
_atom_site_aniso_label
_atom_site_aniso_U_11
_atom_site_aniso_U_22
_atom_site_aniso_U_33
_atom_site_aniso_U_23
_atom_site_aniso_U_13
_atom_site_aniso_U_12
Zn1 0.0184(2) 0.0213(2) 0.0195(3) 0.00140(17) 0.0082(2) 0.00200(17)
Zn2 0.0230(3) 0.0226(2) 0.0198(3) -0.00153(18) 0.0087(2) 0.00137(18)
O1 0.0346(18) 0.0525(19) 0.027(2) 0.0077(14) 0.0068(15) 0.0175(15)
O2 0.0212(14) 0.0282(14) 0.0327(17) 0.0058(12) 0.0119(13) 0.0086(11)
O3 0.0340(16) 0.0394(16) 0.0191(18) 0.0011(12) 0.0129(14) 0.0120(13)
O4 0.0355(17) 0.0348(16) 0.0242(17) -0.0046(13) 0.0134(14) 0.0000(13)
O5 0.0320(16) 0.0229(14) 0.0345(19) 0.0020(12) 0.0098(15) 0.0036(12)
O6 0.0287(17) 0.0403(17) 0.041(2) -0.0111(14) 0.0137(15) -0.0068(14)
O7 0.0293(16) 0.0542(19) 0.0207(19) -0.0084(14) 0.0085(14) 0.0081(14)
O8 0.0184(14) 0.0295(14) 0.0203(17) -0.0021(11) 0.0017(13) 0.0073(11)
O9 0.0255(15) 0.0260(14) 0.0240(16) -0.0020(12) 0.0073(13) 0.0072(11)
O10 0.0166(14) 0.0257(13) 0.0237(16) -0.0023(11) 0.0079(12) 0.0025(11)
O11 0.0219(14) 0.0302(14) 0.0224(16) -0.0023(12) 0.0072(13) 0.0080(12)
C1 0.019(2) 0.025(2) 0.026(3) 0.0024(16) 0.0048(19) 0.0000(16)
C2 0.019(2) 0.0245(19) 0.019(2) 0.0011(15) 0.0048(18) 0.0036(15)
C3 0.024(2) 0.031(2) 0.024(3) -0.0022(17) 0.0127(19) 0.0037(16)
C4 0.023(2) 0.0230(19) 0.024(3) -0.0014(16) 0.0132(19) 0.0015(16)
C5 0.034(2) 0.0226(19) 0.024(2) 0.0009(16) 0.017(2) 0.0029(17)
C6 0.022(2) 0.0271(19) 0.017(2) 0.0009(16) 0.0072(18) 0.0049(16)
C7 0.019(2) 0.031(2) 0.018(2) 0.0044(16) 0.0030(18) 0.0093(16)
C8 0.026(2) 0.029(2) 0.022(2) 0.0000(17) 0.0078(19) 0.0034(17)
C9 0.021(2) 0.035(2) 0.013(2) -0.0009(16) 0.0045(17) 0.0079(16)
C10 0.033(2) 0.030(2) 0.032(3) -0.0006(18) 0.013(2) 0.0043(18)
C11 0.032(2) 0.030(2) 0.026(3) 0.0037(17) 0.014(2) 0.0069(18)
C12 0.021(2) 0.0263(19) 0.020(2) 0.0031(16) 0.0095(19) 0.0044(16)
C13 0.020(2) 0.030(2) 0.020(2) 0.0026(16) 0.0072(18) 0.0028(16)
C14 0.028(2) 0.030(2) 0.020(2) -0.0020(16) 0.0114(19) 0.0045(17)
C15 0.031(2) 0.0217(19) 0.033(3) 0.0055(17) 0.018(2) 0.0031(17)
C16 0.0198(19) 0.0223(18) 0.021(2) 0.0041(15) 0.0120(18) 0.0009(15)
C17 0.025(2) 0.0241(19) 0.022(2) -0.0005(16) 0.0113(18) -0.0026(16)
C18 0.0156(19) 0.031(2) 0.022(2) 0.0035(16) 0.0060(18) 0.0053(16)
C19 0.022(2) 0.030(2) 0.015(2) 0.0005(16) 0.0058(18) 0.0015(16)
C20 0.027(2) 0.029(2) 0.022(2) 0.0001(16) 0.0120(19) 0.0066(17)
C21 0.028(2) 0.032(2) 0.021(2) 0.0014(17) 0.0131(19) 0.0012(17)
C22 0.032(2) 0.033(2) 0.018(2) 0.0028(17) 0.009(2) 0.0033(18)
C23 0.061(3) 0.040(3) 0.029(3) 0.008(2) 0.008(3) -0.010(2)
C24 0.055(3) 0.045(3) 0.036(3) -0.001(2) 0.020(3) -0.012(2)
C25 0.041(3) 0.051(3) 0.069(4) 0.019(3) 0.021(3) -0.005(3)
N1 0.029(2) 0.078(3) 0.062(3) 0.019(2) 0.019(2) -0.007(2)
C26 0.058(3) 0.036(3) 0.037(3) -0.003(2) 0.028(3) 0.006(2)
N2 0.063(3) 0.052(3) 0.032(3) -0.0081(19) 0.017(2) 0.005(2)
C27 0.047(3) 0.023(2) 0.042(3) -0.0010(19) 0.023(3) 0.002(2)
N3 0.045(2) 0.0276(19) 0.039(2) 0.0025(16) 0.017(2) 0.0076(16)
C28 0.059(4) 0.046(3) 0.055(4) -0.001(2) 0.024(3) 0.018(2)
C29 0.066(4) 0.048(3) 0.037(3) -0.001(2) 0.014(3) -0.015(3)
C30 0.051(3) 0.045(3) 0.025(3) 0.006(2) 0.013(2) -0.004(2)
C31 0.0257(12) 0.0767(14) 0.1040(14) 0.0077(14) 0.0093(13) -0.0116(13)
C32 0.0257(12) 0.0767(14) 0.1040(14) 0.0077(14) 0.0093(13) -0.0116(13)
C33 0.098(5) 0.075(4) 0.059(4) -0.032(3) 0.022(4) 0.000(4)
C34 0.086(5) 0.076(4) 0.043(4) 0.009(3) 0.029(3) 0.016(3)
C35 0.060(4) 0.057(3) 0.039(3) 0.003(3) -0.002(3) 0.023(3)
Zn1A 0.0184 0.0213 0.0195 -0.0014 0.0082 -0.002
Zn1B 0.0184 0.0213 0.0195 0.0014 0.0082 0.002
Zn1C 0.0184 0.0213 0.0195 -0.0014 0.0082 -0.002
Zn2B 0.023 0.0226 0.0198 -0.00153 0.0087 0.00137
Zn2C 0.023 0.0226 0.0198 0.00153 0.0087 -0.00137
O3C 0.034 0.0394 0.0191 -0.0011 0.0129 -0.012
O7A 0.0293 0.0542 0.0207 0.0084 0.0085 -0.0081
O8C 0.0184 0.0295 0.0203 0.0021 0.0017 -0.0073
O9B 0.0255 0.026 0.024 -0.002 0.0073 0.0072
O10A 0.0166 0.0257 0.0237 0.0023 0.0079 -0.0025
O11B 0.0219 0.0302 0.0224 -0.0023 0.0072 0.008
C36? 0.0257(12) 0.0767(14) 0.1040(14) 0.0077(14) 0.0093(13) -0.0116(13)
C37? 0.0257(12) 0.0767(14) 0.1040(14) 0.0077(14) 0.0093(13) -0.0116(13)
loop_
_geom_bond_atom_site_label_1
_geom_bond_atom_site_label_2
_geom_bond_site_symmetry_1
_geom_bond_site_symmetry_2
Zn1 O1 1_555 1_555
Zn2 O4 1_555 1_555
O1 C1 1_555 1_555
O2 Zn1 1_555 1_555
O3 C4 1_555 1_555
O4 C26 1_555 1_555
O5 Zn2 1_555 1_555
O6 Zn2 1_555 1_555
O7 C15 1_555 1_555
O8 C12 1_555 1_555
O9 C12 1_555 1_555
O10 Zn2 1_555 1_555
O11 C4 1_555 1_555
C1 O2 1_555 1_555
C2 C1 1_555 1_555
C3 C2 1_555 1_555
H1 C3 1_555 1_555
C4 C5 1_555 1_555
C5 C6 1_555 1_555
C6 H2 1_555 1_555
C7 C5 1_555 1_555
H3 C7 1_555 1_555
C8 C7 1_555 1_555
C9 C8 1_555 1_555
C10 C9 1_555 1_555
C11 C9 1_555 1_555
C12 C13 1_555 1_555
C13 C6 1_555 1_555
C14 C8 1_555 1_555
H4 C14 1_555 1_555
C15 O10 1_555 1_555
C16 C15 1_555 1_555
C17 C2 1_555 1_555
H5 C17 1_555 1_555
C18 C16 1_555 1_555
H6 C18 1_555 1_555
C19 C3 1_555 1_555
C20 C19 1_555 1_555
C21 C11 1_555 1_555
C22 C10 1_555 1_555
C23 C22 1_555 1_555
H7 C23 1_555 1_555
H8 C23 1_555 1_555
H9 C23 1_555 1_555
C24 C21 1_555 1_555
H10 C24 1_555 1_555
H11 C24 1_555 1_555
H12 C24 1_555 1_555
C25 O6 1_555 1_555
H13 C25 1_555 1_555
N1 C25 1_555 1_555
C26 H14 1_555 1_555
N2 C26 1_555 1_555
C27 O5 1_555 1_555
H15 C27 1_555 1_555
N3 C27 1_555 1_555
C28 N3 1_555 1_555
H16 C28 1_555 1_555
H17 C28 1_555 1_555
H18 C28 1_555 1_555
C29 C10 1_555 1_555
H19 C29 1_555 1_555
H20 C29 1_555 1_555
H21 C29 1_555 1_555
C30 C11 1_555 1_555
H22 C30 1_555 1_555
H23 C30 1_555 1_555
H24 C30 1_555 1_555
C31 N1 1_555 1_555
H25 C31 1_555 1_555
H26 C31 1_555 1_555
H27 C31 1_555 1_555
C32 N1 1_555 1_555
H28 C32 1_555 1_555
H29 C32 1_555 1_555
H30 C32 1_555 1_555
C33 N2 1_555 1_555
H31 C33 1_555 1_555
H32 C33 1_555 1_555
H33 C33 1_555 1_555
C34 N2 1_555 1_555
H34 C34 1_555 1_555
H35 C34 1_555 1_555
H36 C34 1_555 1_555
C35 N3 1_555 1_555
H37 C35 1_555 1_555
H38 C35 1_555 1_555
H39 C35 1_555 1_555
Zn1A O7 1_555 1_555
Zn1B O11 1_555 1_555
Zn1C O8 1_555 1_555
Zn2B O9 1_555 1_555
Zn2C O3 1_555 1_555
O3C Zn2 1_555 1_555
O7A Zn1 1_555 1_555
O8C Zn1 1_555 1_555
O9B Zn2 1_555 1_555
O10A Zn1 1_555 1_555
O11B Zn1 1_555 1_555
O10 Zn1A 1_555 1_555
C13 C14 1_555 1_555
C16 C17 1_555 1_555
C18 C19 1_555 1_555
C20 C21 1_555 1_555
C20 C22 1_555 1_555

#END
