
#######################################################################
#
#                 Cambridge Crystallographic Data Centre
#                                CCDC 
#
#######################################################################
#
# If this CIF has been generated from an entry in the Cambridge 
# Structural Database, then it will include bibliographic, chemical, 
# crystal, experimental, refinement or atomic coordinate data resulting 
# from the CCDC's data processing and validation procedures.
#
#######################################################################

data_NUBBAP
_chemical_formula_moiety         '(C54 H40 O47 Zn11 4+)n,4n(N1 O3 1-)'
_chemical_name_systematic        
'catena-(hexakis(\m~6~-Benzene-1,3,5-tricarboxylato)-undeca-aqua-undeca-zinc tetranitrate unknown solvate)'
_symmetry_cell_setting           cubic
_symmetry_space_group_name_H-M   'P m -3 m'
_symmetry_Int_Tables_number      221
_space_group_name_Hall           '-P 4 2 3'
loop_
_symmetry_equiv_pos_site_id
_symmetry_equiv_pos_as_xyz
1 x,y,z
2 -x,-y,z
3 -x,y,-z
4 x,-y,-z
5 z,x,y
6 z,-x,-y
7 -z,-x,y
8 -z,x,-y
9 y,z,x
10 -y,z,-x
11 y,-z,-x
12 -y,-z,x
13 y,x,-z
14 -y,-x,-z
15 y,-x,z
16 -y,x,z
17 x,z,-y
18 -x,z,y
19 -x,-z,-y
20 x,-z,y
21 z,y,-x
22 z,-y,x
23 -z,y,x
24 -z,-y,-x
25 -x,-y,-z
26 x,y,-z
27 x,-y,z
28 -x,y,z
29 -z,-x,-y
30 -z,x,y
31 z,x,-y
32 z,-x,y
33 -y,-z,-x
34 y,-z,x
35 -y,z,x
36 y,z,-x
37 -y,-x,z
38 y,x,z
39 -y,x,-z
40 y,-x,-z
41 -x,-z,y
42 x,-z,-y
43 x,z,y
44 -x,z,-y
45 -z,-y,x
46 -z,y,-x
47 z,-y,-x
48 z,y,x
_cell_length_a                   20.4421(2)
_cell_length_b                   20.4421(2)
_cell_length_c                   20.4421(2)
_cell_angle_alpha                90
_cell_angle_beta                 90
_cell_angle_gamma                90
_cell_volume                     8542.33
_exptl_crystal_colour            colorless
_exptl_crystal_description       cube
_cell_formula_units_Z            2
_chemical_properties_physical    Air-sensitive
loop_
_atom_site_label
_atom_site_type_symbol
_atom_site_fract_x
_atom_site_fract_y
_atom_site_fract_z
Zn1 Zn 0.0000 0.0000 0.42764(7)
Zn2 Zn 0.33703(3) 0.33703(3) 0.33703(3)
Zn3 Zn 0.23769(4) 0.23769(4) 0.23769(4)
O1 O 0.3909(4) 0.3909(4) 0.3909(4)
O2 O 0.2819(2) 0.2819(2) 0.3870(4)
O3 O 0.2170(2) 0.2170(2) 0.3279(4)
O4 O 0.0000 0.0000 0.3302(5)
O5 O 0.06881(15) 0.06881(15) 0.4445(3)
O6 O 0.1819(5) 0.1819(5) 0.1819(5)
C1 C 0.2116(2) 0.2116(2) 0.4414(4)
C2 C 0.2339(3) 0.2339(3) 0.5000
H1 H 0.2661 0.2661 0.5000
C3 C 0.2390(3) 0.2390(3) 0.3798(5)
C4 C 0.1399(3) 0.1399(3) 0.5000
C5 C 0.1643(2) 0.1643(2) 0.4416(4)
H2 H 0.1483 0.1483 0.4022
C6 C 0.0874(3) 0.0874(3) 0.5000
O2L O 0.2819(2) 0.2819(2) 0.6130(4)
O3L O 0.2170(2) 0.2170(2) 0.6721(4)
O5L O 0.06881(15) 0.06881(15) 0.5555(3)
C1L C 0.2116(2) 0.2116(2) 0.5586(4)
C3L C 0.2390(3) 0.2390(3) 0.6202(5)
C5L C 0.1643(2) 0.1643(2) 0.5584(4)
H2L H 0.1483 0.1483 0.5978
Zn2A Zn -0.33703(3) -0.33703(3) 0.33703(3)
Zn3A Zn -0.23769(4) -0.23769(4) 0.23769(4)
O1A O -0.3909(4) -0.3909(4) 0.3909(4)
O2A O -0.2819(2) -0.2819(2) 0.3870(4)
O3A O -0.2170(2) -0.2170(2) 0.3279(4)
O5A O -0.06881(15) -0.06881(15) 0.4445(3)
O6A O -0.1819(5) -0.1819(5) 0.1819(5)
C1A C -0.2116(2) -0.2116(2) 0.4414(4)
C2A C -0.2339(3) -0.2339(3) 0.5000
H1A H -0.2661 -0.2661 0.5000
C3A C -0.2390(3) -0.2390(3) 0.3798(5)
C4A C -0.1399(3) -0.1399(3) 0.5000
C5A C -0.1643(2) -0.1643(2) 0.4416(4)
H2A H -0.1483 -0.1483 0.4022
C6A C -0.0874(3) -0.0874(3) 0.5000
O2M O -0.2819(2) -0.2819(2) 0.6130(4)
O3M O -0.2170(2) -0.2170(2) 0.6721(4)
O5M O -0.06881(15) -0.06881(15) 0.5555(3)
C1M C -0.2116(2) -0.2116(2) 0.5586(4)
C3M C -0.2390(3) -0.2390(3) 0.6202(5)
C5M C -0.1643(2) -0.1643(2) 0.5584(4)
H2M H -0.1483 -0.1483 0.5978
Zn1B Zn 0.0000 0.0000 0.57236(7)
O2B O -0.2819(2) 0.2819(2) 0.6130(4)
O3B O -0.2170(2) 0.2170(2) 0.6721(4)
O4B O 0.0000 0.0000 0.6698(5)
O5B O -0.06881(15) 0.06881(15) 0.5555(3)
C1B C -0.2116(2) 0.2116(2) 0.5586(4)
C2B C -0.2339(3) 0.2339(3) 0.5000
H1B H -0.2661 0.2661 0.5000
C3B C -0.2390(3) 0.2390(3) 0.6202(5)
C4B C -0.1399(3) 0.1399(3) 0.5000
C5B C -0.1643(2) 0.1643(2) 0.5584(4)
H2B H -0.1483 0.1483 0.5978
C6B C -0.0874(3) 0.0874(3) 0.5000
O2O O -0.2819(2) 0.2819(2) 0.3870(4)
O3O O -0.2170(2) 0.2170(2) 0.3279(4)
O5O O -0.06881(15) 0.06881(15) 0.4445(3)
C1O C -0.2116(2) 0.2116(2) 0.4414(4)
C3O C -0.2390(3) 0.2390(3) 0.3798(5)
C5O C -0.1643(2) 0.1643(2) 0.4416(4)
H2O H -0.1483 0.1483 0.4022
O2C O 0.2819(2) -0.2819(2) 0.6130(4)
O3C O 0.2170(2) -0.2170(2) 0.6721(4)
O5C O 0.06881(15) -0.06881(15) 0.5555(3)
C1C C 0.2116(2) -0.2116(2) 0.5586(4)
C2C C 0.2339(3) -0.2339(3) 0.5000
H1C H 0.2661 -0.2661 0.5000
C3C C 0.2390(3) -0.2390(3) 0.6202(5)
C4C C 0.1399(3) -0.1399(3) 0.5000
C5C C 0.1643(2) -0.1643(2) 0.5584(4)
H2C H 0.1483 -0.1483 0.5978
C6C C 0.0874(3) -0.0874(3) 0.5000
O2N O 0.2819(2) -0.2819(2) 0.3870(4)
O3N O 0.2170(2) -0.2170(2) 0.3279(4)
O5N O 0.06881(15) -0.06881(15) 0.4445(3)
C1N C 0.2116(2) -0.2116(2) 0.4414(4)
C3N C 0.2390(3) -0.2390(3) 0.3798(5)
C5N C 0.1643(2) -0.1643(2) 0.4416(4)
H2N H 0.1483 -0.1483 0.4022
Zn1D Zn 0.42764(7) 0.0000 0.0000
O2D O 0.3870(4) 0.2819(2) 0.2819(2)
O3D O 0.3279(4) 0.2170(2) 0.2170(2)
O4D O 0.3302(5) 0.0000 0.0000
O5D O 0.4445(3) 0.06881(15) 0.06881(15)
C1D C 0.4414(4) 0.2116(2) 0.2116(2)
C2D C 0.5000 0.2339(3) 0.2339(3)
H1D H 0.5000 0.2661 0.2661
C3D C 0.3798(5) 0.2390(3) 0.2390(3)
C4D C 0.5000 0.1399(3) 0.1399(3)
C5D C 0.4416(4) 0.1643(2) 0.1643(2)
H2D H 0.4022 0.1483 0.1483
C6D C 0.5000 0.0874(3) 0.0874(3)
O2V O 0.6130(4) 0.2819(2) 0.2819(2)
O3V O 0.6721(4) 0.2170(2) 0.2170(2)
O5V O 0.5555(3) 0.06881(15) 0.06881(15)
C1V C 0.5586(4) 0.2116(2) 0.2116(2)
C3V C 0.6202(5) 0.2390(3) 0.2390(3)
C5V C 0.5584(4) 0.1643(2) 0.1643(2)
H2V H 0.5978 0.1483 0.1483
O2H O 0.2819(2) 0.3870(4) 0.2819(2)
O3H O 0.2170(2) 0.3279(4) 0.2170(2)
O5H O 0.06881(15) 0.4445(3) 0.06881(15)
C1H C 0.2116(2) 0.4414(4) 0.2116(2)
C2H C 0.2339(3) 0.5000 0.2339(3)
H1H H 0.2661 0.5000 0.2661
C3H C 0.2390(3) 0.3798(5) 0.2390(3)
C4H C 0.1399(3) 0.5000 0.1399(3)
C5H C 0.1643(2) 0.4416(4) 0.1643(2)
H2H H 0.1483 0.4022 0.1483
C6H C 0.0874(3) 0.5000 0.0874(3)
O2S O 0.2819(2) 0.6130(4) 0.2819(2)
O3S O 0.2170(2) 0.6721(4) 0.2170(2)
O5S O 0.06881(15) 0.5555(3) 0.06881(15)
C1S C 0.2116(2) 0.5586(4) 0.2116(2)
C3S C 0.2390(3) 0.6202(5) 0.2390(3)
C5S C 0.1643(2) 0.5584(4) 0.1643(2)
H2S H 0.1483 0.5978 0.1483
Zn2L Zn 0.33703(3) 0.33703(3) 0.66297(3)
Zn3L Zn 0.23769(4) 0.23769(4) 0.76231(4)
O1L O 0.3909(4) 0.3909(4) 0.6091(4)
O6L O 0.1819(5) 0.1819(5) 0.8181(5)
Zn2N Zn 0.33703(3) -0.33703(3) 0.33703(3)
Zn3N Zn 0.23769(4) -0.23769(4) 0.23769(4)
O1N O 0.3909(4) -0.3909(4) 0.3909(4)
O6N O 0.1819(5) -0.1819(5) 0.1819(5)
Zn1F Zn 0.57236(7) 0.0000 0.0000
Zn1H Zn 0.0000 0.42764(7) 0.0000
Zn1J Zn 0.0000 0.57236(7) 0.0000
Zn2B Zn -0.33703(3) 0.33703(3) 0.66297(3)
Zn2C Zn 0.33703(3) -0.33703(3) 0.66297(3)
Zn2M Zn -0.33703(3) -0.33703(3) 0.66297(3)
Zn2N_2 Zn 0.33703(3) 0.66297(3) 0.33703(3)
Zn2O Zn -0.33703(3) 0.33703(3) 0.33703(3)
Zn2O_2 Zn 0.66297(3) 0.33703(3) 0.33703(3)
Zn3B Zn -0.23769(4) 0.23769(4) 0.76231(4)
Zn3C Zn 0.23769(4) -0.23769(4) 0.76231(4)
Zn3M Zn -0.23769(4) -0.23769(4) 0.76231(4)
Zn3N_2 Zn 0.23769(4) 0.76231(4) 0.23769(4)
Zn3O Zn -0.23769(4) 0.23769(4) 0.23769(4)
Zn3O_2 Zn 0.76231(4) 0.23769(4) 0.23769(4)
O2F O -0.3870(4) -0.2819(2) 0.2819(2)
O2K O -0.2819(2) -0.3870(4) 0.2819(2)
O2P O 0.2819(2) 0.3870(4) 0.7181(2)
O2S_2 O 0.2819(2) -0.3870(4) 0.2819(2)
O2T O 0.3870(4) 0.2819(2) 0.7181(2)
O2U O 0.3870(4) -0.2819(2) 0.2819(2)
O3F O -0.3279(4) -0.2170(2) 0.2170(2)
O3K O -0.2170(2) -0.3279(4) 0.2170(2)
O3P O 0.2170(2) 0.3279(4) 0.7830(2)
O3S_2 O 0.2170(2) -0.3279(4) 0.2170(2)
O3T O 0.3279(4) 0.2170(2) 0.7830(2)
O3U O 0.3279(4) -0.2170(2) 0.2170(2)
O5E O 0.4445(3) -0.06881(15) -0.06881(15)
O5T O 0.4445(3) 0.06881(15) -0.06881(15)
O5U O 0.4445(3) -0.06881(15) 0.06881(15)
H3? H 0.1849 0.1846 0.1348
H4? H 0.1517 0.1514 0.2012
H5? H 0.4211 0.4218 0.3720
H6? H 0.3879 0.3886 0.4384
loop_
_geom_bond_atom_site_label_1
_geom_bond_atom_site_label_2
_geom_bond_site_symmetry_1
_geom_bond_site_symmetry_2
Zn1 O4 1_555 1_555
Zn2 O1 1_555 1_555
Zn3 O3 1_555 1_555
O2 Zn2 1_555 1_555
O3 C3 1_555 1_555
O5 Zn1 1_555 1_555
O6 Zn3 1_555 1_555
C1 C2 1_555 1_555
C2 H1 1_555 1_555
C3 O2 1_555 1_555
C4 C5 1_555 1_555
C5 C1 1_555 1_555
H2 C5 1_555 1_555
C6 O5 1_555 1_555
O2L C3L 1_555 1_555
O3L C3L 1_555 1_555
O5L C6 1_555 1_555
C1L C2 1_555 1_555
C3L C1L 1_555 1_555
C5L C4 1_555 1_555
H2L C5L 1_555 1_555
Zn2A O1A 1_555 1_555
Zn3A O3A 1_555 1_555
O2A Zn2A 1_555 1_555
O3A C3A 1_555 1_555
O5A Zn1 1_555 1_555
O6A Zn3A 1_555 1_555
C1A C2A 1_555 1_555
C2A H1A 1_555 1_555
C3A O2A 1_555 1_555
C4A C5A 1_555 1_555
C5A C1A 1_555 1_555
H2A C5A 1_555 1_555
C6A O5A 1_555 1_555
O2M C3M 1_555 1_555
O3M C3M 1_555 1_555
O5M C6A 1_555 1_555
C1M C2A 1_555 1_555
C3M C1M 1_555 1_555
C5M C4A 1_555 1_555
H2M C5M 1_555 1_555
Zn1B O5L 1_555 1_555
O2B C3B 1_555 1_555
O3B C3B 1_555 1_555
O4B Zn1B 1_555 1_555
O5B Zn1B 1_555 1_555
C1B C2B 1_555 1_555
C2B H1B 1_555 1_555
C3B C1B 1_555 1_555
C4B C5B 1_555 1_555
C5B C1B 1_555 1_555
H2B C5B 1_555 1_555
C6B O5B 1_555 1_555
O2O C3O 1_555 1_555
O3O C3O 1_555 1_555
O5O Zn1 1_555 1_555
C1O C2B 1_555 1_555
C3O C1O 1_555 1_555
C5O C4B 1_555 1_555
H2O C5O 1_555 1_555
O2C C3C 1_555 1_555
O3C C3C 1_555 1_555
O5C Zn1B 1_555 1_555
C1C C2C 1_555 1_555
C2C H1C 1_555 1_555
C3C C1C 1_555 1_555
C4C C5C 1_555 1_555
C5C C1C 1_555 1_555
H2C C5C 1_555 1_555
C6C O5C 1_555 1_555
O2N C3N 1_555 1_555
O3N C3N 1_555 1_555
O5N Zn1 1_555 1_555
C1N C2C 1_555 1_555
C3N C1N 1_555 1_555
C5N C4C 1_555 1_555
H2N C5N 1_555 1_555
Zn1D O4D 1_555 1_555
O2D Zn2 1_555 1_555
O3D Zn3 1_555 1_555
O5D Zn1D 1_555 1_555
C1D C2D 1_555 1_555
C2D H1D 1_555 1_555
C3D O2D 1_555 1_555
C4D C5D 1_555 1_555
C5D C1D 1_555 1_555
H2D C5D 1_555 1_555
C6D O5D 1_555 1_555
O2V C3V 1_555 1_555
O3V C3V 1_555 1_555
O5V C6D 1_555 1_555
C1V C2D 1_555 1_555
C3V C1V 1_555 1_555
C5V C4D 1_555 1_555
H2V C5V 1_555 1_555
O2H Zn2 1_555 1_555
O3H Zn3 1_555 1_555
O5H C6H 1_555 1_555
C1H C2H 1_555 1_555
C2H H1H 1_555 1_555
C3H O2H 1_555 1_555
C4H C5H 1_555 1_555
C5H C1H 1_555 1_555
H2H C5H 1_555 1_555
C6H C4H 1_555 1_555
O2S C3S 1_555 1_555
O3S C3S 1_555 1_555
O5S C6H 1_555 1_555
C1S C2H 1_555 1_555
C3S C1S 1_555 1_555
C5S C4H 1_555 1_555
H2S C5S 1_555 1_555
Zn2L O2L 1_555 1_555
Zn3L O3L 1_555 1_555
O1L Zn2L 1_555 1_555
O6L Zn3L 1_555 1_555
Zn2N O2N 1_555 1_555
Zn3N O3N 1_555 1_555
O1N Zn2N 1_555 1_555
O6N Zn3N 1_555 1_555
Zn1F O5V 1_555 1_555
Zn1H O5H 1_555 1_555
Zn1J O5S 1_555 1_555
Zn2B O2B 1_555 1_555
Zn2C O2C 1_555 1_555
Zn2M O2M 1_555 1_555
Zn2N_2 O2S 1_555 1_555
Zn2O O2O 1_555 1_555
Zn2O_2 O2V 1_555 1_555
Zn3B O3B 1_555 1_555
Zn3C O3C 1_555 1_555
Zn3M O3M 1_555 1_555
Zn3N_2 O3S 1_555 1_555
Zn3O O3O 1_555 1_555
Zn3O_2 O3V 1_555 1_555
O2F Zn2A 1_555 1_555
O2K Zn2A 1_555 1_555
O2P Zn2L 1_555 1_555
O2S_2 Zn2N 1_555 1_555
O2T Zn2L 1_555 1_555
O2U Zn2N 1_555 1_555
O3F Zn3A 1_555 1_555
O3K Zn3A 1_555 1_555
O3P Zn3L 1_555 1_555
O3S_2 Zn3N 1_555 1_555
O3T Zn3L 1_555 1_555
O3U Zn3N 1_555 1_555
O5E Zn1D 1_555 1_555
O5T Zn1D 1_555 1_555
O5U Zn1D 1_555 1_555
C1 C3 1_555 1_555
C4 C6 1_555 1_555
C1L C5L 1_555 1_555
C1A C3A 1_555 1_555
C4A C6A 1_555 1_555
O5M Zn1B 1_555 1_555
C1M C5M 1_555 1_555
C4B C6B 1_555 1_555
C6B O5O 1_555 1_555
C1O C5O 1_555 1_555
C4C C6C 1_555 1_555
C6C O5N 1_555 1_555
C1N C5N 1_555 1_555
O3D C3D 1_555 1_555
C1D C3D 1_555 1_555
C4D C6D 1_555 1_555
C1V C5V 1_555 1_555
O3H C3H 1_555 1_555
C1H C3H 1_555 1_555
C1S C5S 1_555 1_555

#END
