
#######################################################################
#
#                 Cambridge Crystallographic Data Centre
#                                CCDC 
#
#######################################################################
#
# If this CIF has been generated from an entry in the Cambridge 
# Structural Database, then it will include bibliographic, chemical, 
# crystal, experimental, refinement or atomic coordinate data resulting 
# from the CCDC's data processing and validation procedures.
#
#######################################################################

data_QOPZIF
_chemical_formula_moiety         
'(C33 H32 N2 O15 Zn4)n,3n(C3 H7 N1 O1),n(H2 O1)'
_chemical_name_systematic        
"catena-(tris(\m~4~-5-methylisophthalato-O,O',O'',O''')-(\m~4~-oxo)-bis(dimethylformamide)-tetra-zinc(ii) dimethylformamide solvate monohydrate)"
_symmetry_cell_setting           orthorhombic
_symmetry_space_group_name_H-M   'P 21 21 21'
_symmetry_Int_Tables_number      19
_space_group_name_Hall           'P 2ac 2ab'
loop_
_symmetry_equiv_pos_site_id
_symmetry_equiv_pos_as_xyz
1 x,y,z
2 1/2-x,-y,1/2+z
3 -x,1/2+y,1/2-z
4 1/2+x,1/2-y,-z
_cell_length_a                   16.215(3)
_cell_length_b                   17.174(3)
_cell_length_c                   18.104(4)
_cell_angle_alpha                90
_cell_angle_beta                 90
_cell_angle_gamma                90
_cell_volume                     5041.54
_exptl_crystal_colour            colorless
_exptl_crystal_description       polyhedral
_cell_formula_units_Z            4
loop_
_atom_site_label
_atom_site_type_symbol
_atom_site_fract_x
_atom_site_fract_y
_atom_site_fract_z
_atom_site_U_iso_or_equiv
_atom_site_thermal_displace_type
Zn1 Zn 0.72145(4) 0.24322(4) 0.23767(4) 0.0162 Uani
Zn2 Zn 0.77299(4) -0.14339(4) -0.12029(4) 0.0156 Uani
Zn3 Zn 1.11164(4) 0.73093(4) 0.17930(4) 0.0155 Uani
Zn4 Zn 0.68928(5) -0.07961(4) -0.27090(4) 0.0180 Uani
O1 O 0.7766(3) -0.0327(3) -0.0974(3) 0.0257 Uani
O2 O 0.6846(4) -0.0022(3) -0.1847(3) 0.0307 Uani
O3 O 1.0614(3) 0.5881(3) 0.2701(3) 0.0267 Uani
O4 O 1.0057(3) 0.6838(3) 0.2034(3) 0.0253 Uani
O5 O 0.6160(3) 0.1883(3) 0.3886(3) 0.0220 Uani
O6 O 0.6095(3) 0.2490(3) 0.2789(3) 0.0230 Uani
O7 O 0.8924(3) 0.3409(3) 0.2882(3) 0.0273 Uani
O8 O 0.7612(3) 0.3509(3) 0.2531(3) 0.0293 Uani
O9 O 0.7063(3) 0.2359(3) 0.1328(2) 0.0270 Uani
O10 O 0.8018(3) 0.1434(3) 0.1222(3) 0.0280 Uani
O11 O 0.4000(3) 0.2623(3) 0.5703(3) 0.0270 Uani
O12 O 0.2833(3) 0.3185(3) 0.5303(3) 0.0317 Uani
O13 O 0.7903(2) 0.1745(2) 0.2942(2) 0.0131 Uani
O14 O 0.8191(3) -0.0723(3) -0.2838(3) 0.0297 Uani
O15 O 0.6693(3) 0.0169(3) -0.3404(3) 0.0303 Uani
N1 N 0.5693(5) 0.0760(4) -0.4080(4) 0.0370 Uani
N2 N 0.9171(4) -0.0590(4) -0.3747(4) 0.0360 Uani
C1 C 0.7233(4) 0.0118(3) -0.1260(4) 0.0207 Uani
C2 C 0.7038(5) 0.0866(4) -0.0865(4) 0.0230 Uani
C3 C 0.7380(5) 0.1032(4) -0.0171(4) 0.0247 Uani
H1 H 0.7772 0.0689 0.0043 0.0300 Uiso
C4 C 0.7147(5) 0.1688(4) 0.0190(4) 0.0267 Uani
C5 C 0.6567(6) 0.2184(4) -0.0108(4) 0.0363 Uani
H2 H 0.6390 0.2624 0.0169 0.0440 Uiso
C6 C 0.6232(6) 0.2053(5) -0.0810(4) 0.0393 Uani
C7 C 0.6464(5) 0.1379(5) -0.1176(4) 0.0340 Uani
H3 H 0.6229 0.1263 -0.1645 0.0410 Uiso
C8 C 0.5605(7) 0.2605(6) -0.1132(6) 0.0540 Uani
H4 H 0.5434 0.2418 -0.1620 0.0810 Uiso
H5 H 0.5850 0.3125 -0.1180 0.0810 Uiso
H6 H 0.5123 0.2632 -0.0806 0.0810 Uiso
C9 C 1.0029(4) 0.6210(4) 0.2386(4) 0.0207 Uani
C10 C 0.9201(4) 0.5805(4) 0.2419(4) 0.0207 Uani
C11 C 0.9154(4) 0.5023(4) 0.2566(4) 0.0213 Uani
H7 H 0.9640 0.4732 0.2663 0.0260 Uiso
C12 C 0.8388(4) 0.4658(4) 0.2572(4) 0.0257 Uani
C13 C 0.7670(4) 0.5102(4) 0.2467(4) 0.0290 Uani
H8 H 0.7149 0.4849 0.2471 0.0350 Uiso
C14 C 0.7702(5) 0.5899(4) 0.2358(5) 0.0333 Uani
C15 C 0.8489(5) 0.6244(4) 0.2318(5) 0.0307 Uani
H9 H 0.8534 0.6786 0.2221 0.0370 Uiso
C16 C 0.6924(6) 0.6360(5) 0.2273(6) 0.0467 Uani
H10 H 0.6447 0.6014 0.2325 0.0700 Uiso
H11 H 0.6913 0.6604 0.1783 0.0700 Uiso
H12 H 0.6902 0.6765 0.2654 0.0700 Uiso
C17 C 0.5804(4) 0.2289(4) 0.3396(3) 0.0183 Uani
C18 C 0.4946(4) 0.2587(4) 0.3560(4) 0.0193 Uani
C19 C 0.4480(4) 0.2918(4) 0.3011(4) 0.0210 Uani
H13 H 0.4694 0.2929 0.2523 0.0250 Uiso
C20 C 0.3707(4) 0.3237(4) 0.3141(4) 0.0207 Uani
C21 C 0.3405(4) 0.3216(4) 0.3859(4) 0.0230 Uani
H14 H 0.2879 0.3434 0.3964 0.0270 Uiso
C22 C 0.3862(4) 0.2879(4) 0.4429(3) 0.0183 Uani
C23 C 0.4630(4) 0.2560(4) 0.4280(3) 0.0200 Uani
H15 H 0.4940 0.2324 0.4665 0.0240 Uiso
C24 C 0.3208(5) 0.3588(5) 0.2510(4) 0.0323 Uani
H16 H 0.3523 0.3550 0.2050 0.0490 Uiso
H17 H 0.3092 0.4137 0.2618 0.0490 Uiso
H18 H 0.2687 0.3304 0.2458 0.0490 Uiso
C25 C 0.8305(4) 0.3786(4) 0.2673(4) 0.0227 Uani
C26 C 0.7452(4) 0.1832(4) 0.0967(4) 0.0210 Uani
C27 C 0.3537(4) 0.2897(4) 0.5210(4) 0.0217 Uani
C28 C 0.8470(5) -0.0406(5) -0.3411(4) 0.0320 Uani
H19 H 0.8152 0.0001 -0.3622 0.0380 Uiso
C29 C 0.9447(6) -0.0196(7) -0.4396(5) 0.0503 Uani
H20 H 0.9051 0.0212 -0.4527 0.0750 Uiso
H21 H 0.9492 -0.0569 -0.4804 0.0750 Uiso
H22 H 0.9988 0.0039 -0.4302 0.0750 Uiso
C30 C 0.9689(6) -0.1232(7) -0.3490(7) 0.0607 Uani
H23 H 0.9435 -0.1473 -0.3054 0.0910 Uiso
H24 H 1.0236 -0.1033 -0.3360 0.0910 Uiso
H25 H 0.9741 -0.1622 -0.3882 0.0910 Uiso
C31 C 0.6090(5) 0.0144(4) -0.3821(4) 0.0330 Uani
H26 H 0.5897 -0.0356 -0.3966 0.0390 Uiso
C32 C 0.5941(7) 0.1550(5) -0.3893(7) 0.0540 Uani
H27 H 0.6431 0.1533 -0.3577 0.0810 Uiso
H28 H 0.5490 0.1811 -0.3631 0.0810 Uiso
H29 H 0.6068 0.1837 -0.4347 0.0810 Uiso
C33 C 0.4976(9) 0.0696(7) -0.4552(7) 0.0687 Uani
H30 H 0.4862 0.0146 -0.4652 0.1030 Uiso
H31 H 0.5081 0.0968 -0.5019 0.1030 Uiso
H32 H 0.4499 0.0932 -0.4305 0.1030 Uiso
Zn2A Zn 0.72701(4) 0.14339(4) 0.37971(4) 0.0156 Uani
Zn2B Zn 0.22701(4) 0.35661(4) 0.62029(4) 0.0156 Uani
Zn3B Zn 0.88836(4) 0.23093(4) 0.32070(4) 0.0155 Uani
Zn3A Zn 0.38836(4) 0.26907(4) 0.67930(4) 0.0155 Uani
Zn4C Zn 1.18928(5) 0.57961(4) 0.27090(4) 0.0180 Uani
Zn4A Zn 0.81072(5) 0.07961(4) 0.22910(4) 0.0180 Uani
O3C O 0.5614(3) -0.0881(3) -0.2701(3) 0.0267 Uani
O5A O 0.8840(3) -0.1883(3) -0.1114(3) 0.0220 Uani
O7B O 1.1076(3) 0.8409(3) 0.2118(3) 0.0273 Uani
O10A O 0.6982(3) -0.1434(3) -0.3778(3) 0.0280 Uani
O11A O 1.1000(3) 0.7377(3) 0.0703(3) 0.0270 Uani
O12B O 0.7167(3) -0.1815(3) -0.0303(3) 0.0317 Uani
O13A O 0.7097(2) -0.1745(2) -0.2058(2) 0.0131 Uani
O13B O 1.2097(2) 0.6745(2) 0.2058(2) 0.0131 Uani
O16 O 0.1776(12) -0.0428(15) -0.0298(12) 0.0943 Uani
N3 N 0.3073(10) -0.0993(7) 0.0090(7) 0.0380 Uani
C34 C 0.2397 -0.0713 -0.0425 0.0500 Uani
H33 H 0.2507 -0.0787 -0.0935 0.0600 Uiso
C35 C 0.3872(16) -0.1217(16) -0.0250(11) 0.0793 Uani
H34 H 0.3887 -0.1037 -0.0764 0.1170 Uiso
H35 H 0.3932 -0.1784 -0.0237 0.1170 Uiso
H36 H 0.4325 -0.0976 0.0026 0.1170 Uiso
C36 C 0.286(2) -0.1089(17) 0.0784(13) 0.0787 Uani
H37 H 0.2318 -0.0862 0.0869 0.1180 Uiso
H38 H 0.3269 -0.0831 0.1103 0.1180 Uiso
H39 H 0.2849 -0.1646 0.0900 0.1180 Uiso
O17 O 0.5272(15) -0.1840(14) 0.4330(14) 0.1040 Uani
N4 N 0.4883(8) -0.0731(10) 0.3597(11) 0.0580 Uani
C37 C 0.542(2) -0.114(2) 0.4097(14) 0.0870 Uani
H40 H 0.5904 -0.0882 0.4265 0.1040 Uiso
C38 C 0.5138(10) 0.0088(11) 0.3391(10) 0.0417 Uani
H41 H 0.4712 0.0323 0.3078 0.0620 Uiso
H42 H 0.5661 0.0073 0.3120 0.0620 Uiso
H43 H 0.5205 0.0400 0.3840 0.0620 Uiso
C39 C 0.4160(15) -0.1006(19) 0.3503(14) 0.0740 Uani
H44 H 0.3846 -0.0660 0.3177 0.1130 Uiso
H45 H 0.3880 -0.1045 0.3981 0.1130 Uiso
H46 H 0.4198 -0.1524 0.3279 0.1130 Uiso
O18 O 0.6300(13) -0.2572(12) 0.3941(10) 0.0880 Uani
N5 N 0.6730(13) -0.3485(11) 0.4864(9) 0.0750 Uani
C40 C 0.6340(16) -0.2832(14) 0.4527(16) 0.0777 Uani
H47 H 0.6034 -0.2535 0.4874 0.0930 Uiso
C41 C 0.7134(16) -0.3835(16) 0.4294(11) 0.0803 Uani
H48 H 0.7167 -0.3475 0.3875 0.1220 Uiso
H49 H 0.6832 -0.4304 0.4144 0.1220 Uiso
H50 H 0.7691 -0.3979 0.4451 0.1220 Uiso
C42 C 0.6463(16) -0.3626(18) 0.5573(11) 0.0800 Uani
H51 H 0.6174 -0.3166 0.5762 0.1200 Uiso
H52 H 0.6937 -0.3741 0.5890 0.1200 Uiso
H53 H 0.6086 -0.4072 0.5573 0.1200 Uiso
O19 O 0.4371(10) -0.0235(12) 0.2144(13) 0.0927 Uani
loop_
_atom_site_aniso_label
_atom_site_aniso_U_11
_atom_site_aniso_U_22
_atom_site_aniso_U_33
_atom_site_aniso_U_23
_atom_site_aniso_U_13
_atom_site_aniso_U_12
Zn1 0.0162(3) 0.0152(3) 0.0171(3) 0.0001(3) 0.0017(3) -0.0002(3)
Zn2 0.0134 0.0155 0.018 -0.0009 -0.0003 -0.0006
Zn3 0.016 0.0124 0.018 0.0006 0.0007 0.0001
Zn4 0.0189 0.0144 0.0206 0.0024 -0.0002 0.001
O1 0.029 0.017 0.031 -0.0127 -0.004 0.001
O2 0.041 0.027 0.024 -0.01 -0.009 0.006
O3 0.017 0.031 0.032 0.011 0.001 -0.0044
O4 0.018 0.019 0.039 0.007 0.004 -0.0038
O5 0.015(2) 0.028(2) 0.023(2) 0.0030(19) 0.0020(19) 0.0043(19)
O6 0.015(2) 0.030(3) 0.024(2) -0.001(2) 0.0046(18) 0.0063(19)
O7 0.023 0.012 0.047 0.005 -0.002 -0.0018
O8 0.02 0.017 0.051 -0.001 -0.003 -0.0041
O9 0.044 0.02 0.017 -0.0025 0.002 0.007
O10 0.029 0.029 0.026 -0.007 0 0.005
O11 0.026 0.036 0.019 0.001 0.0036 0.01
O12 0.028 0.048 0.019 -0.004 0.008 0.011
O13 0.011(2) 0.0136(19) 0.0148(19) -0.0020(16) 0.0019(15) -0.0010(15)
O14 0.022 0.029 0.038 0.004 0.003 -0.003
O15 0.028 0.025 0.038 0.015 -0.002 -0.002
N1 0.047 0.027 0.037 0.004 -0.002 0.006
N2 0.034 0.036 0.038 0.004 0.003 -0.002
C1 0.024 0.013 0.025 0.007 0.002 -0.002
C2 0.036 0.016 0.017 -0.004 0.004 -0.001
C3 0.035 0.02 0.019 0 0 0.004
C4 0.043 0.02 0.017 0.004 0 0
C5 0.064 0.021 0.024 -0.006 0.003 0.015
C6 0.059 0.037 0.022 0.003 -0.002 0.015
C7 0.052 0.031 0.019 -0.008 -0.003 0.011
C8 0.078 0.04 0.044 0.001 -0.015 0.027
C9 0.023 0.015 0.024 -0.008 0.007 -0.002
C10 0.017 0.021 0.024 0.003 0 -0.003
C11 0.018 0.017 0.029 0 0 -0.001
C12 0.021 0.021 0.035 0 -0.006 -0.004
C13 0.016 0.023 0.048 0.004 -0.003 -0.003
C14 0.028 0.028 0.044 0.007 -0.005 -0.004
C15 0.027 0.017 0.048 0.009 -0.004 0.001
C16 0.038 0.029 0.073 0.008 -0.01 -0.003
C17 0.018(3) 0.017(3) 0.020(3) -0.002(2) -0.001(2) -0.002(2)
C18 0.016(3) 0.020(3) 0.022(3) -0.003(3) 0.005(2) -0.001(3)
C19 0.023(3) 0.023(3) 0.017(3) -0.002(2) 0.003(3) -0.002(3)
C20 0.019(3) 0.020(3) 0.023(3) -0.001(3) 0.000(3) 0.000(3)
C21 0.019(3) 0.021(3) 0.029(3) -0.007(3) 0.000(3) 0.002(3)
C22 0.014(3) 0.021(3) 0.020(3) -0.006(2) 0.003(3) 0.002(2)
C23 0.023(3) 0.025(3) 0.012(3) -0.001(2) -0.002(2) 0.001(3)
C24 0.031(4) 0.036(4) 0.030(4) -0.002(3) -0.005(3) 0.011(3)
C25 0.027 0.015 0.026 0.004 -0.003 -0.002
C26 0.03 0.016 0.017 0.002 0 -0.002
C27 0.019 0.023 0.023 -0.002 0.002 0.003
C28 0.036 0.026 0.034 0 0.001 -0.001
C29 0.048 0.061 0.042 0.004 0.013 -0.005
C30 0.031 0.066 0.085 0.02 0.021 0.003
C31 0.044 0.027 0.028 0.007 -0.001 0.005
C32 0.048 0.033 0.081 0.004 -0.013 0.008
C33 0.089 0.057 0.06 0.012 -0.019 0.026
Zn2A 0.0134(3) 0.0155(3) 0.0180(3) 0.0009(3) 0.0003(3) -0.0006(3)
Zn2B 0.0134 0.0155 0.018 0.0009 -0.0003 0.0006
Zn3B 0.0160(3) 0.0124(3) 0.0180(3) -0.0006(3) 0.0007(3) -0.0001(3)
Zn3A 0.016 0.0124 0.018 -0.0006 -0.0007 0.0001
Zn4C 0.0189 0.0144 0.0206 0.0024 0.0002 -0.001
Zn4A 0.0189(4) 0.0144(3) 0.0206(4) -0.0024(3) 0.0002(3) 0.0010(3)
O3C 0.017 0.031 0.032 0.011 -0.001 0.0044
O5A 0.015 0.028 0.023 -0.003 -0.002 0.0043
O7B 0.023 0.012 0.047 -0.005 -0.002 0.0018
O10A 0.029 0.029 0.026 0.007 0 0.005
O11A 0.026 0.036 0.019 -0.001 -0.0036 0.01
O12B 0.028 0.048 0.019 0.004 0.008 -0.011
O13A 0.011 0.0136 0.0148 0.002 -0.0019 -0.001
O13B 0.011 0.0136 0.0148 0.002 0.0019 0.001
O16 0.072(11) 0.124(14) 0.087(11) 0.018(11) -0.001(9) 0.023(11)
N3 0.070(10) 0.011(5) 0.033(7) 0.018(5) 0.023(7) 0.010(6)
C34 0.050 0.050 0.050 0.000 0.000 0.000
C35 0.087(17) 0.11(2) 0.041(11) -0.043(12) -0.026(11) 0.070(16)
C36 0.110(16) 0.080(13) 0.046(10) 0.010(10) 0.003(11) 0.030(13)
O17 0.100(13) 0.101(13) 0.111(14) 0.038(12) 0.024(11) 0.012(11)
N4 0.017(6) 0.056(9) 0.101(12) -0.061(9) 0.016(7) -0.005(6)
C37 0.09(2) 0.13(3) 0.041(12) 0.016(15) -0.010(12) -0.028(19)
C38 0.019(7) 0.058(11) 0.048(10) -0.024(9) 0.013(7) -0.009(7)
C39 0.059(14) 0.11(2) 0.053(13) -0.008(14) -0.004(11) -0.021(15)
O18 0.098(14) 0.098(14) 0.068(11) 0.029(11) -0.007(10) -0.044(12)
N5 0.105(13) 0.063(10) 0.057(10) -0.033(9) 0.034(9) -0.060(10)
C40 0.081(14) 0.079(14) 0.073(13) -0.011(12) 0.001(11) -0.043(12)
C41 0.10(2) 0.11(2) 0.031(10) -0.017(12) -0.001(12) -0.055(18)
C42 0.064(15) 0.11(2) 0.066(15) -0.019(15) 0.015(12) -0.065(16)
O19 0.047(8) 0.088(11) 0.143(14) -0.064(11) 0.010(9) -0.006(8)
loop_
_geom_bond_atom_site_label_1
_geom_bond_atom_site_label_2
_geom_bond_site_symmetry_1
_geom_bond_site_symmetry_2
Zn1 O6 1_555 1_555
Zn2 O1 1_555 1_555
Zn3 O4 1_555 1_555
Zn4 O2 1_555 1_555
O1 C1 1_555 1_555
O2 C1 1_555 1_555
O3 C9 1_555 1_555
O4 C9 1_555 1_555
O5 C17 1_555 1_555
O6 C17 1_555 1_555
O7 C25 1_555 1_555
O8 Zn1 1_555 1_555
O9 Zn1 1_555 1_555
O10 C26 1_555 1_555
O11 C27 1_555 1_555
O12 C27 1_555 1_555
O13 Zn1 1_555 1_555
O14 Zn4 1_555 1_555
O15 Zn4 1_555 1_555
N1 C31 1_555 1_555
N2 C28 1_555 1_555
C1 C2 1_555 1_555
C2 C3 1_555 1_555
C3 H1 1_555 1_555
C4 C3 1_555 1_555
C5 C4 1_555 1_555
H2 C5 1_555 1_555
C6 C5 1_555 1_555
C7 C2 1_555 1_555
H3 C7 1_555 1_555
C8 C6 1_555 1_555
H4 C8 1_555 1_555
H5 C8 1_555 1_555
H6 C8 1_555 1_555
C9 C10 1_555 1_555
C10 C11 1_555 1_555
C11 H7 1_555 1_555
C12 C11 1_555 1_555
C13 C12 1_555 1_555
H8 C13 1_555 1_555
C14 C13 1_555 1_555
C15 C10 1_555 1_555
H9 C15 1_555 1_555
C16 C14 1_555 1_555
H10 C16 1_555 1_555
H11 C16 1_555 1_555
H12 C16 1_555 1_555
C17 C18 1_555 1_555
C18 C19 1_555 1_555
C19 H13 1_555 1_555
C20 C19 1_555 1_555
C21 C20 1_555 1_555
H14 C21 1_555 1_555
C22 C21 1_555 1_555
C23 C18 1_555 1_555
H15 C23 1_555 1_555
C24 C20 1_555 1_555
H16 C24 1_555 1_555
H17 C24 1_555 1_555
H18 C24 1_555 1_555
C25 O8 1_555 1_555
C26 O9 1_555 1_555
C27 C22 1_555 1_555
C28 O14 1_555 1_555
H19 C28 1_555 1_555
C29 N2 1_555 1_555
H20 C29 1_555 1_555
H21 C29 1_555 1_555
H22 C29 1_555 1_555
C30 N2 1_555 1_555
H23 C30 1_555 1_555
H24 C30 1_555 1_555
H25 C30 1_555 1_555
C31 O15 1_555 1_555
H26 C31 1_555 1_555
C32 N1 1_555 1_555
H27 C32 1_555 1_555
H28 C32 1_555 1_555
H29 C32 1_555 1_555
C33 N1 1_555 1_555
H30 C33 1_555 1_555
H31 C33 1_555 1_555
H32 C33 1_555 1_555
O16 C34 1_555 1_555
N3 C34 1_555 1_555
C34 H33 1_555 1_555
C35 N3 1_555 1_555
H34 C35 1_555 1_555
H35 C35 1_555 1_555
H36 C35 1_555 1_555
C36 N3 1_555 1_555
H37 C36 1_555 1_555
H38 C36 1_555 1_555
H39 C36 1_555 1_555
O17 C37 1_555 1_555
N4 C37 1_555 1_555
C37 H40 1_555 1_555
C38 N4 1_555 1_555
H41 C38 1_555 1_555
H42 C38 1_555 1_555
H43 C38 1_555 1_555
C39 N4 1_555 1_555
H44 C39 1_555 1_555
H45 C39 1_555 1_555
H46 C39 1_555 1_555
O18 C40 1_555 1_555
N5 C40 1_555 1_555
C40 H47 1_555 1_555
C41 N5 1_555 1_555
H48 C41 1_555 1_555
H49 C41 1_555 1_555
H50 C41 1_555 1_555
C42 N5 1_555 1_555
H51 C42 1_555 1_555
H52 C42 1_555 1_555
H53 C42 1_555 1_555
Zn2A O5 1_555 1_555
Zn2B O12 1_555 1_555
Zn3B O7 1_555 1_555
Zn3A O11 1_555 1_555
Zn4C O3 1_555 1_555
Zn4A O10 1_555 1_555
O3C Zn4 1_555 1_555
O5A Zn2 1_555 1_555
O7B Zn3 1_555 1_555
O10A Zn4 1_555 1_555
O11A Zn3 1_555 1_555
O12B Zn2 1_555 1_555
O13A Zn2 1_555 1_555
O13B Zn3 1_555 1_555
Zn4 O13A 1_555 1_555
O13 Zn2A 1_555 1_555
O13 Zn3B 1_555 1_555
O13 Zn4A 1_555 1_555
C4 C26 1_555 1_555
C6 C7 1_555 1_555
C12 C25 1_555 1_555
C14 C15 1_555 1_555
C22 C23 1_555 1_555
Zn4C O13B 1_555 1_555

#END
