
#######################################################################
#
#                 Cambridge Crystallographic Data Centre
#                                CCDC 
#
#######################################################################
#
# If this CIF has been generated from an entry in the Cambridge 
# Structural Database, then it will include bibliographic, chemical, 
# crystal, experimental, refinement or atomic coordinate data resulting 
# from the CCDC's data processing and validation procedures.
#
#######################################################################

data_KALGEL
_chemical_formula_moiety         '(C40 H30 N4 Ni2 O9)n,n(C10 H10 Fe1)'
_chemical_name_systematic        
'catena-((\m~4~-1,2,3,4-tetrakis(pyridin-4-yl)cyclobutane)-bis(\m~3~-isophthalato)-(\m~2~-aqua)-di-nickel ferrocene)'
_symmetry_cell_setting           orthorhombic
_symmetry_space_group_name_H-M   'F d d 2'
_symmetry_Int_Tables_number      43
_space_group_name_Hall           'F 2 -2d'
loop_
_symmetry_equiv_pos_site_id
_symmetry_equiv_pos_as_xyz
1 x,y,z
2 -x,-y,z
3 1/4+x,1/4-y,1/4+z
4 1/4-x,1/4+y,1/4+z
5 x,1/2+y,1/2+z
6 -x,1/2-y,1/2+z
7 1/4+x,3/4-y,3/4+z
8 1/4-x,3/4+y,3/4+z
9 1/2+x,y,1/2+z
10 1/2-x,-y,1/2+z
11 3/4+x,1/4-y,3/4+z
12 3/4-x,1/4+y,3/4+z
13 1/2+x,1/2+y,z
14 1/2-x,1/2-y,z
15 3/4+x,3/4-y,1/4+z
16 3/4-x,3/4+y,1/4+z
_cell_length_a                   15.417(3)
_cell_length_b                   23.492(5)
_cell_length_c                   32.648(7)
_cell_angle_alpha                90
_cell_angle_beta                 90
_cell_angle_gamma                90
_cell_volume                     11824.3
_exptl_crystal_colour            'yellow green'
_exptl_crystal_description       block
_cell_formula_units_Z            8
loop_
_atom_site_label
_atom_site_type_symbol
_atom_site_fract_x
_atom_site_fract_y
_atom_site_fract_z
_atom_site_U_iso_or_equiv
_atom_site_thermal_displace_type
Ni1 Ni 0.36176(6) 0.24030(4) 0.51297(3) 0.0434 Uani
N1 N 0.3913(4) 0.1645(3) 0.4825(2) 0.0467 Uani
N2 N 0.2272(5) 0.0119(3) 0.2973(2) 0.0510 Uani
O1 O 0.3064(3) 0.1938(2) 0.55974(17) 0.0490 Uani
O2 O 0.1667(4) 0.1838(2) 0.54097(17) 0.0497 Uani
O3 O 0.4181(4) 0.0710(3) 0.6777(2) 0.0657 Uani
O4 O 0.3171(4) 0.0332(2) 0.71931(19) 0.0530 Uani
O5 O 0.2500 0.2500 0.4767(3) 0.0487 Uani
H1 H 0.221(5) 0.225(3) 0.467(3) 0.0480 Uiso
C1 C 0.4691(5) 0.1572(4) 0.4647(3) 0.0560 Uani
H2 H 0.5098 0.1868 0.4673 0.0670 Uiso
C2 C 0.4932(5) 0.1094(4) 0.4431(3) 0.0540 Uani
H3 H 0.5487 0.1066 0.4313 0.0650 Uiso
C3 C 0.4329(5) 0.0651(3) 0.4391(2) 0.0483 Uani
C4 C 0.3521(5) 0.0705(4) 0.4575(3) 0.0567 Uani
H4 H 0.3105 0.0414 0.4558 0.0680 Uiso
C5 C 0.3352(5) 0.1215(4) 0.4787(3) 0.0557 Uani
H5 H 0.2805 0.1255 0.4911 0.0670 Uiso
C6 C 0.4545(5) 0.0133(3) 0.4131(3) 0.0500 Uani
H6 H 0.4104 -0.0167 0.4176 0.0600 Uiso
C7 C 0.4657(5) 0.0240(3) 0.3664(3) 0.0517 Uani
H7 H 0.4937 0.0613 0.3616 0.0620 Uiso
C8 C 0.3834(5) 0.0183(4) 0.3398(3) 0.0500 Uani
C9 C 0.3261(6) 0.0654(4) 0.3387(3) 0.0670 Uani
H8 H 0.3410 0.0998 0.3517 0.0800 Uiso
C10 C 0.2477(6) 0.0602(4) 0.3182(4) 0.0683 Uani
H9 H 0.2080 0.0905 0.3188 0.0820 Uiso
C11 C 0.2842(6) -0.0294(4) 0.2951(3) 0.0637 Uani
H10 H 0.2721 -0.0611 0.2786 0.0770 Uiso
C12 C 0.3632(6) -0.0276(4) 0.3169(4) 0.0663 Uani
H11 H 0.4019 -0.0584 0.3155 0.0790 Uiso
C13 C 0.2146(5) 0.1335(4) 0.5999(3) 0.0523 Uani
C14 C 0.1313(6) 0.1127(5) 0.6070(3) 0.0710 Uani
H12 H 0.0857 0.1224 0.5892 0.0850 Uiso
C15 C 0.1155(6) 0.0778(7) 0.6401(4) 0.0930 Uani
H13 H 0.0584 0.0660 0.6454 0.1110 Uiso
C16 C 0.1813(6) 0.0597(5) 0.6657(4) 0.0767 Uani
H14 H 0.1698 0.0345 0.6874 0.0920 Uiso
C17 C 0.2676(5) 0.0801(4) 0.6584(3) 0.0520 Uani
C18 C 0.2837(5) 0.1149(3) 0.6255(3) 0.0493 Uani
H15 H 0.3408 0.1266 0.6198 0.0590 Uiso
C19 C 0.2317(5) 0.1743(3) 0.5644(3) 0.0477 Uani
C20 C 0.3415(6) 0.0602(4) 0.6866(3) 0.0533 Uani
Ni1A Ni 0.63824(6) -0.24030(4) 0.51297(3) 0.0434 Uani
Ni1J Ni 0.11176(6) 0.00970(4) 0.26297(3) 0.0434 Uani
Ni1M Ni 0.13824(6) 0.25970(4) 0.51297(3) 0.0434 Uani
Ni1O Ni 0.38824(6) -0.00970(4) 0.76297(3) 0.0434 Uani
Ni1G Ni 0.88824(6) -0.00970(4) 0.26297(3) 0.0434 Uani
Ni1N Ni 0.11176(6) 0.50970(4) 0.76297(3) 0.0434 Uani
N1A N 0.6087(4) -0.1645(3) 0.4825(2) 0.0467 Uani
N2A N 0.7728(5) -0.0119(3) 0.2973(2) 0.0510 Uani
N2B N 0.4772(5) 0.2381(3) 0.5473(2) 0.0510 Uani
N2O N 0.5228(5) -0.2381(3) 0.5473(2) 0.0510 Uani
O1A O 0.6936(3) -0.1938(2) 0.55974(17) 0.0490 Uani
O1M O 0.1936(3) 0.3062(2) 0.55974(17) 0.0490 Uani
O2M O 0.3333(4) 0.3162(2) 0.54097(17) 0.0497 Uani
O2L O 0.6667(4) -0.3162(2) 0.54097(17) 0.0497 Uani
O3M O 0.0819(4) 0.4290(3) 0.6777(2) 0.0657 Uani
O4K O 0.4329(4) 0.2832(2) 0.46931(19) 0.0530 Uani
O4F O 0.5671(4) -0.2832(2) 0.46931(19) 0.0530 Uani
O4M O 0.1829(4) 0.4668(2) 0.71931(19) 0.0530 Uani
O5A O 0.7500 -0.2500 0.4767(3) 0.0487 Uani
H1M H 0.279(5) 0.275(3) 0.467(3) 0.0480 Uiso
H1A H 0.779(5) -0.225(3) 0.467(3) 0.0480 Uiso
H1L H 0.721(5) -0.275(3) 0.467(3) 0.0480 Uiso
C1A C 0.5309(5) -0.1572(4) 0.4647(3) 0.0560 Uani
H2A H 0.4902 -0.1868 0.4673 0.0670 Uiso
C2A C 0.5068(5) -0.1094(4) 0.4431(3) 0.0540 Uani
H3A H 0.4513 -0.1066 0.4313 0.0650 Uiso
C3A C 0.5671(5) -0.0651(3) 0.4391(2) 0.0483 Uani
C4A C 0.6479(5) -0.0705(4) 0.4575(3) 0.0567 Uani
H4A H 0.6895 -0.0414 0.4558 0.0680 Uiso
C5A C 0.6648(5) -0.1215(4) 0.4787(3) 0.0557 Uani
H5A H 0.7195 -0.1255 0.4911 0.0670 Uiso
C6A C 0.5455(5) -0.0133(3) 0.4131(3) 0.0500 Uani
H6A H 0.5896 0.0167 0.4176 0.0600 Uiso
C7A C 0.5343(5) -0.0240(3) 0.3664(3) 0.0517 Uani
H7A H 0.5063 -0.0613 0.3616 0.0620 Uiso
C8A C 0.6166(5) -0.0183(4) 0.3398(3) 0.0500 Uani
C9A C 0.6739(6) -0.0654(4) 0.3387(3) 0.0670 Uani
H8A H 0.6590 -0.0998 0.3517 0.0800 Uiso
C10A C 0.7523(6) -0.0602(4) 0.3182(4) 0.0683 Uani
H9A H 0.7920 -0.0905 0.3188 0.0820 Uiso
C11A C 0.7158(6) 0.0294(4) 0.2951(3) 0.0637 Uani
H10A H 0.7279 0.0611 0.2786 0.0770 Uiso
C12A C 0.6368(6) 0.0276(4) 0.3169(4) 0.0663 Uani
H11A H 0.5981 0.0584 0.3155 0.0790 Uiso
C13M C 0.2854(5) 0.3665(4) 0.5999(3) 0.0523 Uani
C14M C 0.3687(6) 0.3873(5) 0.6070(3) 0.0710 Uani
H12M H 0.4143 0.3776 0.5892 0.0850 Uiso
C15M C 0.3845(6) 0.4222(7) 0.6401(4) 0.0930 Uani
H13M H 0.4416 0.4340 0.6454 0.1110 Uiso
C16M C 0.3187(6) 0.4403(5) 0.6657(4) 0.0767 Uani
H14M H 0.3302 0.4655 0.6874 0.0920 Uiso
C17M C 0.2324(5) 0.4199(4) 0.6584(3) 0.0520 Uani
C18M C 0.2163(5) 0.3851(3) 0.6255(3) 0.0493 Uani
H15M H 0.1592 0.3734 0.6198 0.0590 Uiso
C19M C 0.2683(5) 0.3257(3) 0.5644(3) 0.0477 Uani
C20M C 0.1585(6) 0.4398(4) 0.6866(3) 0.0533 Uani
Fe1 Fe 0.2500 0.2500 0.73486(12) 0.1059 Uani
C21 C 0.1350(11) 0.2901(10) 0.7468(8) 0.1293 Uani
H16 H 0.1316 0.3294 0.7577 0.1550 Uiso
C22 C 0.1421(11) 0.2452(10) 0.7705(10) 0.1347 Uani
H17 H 0.1420 0.2461 0.8008 0.1620 Uiso
C23 C 0.1506(11) 0.1983(10) 0.7478(7) 0.1330 Uani
H18 H 0.1545 0.1587 0.7580 0.1590 Uiso
C24 C 0.1450(11) 0.2167(9) 0.7039(8) 0.1303 Uani
H19 H 0.1434 0.1934 0.6786 0.1570 Uiso
C25 C 0.1388(11) 0.2789(9) 0.7087(8) 0.1270 Uani
H20 H 0.1350 0.3070 0.6862 0.1520 Uiso
C21M C 0.3650(11) 0.2099(10) 0.7468(8) 0.1293 Uani
H16M H 0.3684 0.1706 0.7577 0.1550 Uiso
C22M C 0.3579(11) 0.2548(10) 0.7705(10) 0.1347 Uani
H17M H 0.3580 0.2539 0.8008 0.1620 Uiso
C23M C 0.3494(11) 0.3017(10) 0.7478(7) 0.1330 Uani
H18M H 0.3455 0.3413 0.7580 0.1590 Uiso
C24M C 0.3550(11) 0.2833(9) 0.7039(8) 0.1303 Uani
H19M H 0.3566 0.3066 0.6786 0.1570 Uiso
C25M C 0.3612(11) 0.2211(9) 0.7087(8) 0.1270 Uani
H20M H 0.3650 0.1930 0.6862 0.1520 Uiso
loop_
_atom_site_aniso_label
_atom_site_aniso_U_11
_atom_site_aniso_U_22
_atom_site_aniso_U_33
_atom_site_aniso_U_23
_atom_site_aniso_U_13
_atom_site_aniso_U_12
Ni1 0.0442(5) 0.0563(5) 0.0297(5) 0.0014(4) 0.0008(4) 0.0020(4)
N1 0.049(3) 0.055(4) 0.036(3) -0.005(3) -0.002(3) 0.011(3)
N2 0.055(4) 0.064(4) 0.034(4) 0.001(3) -0.006(3) 0.008(3)
O1 0.050(3) 0.059(3) 0.038(3) 0.009(2) -0.004(2) 0.000(2)
O2 0.058(3) 0.053(3) 0.038(3) 0.011(2) -0.004(3) -0.003(2)
O3 0.040(3) 0.092(4) 0.065(4) 0.033(3) -0.003(3) -0.008(3)
O4 0.056(3) 0.058(3) 0.045(3) 0.006(2) 0.000(3) 0.006(3)
O5 0.046(3) 0.056(3) 0.044(4) 0.000 0.000 0.002(3)
C1 0.052(4) 0.053(4) 0.063(5) -0.003(4) 0.000(4) -0.003(3)
C2 0.040(4) 0.069(5) 0.053(5) 0.003(4) 0.005(3) 0.001(3)
C3 0.058(4) 0.051(4) 0.036(4) 0.003(3) -0.003(3) 0.007(3)
C4 0.052(4) 0.058(5) 0.060(6) -0.009(4) 0.002(4) -0.005(3)
C5 0.045(4) 0.061(5) 0.061(5) -0.001(4) 0.005(4) 0.003(3)
C6 0.037(4) 0.057(4) 0.056(5) -0.009(4) -0.005(4) 0.007(3)
C7 0.042(4) 0.058(4) 0.055(5) 0.002(4) -0.007(4) 0.003(3)
C8 0.037(4) 0.073(5) 0.040(5) -0.002(4) -0.001(3) 0.003(3)
C9 0.059(5) 0.079(6) 0.063(6) -0.018(5) -0.009(5) 0.002(4)
C10 0.054(5) 0.072(6) 0.079(7) -0.021(5) -0.003(4) 0.004(4)
C11 0.063(5) 0.064(5) 0.064(6) -0.020(5) -0.018(5) 0.008(4)
C12 0.052(5) 0.074(6) 0.073(7) -0.008(5) -0.006(4) 0.023(4)
C13 0.053(4) 0.064(5) 0.040(4) 0.016(4) 0.000(3) 0.003(3)
C14 0.053(5) 0.105(8) 0.055(6) 0.030(6) -0.013(4) 0.004(4)
C15 0.045(5) 0.152(12) 0.082(8) 0.064(8) -0.013(5) -0.029(5)
C16 0.043(4) 0.116(8) 0.071(7) 0.049(6) 0.000(4) -0.012(4)
C17 0.050(4) 0.065(5) 0.041(4) 0.013(4) -0.007(3) -0.003(3)
C18 0.036(4) 0.060(4) 0.052(5) 0.007(4) 0.002(3) -0.004(3)
C19 0.046(4) 0.056(4) 0.041(4) 0.003(3) -0.001(3) 0.002(3)
C20 0.063(5) 0.059(5) 0.038(4) 0.000(4) -0.001(4) 0.001(4)
Ni1A 0.0442 0.0563 0.0297 -0.0014 -0.0008 0.002
Ni1J 0.0442 0.0563 0.0297 -0.0014 0.0008 -0.002
Ni1M 0.0442 0.0563 0.0297 -0.0014 -0.0008 0.002
Ni1O 0.0442 0.0563 0.0297 0.0014 -0.0008 -0.002
Ni1G 0.0442 0.0563 0.0297 0.0014 -0.0008 -0.002
Ni1N 0.0442 0.0563 0.0297 -0.0014 0.0008 -0.002
N1A 0.049 0.055 0.036 0.005 0.002 0.011
N2A 0.055 0.064 0.034 -0.001 0.006 0.008
N2B 0.055 0.064 0.034 -0.001 -0.006 -0.008
N2O 0.055 0.064 0.034 0.001 0.006 -0.008
O1A 0.05 0.059 0.038 -0.009 0.004 0
O1M 0.05 0.059 0.038 -0.009 0.004 0
O2M 0.058 0.053 0.038 -0.011 0.004 -0.003
O2L 0.058 0.053 0.038 0.011 -0.004 -0.003
O3M 0.04 0.092 0.065 -0.033 0.003 -0.008
O4K 0.056 0.058 0.045 0.006 0 -0.006
O4F 0.056 0.058 0.045 -0.006 0 -0.006
O4M 0.056 0.058 0.045 -0.006 0 0.006
O5A 0.046 0.056 0.044 0 0 0.002
C1A 0.052 0.053 0.063 0.003 0 -0.003
C2A 0.04 0.069 0.053 -0.003 -0.005 0.001
C3A 0.058 0.051 0.036 -0.003 0.003 0.007
C4A 0.052 0.058 0.06 0.009 -0.002 -0.005
C5A 0.045 0.061 0.061 0.001 -0.005 0.003
C6A 0.037 0.057 0.056 0.009 0.005 0.007
C7A 0.042 0.058 0.055 -0.002 0.007 0.003
C8A 0.037 0.073 0.04 0.002 0.001 0.003
C9A 0.059 0.079 0.063 0.018 0.009 0.002
C10A 0.054 0.072 0.079 0.021 0.003 0.004
C11A 0.063 0.064 0.064 0.02 0.018 0.008
C12A 0.052 0.074 0.073 0.008 0.006 0.023
C13M 0.053 0.064 0.04 -0.016 0 0.003
C14M 0.053 0.105 0.055 -0.03 0.013 0.004
C15M 0.045 0.152 0.082 -0.064 0.013 -0.029
C16M 0.043 0.116 0.071 -0.049 0 -0.012
C17M 0.05 0.065 0.041 -0.013 0.007 -0.003
C18M 0.036 0.06 0.052 -0.007 -0.002 -0.004
C19M 0.046 0.056 0.041 -0.003 0.001 0.002
C20M 0.063 0.059 0.038 0 0.001 0.001
Fe1 0.108(2) 0.1048(18) 0.105(3) 0.000 0.000 0.0140(14)
C21 0.110(6) 0.145(7) 0.133(9) 0.007(6) 0.006(6) 0.022(5)
C22 0.120(7) 0.154(8) 0.130(9) 0.015(6) 0.015(5) 0.002(7)
C23 0.113(6) 0.142(7) 0.144(10) 0.019(6) 0.006(7) 0.003(5)
C24 0.109(7) 0.146(8) 0.136(9) 0.002(6) -0.007(6) 0.000(6)
C25 0.109(6) 0.142(7) 0.130(9) 0.013(6) -0.003(6) 0.013(6)
C21M 0.11 0.145 0.133 -0.007 -0.006 0.022
C22M 0.12 0.154 0.13 -0.015 -0.015 0.002
C23M 0.113 0.142 0.144 -0.019 -0.006 0.003
C24M 0.109 0.146 0.136 -0.002 0.007 0
C25M 0.109 0.142 0.13 -0.013 0.003 0.013
loop_
_geom_bond_atom_site_label_1
_geom_bond_atom_site_label_2
_geom_bond_site_symmetry_1
_geom_bond_site_symmetry_2
Ni1 N1 1_555 1_555
N1 C1 1_555 1_555
N2 C10 1_555 1_555
O1 Ni1 1_555 1_555
O2 C19 1_555 1_555
O3 C20 1_555 1_555
O4 C20 1_555 1_555
O5 Ni1 1_555 1_555
H1 O5 1_555 1_555
C1 H2 1_555 1_555
C2 C1 1_555 1_555
H3 C2 1_555 1_555
C3 C2 1_555 1_555
C4 C3 1_555 1_555
H4 C4 1_555 1_555
C5 N1 1_555 1_555
H5 C5 1_555 1_555
C6 C3 1_555 1_555
H6 C6 1_555 1_555
C7 C6 1_555 1_555
H7 C7 1_555 1_555
C8 C7 1_555 1_555
C9 C8 1_555 1_555
H8 C9 1_555 1_555
C10 C9 1_555 1_555
H9 C10 1_555 1_555
C11 N2 1_555 1_555
H10 C11 1_555 1_555
C12 C8 1_555 1_555
H11 C12 1_555 1_555
C13 C14 1_555 1_555
C14 H12 1_555 1_555
C15 C14 1_555 1_555
H13 C15 1_555 1_555
C16 C15 1_555 1_555
H14 C16 1_555 1_555
C17 C16 1_555 1_555
C18 C13 1_555 1_555
H15 C18 1_555 1_555
C19 O1 1_555 1_555
C20 C17 1_555 1_555
Fe1 C21 1_555 1_555
C21 H16 1_555 1_555
C22 Fe1 1_555 1_555
H17 C22 1_555 1_555
C23 Fe1 1_555 1_555
H18 C23 1_555 1_555
C24 Fe1 1_555 1_555
H19 C24 1_555 1_555
C25 Fe1 1_555 1_555
H20 C25 1_555 1_555
Ni1A N1A 1_555 1_555
Ni1J N2 1_555 1_555
Ni1M O2 1_555 1_555
Ni1O O4 1_555 1_555
Ni1G N2A 1_555 1_555
Ni1N O4M 1_555 1_555
N1A C1A 1_555 1_555
N2A C10A 1_555 1_555
N2B Ni1 1_555 1_555
N2O Ni1A 1_555 1_555
O1A Ni1A 1_555 1_555
O1M Ni1M 1_555 1_555
O2M Ni1 1_555 1_555
O2L Ni1A 1_555 1_555
O3M C20M 1_555 1_555
O4K Ni1 1_555 1_555
O4F Ni1A 1_555 1_555
O4M C20M 1_555 1_555
O5A Ni1A 1_555 1_555
H1M O5 1_555 1_555
H1A O5A 1_555 1_555
H1L O5A 1_555 1_555
C1A H2A 1_555 1_555
C2A C1A 1_555 1_555
H3A C2A 1_555 1_555
C3A C2A 1_555 1_555
C4A C3A 1_555 1_555
H4A C4A 1_555 1_555
C5A N1A 1_555 1_555
H5A C5A 1_555 1_555
C6A C6 1_555 1_555
H6A C6A 1_555 1_555
C7A C7 1_555 1_555
H7A C7A 1_555 1_555
C8A C7A 1_555 1_555
C9A C8A 1_555 1_555
H8A C9A 1_555 1_555
C10A C9A 1_555 1_555
H9A C10A 1_555 1_555
C11A N2A 1_555 1_555
H10A C11A 1_555 1_555
C12A C8A 1_555 1_555
H11A C12A 1_555 1_555
C13M C14M 1_555 1_555
C14M H12M 1_555 1_555
C15M C14M 1_555 1_555
H13M C15M 1_555 1_555
C16M C15M 1_555 1_555
H14M C16M 1_555 1_555
C17M C16M 1_555 1_555
C18M C13M 1_555 1_555
H15M C18M 1_555 1_555
C19M O1M 1_555 1_555
C20M C17M 1_555 1_555
C21M Fe1 1_555 1_555
H16M C21M 1_555 1_555
C22M Fe1 1_555 1_555
H17M C22M 1_555 1_555
C23M Fe1 1_555 1_555
H18M C23M 1_555 1_555
C24M Fe1 1_555 1_555
H19M C24M 1_555 1_555
C25M Fe1 1_555 1_555
H20M C25M 1_555 1_555
O5 Ni1M 1_555 1_555
C4 C5 1_555 1_555
C11 C12 1_555 1_555
C13 C19 1_555 1_555
C17 C18 1_555 1_555
C21 C22 1_555 1_555
C21 C25 1_555 1_555
C22 C23 1_555 1_555
C23 C24 1_555 1_555
C24 C25 1_555 1_555
O2M C19M 1_555 1_555
C3A C6A 1_555 1_555
C4A C5A 1_555 1_555
C6A C7A 1_555 1_555
C11A C12A 1_555 1_555
C13M C19M 1_555 1_555
C17M C18M 1_555 1_555
C21M C22M 1_555 1_555
C21M C25M 1_555 1_555
C22M C23M 1_555 1_555
C23M C24M 1_555 1_555
C24M C25M 1_555 1_555

#END
