
#######################################################################
#
#                 Cambridge Crystallographic Data Centre
#                                CCDC 
#
#######################################################################
#
# If this CIF has been generated from an entry in the Cambridge 
# Structural Database, then it will include bibliographic, chemical, 
# crystal, experimental, refinement or atomic coordinate data resulting 
# from the CCDC's data processing and validation procedures.
#
#######################################################################

data_KALGAH
_chemical_formula_moiety         '(C40 H30 N4 Ni2 O9)n,4n(C6 H6)'
_chemical_name_systematic        
'catena-((\m~4~-1,2,3,4-tetrakis(pyridin-4-yl)cyclobutane)-bis(\m~3~-isophthalato)-(\m~2~-aqua)-di-nickel benzene solvate)'
_symmetry_cell_setting           orthorhombic
_symmetry_space_group_name_H-M   'F d d 2'
_symmetry_Int_Tables_number      43
_space_group_name_Hall           'F 2 -2d'
loop_
_symmetry_equiv_pos_site_id
_symmetry_equiv_pos_as_xyz
1 x,y,z
2 -x,-y,z
3 1/4+x,1/4-y,1/4+z
4 1/4-x,1/4+y,1/4+z
5 x,1/2+y,1/2+z
6 -x,1/2-y,1/2+z
7 1/4+x,3/4-y,3/4+z
8 1/4-x,3/4+y,3/4+z
9 1/2+x,y,1/2+z
10 1/2-x,-y,1/2+z
11 3/4+x,1/4-y,3/4+z
12 3/4-x,1/4+y,3/4+z
13 1/2+x,1/2+y,z
14 1/2-x,1/2-y,z
15 3/4+x,3/4-y,1/4+z
16 3/4-x,3/4+y,1/4+z
_cell_length_a                   15.477(3)
_cell_length_b                   23.392(5)
_cell_length_c                   32.321(7)
_cell_angle_alpha                90
_cell_angle_beta                 90
_cell_angle_gamma                90
_cell_volume                     11701.4
_exptl_crystal_colour            green
_exptl_crystal_description       block
_cell_formula_units_Z            8
loop_
_atom_site_label
_atom_site_type_symbol
_atom_site_fract_x
_atom_site_fract_y
_atom_site_fract_z
_atom_site_U_iso_or_equiv
_atom_site_thermal_displace_type
Ni1 Ni 0.11111(5) 0.00946(3) -0.09753(3) 0.0166 Uani
O1 O 0.0823(3) -0.0662(2) -0.06860(15) 0.0247 Uani
N1 N 0.1406(4) 0.0866(3) -0.1271(2) 0.0253 Uani
C1 C 0.0841(4) 0.1296(3) -0.1326(2) 0.0287 Uani
H1 H 0.0285 0.1259 -0.1212 0.0340 Uiso
C2 C 0.1036(5) 0.1781(3) -0.1536(3) 0.0290 Uani
H2 H 0.0620 0.2072 -0.1557 0.0350 Uiso
N2 N -0.0219(4) 0.2372(3) -0.31399(19) 0.0233 Uani
O2 O -0.0563(3) -0.0561(2) -0.05045(15) 0.0240 Uani
C3 C 0.1842(4) 0.1853(3) -0.1723(2) 0.0227 Uani
O3 O -0.1694(3) -0.1747(3) 0.06893(18) 0.0397 Uani
C4 C 0.2413(5) 0.1416(3) -0.1665(2) 0.0287 Uani
H3 H 0.2970 0.1443 -0.1779 0.0340 Uiso
O4 O -0.0679(3) -0.2187(2) 0.10750(14) 0.0230 Uani
O5 O 0.0000 0.0000 -0.1341(2) 0.0187 Uani
C5 C 0.2189(5) 0.0939(3) -0.1443(2) 0.0300 Uani
H4 H 0.2603 0.0649 -0.1411 0.0360 Uiso
C6 C 0.2039(4) 0.2365(3) -0.1984(2) 0.0237 Uani
H5 H 0.1601 0.2665 -0.1935 0.0280 Uiso
C7 C 0.2146(4) 0.2266(3) -0.2449(2) 0.0197 Uani
H6 H 0.2419 0.1889 -0.2495 0.0230 Uiso
C8 C 0.1346(4) 0.2309(3) -0.2709(2) 0.0213 Uani
C9 C 0.0723(5) 0.1870(3) -0.2683(3) 0.0320 Uani
H7 H 0.0828 0.1542 -0.2523 0.0390 Uiso
C10 C -0.0035(5) 0.1931(4) -0.2895(3) 0.0343 Uani
H8 H -0.0454 0.1642 -0.2867 0.0420 Uiso
C11 C 0.0355(6) 0.2790(4) -0.3172(3) 0.0380 Uani
H9 H 0.0230 0.3106 -0.3341 0.0460 Uiso
C12 C 0.1144(5) 0.2773(4) -0.2960(3) 0.0360 Uani
H10 H 0.1538 0.3077 -0.2988 0.0430 Uiso
C13 C 0.0307(3) -0.1178(3) -0.0111(2) 0.0530 Uani
C14 C 0.1114(3) -0.1431(4) -0.0067(2) 0.0750 Uani
H11 H 0.1563 -0.1338 -0.0251 0.0900 Uiso
C15 C 0.1257(3) -0.1821(4) 0.0250(3) 0.0847 Uani
H12 H 0.1803 -0.1992 0.0281 0.1010 Uiso
C16 C 0.0594(4) -0.1958(4) 0.0522(2) 0.0767 Uani
H13 H 0.0691 -0.2222 0.0737 0.0920 Uiso
C17 C -0.0214(3) -0.1705(3) 0.0478(2) 0.0573 Uani
C18 C -0.0357(3) -0.1315(3) 0.0161(2) 0.0450 Uani
H14 H -0.0903 -0.1144 0.0130 0.0540 Uiso
C19 C 0.0183(4) -0.0760(3) -0.0463(2) 0.0213 Uani
C20 C -0.0923(5) -0.1894(3) 0.0768(2) 0.0260 Uani
Ni1A Ni -0.11111(5) -0.00946(3) -0.09753(3) 0.0166 Uani
Ni1J Ni -0.13889(5) 0.24054(3) -0.34753(3) 0.0166 Uani
Ni1N Ni -0.13889(5) -0.25946(3) 0.15247(3) 0.0166 Uani
Ni1M Ni 0.38889(5) 0.49054(3) -0.09753(3) 0.0166 Uani
Ni1K Ni 0.63889(5) 0.25946(3) -0.34753(3) 0.0166 Uani
Ni1C Ni 0.13889(5) 0.25946(3) 0.15247(3) 0.0166 Uani
O1A O -0.0823(3) 0.0662(2) -0.06860(15) 0.0247 Uani
O1J O -0.1677(3) 0.3162(2) -0.31860(15) 0.0247 Uani
N1M N 0.3594(4) 0.4134(3) -0.1271(2) 0.0253 Uani
N1J N -0.1094(4) 0.1634(3) -0.3771(2) 0.0253 Uani
C1M C 0.4159(4) 0.3704(3) -0.1326(2) 0.0287 Uani
H1M H 0.4715 0.3741 -0.1212 0.0340 Uiso
C2M C 0.3964(5) 0.3219(3) -0.1536(3) 0.0290 Uani
H2M H 0.4380 0.2928 -0.1557 0.0350 Uiso
N2M N 0.5219(4) 0.2628(3) -0.31399(19) 0.0233 Uani
N2B N 0.2281(4) 0.0128(3) -0.06399(19) 0.0233 Uani
O2A O 0.0563(3) 0.0561(2) -0.05045(15) 0.0240 Uani
O2K O -0.1937(3) 0.1939(2) -0.30045(15) 0.0240 Uani
C3M C 0.3158(4) 0.3147(3) -0.1723(2) 0.0227 Uani
O3A O 0.1694(3) 0.1747(3) 0.06893(18) 0.0397 Uani
C4M C 0.2587(5) 0.3584(3) -0.1665(2) 0.0287 Uani
H3M H 0.2030 0.3557 -0.1779 0.0340 Uiso
O4A O 0.0679(3) 0.2187(2) 0.10750(14) 0.0230 Uani
O4F O 0.1821(3) -0.0313(2) -0.14250(14) 0.0230 Uani
O4D O -0.0679(3) 0.2813(2) -0.39250(14) 0.0230 Uani
O5J O -0.2500 0.2500 -0.3841(2) 0.0187 Uani
C5M C 0.2811(5) 0.4061(3) -0.1443(2) 0.0300 Uani
H4M H 0.2397 0.4351 -0.1411 0.0360 Uiso
C6M C 0.2961(4) 0.2635(3) -0.1984(2) 0.0237 Uani
H5M H 0.3399 0.2335 -0.1935 0.0280 Uiso
C7M C 0.2854(4) 0.2734(3) -0.2449(2) 0.0197 Uani
H6M H 0.2581 0.3111 -0.2495 0.0230 Uiso
C8M C 0.3654(4) 0.2691(3) -0.2709(2) 0.0213 Uani
C9M C 0.4277(5) 0.3130(3) -0.2683(3) 0.0320 Uani
H7M H 0.4172 0.3458 -0.2523 0.0390 Uiso
C10M C 0.5035(5) 0.3069(4) -0.2895(3) 0.0343 Uani
H8M H 0.5454 0.3358 -0.2867 0.0420 Uiso
C11M C 0.4645(6) 0.2210(4) -0.3172(3) 0.0380 Uani
H9M H 0.4770 0.1894 -0.3341 0.0460 Uiso
C12M C 0.3856(5) 0.2227(4) -0.2960(3) 0.0360 Uani
H10M H 0.3462 0.1923 -0.2988 0.0430 Uiso
C13A C -0.0307(3) 0.1178(3) -0.0111(2) 0.0530 Uani
C14A C -0.1114(3) 0.1431(4) -0.0067(2) 0.0750 Uani
H11A H -0.1563 0.1338 -0.0251 0.0900 Uiso
C15A C -0.1257(3) 0.1821(4) 0.0250(3) 0.0847 Uani
H12A H -0.1803 0.1992 0.0281 0.1010 Uiso
C16A C -0.0594(4) 0.1958(4) 0.0522(2) 0.0767 Uani
H13A H -0.0691 0.2222 0.0737 0.0920 Uiso
C17A C 0.0214(3) 0.1705(3) 0.0478(2) 0.0573 Uani
C18A C 0.0357(3) 0.1315(3) 0.0161(2) 0.0450 Uani
H14A H 0.0903 0.1144 0.0130 0.0540 Uiso
C19A C -0.0183(4) 0.0760(3) -0.0463(2) 0.0213 Uani
C20A C 0.0923(5) 0.1894(3) 0.0768(2) 0.0260 Uani
C21 C 0.3133(14) -0.0310(14) 0.2386(7) 0.2497 Uani
H15 H 0.2647 -0.0235 0.2552 0.3000 Uiso
C22 C 0.3936(16) -0.0394(12) 0.2568(5) 0.2537 Uani
H16 H 0.3994 -0.0376 0.2857 0.3050 Uiso
C23 C 0.4654(13) -0.0506(6) 0.2322(7) 0.2597 Uani
H17 H 0.5198 -0.0562 0.2445 0.3100 Uiso
C24 C 0.4569(13) -0.0534(12) 0.1895(7) 0.2523 Uani
H18 H 0.5054 -0.0609 0.1729 0.3050 Uiso
C25 C 0.3765(16) -0.0450(15) 0.1712(5) 0.2480 Uani
H19 H 0.3707 -0.0468 0.1423 0.2980 Uiso
C26 C 0.3047(13) -0.0338(11) 0.1958(7) 0.2447 Uani
H20 H 0.2504 -0.0282 0.1835 0.2930 Uiso
C27 C 0.2539(19) -0.1429(15) 0.1098(7) 0.2800 Uani
H21 H 0.2342 -0.1451 0.1373 0.3340 Uiso
C28 C 0.301(2) -0.1878(11) 0.0929(10) 0.2767 Uani
H22 H 0.3131 -0.2203 0.1089 0.3320 Uiso
C29 C 0.3302(18) -0.1844(12) 0.0523(10) 0.2767 Uani
H23 H 0.3621 -0.2148 0.0408 0.3300 Uiso
C30 C 0.3123(19) -0.1362(14) 0.0286(7) 0.2733 Uani
H24 H 0.3321 -0.1340 0.0012 0.3270 Uiso
C31 C 0.2652(18) -0.0914(10) 0.0456(9) 0.2707 Uani
H25 H 0.2531 -0.0588 0.0295 0.3270 Uiso
C32 C 0.2360(17) -0.0947(12) 0.0861(10) 0.2767 Uani
H26 H 0.2042 -0.0644 0.0976 0.3290 Uiso
loop_
_atom_site_aniso_label
_atom_site_aniso_U_11
_atom_site_aniso_U_22
_atom_site_aniso_U_33
_atom_site_aniso_U_23
_atom_site_aniso_U_13
_atom_site_aniso_U_12
Ni1 0.0166(4) 0.0174(4) 0.0157(4) -0.0005(4) 0.0003(3) -0.0012(3)
O1 0.021(2) 0.032(3) 0.021(2) 0.006(2) 0.006(2) -0.003(2)
N1 0.032(3) 0.025(3) 0.019(3) 0.000(3) 0.002(3) -0.004(2)
C1 0.022(3) 0.029(4) 0.035(4) 0.001(3) 0.009(3) 0.003(3)
C2 0.023(3) 0.026(4) 0.038(4) 0.006(3) 0.005(3) -0.001(3)
N2 0.020(3) 0.028(3) 0.022(3) 0.004(2) -0.001(2) 0.002(2)
O2 0.022(2) 0.029(3) 0.021(2) 0.010(2) 0.002(2) 0.001(2)
C3 0.023(3) 0.020(3) 0.025(4) 0.004(3) -0.006(3) -0.007(3)
O3 0.026(3) 0.058(4) 0.035(3) 0.025(3) -0.001(2) 0.008(3)
C4 0.025(3) 0.028(4) 0.033(4) 0.002(3) 0.007(3) -0.004(3)
O4 0.023(2) 0.028(3) 0.018(2) 0.008(2) 0.0008(19) -0.001(2)
O5 0.024(3) 0.019(3) 0.013(3) 0.000 0.000 -0.001(3)
C5 0.019(3) 0.032(4) 0.039(4) 0.009(3) -0.002(3) 0.001(3)
C6 0.015(3) 0.025(3) 0.031(4) -0.002(3) 0.003(3) -0.005(3)
C7 0.014(3) 0.019(3) 0.026(4) 0.001(3) 0.000(3) -0.006(3)
C8 0.018(3) 0.027(3) 0.019(4) -0.001(3) 0.002(3) -0.005(3)
C9 0.024(4) 0.028(4) 0.044(5) 0.017(4) -0.015(3) -0.007(3)
C10 0.030(4) 0.036(4) 0.037(4) 0.012(4) -0.012(3) -0.014(3)
C11 0.041(4) 0.038(4) 0.035(4) 0.007(4) -0.014(4) -0.010(4)
C12 0.031(4) 0.033(4) 0.044(5) 0.014(4) -0.018(4) -0.017(3)
C13 0.026(3) 0.079(4) 0.054(4) 0.050(4) 0.015(3) 0.011(3)
C14 0.037(3) 0.109(5) 0.079(4) 0.062(4) 0.023(3) 0.021(3)
C15 0.042(3) 0.122(5) 0.090(4) 0.070(4) 0.022(3) 0.032(4)
C16 0.040(3) 0.110(5) 0.080(4) 0.070(4) 0.018(3) 0.030(3)
C17 0.028(3) 0.084(4) 0.060(4) 0.056(4) 0.013(3) 0.018(3)
C18 0.020(3) 0.068(4) 0.047(4) 0.043(3) 0.009(3) 0.009(3)
C19 0.022(3) 0.020(3) 0.022(4) 0.002(3) 0.003(3) -0.004(3)
C20 0.027(4) 0.024(4) 0.027(4) 0.001(3) 0.010(3) 0.000(3)
Ni1A 0.0166 0.0174 0.0157 0.0005 -0.0003 -0.0012
Ni1J 0.0166 0.0174 0.0157 0.0005 0.0003 0.0012
Ni1N 0.0166 0.0174 0.0157 0.0005 0.0003 0.0012
Ni1M 0.0166 0.0174 0.0157 0.0005 -0.0003 -0.0012
Ni1K 0.0166 0.0174 0.0157 -0.0005 -0.0003 0.0012
Ni1C 0.0166 0.0174 0.0157 -0.0005 -0.0003 0.0012
O1A 0.021 0.032 0.021 -0.006 -0.006 -0.003
O1J 0.021 0.032 0.021 -0.006 0.006 0.003
N1M 0.032 0.025 0.019 0 -0.002 -0.004
N1J 0.032 0.025 0.019 0 0.002 0.004
C1M 0.022 0.029 0.035 -0.001 -0.009 0.003
C2M 0.023 0.026 0.038 -0.006 -0.005 -0.001
N2M 0.02 0.028 0.022 -0.004 0.001 0.002
N2B 0.02 0.028 0.022 -0.004 -0.001 -0.002
O2A 0.022 0.029 0.021 -0.01 -0.002 0.001
O2K 0.022 0.029 0.021 0.01 -0.002 -0.001
C3M 0.023 0.02 0.025 -0.004 0.006 -0.007
O3A 0.026 0.058 0.035 -0.025 0.001 0.008
C4M 0.025 0.028 0.033 -0.002 -0.007 -0.004
O4A 0.023 0.028 0.018 -0.008 -0.0008 -0.001
O4F 0.023 0.028 0.018 -0.008 0.0008 0.001
O4D 0.023 0.028 0.018 0.008 0.0008 -0.001
O5J 0.024 0.019 0.013 0 0 0.001
C5M 0.019 0.032 0.039 -0.009 0.002 0.001
C6M 0.015 0.025 0.031 0.002 -0.003 -0.005
C7M 0.014 0.019 0.026 -0.001 0 -0.006
C8M 0.018 0.027 0.019 0.001 -0.002 -0.005
C9M 0.024 0.028 0.044 -0.017 0.015 -0.007
C10M 0.03 0.036 0.037 -0.012 0.012 -0.014
C11M 0.041 0.038 0.035 -0.007 0.014 -0.01
C12M 0.031 0.033 0.044 -0.014 0.018 -0.017
C13A 0.026 0.079 0.054 -0.05 -0.015 0.011
C14A 0.037 0.109 0.079 -0.062 -0.023 0.021
C15A 0.042 0.122 0.09 -0.07 -0.022 0.032
C16A 0.04 0.11 0.08 -0.07 -0.018 0.03
C17A 0.028 0.084 0.06 -0.056 -0.013 0.018
C18A 0.02 0.068 0.047 -0.043 -0.009 0.009
C19A 0.022 0.02 0.022 -0.002 -0.003 -0.004
C20A 0.027 0.024 0.027 -0.001 -0.01 0
C21 0.158(13) 0.43(2) 0.161(13) -0.017(18) -0.021(12) -0.050(18)
C22 0.167(14) 0.43(2) 0.164(13) -0.017(18) -0.017(11) -0.042(18)
C23 0.169(13) 0.44(2) 0.170(13) -0.020(18) -0.023(12) -0.040(18)
C24 0.166(13) 0.43(2) 0.161(13) -0.013(18) -0.033(12) -0.037(18)
C25 0.161(14) 0.43(2) 0.153(13) -0.013(18) -0.040(11) -0.035(18)
C26 0.155(13) 0.43(2) 0.149(13) -0.010(18) -0.033(11) -0.045(18)
C27 0.37(3) 0.22(2) 0.25(2) 0.085(18) -0.09(2) -0.12(2)
C28 0.37(3) 0.22(2) 0.24(2) 0.089(18) -0.10(2) -0.12(2)
C29 0.37(3) 0.22(2) 0.24(2) 0.089(18) -0.10(2) -0.12(2)
C30 0.36(3) 0.22(2) 0.240(19) 0.087(18) -0.11(2) -0.13(2)
C31 0.36(3) 0.212(19) 0.24(2) 0.080(18) -0.10(2) -0.14(2)
C32 0.37(3) 0.210(19) 0.25(2) 0.080(18) -0.10(2) -0.14(2)
loop_
_geom_bond_atom_site_label_1
_geom_bond_atom_site_label_2
_geom_bond_site_symmetry_1
_geom_bond_site_symmetry_2
Ni1 O1 1_555 1_555
O1 C19 1_555 1_555
N1 Ni1 1_555 1_555
C1 N1 1_555 1_555
H1 C1 1_555 1_555
C2 C1 1_555 1_555
H2 C2 1_555 1_555
N2 C10 1_555 1_555
O2 C19 1_555 1_555
C3 C2 1_555 1_555
O3 C20 1_555 1_555
C4 C3 1_555 1_555
H3 C4 1_555 1_555
O4 C20 1_555 1_555
O5 Ni1 1_555 1_555
C5 N1 1_555 1_555
H4 C5 1_555 1_555
C6 C3 1_555 1_555
H5 C6 1_555 1_555
C7 C6 1_555 1_555
H6 C7 1_555 1_555
C8 C7 1_555 1_555
C9 C8 1_555 1_555
H7 C9 1_555 1_555
C10 C9 1_555 1_555
H8 C10 1_555 1_555
C11 N2 1_555 1_555
H9 C11 1_555 1_555
C12 C8 1_555 1_555
H10 C12 1_555 1_555
C13 C14 1_555 1_555
C14 H11 1_555 1_555
C15 C14 1_555 1_555
H12 C15 1_555 1_555
C16 C15 1_555 1_555
H13 C16 1_555 1_555
C17 C16 1_555 1_555
C18 C13 1_555 1_555
H14 C18 1_555 1_555
C19 C13 1_555 1_555
C20 C17 1_555 1_555
C21 H15 1_555 1_555
C22 C21 1_555 1_555
H16 C22 1_555 1_555
C23 C22 1_555 1_555
H17 C23 1_555 1_555
C24 C23 1_555 1_555
H18 C24 1_555 1_555
C25 C24 1_555 1_555
H19 C25 1_555 1_555
C26 C21 1_555 1_555
H20 C26 1_555 1_555
C27 H21 1_555 1_555
C28 C27 1_555 1_555
H22 C28 1_555 1_555
C29 C28 1_555 1_555
H23 C29 1_555 1_555
C30 C29 1_555 1_555
H24 C30 1_555 1_555
C31 C30 1_555 1_555
H25 C31 1_555 1_555
C32 C27 1_555 1_555
H26 C32 1_555 1_555
Ni1A O2 1_555 1_555
Ni1J N2 1_555 1_555
Ni1N O4 1_555 1_555
Ni1M N1M 1_555 1_555
Ni1K N2M 1_555 1_555
Ni1C O4A 1_555 1_555
O1A Ni1A 1_555 1_555
O1J Ni1J 1_555 1_555
N1M C1M 1_555 1_555
N1J Ni1J 1_555 1_555
C1M H1M 1_555 1_555
C2M C1M 1_555 1_555
H2M C2M 1_555 1_555
N2M C10M 1_555 1_555
N2B Ni1 1_555 1_555
O2A Ni1 1_555 1_555
O2K Ni1J 1_555 1_555
C3M C2M 1_555 1_555
O3A C20A 1_555 1_555
C4M C3M 1_555 1_555
H3M C4M 1_555 1_555
O4A C20A 1_555 1_555
O4F Ni1 1_555 1_555
O4D Ni1J 1_555 1_555
O5J Ni1J 1_555 1_555
C5M N1M 1_555 1_555
H4M C5M 1_555 1_555
C6M C6 1_555 1_555
H5M C6M 1_555 1_555
C7M C7 1_555 1_555
H6M C7M 1_555 1_555
C8M C7M 1_555 1_555
C9M C8M 1_555 1_555
H7M C9M 1_555 1_555
C10M C9M 1_555 1_555
H8M C10M 1_555 1_555
C11M N2M 1_555 1_555
H9M C11M 1_555 1_555
C12M C8M 1_555 1_555
H10M C12M 1_555 1_555
C13A C14A 1_555 1_555
C14A H11A 1_555 1_555
C15A C14A 1_555 1_555
H12A C15A 1_555 1_555
C16A C15A 1_555 1_555
H13A C16A 1_555 1_555
C17A C16A 1_555 1_555
C18A C13A 1_555 1_555
H14A C18A 1_555 1_555
C19A O1A 1_555 1_555
C20A C17A 1_555 1_555
C4 C5 1_555 1_555
O5 Ni1A 1_555 1_555
C11 C12 1_555 1_555
C17 C18 1_555 1_555
C25 C26 1_555 1_555
C31 C32 1_555 1_555
O2A C19A 1_555 1_555
C3M C6M 1_555 1_555
C4M C5M 1_555 1_555
C6M C7M 1_555 1_555
C11M C12M 1_555 1_555
C13A C19A 1_555 1_555
C17A C18A 1_555 1_555

#END
