
#######################################################################
#
#                 Cambridge Crystallographic Data Centre
#                                CCDC 
#
#######################################################################
#
# If this CIF has been generated from an entry in the Cambridge 
# Structural Database, then it will include bibliographic, chemical, 
# crystal, experimental, refinement or atomic coordinate data resulting 
# from the CCDC's data processing and validation procedures.
#
#######################################################################

data_UZUNAF01
_chemical_formula_moiety         '(C22 H22 Cu2 N4 O8)n,4n(H2 O1)'
_chemical_name_systematic        
"catena-[bis(\m~4~-Glutarato)-(\m~2~-N,N'-bis(pyridin-4-ylmethylene)hydrazine)-di-copper tetrahydrate]"
_symmetry_cell_setting           monoclinic
_symmetry_space_group_name_H-M   'C 2/c'
_symmetry_Int_Tables_number      15
_space_group_name_Hall           '-C 2yc'
loop_
_symmetry_equiv_pos_site_id
_symmetry_equiv_pos_as_xyz
1 x,y,z
2 -x,y,1/2-z
3 1/2+x,1/2+y,z
4 1/2-x,1/2+y,1/2-z
5 -x,-y,-z
6 x,-y,1/2+z
7 1/2-x,1/2-y,-z
8 1/2+x,1/2-y,1/2+z
_cell_length_a                   27.633(5)
_cell_length_b                   13.153(5)
_cell_length_c                   8.641(5)
_cell_angle_alpha                90
_cell_angle_beta                 95.500(5)
_cell_angle_gamma                90
_cell_volume                     3126.17
_exptl_crystal_colour            green
_exptl_crystal_description       parallelepiped
_cell_formula_units_Z            4
_exptl_crystal_preparation       'rehydrated sample'
loop_
_atom_site_label
_atom_site_type_symbol
_atom_site_fract_x
_atom_site_fract_y
_atom_site_fract_z
Cu1 Cu 0.28952(2) 0.20439(4) -0.03810(6)
O1 O 0.31591(15) 0.2214(3) 0.1812(4)
O2 O 0.31230(13) 0.3434(3) -0.0741(4)
O3 O 0.24789(14) 0.2943(3) 0.2440(4)
O4 O 0.24533(13) 0.4205(2) -0.0131(4)
N1 N 0.34898(15) 0.1292(3) -0.1411(4)
N2 N 0.48460(17) 0.0336(4) -0.4624(5)
C1 C 0.3845(2) 0.1812(4) -0.1962(6)
H1 H 0.3865 0.2506 -0.1763
C2 C 0.4183(2) 0.1383(5) -0.2805(6)
H2 H 0.4425 0.1783 -0.3177
C3 C 0.41663(19) 0.0361(4) -0.3105(5)
C4 C 0.38012(19) -0.0182(4) -0.2545(6)
H3 H 0.3774 -0.0877 -0.2737
C5 C 0.3474(2) 0.0298(4) -0.1698(6)
H4 H 0.3231 -0.0087 -0.1307
C6 C 0.4523(2) -0.0160(5) -0.3967(6)
H5 H 0.4516 -0.0866 -0.4039
C7 C 0.2906(2) 0.2655(4) 0.2755(5)
C8 C 0.3152(2) 0.2879(4) 0.4365(5)
H6 H 0.3084 0.2331 0.5063
H7 H 0.3501 0.2906 0.4318
C9 C 0.2979(2) 0.3893(4) 0.5021(5)
H8 H 0.3142 0.3999 0.6053
H9 H 0.2633 0.3856 0.5111
C10 C 0.3084(2) 0.4789(4) 0.3992(6)
H10 H 0.2963 0.4628 0.2930
H11 H 0.3433 0.4872 0.4020
C11 C 0.2865(2) 0.4206(4) -0.0572(5)
Cu1F Cu 0.21048(2) 0.29561(4) 0.03810(6)
Cu1E Cu 0.28952(2) 0.79561(4) 0.46190(6)
Cu1C Cu 0.21048(2) 0.70439(4) 0.53810(6)
Cu1E_2 Cu 0.28952(2) 0.79561(4) -0.53810(6)
Cu1C_2 Cu 0.21048(2) 0.70439(4) -0.46190(6)
Cu1D Cu 0.71048(2) -0.20439(4) -0.96190(6)
O1E O 0.31591(15) 0.7786(3) -0.3188(4)
O1D O 0.68409(15) -0.2214(3) -1.1812(4)
O2E O 0.31230(13) 0.6566(3) 0.4259(4)
O2D O 0.68770(13) -0.3434(3) -0.9259(4)
O3F O 0.25211(14) 0.2057(3) -0.2440(4)
O3E O 0.24789(14) 0.7057(3) -0.2560(4)
O3B O 0.74789(14) -0.2057(3) -0.7560(4)
O4F O 0.25467(13) 0.0795(2) 0.0131(4)
O4E O 0.24533(13) 0.5795(2) 0.4869(4)
O4B O 0.74533(13) -0.0795(2) -1.0131(4)
N1D N 0.65102(15) -0.1292(3) -0.8589(4)
N2D N 0.51540(17) -0.0336(4) -0.5376(5)
C1D C 0.6155(2) -0.1812(4) -0.8038(6)
H1D H 0.6135 -0.2506 -0.8237
C2D C 0.5817(2) -0.1383(5) -0.7195(6)
H2D H 0.5575 -0.1783 -0.6823
C3D C 0.58337(19) -0.0361(4) -0.6895(5)
C4D C 0.61988(19) 0.0182(4) -0.7455(6)
H3D H 0.6226 0.0877 -0.7263
C5D C 0.6526(2) -0.0298(4) -0.8302(6)
H4D H 0.6769 0.0087 -0.8693
C6D C 0.5477(2) 0.0160(5) -0.6033(6)
H5D H 0.5484 0.0866 -0.5961
C7E C 0.2906(2) 0.7345(4) -0.2245(5)
C8E C 0.3152(2) 0.7121(4) -0.0635(5)
H6E H 0.3084 0.7669 0.0063
H7E H 0.3501 0.7094 -0.0682
C9E C 0.2979(2) 0.6107(4) 0.0021(5)
H8E H 0.3142 0.6001 0.1053
H9E H 0.2633 0.6144 0.0111
C10E C 0.3084(2) 0.5211(4) -0.1008(6)
H10E H 0.2963 0.5372 -0.2070
H11E H 0.3433 0.5128 -0.0980
C11E C 0.2865(2) 0.5794(4) 0.4428(5)
O5 O 0.4716(9) 0.2615(16) -0.593(3)
O6 O 0.4611(12) 0.4040(18) -0.065(3)
O7 O 0.4148(4) 0.3368(13) 0.1538(15)
H12 H 0.43120 0.29766 0.20408
H13 H 0.40532 0.38820 0.20300
loop_
_geom_bond_atom_site_label_1
_geom_bond_atom_site_label_2
_geom_bond_site_symmetry_1
_geom_bond_site_symmetry_2
Cu1 O1 1_555 1_555
O1 C7 1_555 1_555
O2 Cu1 1_555 1_555
O3 C7 1_555 1_555
O4 C11 1_555 1_555
N1 Cu1 1_555 1_555
N2 C6 1_555 1_555
C1 N1 1_555 1_555
H1 C1 1_555 1_555
C2 C1 1_555 1_555
H2 C2 1_555 1_555
C3 C2 1_555 1_555
C4 C3 1_555 1_555
H3 C4 1_555 1_555
C5 N1 1_555 1_555
H4 C5 1_555 1_555
C6 C3 1_555 1_555
H5 C6 1_555 1_555
C7 C8 1_555 1_555
C8 H6 1_555 1_555
H7 C8 1_555 1_555
C9 C8 1_555 1_555
H8 C9 1_555 1_555
H9 C9 1_555 1_555
C10 C9 1_555 1_555
H10 C10 1_555 1_555
H11 C10 1_555 1_555
C11 O2 1_555 1_555
O7 H12 1_555 1_555
H13 O7 1_555 1_555
Cu1F O3 1_555 1_555
Cu1E O2E 1_555 1_555
Cu1C O4E 1_555 1_555
Cu1E_2 O1E 1_555 1_555
Cu1C_2 O3E 1_555 1_555
Cu1D O1D 1_555 1_555
O1E C7E 1_555 1_555
O2E C11E 1_555 1_555
O2D Cu1D 1_555 1_555
O3F Cu1 1_555 1_555
O3E C7E 1_555 1_555
O3B Cu1D 1_555 1_555
O4F Cu1 1_555 1_555
O4E C11E 1_555 1_555
O4B Cu1D 1_555 1_555
N1D Cu1D 1_555 1_555
N2D N2 1_555 1_555
C1D N1D 1_555 1_555
H1D C1D 1_555 1_555
C2D C1D 1_555 1_555
H2D C2D 1_555 1_555
C3D C2D 1_555 1_555
C4D C3D 1_555 1_555
H3D C4D 1_555 1_555
C5D N1D 1_555 1_555
H4D C5D 1_555 1_555
C6D N2D 1_555 1_555
H5D C6D 1_555 1_555
C7E C8E 1_555 1_555
C8E H6E 1_555 1_555
H7E C8E 1_555 1_555
C9E C8E 1_555 1_555
H8E C9E 1_555 1_555
H9E C9E 1_555 1_555
C10E C11 1_555 1_555
H10E C10E 1_555 1_555
H11E C10E 1_555 1_555
C11E C10 1_555 1_555
O4 Cu1F 1_555 1_555
C4 C5 1_555 1_555
C3D C6D 1_555 1_555
C4D C5D 1_555 1_555
C9E C10E 1_555 1_555

#END
