
#######################################################################
#
#                 Cambridge Crystallographic Data Centre
#                                CCDC 
#
#######################################################################
#
# If this CIF has been generated from an entry in the Cambridge 
# Structural Database, then it will include bibliographic, chemical, 
# crystal, experimental, refinement or atomic coordinate data resulting 
# from the CCDC's data processing and validation procedures.
#
#######################################################################

data_PUBROU
_chemical_formula_moiety         '(C26 H16 Cu2 O10)n,3n(C3 H7 N1 O1),3n(H2 O1)'
_chemical_name_systematic        
'catena-[(\m~8~-Naphthalene-2,6-diylbis(benzene-3,5-dicarboxylato))-diaqua-di-copper(ii) dimethylformamide solvate trihydrate]'
_symmetry_cell_setting           rhombohedral
_symmetry_space_group_name_H-M   'R -3 m'
_symmetry_Int_Tables_number      166
_space_group_name_Hall           '-R 3 2"'
loop_
_symmetry_equiv_pos_site_id
_symmetry_equiv_pos_as_xyz
1 x,y,z
2 -y,x-y,z
3 -x+y,-x,z
4 y,x,-z
5 x-y,-y,-z
6 -x,-x+y,-z
7 2/3+x,1/3+y,1/3+z
8 2/3-y,1/3+x-y,1/3+z
9 2/3-x+y,1/3-x,1/3+z
10 2/3+y,1/3+x,1/3-z
11 2/3+x-y,1/3-y,1/3-z
12 2/3-x,1/3-x+y,1/3-z
13 1/3+x,2/3+y,2/3+z
14 1/3-y,2/3+x-y,2/3+z
15 1/3-x+y,2/3-x,2/3+z
16 1/3+y,2/3+x,2/3-z
17 1/3+x-y,2/3-y,2/3-z
18 1/3-x,2/3-x+y,2/3-z
19 -x,-y,-z
20 y,-x+y,-z
21 x-y,x,-z
22 -y,-x,z
23 -x+y,y,z
24 x,x-y,z
25 1/3-x,2/3-y,2/3-z
26 1/3+y,2/3-x+y,2/3-z
27 1/3+x-y,2/3+x,2/3-z
28 1/3-y,2/3-x,2/3+z
29 1/3-x+y,2/3+y,2/3+z
30 1/3+x,2/3+x-y,2/3+z
31 2/3-x,1/3-y,1/3-z
32 2/3+y,1/3-x+y,1/3-z
33 2/3+x-y,1/3+x,1/3-z
34 2/3-y,1/3-x,1/3+z
35 2/3-x+y,1/3+y,1/3+z
36 2/3+x,1/3+x-y,1/3+z
_cell_length_a                   18.513(1)
_cell_length_b                   18.513(1)
_cell_length_c                   45.354(5)
_cell_angle_alpha                90
_cell_angle_beta                 90
_cell_angle_gamma                120
_cell_volume                     13461.7
_exptl_crystal_colour            blue
_exptl_crystal_description       block
_cell_formula_units_Z            9
loop_
_atom_site_label
_atom_site_type_symbol
_atom_site_fract_x
_atom_site_fract_y
_atom_site_fract_z
Cu1 Cu 0.85738(4) 0.14262(4) 0.14272(2)
O1 O 0.8959(10) 0.1325(11) 0.0990(3)
O3 O 0.7430(3) 0.1048(3) 0.12907(10)
O4 O 0.7022(4) 0.1453(3) 0.16960(11)
C1 C 0.6989(4) 0.1229(4) 0.14179(16)
C2 C 0.5560(6) 0.1119(3) 0.1424(2)
H1 H 0.5649 0.1298 0.1619
C3 C 0.6169(4) 0.1000(4) 0.12938(13)
C4 C 0.5992(4) 0.0684(5) 0.10038(14)
H2 H 0.6373 0.0580 0.0906
C5 C 0.5262(7) 0.0522(4) 0.0859(2)
C6 C 0.5331(5) 0.0241(5) 0.05419(15)
C7 C 0.5530(5) -0.0358(5) 0.04534(16)
H3 H 0.5735 -0.0585 0.0589
C8 C 0.5421(4) -0.0616(4) 0.01609(18)
C9 C 0.5115(4) -0.0276(5) -0.00429(15)
C10 C 0.5024(5) 0.0581(6) 0.0338(2)
Cu1B Cu 0.28524(6) 0.14262(4) 0.14272(2)
Cu1I Cu 0.80929(4) 0.19071(4) 0.19061(2)
Cu1J Cu 0.38143(6) 0.19071(4) 0.19061(2)
Cu1C Cu 0.14262(4) -0.14262(4) -0.14272(2)
Cu1L Cu 0.19071(4) -0.19071(4) -0.19061(2)
Cu1D Cu 0.71476(6) -0.14262(4) -0.14272(2)
Cu1N Cu 0.61857(6) -0.19071(4) -0.19061(2)
O1U O 0.8675(11) 0.1041(10) 0.0990(3)
O1V O 0.2366(15) 0.1325(11) 0.0990(3)
O1B O 0.2366(15) 0.1041(10) 0.0990(3)
O3V O 0.3618(4) 0.1048(3) 0.12907(10)
O3R O 0.2570(3) -0.1048(3) -0.12907(10)
O3D O 0.6382(4) -0.1048(3) -0.12907(10)
O3U O 0.8952(3) 0.2570(3) 0.12907(10)
O3B O 0.3618(4) 0.2570(3) 0.12907(10)
O4V O 0.4431(5) 0.1453(3) 0.16960(11)
O4R O 0.2978(4) -0.1453(3) -0.16960(11)
O4D O 0.5569(5) -0.1453(3) -0.16960(11)
O4I O 0.8120(3) 0.0355(4) 0.16373(11)
O4DA O 0.9645(4) 0.1880(3) 0.16373(11)
O4FA O 0.2236(5) 0.0355(4) 0.16373(11)
O4J O 0.2236(5) 0.1880(3) 0.16373(11)
C1V C 0.4240(6) 0.1229(4) 0.14179(16)
C1R C 0.3011(4) -0.1229(4) -0.14179(16)
C1D C 0.5760(6) -0.1229(4) -0.14179(16)
C2R C 0.4440(6) -0.1119(3) -0.1424(2)
H1D H 0.4351 -0.1298 -0.1619
C3V C 0.4831(6) 0.1000(4) 0.12938(13)
C3R C 0.3831(4) -0.1000(4) -0.12938(13)
C3D C 0.5169(6) -0.1000(4) -0.12938(13)
C4V C 0.4692(6) 0.0684(5) 0.10038(14)
C4R C 0.4008(4) -0.0684(5) -0.10038(14)
C4D C 0.5308(6) -0.0684(5) -0.10038(14)
H2V H 0.4207 0.0580 0.0906
H2D H 0.5793 -0.0580 -0.0906
H2R H 0.3627 -0.0580 -0.0906
C5R C 0.4738(7) -0.0522(4) -0.0859(2)
C6V C 0.4910(7) 0.0241(5) 0.05419(15)
C6R C 0.4669(5) -0.0241(5) -0.05419(15)
C6D C 0.5090(7) -0.0241(5) -0.05419(15)
C7V C 0.4112(7) -0.0358(5) 0.04534(16)
C7R C 0.4470(5) 0.0358(5) -0.04534(16)
C7D C 0.5888(7) 0.0358(5) -0.04534(16)
H3V H 0.3680 -0.0585 0.0589
H3D H 0.6320 0.0585 -0.0589
H3R H 0.4265 0.0585 -0.0589
C8V C 0.3963(6) -0.0616(4) 0.01609(18)
C8R C 0.4579(4) 0.0616(4) -0.01609(18)
C8D C 0.6037(6) 0.0616(4) -0.01609(18)
C9V C 0.4609(6) -0.0276(5) -0.00429(15)
C9R C 0.4885(4) 0.0276(5) 0.00429(15)
C9D C 0.5391(6) 0.0276(5) 0.00429(15)
C10V C 0.5557(8) 0.0581(6) 0.0338(2)
C10R C 0.4976(5) -0.0581(6) -0.0338(2)
C10D C 0.4443(8) -0.0581(6) -0.0338(2)
O2? O 0.8890(7) 0.0751(8) 0.1072(3)
loop_
_geom_bond_atom_site_label_1
_geom_bond_atom_site_label_2
_geom_bond_site_symmetry_1
_geom_bond_site_symmetry_2
Cu1 O1 1_555 1_555
O1 O1U 1_555 1_555
O3 Cu1 1_555 1_555
O4 C1 1_555 1_555
C1 O3 1_555 1_555
C2 H1 1_555 1_555
C3 C1 1_555 1_555
C4 C3 1_555 1_555
H2 C4 1_555 1_555
C5 C4 1_555 1_555
C6 C5 1_555 1_555
C7 C6 1_555 1_555
H3 C7 1_555 1_555
C8 C7 1_555 1_555
C9 C8 1_555 1_555
C10 C6 1_555 1_555
Cu1B O1V 1_555 1_555
Cu1I O4 1_555 1_555
Cu1J O4V 1_555 1_555
Cu1C O3R 1_555 1_555
Cu1L O4R 1_555 1_555
Cu1D O3D 1_555 1_555
Cu1N O4D 1_555 1_555
O1U Cu1 1_555 1_555
O1V O1B 1_555 1_555
O1B Cu1B 1_555 1_555
O3V Cu1B 1_555 1_555
O3R C1R 1_555 1_555
O3D C1D 1_555 1_555
O3U Cu1 1_555 1_555
O3B Cu1B 1_555 1_555
O4V C1V 1_555 1_555
O4R C1R 1_555 1_555
O4D C1D 1_555 1_555
O4I Cu1 1_555 1_555
O4DA Cu1 1_555 1_555
O4FA Cu1B 1_555 1_555
O4J Cu1B 1_555 1_555
C1V O3V 1_555 1_555
C1R C3R 1_555 1_555
C1D C3D 1_555 1_555
C2R H1D 1_555 1_555
C3V C2 1_555 1_555
C3R C2R 1_555 1_555
C3D C2R 1_555 1_555
C4V C5 1_555 1_555
C4R C3R 1_555 1_555
C4D C3D 1_555 1_555
H2V C4V 1_555 1_555
H2D C4D 1_555 1_555
H2R C4R 1_555 1_555
C5R C4R 1_555 1_555
C6V C5 1_555 1_555
C6R C5R 1_555 1_555
C6D C5R 1_555 1_555
C7V C6V 1_555 1_555
C7R C6R 1_555 1_555
C7D C6D 1_555 1_555
H3V C7V 1_555 1_555
H3D C7D 1_555 1_555
H3R C7R 1_555 1_555
C8V C7V 1_555 1_555
C8R C7R 1_555 1_555
C8D C7D 1_555 1_555
C9V C9 1_555 1_555
C9R C9 1_555 1_555
C9D C9 1_555 1_555
C10V C6 1_555 1_555
C10R C9 1_555 1_555
C10D C9 1_555 1_555
C2 C3 1_555 1_555
C6 C6V 1_555 1_555
C10 C6V 1_555 1_555
C10 C9R 1_555 1_555
C10 C9D 1_555 1_555
C10 C10V 1_555 1_555
C1V C3V 1_555 1_555
C3V C4V 1_555 1_555
C4D C5R 1_555 1_555
C6V C10V 1_555 1_555
C6R C6D 1_555 1_555
C6R C10R 1_555 1_555
C6R C10D 1_555 1_555
C6D C10R 1_555 1_555
C6D C10D 1_555 1_555
C8V C9V 1_555 1_555
C8R C9R 1_555 1_555
C8D C9D 1_555 1_555
C9V C9R 1_555 1_555
C9V C9D 1_555 1_555
C9V C10R 1_555 1_555
C9V C10D 1_555 1_555
C9R C9D 1_555 1_555
C9R C10V 1_555 1_555
C9D C10V 1_555 1_555
C10R C10D 1_555 1_555

#END
