
#######################################################################
#
#                 Cambridge Crystallographic Data Centre
#                                CCDC 
#
#######################################################################
#
# If this CIF has been generated from an entry in the Cambridge 
# Structural Database, then it will include bibliographic, chemical, 
# crystal, experimental, refinement or atomic coordinate data resulting 
# from the CCDC's data processing and validation procedures.
#
#######################################################################

data_FALSAO
_chemical_formula_moiety         '(C26 H24 Co1 N7 1+)n,n(C2 N3 1-),4n(H2 O1)'
_chemical_name_systematic        
"catena-(bis(\m~2~-4,4'-ethane-1,2-diyldipyridine)-(\m~2~-dicyanamide)-cobalt(ii) dicyanamide tetrahydrate)"
_symmetry_cell_setting           monoclinic
_symmetry_space_group_name_H-M   'C 2/c'
_symmetry_Int_Tables_number      15
_space_group_name_Hall           '-C 2yc'
loop_
_symmetry_equiv_pos_site_id
_symmetry_equiv_pos_as_xyz
1 x,y,z
2 -x,y,1/2-z
3 1/2+x,1/2+y,z
4 1/2-x,1/2+y,1/2-z
5 -x,-y,-z
6 x,-y,1/2+z
7 1/2-x,1/2-y,-z
8 1/2+x,1/2-y,1/2+z
_cell_length_a                   18.5114(7)
_cell_length_b                   20.0115(8)
_cell_length_c                   8.7093(3)
_cell_angle_alpha                90
_cell_angle_beta                 100.555(2)
_cell_angle_gamma                90
_cell_volume                     3171.69
_exptl_crystal_colour            orange
_exptl_crystal_description       block
_cell_formula_units_Z            4
loop_
_atom_site_label
_atom_site_type_symbol
_atom_site_fract_x
_atom_site_fract_y
_atom_site_fract_z
N5 N 1.1464(9) 0.251(2) 0.3072(17)
N6 N 1.249(2) 0.2889(9) 0.428(6)
C14 C 1.2025(9) 0.2533(13) 0.392(3)
O1 O 1.0585(9) 0.3410(8) 0.207(2)
O2 O 1.0519(11) 0.4505(13) 0.028(2)
Co1 Co 1.0000 0.175038(19) 0.7500
N1 N 0.91967(12) 0.25373(10) 0.7244(2)
N2 N 1.00115(15) 0.16809(11) 0.9925(3)
N3 N 0.58795(12) 0.60039(10) 0.7845(2)
C1 C 0.86973(16) 0.26450(14) 0.5950(3)
H1 H 0.8698 0.2367 0.5095
C2 C 0.91918(18) 0.29613(15) 0.8421(3)
H2 H 0.9545 0.2909 0.9321
C3 C 0.8182(2) 0.31475(16) 0.5823(4)
H3 H 0.7849 0.3203 0.4893
C4 C 0.8156(2) 0.35669(17) 0.7060(4)
C5 C 0.64993(17) 0.61052(15) 0.7325(4)
H4 H 0.6558 0.6508 0.6829
C6 C 0.8691(2) 0.34736(19) 0.8376(4)
H5 H 0.8712 0.3756 0.9230
C7 C 0.58207(18) 0.54224(15) 0.8569(4)
H6 H 0.5404 0.5347 0.8999
C8 C 0.6983(2) 0.50257(19) 0.8165(4)
C9 C 0.6351(2) 0.49270(16) 0.8708(5)
H7 H 0.6273 0.4523 0.9178
C10 C 1.0004(2) 0.15246(17) 1.1164(3)
N4 N 1.0148(11) 0.1253(3) 1.2545(16)
C11 C 0.7565(3) 0.4491(3) 0.8364(6)
H8 H 0.8042 0.4699 0.8691
H9 H 0.7484 0.4190 0.9189
C12 C 0.7066(2) 0.5642(2) 0.7482(4)
H10 H 0.7498 0.5744 0.7132
C13 C 0.7576(3) 0.4100(2) 0.6934(5)
H11 H 0.7643 0.4406 0.6108
H12 H 0.7099 0.3890 0.6622
Co1_2 Co 1.0000 0.175038(19) 1.7500
Co1B Co 0.5000 0.675038(19) 0.7500
Co1B_2 Co 1.5000 0.675038(19) 0.7500
N1A N 1.08033(12) 0.25373(10) 0.7756(2)
N2A N 0.99885(15) 0.16809(11) 1.5075(3)
N2A_2 N 0.99885(15) 0.16809(11) 0.5075(3)
N3A N 1.41205(12) 0.60039(10) 0.7155(2)
N3B N 1.08795(12) 0.10039(10) 0.7845(2)
N3C N 0.91205(12) 0.10039(10) 0.7155(2)
C1A C 1.13027(16) 0.26450(14) 0.9050(3)
H1A H 1.1302 0.2367 0.9905
C2A C 1.08082(18) 0.29613(15) 0.6579(3)
H2A H 1.0455 0.2909 0.5679
C3A C 1.1818(2) 0.31475(16) 0.9177(4)
H3A H 1.2151 0.3203 1.0107
C4A C 1.1844(2) 0.35669(17) 0.7940(4)
C5A C 1.35007(17) 0.61052(15) 0.7675(4)
H4A H 1.3442 0.6508 0.8171
C6A C 1.1309(2) 0.34736(19) 0.6624(4)
H5A H 1.1288 0.3756 0.5770
C7A C 1.41793(18) 0.54224(15) 0.6431(4)
H6A H 1.4596 0.5347 0.6001
C8A C 1.3017(2) 0.50257(19) 0.6835(4)
C9A C 1.3649(2) 0.49270(16) 0.6292(5)
H7A H 1.3727 0.4523 0.5822
C10A C 0.9996(2) 0.15246(17) 1.3836(3)
N4A N 0.9852(11) 0.1253(3) 1.2455(16)
C11A C 1.2435(3) 0.4491(3) 0.6636(6)
H8A H 1.1958 0.4699 0.6309
H9A H 1.2516 0.4190 0.5811
C12A C 1.2934(2) 0.5642(2) 0.7518(4)
H10A H 1.2502 0.5744 0.7868
C13A C 1.2424(3) 0.4100(2) 0.8066(5)
H11A H 1.2357 0.4406 0.8892
H12A H 1.2901 0.3890 0.8378
loop_
_geom_bond_atom_site_label_1
_geom_bond_atom_site_label_2
_geom_bond_site_symmetry_1
_geom_bond_site_symmetry_2
Co1 N1 1_555 1_555
N1 C1 1_555 1_555
N2 Co1 1_555 1_555
N3 C5 1_555 1_555
C1 H1 1_555 1_555
C2 N1 1_555 1_555
H2 C2 1_555 1_555
C3 C1 1_555 1_555
H3 C3 1_555 1_555
C4 C3 1_555 1_555
C5 H4 1_555 1_555
C6 C2 1_555 1_555
H5 C6 1_555 1_555
C7 N3 1_555 1_555
H6 C7 1_555 1_555
C8 C9 1_555 1_555
C9 C7 1_555 1_555
H7 C9 1_555 1_555
C10 N2 1_555 1_555
N4 C10 1_555 1_555
C11 C8 1_555 1_555
H8 C11 1_555 1_555
H9 C11 1_555 1_555
C12 C5 1_555 1_555
H10 C12 1_555 1_555
C13 C4 1_555 1_555
H11 C13 1_555 1_555
H12 C13 1_555 1_555
N5 C14 1_555 1_555
N6 C14 1_555 1_555
Co1_2 N2A 1_555 1_555
Co1B N3 1_555 1_555
Co1B_2 N3A 1_555 1_555
N1A Co1 1_555 1_555
N2A C10A 1_555 1_555
N2A_2 Co1 1_555 1_555
N3A C5A 1_555 1_555
N3B Co1 1_555 1_555
N3C Co1 1_555 1_555
C1A N1A 1_555 1_555
H1A C1A 1_555 1_555
C2A N1A 1_555 1_555
H2A C2A 1_555 1_555
C3A C1A 1_555 1_555
H3A C3A 1_555 1_555
C4A C3A 1_555 1_555
C5A H4A 1_555 1_555
C6A C2A 1_555 1_555
H5A C6A 1_555 1_555
C7A N3A 1_555 1_555
H6A C7A 1_555 1_555
C8A C9A 1_555 1_555
C9A C7A 1_555 1_555
H7A C9A 1_555 1_555
C10A N4 1_555 1_555
N4A C10 1_555 1_555
C11A C8A 1_555 1_555
H8A C11A 1_555 1_555
H9A C11A 1_555 1_555
C12A C5A 1_555 1_555
H10A C12A 1_555 1_555
C13A C4A 1_555 1_555
H11A C13A 1_555 1_555
H12A C13A 1_555 1_555
C4 C6 1_555 1_555
C8 C12 1_555 1_555
C11 C13 1_555 1_555
C4A C6A 1_555 1_555
C8A C12A 1_555 1_555
C10A N4A 1_555 1_555
C11A C13A 1_555 1_555

#END
