
#######################################################################
#
#                 Cambridge Crystallographic Data Centre
#                                CCDC 
#
#######################################################################
#
# If this CIF has been generated from an entry in the Cambridge 
# Structural Database, then it will include bibliographic, chemical, 
# crystal, experimental, refinement or atomic coordinate data resulting 
# from the CCDC's data processing and validation procedures.
#
#######################################################################

data_FECXOC
_chemical_formula_moiety         
'(C72 H48 Cl3 Co12 N96 O12 3-)n,1.5(C24 H54 Co1 N6 O6 2+),6(H2 O1)'
_chemical_name_systematic        
'catena-[sesquikis(hexakis(dimethylacetamide)-cobalt(ii)) octakis(\m~6~-1,3,5-benzenetris(tetrazolato))-tris(\m~4~-chloro)-dodeca-aqua-dodeca-cobalt(ii) hexahydrate]'
_symmetry_cell_setting           cubic
_symmetry_space_group_name_H-M   'P m -3 m'
_symmetry_Int_Tables_number      221
_space_group_name_Hall           '-P 4 2 3'
loop_
_symmetry_equiv_pos_site_id
_symmetry_equiv_pos_as_xyz
1 x,y,z
2 -x,-y,z
3 -x,y,-z
4 x,-y,-z
5 z,x,y
6 z,-x,-y
7 -z,-x,y
8 -z,x,-y
9 y,z,x
10 -y,z,-x
11 y,-z,-x
12 -y,-z,x
13 y,x,-z
14 -y,-x,-z
15 y,-x,z
16 -y,x,z
17 x,z,-y
18 -x,z,y
19 -x,-z,-y
20 x,-z,y
21 z,y,-x
22 z,-y,x
23 -z,y,x
24 -z,-y,-x
25 -x,-y,-z
26 x,y,-z
27 x,-y,z
28 -x,y,z
29 -z,-x,-y
30 -z,x,y
31 z,x,-y
32 z,-x,y
33 -y,-z,-x
34 y,-z,x
35 -y,z,x
36 y,z,-x
37 -y,-x,z
38 y,x,z
39 -y,x,-z
40 y,-x,-z
41 -x,-z,y
42 x,-z,-y
43 x,z,y
44 -x,z,-y
45 -z,-y,x
46 -z,y,-x
47 z,-y,-x
48 z,y,x
_cell_length_a                   18.739(2)
_cell_length_b                   18.739(2)
_cell_length_c                   18.739(2)
_cell_angle_alpha                90
_cell_angle_beta                 90
_cell_angle_gamma                90
_cell_volume                     6580.2
_exptl_crystal_colour            red
_exptl_crystal_description       cubic
_cell_formula_units_Z            1
loop_
_atom_site_label
_atom_site_type_symbol
_atom_site_fract_x
_atom_site_fract_y
_atom_site_fract_z
Co1 Co 0.0000 0.36121(6) 0.5000
Cl1 Cl 0.0000 0.5000 0.5000
N1 N 0.07689(17) 0.36927(19) 0.58102(18)
N2 N 0.13208(18) 0.3251(2) 0.59056(19)
C1 C 0.2279(3) 0.3192(2) 0.6808(2)
C2 C 0.1649(3) 0.3508(2) 0.6492(2)
C3 C 0.2586(3) 0.2586(3) 0.6511(3)
H1 H 0.2382 0.2382 0.6107
O1 O 0.0000 0.2501(4) 0.5000
N1G N 0.41898(18) 0.07689(17) 0.63073(19)
N2G N 0.40944(19) 0.13208(18) 0.6749(2)
C1G C 0.3192(2) 0.2279(3) 0.6808(2)
C2G C 0.3508(2) 0.1649(3) 0.6492(2)
C3G C 0.3489(3) 0.2586(3) 0.7414(3)
H1G H 0.3893 0.2382 0.7618
N1J N 0.36927(19) 0.41898(18) 0.92311(17)
N2J N 0.3251(2) 0.40944(19) 0.86792(18)
C1J C 0.3192(2) 0.3192(2) 0.7721(3)
C2J C 0.3508(2) 0.3508(2) 0.8351(3)
C3J C 0.2586(3) 0.3489(3) 0.7414(3)
H1J H 0.2382 0.3893 0.7618
N1KA N 0.36927(19) 0.07689(17) 0.58102(18)
N2KA N 0.3251(2) 0.13208(18) 0.59056(19)
N1OA N 0.07689(17) 0.41898(18) 0.63073(19)
N2OA N 0.13208(18) 0.40944(19) 0.6749(2)
N1SA N 0.41898(18) 0.36927(19) 0.92311(17)
N2SA N 0.40944(19) 0.3251(2) 0.86792(18)
Co1A Co 0.0000 0.63879(6) 0.5000
O1A O 0.0000 0.7499(4) 0.5000
N1C N 0.07689(17) 0.63073(19) 0.41898(18)
N2C N 0.13208(18) 0.6749(2) 0.40944(19)
C1C C 0.2279(3) 0.6808(2) 0.3192(2)
C2C C 0.1649(3) 0.6492(2) 0.3508(2)
C3C C 0.2586(3) 0.7414(3) 0.3489(3)
H1C H 0.2382 0.7618 0.3893
N1F N 0.41898(18) 0.92311(17) 0.36927(19)
N2F N 0.40944(19) 0.86792(18) 0.3251(2)
C1F C 0.3192(2) 0.7721(3) 0.3192(2)
C2F C 0.3508(2) 0.8351(3) 0.3508(2)
C3F C 0.3489(3) 0.7414(3) 0.2586(3)
H1F H 0.3893 0.7618 0.2382
N1H N 0.36927(19) 0.58102(18) 0.07689(17)
N2H N 0.3251(2) 0.59056(19) 0.13208(18)
C1H C 0.3192(2) 0.6808(2) 0.2279(3)
C2H C 0.3508(2) 0.6492(2) 0.1649(3)
C3H C 0.2586(3) 0.6511(3) 0.2586(3)
H1H H 0.2382 0.6107 0.2382
N1MA N 0.36927(19) 0.92311(17) 0.41898(18)
N2MA N 0.3251(2) 0.86792(18) 0.40944(19)
N1PA N 0.07689(17) 0.58102(18) 0.36927(19)
N2PA N 0.13208(18) 0.59056(19) 0.3251(2)
N1RA N 0.41898(18) 0.63073(19) 0.07689(17)
N2RA N 0.40944(19) 0.6749(2) 0.13208(18)
Co1D Co 0.5000 1.0000 0.36121(6)
Cl1D Cl 0.5000 1.0000 0.5000
O1D O 0.5000 1.0000 0.2501(4)
Co1E Co 0.5000 0.0000 0.63879(6)
Cl1D_2 Cl 0.5000 0.0000 0.5000
O1E O 0.5000 0.0000 0.7499(4)
Co1H Co 0.36121(6) 0.5000 0.0000
O1H O 0.2501(4) 0.5000 0.0000
Co1H_2 Co 0.36121(6) 0.5000 1.0000
O1H_2 O 0.2501(4) 0.5000 1.0000
Co1L Co 0.36121(6) 0.0000 0.5000
N1L N 0.36927(19) 0.07689(17) 0.41898(18)
N2L N 0.3251(2) 0.13208(18) 0.40944(19)
C1L C 0.3192(2) 0.2279(3) 0.3192(2)
C2L C 0.3508(2) 0.1649(3) 0.3508(2)
C3L C 0.2586(3) 0.2586(3) 0.3489(3)
H1L H 0.2382 0.2382 0.3893
O1L O 0.2501(4) 0.0000 0.5000
N1S N 0.07689(17) 0.41898(18) 0.36927(19)
N2S N 0.13208(18) 0.40944(19) 0.3251(2)
C1S C 0.2279(3) 0.3192(2) 0.3192(2)
C2S C 0.1649(3) 0.3508(2) 0.3508(2)
C3S C 0.2586(3) 0.3489(3) 0.2586(3)
H1S H 0.2382 0.3893 0.2382
N1V N 0.41898(18) 0.36927(19) 0.07689(17)
N2V N 0.40944(19) 0.3251(2) 0.13208(18)
C1V C 0.3192(2) 0.3192(2) 0.2279(3)
C2V C 0.3508(2) 0.3508(2) 0.1649(3)
C3V C 0.3489(3) 0.2586(3) 0.2586(3)
H1V H 0.3893 0.2382 0.2382
N1Y N 0.07689(17) 0.36927(19) 0.41898(18)
N2Y N 0.13208(18) 0.3251(2) 0.40944(19)
N1CA N 0.41898(18) 0.07689(17) 0.36927(19)
N2CA N 0.40944(19) 0.13208(18) 0.3251(2)
N1GA N 0.36927(19) 0.41898(18) 0.07689(17)
N2GA N 0.3251(2) 0.40944(19) 0.13208(18)
Co1L_2 Co 0.36121(6) 0.0000 1.5000
N1L_2 N 0.36927(19) 0.07689(17) 1.41898(18)
N2L_2 N 0.3251(2) 0.13208(18) 1.40944(19)
C1L_2 C 0.3192(2) 0.2279(3) 1.3192(2)
C2L_2 C 0.3508(2) 0.1649(3) 1.3508(2)
C3L_2 C 0.2586(3) 0.2586(3) 1.3489(3)
H1L_2 H 0.2382 0.2382 1.3893
O1L_2 O 0.2501(4) 0.0000 1.5000
N1S_2 N 0.07689(17) 0.41898(18) 1.36927(19)
N2S_2 N 0.13208(18) 0.40944(19) 1.3251(2)
C1S_2 C 0.2279(3) 0.3192(2) 1.3192(2)
C2S_2 C 0.1649(3) 0.3508(2) 1.3508(2)
C3S_2 C 0.2586(3) 0.3489(3) 1.2586(3)
H1S_2 H 0.2382 0.3893 1.2382
N1V_2 N 0.41898(18) 0.36927(19) 1.07689(17)
N2V_2 N 0.40944(19) 0.3251(2) 1.13208(18)
C1V_2 C 0.3192(2) 0.3192(2) 1.2279(3)
C2V_2 C 0.3508(2) 0.3508(2) 1.1649(3)
C3V_2 C 0.3489(3) 0.2586(3) 1.2586(3)
H1V_2 H 0.3893 0.2382 1.2382
N1Y_2 N 0.07689(17) 0.36927(19) 1.41898(18)
N2Y_2 N 0.13208(18) 0.3251(2) 1.40944(19)
N1CA_2 N 0.41898(18) 0.07689(17) 1.36927(19)
N2CA_2 N 0.40944(19) 0.13208(18) 1.3251(2)
N1GA_2 N 0.36927(19) 0.41898(18) 1.07689(17)
N2GA_2 N 0.3251(2) 0.40944(19) 1.13208(18)
N1N N 0.36927(19) -0.07689(17) 0.58102(18)
N2N N 0.3251(2) -0.13208(18) 0.59056(19)
C1N C 0.3192(2) -0.2279(3) 0.6808(2)
C2N C 0.3508(2) -0.1649(3) 0.6492(2)
C3N C 0.2586(3) -0.2586(3) 0.6511(3)
H1N H 0.2382 -0.2382 0.6107
N1P N 0.07689(17) -0.41898(18) 0.63073(19)
N2P N 0.13208(18) -0.40944(19) 0.6749(2)
C1P C 0.2279(3) -0.3192(2) 0.6808(2)
C2P C 0.1649(3) -0.3508(2) 0.6492(2)
C3P C 0.2586(3) -0.3489(3) 0.7414(3)
H1P H 0.2382 -0.3893 0.7618
N1W N 0.41898(18) -0.36927(19) 0.92311(17)
N2W N 0.40944(19) -0.3251(2) 0.86792(18)
C1W C 0.3192(2) -0.3192(2) 0.7721(3)
C2W C 0.3508(2) -0.3508(2) 0.8351(3)
C3W C 0.3489(3) -0.2586(3) 0.7414(3)
H1W H 0.3893 -0.2382 0.7618
N1Z N 0.07689(17) -0.36927(19) 0.58102(18)
N2Z N 0.13208(18) -0.3251(2) 0.59056(19)
N1BA N 0.41898(18) -0.07689(17) 0.63073(19)
N2BA N 0.40944(19) -0.13208(18) 0.6749(2)
N1IA N 0.36927(19) -0.41898(18) 0.92311(17)
N2IA N 0.3251(2) -0.40944(19) 0.86792(18)
Co1L_3 Co 0.36121(6) 1.0000 0.5000
N1N_2 N 0.36927(19) 0.92311(17) 0.58102(18)
N2N_2 N 0.3251(2) 0.86792(18) 0.59056(19)
C1N_2 C 0.3192(2) 0.7721(3) 0.6808(2)
C2N_2 C 0.3508(2) 0.8351(3) 0.6492(2)
C3N_2 C 0.2586(3) 0.7414(3) 0.6511(3)
H1N_2 H 0.2382 0.7618 0.6107
O1L_3 O 0.2501(4) 1.0000 0.5000
N1P_2 N 0.07689(17) 0.58102(18) 0.63073(19)
N2P_2 N 0.13208(18) 0.59056(19) 0.6749(2)
C1P_2 C 0.2279(3) 0.6808(2) 0.6808(2)
C2P_2 C 0.1649(3) 0.6492(2) 0.6492(2)
C3P_2 C 0.2586(3) 0.6511(3) 0.7414(3)
H1P_2 H 0.2382 0.6107 0.7618
N1W_2 N 0.41898(18) 0.63073(19) 0.92311(17)
N2W_2 N 0.40944(19) 0.6749(2) 0.86792(18)
C1W_2 C 0.3192(2) 0.6808(2) 0.7721(3)
C2W_2 C 0.3508(2) 0.6492(2) 0.8351(3)
C3W_2 C 0.3489(3) 0.7414(3) 0.7414(3)
H1W_2 H 0.3893 0.7618 0.7618
N1Z_2 N 0.07689(17) 0.63073(19) 0.58102(18)
N2Z_2 N 0.13208(18) 0.6749(2) 0.59056(19)
N1BA_2 N 0.41898(18) 0.92311(17) 0.63073(19)
N2BA_2 N 0.40944(19) 0.86792(18) 0.6749(2)
N1IA_2 N 0.36927(19) 0.58102(18) 0.92311(17)
N2IA_2 N 0.3251(2) 0.59056(19) 0.86792(18)
Co1M Co -0.36121(6) 0.0000 0.5000
N1O N -0.36927(19) 0.07689(17) 0.58102(18)
N2O N -0.3251(2) 0.13208(18) 0.59056(19)
C1O C -0.3192(2) 0.2279(3) 0.6808(2)
C2O C -0.3508(2) 0.1649(3) 0.6492(2)
C3O C -0.2586(3) 0.2586(3) 0.6511(3)
H1O H -0.2382 0.2382 0.6107
O1M O -0.2501(4) 0.0000 0.5000
N1R N -0.07689(17) 0.41898(18) 0.63073(19)
N2R N -0.13208(18) 0.40944(19) 0.6749(2)
C1R C -0.2279(3) 0.3192(2) 0.6808(2)
C2R C -0.1649(3) 0.3508(2) 0.6492(2)
C3R C -0.2586(3) 0.3489(3) 0.7414(3)
H1R H -0.2382 0.3893 0.7618
N1T N -0.41898(18) 0.36927(19) 0.92311(17)
N2T N -0.40944(19) 0.3251(2) 0.86792(18)
C1T C -0.3192(2) 0.3192(2) 0.7721(3)
C2T C -0.3508(2) 0.3508(2) 0.8351(3)
C3T C -0.3489(3) 0.2586(3) 0.7414(3)
H1T H -0.3893 0.2382 0.7618
N1AA N -0.07689(17) 0.36927(19) 0.58102(18)
N2AA N -0.13208(18) 0.3251(2) 0.59056(19)
N1DA N -0.41898(18) 0.07689(17) 0.63073(19)
N2DA N -0.40944(19) 0.13208(18) 0.6749(2)
N1FA N -0.36927(19) 0.41898(18) 0.92311(17)
N2FA N -0.3251(2) 0.40944(19) 0.86792(18)
Co1P Co 0.0000 0.5000 0.63879(6)
O1P O 0.0000 0.5000 0.7499(4)
Co1I Co -0.36121(6) 0.5000 0.0000
N1K N -0.36927(19) 0.41898(18) 0.07689(17)
N2K N -0.3251(2) 0.40944(19) 0.13208(18)
C1K C -0.3192(2) 0.3192(2) 0.2279(3)
C2K C -0.3508(2) 0.3508(2) 0.1649(3)
C3K C -0.2586(3) 0.3489(3) 0.2586(3)
H1K H -0.2382 0.3893 0.2382
O1I O -0.2501(4) 0.5000 0.0000
N1B N -0.07689(17) 0.36927(19) 0.41898(18)
N2B N -0.13208(18) 0.3251(2) 0.40944(19)
C1B C -0.2279(3) 0.3192(2) 0.3192(2)
C2B C -0.1649(3) 0.3508(2) 0.3508(2)
C3B C -0.2586(3) 0.2586(3) 0.3489(3)
H1B H -0.2382 0.2382 0.3893
N1D N -0.41898(18) 0.07689(17) 0.36927(19)
N2D N -0.40944(19) 0.13208(18) 0.3251(2)
C1D C -0.3192(2) 0.2279(3) 0.3192(2)
C2D C -0.3508(2) 0.1649(3) 0.3508(2)
C3D C -0.3489(3) 0.2586(3) 0.2586(3)
H1D H -0.3893 0.2382 0.2382
N1NA N -0.07689(17) 0.41898(18) 0.36927(19)
N2NA N -0.13208(18) 0.40944(19) 0.3251(2)
N1UA N -0.41898(18) 0.36927(19) 0.07689(17)
N2UA N -0.40944(19) 0.3251(2) 0.13208(18)
N1LA N -0.36927(19) 0.07689(17) 0.41898(18)
N2LA N -0.3251(2) 0.13208(18) 0.40944(19)
Co1_2 Co 0.0000 0.36121(6) 1.5000
Co1A_2 Co 0.0000 -0.36121(6) 0.5000
Co1D_2 Co -0.5000 0.0000 0.36121(6)
Co1D_3 Co 0.5000 0.0000 0.36121(6)
Co1D_4 Co 0.5000 0.0000 1.36121(6)
Co1E_2 Co -0.5000 0.0000 0.63879(6)
Co1E_3 Co 0.5000 1.0000 0.63879(6)
Co1H_3 Co 0.36121(6) -0.5000 1.0000
Co1I_2 Co -0.36121(6) 0.5000 1.0000
Co1M_2 Co 0.63879(6) 0.0000 0.5000
Co1M_3 Co 0.63879(6) 1.0000 0.5000
Co1P_2 Co 0.0000 -0.5000 0.63879(6)
Co1Q Co 0.0000 0.5000 0.36121(6)
Co1Q_2 Co 0.0000 0.5000 1.36121(6)
Co1T Co -0.5000 0.36121(6) 0.0000
Co1T_2 Co -0.5000 0.36121(6) 1.0000
Co1T_3 Co 0.5000 0.36121(6) 0.0000
Co1T_4 Co 0.5000 0.36121(6) 1.0000
Co1U Co 0.5000 -0.36121(6) 1.0000
Co1U_2 Co 0.5000 0.63879(6) 0.0000
Co1U_3 Co 0.5000 0.63879(6) 1.0000
Cl1D_3 Cl -0.5000 0.0000 0.5000
Cl1D_4 Cl 0.5000 0.0000 1.5000
Cl1H Cl -0.5000 0.5000 0.0000
Cl1H_2 Cl 0.5000 0.5000 0.0000
Cl1H_3 Cl 0.5000 0.5000 1.0000
N1A N -0.07689(17) 0.63073(19) 0.58102(18)
N1D_2 N 0.58102(18) 1.07689(17) 0.36927(19)
N1E N 0.58102(18) -0.07689(17) 0.63073(19)
N1H_2 N 0.36927(19) 0.58102(18) 1.07689(17)
N1I N -0.36927(19) 0.58102(18) -0.07689(17)
N1J_2 N 0.36927(19) 0.41898(18) -0.07689(17)
N1L_3 N 0.36927(19) 1.07689(17) 0.41898(18)
N1M N -0.36927(19) -0.07689(17) 0.41898(18)
N1N_3 N 0.36927(19) -0.07689(17) 1.58102(18)
N1X N -0.07689(17) 0.63073(19) 0.41898(18)
N1CA_3 N 0.41898(18) 1.07689(17) 0.36927(19)
N1DA_2 N 0.58102(18) 0.07689(17) 0.63073(19)
N1EA N 0.58102(18) 0.92311(17) 0.36927(19)
N1FA_2 N -0.36927(19) 0.41898(18) -0.07689(17)
N1HA N -0.36927(19) 0.58102(18) 0.07689(17)
N1IA_3 N 0.36927(19) 0.58102(18) -0.07689(17)
N1JA N -0.36927(19) -0.07689(17) 0.58102(18)
N1KA_2 N 0.36927(19) 0.07689(17) 1.58102(18)
N1KA_3 N 0.36927(19) 1.07689(17) 0.58102(18)
N1MA_2 N 0.36927(19) -0.07689(17) 0.41898(18)
N1MA_3 N 0.36927(19) -0.07689(17) 1.41898(18)
N1QA N -0.07689(17) 0.58102(18) 0.63073(19)
loop_
_geom_bond_atom_site_label_1
_geom_bond_atom_site_label_2
_geom_bond_site_symmetry_1
_geom_bond_site_symmetry_2
Co1 Cl1 1_555 1_555
Cl1 Co1A 1_555 1_555
N1 Co1 1_555 1_555
N2 N1 1_555 1_555
C1 C2 1_555 1_555
C2 N2 1_555 1_555
C3 C1 1_555 1_555
H1 C3 1_555 1_555
O1 Co1 1_555 1_555
N1G N2G 1_555 1_555
N2G C2G 1_555 1_555
C1G C3 1_555 1_555
C2G C1G 1_555 1_555
C3G C1G 1_555 1_555
H1G C3G 1_555 1_555
N1J N2J 1_555 1_555
N2J C2J 1_555 1_555
C1J C3G 1_555 1_555
C2J C1J 1_555 1_555
C3J C1 1_555 1_555
H1J C3J 1_555 1_555
N1KA N1G 1_555 1_555
N2KA C2G 1_555 1_555
N1OA N1 1_555 1_555
N2OA C2 1_555 1_555
N1SA N1J 1_555 1_555
N2SA C2J 1_555 1_555
Co1A O1A 1_555 1_555
N1C Co1A 1_555 1_555
N2C N1C 1_555 1_555
C1C C2C 1_555 1_555
C2C N2C 1_555 1_555
C3C C1C 1_555 1_555
H1C C3C 1_555 1_555
N1F N2F 1_555 1_555
N2F C2F 1_555 1_555
C1F C3C 1_555 1_555
C2F C1F 1_555 1_555
C3F C1F 1_555 1_555
H1F C3F 1_555 1_555
N1H N2H 1_555 1_555
N2H C2H 1_555 1_555
C1H C3F 1_555 1_555
C2H C1H 1_555 1_555
C3H C1C 1_555 1_555
H1H C3H 1_555 1_555
N1MA N1F 1_555 1_555
N2MA C2F 1_555 1_555
N1PA N1C 1_555 1_555
N2PA C2C 1_555 1_555
N1RA N1H 1_555 1_555
N2RA C2H 1_555 1_555
Co1D N1F 1_555 1_555
Cl1D Co1D 1_555 1_555
O1D Co1D 1_555 1_555
Co1E N1G 1_555 1_555
Cl1D_2 Co1E 1_555 1_555
O1E Co1E 1_555 1_555
Co1H N1H 1_555 1_555
O1H Co1H 1_555 1_555
Co1H_2 N1J 1_555 1_555
O1H_2 Co1H_2 1_555 1_555
Co1L N1KA 1_555 1_555
N1L Co1L 1_555 1_555
N2L N1L 1_555 1_555
C1L C2L 1_555 1_555
C2L N2L 1_555 1_555
C3L C1L 1_555 1_555
H1L C3L 1_555 1_555
O1L Co1L 1_555 1_555
N1S N2S 1_555 1_555
N2S C2S 1_555 1_555
C1S C3L 1_555 1_555
C2S C1S 1_555 1_555
C3S C1S 1_555 1_555
H1S C3S 1_555 1_555
N1V N2V 1_555 1_555
N2V C2V 1_555 1_555
C1V C3S 1_555 1_555
C2V C1V 1_555 1_555
C3V C1L 1_555 1_555
H1V C3V 1_555 1_555
N1Y Co1 1_555 1_555
N2Y C2S 1_555 1_555
N1CA N1L 1_555 1_555
N2CA C2L 1_555 1_555
N1GA Co1H 1_555 1_555
N2GA C2V 1_555 1_555
Co1L_2 N1L_2 1_555 1_555
N1L_2 N2L_2 1_555 1_555
N2L_2 C2L_2 1_555 1_555
C1L_2 C2L_2 1_555 1_555
C2L_2 N2CA_2 1_555 1_555
C3L_2 C1L_2 1_555 1_555
H1L_2 C3L_2 1_555 1_555
O1L_2 Co1L_2 1_555 1_555
N1S_2 N2S_2 1_555 1_555
N2S_2 C2S_2 1_555 1_555
C1S_2 C3L_2 1_555 1_555
C2S_2 C1S_2 1_555 1_555
C3S_2 C1S_2 1_555 1_555
H1S_2 C3S_2 1_555 1_555
N1V_2 N2V_2 1_555 1_555
N2V_2 C2V_2 1_555 1_555
C1V_2 C3S_2 1_555 1_555
C2V_2 C1V_2 1_555 1_555
C3V_2 C1L_2 1_555 1_555
H1V_2 C3V_2 1_555 1_555
N1Y_2 N1S_2 1_555 1_555
N2Y_2 C2S_2 1_555 1_555
N1CA_2 N1L_2 1_555 1_555
N2CA_2 N1CA_2 1_555 1_555
N1GA_2 Co1H_2 1_555 1_555
N2GA_2 C2V_2 1_555 1_555
N1N Co1L 1_555 1_555
N2N N1N 1_555 1_555
C1N C2N 1_555 1_555
C2N N2N 1_555 1_555
C3N C1N 1_555 1_555
H1N C3N 1_555 1_555
N1P N2P 1_555 1_555
N2P C2P 1_555 1_555
C1P C3N 1_555 1_555
C2P C1P 1_555 1_555
C3P C1P 1_555 1_555
H1P C3P 1_555 1_555
N1W N2W 1_555 1_555
N2W C2W 1_555 1_555
C1W C3P 1_555 1_555
C2W C1W 1_555 1_555
C3W C1N 1_555 1_555
H1W C3W 1_555 1_555
N1Z N1P 1_555 1_555
N2Z C2P 1_555 1_555
N1BA Co1E 1_555 1_555
N2BA C2N 1_555 1_555
N1IA N1W 1_555 1_555
N2IA C2W 1_555 1_555
Co1L_3 N1MA 1_555 1_555
N1N_2 Co1L_3 1_555 1_555
N2N_2 N1N_2 1_555 1_555
C1N_2 C2N_2 1_555 1_555
C2N_2 N2N_2 1_555 1_555
C3N_2 C1N_2 1_555 1_555
H1N_2 C3N_2 1_555 1_555
O1L_3 Co1L_3 1_555 1_555
N1P_2 N2P_2 1_555 1_555
N2P_2 C2P_2 1_555 1_555
C1P_2 C3N_2 1_555 1_555
C2P_2 C1P_2 1_555 1_555
C3P_2 C1P_2 1_555 1_555
H1P_2 C3P_2 1_555 1_555
N1W_2 N2W_2 1_555 1_555
N2W_2 C2W_2 1_555 1_555
C1W_2 C3P_2 1_555 1_555
C2W_2 C1W_2 1_555 1_555
C3W_2 C1N_2 1_555 1_555
H1W_2 C3W_2 1_555 1_555
N1Z_2 Co1A 1_555 1_555
N2Z_2 C2P_2 1_555 1_555
N1BA_2 N1N_2 1_555 1_555
N2BA_2 C2N_2 1_555 1_555
N1IA_2 Co1H_2 1_555 1_555
N2IA_2 C2W_2 1_555 1_555
Co1M N1O 1_555 1_555
N1O N2O 1_555 1_555
N2O C2O 1_555 1_555
C1O C2O 1_555 1_555
C2O N2DA 1_555 1_555
C3O C1O 1_555 1_555
H1O C3O 1_555 1_555
O1M Co1M 1_555 1_555
N1R N2R 1_555 1_555
N2R C2R 1_555 1_555
C1R C3O 1_555 1_555
C2R C1R 1_555 1_555
C3R C1R 1_555 1_555
H1R C3R 1_555 1_555
N1T N2T 1_555 1_555
N2T C2T 1_555 1_555
C1T C3R 1_555 1_555
C2T C1T 1_555 1_555
C3T C1O 1_555 1_555
H1T C3T 1_555 1_555
N1AA Co1 1_555 1_555
N2AA C2R 1_555 1_555
N1DA N1O 1_555 1_555
N2DA N1DA 1_555 1_555
N1FA N1T 1_555 1_555
N2FA C2T 1_555 1_555
Co1P Cl1 1_555 1_555
O1P Co1P 1_555 1_555
Co1I N1K 1_555 1_555
N1K N2K 1_555 1_555
N2K C2K 1_555 1_555
C1K C2K 1_555 1_555
C2K N2UA 1_555 1_555
C3K C1K 1_555 1_555
H1K C3K 1_555 1_555
O1I Co1I 1_555 1_555
N1B Co1 1_555 1_555
N2B N1B 1_555 1_555
C1B C3K 1_555 1_555
C2B N2B 1_555 1_555
C3B C1B 1_555 1_555
H1B C3B 1_555 1_555
N1D N2D 1_555 1_555
N2D C2D 1_555 1_555
C1D C3B 1_555 1_555
C2D C1D 1_555 1_555
C3D C1K 1_555 1_555
H1D C3D 1_555 1_555
N1NA N1B 1_555 1_555
N2NA C2B 1_555 1_555
N1UA N1K 1_555 1_555
N2UA N1UA 1_555 1_555
N1LA Co1M 1_555 1_555
N2LA C2D 1_555 1_555
Co1_2 N1Y_2 1_555 1_555
Co1A_2 N1Z 1_555 1_555
Co1D_2 N1D 1_555 1_555
Co1D_3 Cl1D_2 1_555 1_555
Co1D_4 N1CA_2 1_555 1_555
Co1E_2 N1DA 1_555 1_555
Co1E_3 Cl1D 1_555 1_555
Co1H_3 N1IA 1_555 1_555
Co1I_2 N1FA 1_555 1_555
Co1M_2 Cl1D_2 1_555 1_555
Co1M_3 Cl1D 1_555 1_555
Co1P_2 N1P 1_555 1_555
Co1Q Cl1 1_555 1_555
Co1Q_2 N1S_2 1_555 1_555
Co1T N1UA 1_555 1_555
Co1T_2 N1T 1_555 1_555
Co1T_3 N1V 1_555 1_555
Co1T_4 N1SA 1_555 1_555
Co1U N1W 1_555 1_555
Co1U_2 N1RA 1_555 1_555
Co1U_3 N1W_2 1_555 1_555
Cl1D_3 Co1M 1_555 1_555
Cl1D_4 Co1L_2 1_555 1_555
Cl1H Co1I 1_555 1_555
Cl1H_2 Co1H 1_555 1_555
Cl1H_3 Co1H_2 1_555 1_555
N1A Co1A 1_555 1_555
N1D_2 Co1D 1_555 1_555
N1E Co1E 1_555 1_555
N1H_2 Co1H_2 1_555 1_555
N1I Co1I 1_555 1_555
N1J_2 Co1H 1_555 1_555
N1L_3 Co1L_3 1_555 1_555
N1M Co1M 1_555 1_555
N1N_3 Co1L_2 1_555 1_555
N1X Co1A 1_555 1_555
N1CA_3 Co1D 1_555 1_555
N1DA_2 Co1E 1_555 1_555
N1EA Co1D 1_555 1_555
N1FA_2 Co1I 1_555 1_555
N1HA Co1I 1_555 1_555
N1IA_3 Co1H 1_555 1_555
N1JA Co1M 1_555 1_555
N1KA_2 Co1L_2 1_555 1_555
N1KA_3 Co1L_3 1_555 1_555
N1MA_2 Co1L 1_555 1_555
N1MA_3 Co1L_2 1_555 1_555
N1QA Co1P 1_555 1_555
C1J C3J 1_555 1_555
N1KA N2KA 1_555 1_555
N1OA N2OA 1_555 1_555
N1OA Co1P 1_555 1_555
N1SA N2SA 1_555 1_555
C1H C3H 1_555 1_555
N1MA N2MA 1_555 1_555
N1PA N2PA 1_555 1_555
N1PA Co1Q 1_555 1_555
N1RA N2RA 1_555 1_555
Cl1D Co1L_3 1_555 1_555
Cl1D_2 Co1L 1_555 1_555
N1S N1Y 1_555 1_555
N1S Co1Q 1_555 1_555
N1V N1GA 1_555 1_555
C1V C3V 1_555 1_555
N1Y N2Y 1_555 1_555
N1CA N2CA 1_555 1_555
N1CA Co1D_3 1_555 1_555
N1GA N2GA 1_555 1_555
N1V_2 N1GA_2 1_555 1_555
N1V_2 Co1T_4 1_555 1_555
C1V_2 C3V_2 1_555 1_555
N1Y_2 N2Y_2 1_555 1_555
N1GA_2 N2GA_2 1_555 1_555
N1N N1BA 1_555 1_555
C1W C3W 1_555 1_555
N1Z N2Z 1_555 1_555
N1BA N2BA 1_555 1_555
N1IA N2IA 1_555 1_555
N1P_2 N1Z_2 1_555 1_555
N1P_2 Co1P 1_555 1_555
N1W_2 N1IA_2 1_555 1_555
C1W_2 C3W_2 1_555 1_555
N1Z_2 N2Z_2 1_555 1_555
N1BA_2 N2BA_2 1_555 1_555
N1BA_2 Co1E_3 1_555 1_555
N1IA_2 N2IA_2 1_555 1_555
N1R N1AA 1_555 1_555
N1R Co1P 1_555 1_555
C1T C3T 1_555 1_555
N1AA N2AA 1_555 1_555
N1FA N2FA 1_555 1_555
C1B C2B 1_555 1_555
N1D N1LA 1_555 1_555
C1D C3D 1_555 1_555
N1NA N2NA 1_555 1_555
N1NA Co1Q 1_555 1_555
N1LA N2LA 1_555 1_555
Co1D_2 Cl1D_3 1_555 1_555
Co1D_4 Cl1D_4 1_555 1_555
Co1E_2 Cl1D_3 1_555 1_555
Co1T Cl1H 1_555 1_555
Co1T_3 Cl1H_2 1_555 1_555
Co1T_4 Cl1H_3 1_555 1_555
Co1U_2 Cl1H_2 1_555 1_555
Co1U_3 Cl1H_3 1_555 1_555
N1A N1QA 1_555 1_555
N1L_3 N1CA_3 1_555 1_555

#END
