
#######################################################################
#
#                 Cambridge Crystallographic Data Centre
#                                CCDC 
#
#######################################################################
#
# If this CIF has been generated from an entry in the Cambridge 
# Structural Database, then it will include bibliographic, chemical, 
# crystal, experimental, refinement or atomic coordinate data resulting 
# from the CCDC's data processing and validation procedures.
#
#######################################################################

data_COJHIT
_chemical_formula_moiety         '(C24 H16 Co2 N8)n,4n(C5 H11 N1 O1),2n(H2 O1)'
_chemical_name_systematic        
'catena-[bis(\m~4~-Benzene-1,4-bis(4-pyrazolato))-di-cobalt diethylformamide solvate dihydrate]'
_symmetry_cell_setting           orthorhombic
_symmetry_space_group_name_H-M   'P 2 2 21'
_symmetry_Int_Tables_number      17
_space_group_name_Hall           'P 2c 2'
loop_
_symmetry_equiv_pos_site_id
_symmetry_equiv_pos_as_xyz
1 x,y,z
2 -x,-y,1/2+z
3 -x,y,1/2-z
4 x,-y,-z
_cell_length_a                   13.2529(19)
_cell_length_b                   13.253
_cell_length_c                   13.995(2)
_cell_angle_alpha                90
_cell_angle_beta                 90
_cell_angle_gamma                90
_cell_volume                     2458.09
_exptl_crystal_colour            purple
_exptl_crystal_description       needle
_cell_formula_units_Z            2
loop_
_atom_site_label
_atom_site_type_symbol
_atom_site_fract_x
_atom_site_fract_y
_atom_site_fract_z
Co1 Co 0.02942(11) -0.00258(18) 0.12730(9)
N1 N 0.0239(14) 0.1229(11) 0.2087(8)
N2 N 0.1521(5) 0.0052(12) 0.0502(6)
N3 N 0.9053(8) -0.0193(9) 0.0464(6)
N4 N 0.0227(8) 0.8787(8) 0.2069(8)
C1 C 0.2484(9) 0.002(2) 0.0741(9)
H1 H 0.2706 0.0023 0.1386
C2 C 0.0424(9) 0.2147(9) 0.1865(8)
H2 H 0.0808 0.2349 0.1325
C3 C 0.0000 0.2798(18) 0.2500
C4 C 0.0000 0.380(3) 0.2500
C5 C 0.3121(11) 0.0000 0.0000
C6 C 0.0281(8) 0.4463(12) 0.1768(15)
H3 H 0.0498 0.4130 0.1203
C7 C 0.0308(7) 0.5503(10) 0.1699(6)
H4 H 0.0526 0.5826 0.1129
C8 C 0.0000 0.6068(14) 0.2500
C9 C 0.0000 0.712(2) 0.2500
C10 C 0.4241(11) 0.0000 0.0000
C11 C 0.4762(9) -0.0029(10) 0.0874(9)
H5 H 0.4411 -0.0048 0.1466
C12 C 0.5777(9) -0.0028(10) 0.0843(9)
H6 H 0.6134 -0.0047 0.1431
C13 C 0.6337(13) 0.0000 0.0000
C14 C 0.7454(10) 0.0000 0.0000
C15 C 0.8141(9) -0.0248(7) 0.0775(8)
C16 C 0.0293(16) 0.7771(11) 0.1748(12)
Co1B Co -0.02942(11) -0.00258(18) 0.37270(9)
Co1_2 Co 1.02942(11) -0.00258(18) 0.12730(9)
Co1_3 Co 0.02942(11) 0.99742(18) 0.12730(9)
Co1B_2 Co -0.02942(11) 0.99742(18) 0.37270(9)
Co1C Co 0.02942(11) 0.00258(18) -0.12730(9)
Co1C_2 Co 1.02942(11) 0.00258(18) -0.12730(9)
N1B N -0.0239(14) 0.1229(11) 0.2913(8)
N2C N 0.1521(5) -0.0052(12) -0.0502(6)
N2B N -0.1521(5) 0.0052(12) 0.4498(6)
N3C N 0.9053(8) 0.0193(9) -0.0464(6)
N3_2 N -0.0947(8) -0.0193(9) 0.0464(6)
N3B N 0.0947(8) -0.0193(9) 0.4536(6)
N4B N -0.0227(8) 0.8787(8) 0.2931(8)
N4_2 N 0.0227(8) -0.1213(8) 0.2069(8)
N4B_2 N -0.0227(8) -0.1213(8) 0.2931(8)
C1C C 0.2484(9) -0.002(2) -0.0741(9)
H1C H 0.2706 -0.0023 -0.1386
C2B C -0.0424(9) 0.2147(9) 0.3135(8)
H2B H -0.0808 0.2349 0.3675
C6B C -0.0281(8) 0.4463(12) 0.3232(15)
H3B H -0.0498 0.4130 0.3797
C7B C -0.0308(7) 0.5503(10) 0.3301(6)
H4B H -0.0526 0.5826 0.3871
C11C C 0.4762(9) 0.0029(10) -0.0874(9)
H5C H 0.4411 0.0048 -0.1466
C12C C 0.5777(9) 0.0028(10) -0.0843(9)
H6C H 0.6134 0.0047 -0.1431
C15C C 0.8141(9) 0.0248(7) -0.0775(8)
C16B C -0.0293(16) 0.7771(11) 0.3252(12)
N5 N 0.2570(15) 0.2968(16) -0.6027(13)
C17 C 0.329(2) 0.371(2) -0.641(2)
C18 C 0.278(2) 0.450(2) -0.7035(19)
C19 C 0.245(2) 0.213(2) -0.6743(18)
C20 C 0.321(2) 0.178(2) -0.7448(16)
C21 C 0.276(3) 0.292(5) -0.4996(19)
O1 O 0.1937(16) 0.3045(15) -0.4555(12)
O2 O 0.1709(6) 0.3044(7) -0.9979(9)
C22 C 0.2519(13) 0.2962(19) -1.0422(13)
N6 N 0.3391(10) 0.2976(10) -0.9889(12)
C23 C 0.476(3) 0.363(3) -0.923(2)
C24 C 0.430(3) 0.247(4) -1.025(3)
C25 C 0.533(8) 0.34(3) -1.033(19)
C26 C 0.381(3) 0.303(5) -0.891(2)
O3 O 0.171(8) 0.258(8) -0.287(6)
loop_
_geom_bond_atom_site_label_1
_geom_bond_atom_site_label_2
_geom_bond_site_symmetry_1
_geom_bond_site_symmetry_2
Co1 N1 1_555 1_555
N1 C2 1_555 1_555
N2 Co1 1_555 1_555
N3 C15 1_555 1_555
N4 C16 1_555 1_555
C1 N2 1_555 1_555
H1 C1 1_555 1_555
C2 H2 1_555 1_555
C3 C2 1_555 1_555
C4 C3 1_555 1_555
C5 C1 1_555 1_555
C6 C4 1_555 1_555
H3 C6 1_555 1_555
C7 C6 1_555 1_555
H4 C7 1_555 1_555
C8 C7 1_555 1_555
C9 C8 1_555 1_555
C10 C5 1_555 1_555
C11 C10 1_555 1_555
H5 C11 1_555 1_555
C12 C11 1_555 1_555
H6 C12 1_555 1_555
C13 C12 1_555 1_555
C14 C13 1_555 1_555
C15 C14 1_555 1_555
C16 C9 1_555 1_555
N5 C17 1_555 1_555
C17 C18 1_555 1_555
C19 N5 1_555 1_555
C20 C19 1_555 1_555
C21 N5 1_555 1_555
O1 C21 1_555 1_555
O2 C22 1_555 1_555
C22 N6 1_555 1_555
N6 C24 1_555 1_555
C23 C26 1_555 1_555
C24 C25 1_555 1_555
C26 N6 1_555 1_555
Co1B N1B 1_555 1_555
Co1_2 N3 1_555 1_555
Co1_3 N4 1_555 1_555
Co1B_2 N4B 1_555 1_555
Co1C N2C 1_555 1_555
Co1C_2 N3C 1_555 1_555
N1B N1 1_555 1_555
N2C N2 1_555 1_555
N2B Co1B 1_555 1_555
N3C N3 1_555 1_555
N3_2 Co1 1_555 1_555
N3B Co1B 1_555 1_555
N4B N4 1_555 1_555
N4_2 Co1 1_555 1_555
N4B_2 Co1B 1_555 1_555
C1C C5 1_555 1_555
H1C C1C 1_555 1_555
C2B C3 1_555 1_555
H2B C2B 1_555 1_555
C6B C4 1_555 1_555
H3B C6B 1_555 1_555
C7B C8 1_555 1_555
H4B C7B 1_555 1_555
C11C C10 1_555 1_555
H5C C11C 1_555 1_555
C12C C13 1_555 1_555
H6C C12C 1_555 1_555
C15C C14 1_555 1_555
C16B C9 1_555 1_555
N1B C2B 1_555 1_555
N2C C1C 1_555 1_555
N3C C15C 1_555 1_555
N4B C16B 1_555 1_555
N4_2 N4B_2 1_555 1_555
C6B C7B 1_555 1_555
C11C C12C 1_555 1_555

#END
