
#######################################################################
#
#                 Cambridge Crystallographic Data Centre
#                                CCDC 
#
#######################################################################
#
# If this CIF has been generated from an entry in the Cambridge 
# Structural Database, then it will include bibliographic, chemical, 
# crystal, experimental, refinement or atomic coordinate data resulting 
# from the CCDC's data processing and validation procedures.
#
#######################################################################

data_EFESEP
_chemical_name_common            SNU-200
_chemical_formula_moiety         '(C108 H102 N4 O34 Zn5)n'
_chemical_name_systematic        
"catena-[bis(\m-4,4',4'',4'''-(6,7,9,10,17,18,20,21-octahydrodibenzo[b,k][1,4,7,10,13,16]hexaoxacyclooctadecine-2,3,13,14-tetrayl)tetrabenzoato)-bis(\m-hydroxo)-tetrakis(N,N-dimethylformamide)-penta-zinc(ii) unknown solvate]"
_symmetry_cell_setting           tetragonal
_symmetry_space_group_name_H-M   'P -4 21 c'
_symmetry_Int_Tables_number      114
_space_group_name_Hall           'P -4 2n'
loop_
_symmetry_equiv_pos_site_id
_symmetry_equiv_pos_as_xyz
1 x,y,z
2 1/2+x,1/2-y,1/2-z
3 -x,-y,z
4 1/2-x,1/2+y,1/2-z
5 1/2-y,1/2-x,1/2+z
6 -y,x,-z
7 y,-x,-z
8 1/2+y,1/2+x,1/2+z
_cell_length_a                   25.107(4)
_cell_length_b                   25.107(4)
_cell_length_c                   23.531(5)
_cell_angle_alpha                90
_cell_angle_beta                 90
_cell_angle_gamma                90
_cell_volume                     14833
_exptl_crystal_colour            colorless
_exptl_crystal_description       prism
_cell_formula_units_Z            4
loop_
_atom_site_label
_atom_site_type_symbol
_atom_site_fract_x
_atom_site_fract_y
_atom_site_fract_z
C1 C 0.1373(2) 0.2086(2) 0.7863(2)
C2 C 0.2720(7) -0.0070(5) 0.8344(9)
H1 H 0.292 0.0004 0.8688
H2 H 0.2961 -0.0119 0.8025
C3 C 0.2588(6) -0.1031(4) 0.8527(6)
H3 H 0.2667 -0.1057 0.893
H4 H 0.292 -0.1001 0.832
C4 C 0.2280(6) -0.1520(5) 0.8331(5)
H5 H 0.2418 -0.184 0.851
H6 H 0.1905 -0.1487 0.8425
C5 C 0.2073(3) -0.1557(2) 0.5977(3)
H7 H 0.1695 -0.1563 0.589
H8 H 0.2233 -0.188 0.5831
C6 C 0.02629(17) -0.42970(17) 0.57020(18)
C7 C 0.1491(2) -0.3263(2) 0.7917(3)
C8 C 0.0943(2) -0.3314(3) 0.8103(3)
H9 H 0.0695 -0.3053 0.8009
C9 C 0.0792(3) -0.3748(3) 0.8419(3)
H10 H 0.0438 -0.3786 0.8526
C10 C 0.1153(2) -0.4124(2) 0.8577(2)
C11 C 0.1674(2) -0.4080(3) 0.8409(2)
H11 H 0.1919 -0.4341 0.8514
C12 C 0.1839(2) -0.3654(2) 0.8084(3)
H12 H 0.2194 -0.363 0.7976
C13 C 0.0970(2) -0.4597(2) 0.8929(2)
C14 C -0.0168(5) 0.3194(5) 0.9903(3)
H13 H -0.0249 0.3443 0.9624
C15 C -0.0614(12) 0.2463(15) 0.9273(12)
H14 H -0.0675 0.2088 0.9317
H15 H -0.0399 0.2524 0.8942
H16 H -0.095 0.2643 0.923
C16 C -0.0430(14) 0.2376(7) 1.0264(10)
H17 H -0.0541 0.2028 1.0145
H18 H -0.0709 0.254 1.0482
H19 H -0.0115 0.2348 1.0493
C17 C 0.0518(2) 0.4065(2) 1.1689(2)
H20 H 0.0878 0.4059 1.1598
C18 C 0.0790(4) 0.4256(7) 1.2644(4)
H21 H 0.0625 0.4346 1.2999
H22 H 0.1033 0.4533 1.2536
H23 H 0.0981 0.3926 1.2685
C19 C -0.0145(6) 0.4171(11) 1.2365(5)
H24 H -0.0181 0.4274 1.2756
H25 H -0.0273 0.3814 1.2317
H26 H -0.035 0.4408 1.2131
O1 O 0.13279(15) 0.37601(16) 0.89894(15)
O2 O 0.04600(14) 0.35973(17) 0.88376(16)
O3 O 0.2266(4) -0.0590(3) 0.8422(4)
O4 O -0.02303(13) -0.42756(14) 0.57921(15)
O5 O 0.04744(12) -0.46023(12) 0.53381(13)
O6 O 0.13318(14) -0.49363(16) 0.90592(15)
O7 O 0.05035(15) -0.46221(17) 0.90640(15)
O8 O 0.00483(18) 0.33464(15) 1.02884(19)
O9 O 0.01954(13) 0.39482(16) 1.13145(14)
N1 N -0.0325(6) 0.2678(4) 0.9801(4)
N2 N 0.0382(3) 0.4197(4) 1.2209(2)
C20 C 0.0950(2) 0.3488(2) 0.8791(2)
C21 C 0.1084(2) 0.2979(2) 0.8473(2)
C22 C 0.1594(2) 0.2786(2) 0.8512(3)
H27 H 0.1846 0.296 0.8733
C23 C 0.1731(2) 0.2312(2) 0.8209(3)
H28 H 0.2068 0.2162 0.8251
C24 C 0.0857(3) 0.2286(2) 0.7850(3)
H29 H 0.0597 0.2112 0.7637
C25 C 0.0727(3) 0.2738(3) 0.8149(2)
H30 H 0.0384 0.2877 0.8123
C26 C 0.1513(2) 0.1609(2) 0.7492(2)
C27 C 0.1739(2) 0.1167(2) 0.7751(2)
H31 H 0.1789 0.1171 0.8142
C28 C 0.1893(2) 0.0721(2) 0.7452(3)
C29 C 0.1803(2) 0.0720(2) 0.6857(2)
C30 C 0.1582(3) 0.1156(2) 0.6587(2)
H32 H 0.1523 0.1154 0.6197
C31 C 0.1445(3) 0.1614(2) 0.6925(2)
C32 C 0.1284(2) 0.20856(19) 0.6585(2)
C33 C 0.0869(3) 0.2074(2) 0.6199(2)
H33 H 0.0662 0.1767 0.6175
C34 C 0.0751(3) 0.2491(2) 0.5854(2)
H34 H 0.0471 0.2466 0.5597
C35 C 0.1057(2) 0.29624(19) 0.5887(2)
C36 C 0.1446(3) 0.2987(2) 0.6300(2)
H35 H 0.1639 0.3301 0.6347
C37 C 0.1554(3) 0.2558(2) 0.6642(2)
H36 H 0.1817 0.2588 0.692
C38 C 0.0957(3) 0.3414(2) 0.5480(2)
C39 C 0.2325(3) 0.0303(3) 0.8237(5)
H37 H 0.2466 0.0656 0.8313
H38 H 0.2032 0.0242 0.8499
C40 C 0.2329(3) -0.1077(2) 0.5710(4)
H39 H 0.2692 -0.1038 0.5847
H40 H 0.2339 -0.1117 0.53
C41 C 0.2301(3) -0.0157(2) 0.5766(3)
H41 H 0.2383 -0.0124 0.5365
H42 H 0.2633 -0.0163 0.5977
C42 C 0.1965(4) 0.0308(2) 0.5956(3)
H43 H 0.2113 0.0642 0.5822
H44 H 0.1603 0.0274 0.5818
C43 C 0.1987(2) -0.1954(2) 0.6879(2)
C44 C 0.2100(3) -0.1960(2) 0.7456(3)
C45 C 0.1916(3) -0.2393(2) 0.7801(3)
H45 H 0.1976 -0.2394 0.8191
C46 C 0.1643(2) -0.2814(2) 0.7542(2)
C47 C 0.1538(2) -0.2796(2) 0.6975(3)
C48 C 0.1706(2) -0.2371(2) 0.6663(2)
H46 H 0.1623 -0.2366 0.6278
C49 C 0.1219(2) -0.3206(2) 0.6682(2)
C50 C 0.0657(3) -0.3180(3) 0.6665(4)
H47 H 0.0485 -0.2913 0.6869
C51 C 0.0354(2) -0.3534(3) 0.6359(3)
H48 H -0.0015 -0.3505 0.6358
C52 C 0.0600(2) -0.39360(17) 0.60513(19)
C53 C 0.1139(2) -0.39607(17) 0.6050(2)
H49 H 0.1307 -0.422 0.5832
C54 C 0.1449(2) -0.3608(2) 0.6366(3)
H50 H 0.1817 -0.3645 0.6364
O10 O 0.04493(12) 0.43395(13) 0.96727(13)
O11 O 0.21266(19) 0.02886(18) 0.7675(2)
O12 O 0.2354(2) -0.15434(15) 0.77085(17)
O13 O 0.21494(18) -0.15240(15) 0.6571(2)
O14 O 0.20197(16) -0.06192(16) 0.5863(2)
O15 O 0.19827(17) 0.02769(13) 0.65904(17)
O16 O 0.06350(17) 0.33277(14) 0.50913(14)
O17 O 0.12248(15) 0.38312(14) 0.55563(15)
Zn1 Zn 0.03769(2) 0.40773(2) 1.04833(2)
Zn2 Zn 0.11908(2) 0.43994(2) 0.94480(2)
Zn3 Zn 0.00000 0.50000 0.96656(3)
C1B C -0.1373(2) -0.2086(2) 0.7863(2)
C2B C -0.2720(7) 0.0070(5) 0.8344(9)
H1B H -0.292 -0.0004 0.8688
H2B H -0.2961 0.0119 0.8025
C3B C -0.2588(6) 0.1031(4) 0.8527(6)
H3B H -0.2667 0.1057 0.893
H4B H -0.292 0.1001 0.832
C4B C -0.2280(6) 0.1520(5) 0.8331(5)
H5B H -0.2418 0.184 0.851
H6B H -0.1905 0.1487 0.8425
C5B C -0.2073(3) 0.1557(2) 0.5977(3)
H7B H -0.1695 0.1563 0.589
H8B H -0.2233 0.188 0.5831
C6B C -0.02629(17) 0.42970(17) 0.57020(18)
C7B C -0.1491(2) 0.3263(2) 0.7917(3)
C8B C -0.0943(2) 0.3314(3) 0.8103(3)
H9B H -0.0695 0.3053 0.8009
C9B C -0.0792(3) 0.3748(3) 0.8419(3)
H10B H -0.0438 0.3786 0.8526
C10B C -0.1153(2) 0.4124(2) 0.8577(2)
C11B C -0.1674(2) 0.4080(3) 0.8409(2)
H11B H -0.1919 0.4341 0.8514
C12B C -0.1839(2) 0.3654(2) 0.8084(3)
H12B H -0.2194 0.363 0.7976
C13B C -0.0970(2) 0.4597(2) 0.8929(2)
C14B C 0.0168(5) -0.3194(5) 0.9903(3)
H13B H 0.0249 -0.3443 0.9624
C15B C 0.0614(12) -0.2463(15) 0.9273(12)
H14B H 0.0675 -0.2088 0.9317
H15B H 0.0399 -0.2524 0.8942
H16B H 0.095 -0.2643 0.923
C16B C 0.0430(14) -0.2376(7) 1.0264(10)
H17B H 0.0541 -0.2028 1.0145
H18B H 0.0709 -0.254 1.0482
H19B H 0.0115 -0.2348 1.0493
C17B C -0.0518(2) -0.4065(2) 1.1689(2)
H20B H -0.0878 -0.4059 1.1598
C18B C -0.0790(4) -0.4256(7) 1.2644(4)
H21B H -0.0625 -0.4346 1.2999
H22B H -0.1033 -0.4533 1.2536
H23B H -0.0981 -0.3926 1.2685
C19B C 0.0145(6) -0.4171(11) 1.2365(5)
H24B H 0.0181 -0.4274 1.2756
H25B H 0.0273 -0.3814 1.2317
H26B H 0.035 -0.4408 1.2131
O1B O -0.13279(15) -0.37601(16) 0.89894(15)
O2B O -0.04600(14) -0.35973(17) 0.88376(16)
O3B O -0.2266(4) 0.0590(3) 0.8422(4)
O4B O 0.02303(13) 0.42756(14) 0.57921(15)
O5B O -0.04744(12) 0.46023(12) 0.53381(13)
O6B O -0.13318(14) 0.49363(16) 0.90592(15)
O7B O -0.05035(15) 0.46221(17) 0.90640(15)
O8B O -0.00483(18) -0.33464(15) 1.02884(19)
O9B O -0.01954(13) -0.39482(16) 1.13145(14)
N1B N 0.0325(6) -0.2678(4) 0.9801(4)
N2B N -0.0382(3) -0.4197(4) 1.2209(2)
C20B C -0.0950(2) -0.3488(2) 0.8791(2)
C21B C -0.1084(2) -0.2979(2) 0.8473(2)
C22B C -0.1594(2) -0.2786(2) 0.8512(3)
H27B H -0.1846 -0.296 0.8733
C23B C -0.1731(2) -0.2312(2) 0.8209(3)
H28B H -0.2068 -0.2162 0.8251
C24B C -0.0857(3) -0.2286(2) 0.7850(3)
H29B H -0.0597 -0.2112 0.7637
C25B C -0.0727(3) -0.2738(3) 0.8149(2)
H30B H -0.0384 -0.2877 0.8123
C26B C -0.1513(2) -0.1609(2) 0.7492(2)
C27B C -0.1739(2) -0.1167(2) 0.7751(2)
H31B H -0.1789 -0.1171 0.8142
C28B C -0.1893(2) -0.0721(2) 0.7452(3)
C29B C -0.1803(2) -0.0720(2) 0.6857(2)
C30B C -0.1582(3) -0.1156(2) 0.6587(2)
H32B H -0.1523 -0.1154 0.6197
C31B C -0.1445(3) -0.1614(2) 0.6925(2)
C32B C -0.1284(2) -0.20856(19) 0.6585(2)
C33B C -0.0869(3) -0.2074(2) 0.6199(2)
H33B H -0.0662 -0.1767 0.6175
C34B C -0.0751(3) -0.2491(2) 0.5854(2)
H34B H -0.0471 -0.2466 0.5597
C35B C -0.1057(2) -0.29624(19) 0.5887(2)
C36B C -0.1446(3) -0.2987(2) 0.6300(2)
H35B H -0.1639 -0.3301 0.6347
C37B C -0.1554(3) -0.2558(2) 0.6642(2)
H36B H -0.1817 -0.2588 0.692
C38B C -0.0957(3) -0.3414(2) 0.5480(2)
C39B C -0.2325(3) -0.0303(3) 0.8237(5)
H37B H -0.2466 -0.0656 0.8313
H38B H -0.2032 -0.0242 0.8499
C40B C -0.2329(3) 0.1077(2) 0.5710(4)
H39B H -0.2692 0.1038 0.5847
H40B H -0.2339 0.1117 0.53
C41B C -0.2301(3) 0.0157(2) 0.5766(3)
H41B H -0.2383 0.0124 0.5365
H42B H -0.2633 0.0163 0.5977
C42B C -0.1965(4) -0.0308(2) 0.5956(3)
H43B H -0.2113 -0.0642 0.5822
H44B H -0.1603 -0.0274 0.5818
C43B C -0.1987(2) 0.1954(2) 0.6879(2)
C44B C -0.2100(3) 0.1960(2) 0.7456(3)
C45B C -0.1916(3) 0.2393(2) 0.7801(3)
H45B H -0.1976 0.2394 0.8191
C46B C -0.1643(2) 0.2814(2) 0.7542(2)
C47B C -0.1538(2) 0.2796(2) 0.6975(3)
C48B C -0.1706(2) 0.2371(2) 0.6663(2)
H46B H -0.1623 0.2366 0.6278
C49B C -0.1219(2) 0.3206(2) 0.6682(2)
C50B C -0.0657(3) 0.3180(3) 0.6665(4)
H47B H -0.0485 0.2913 0.6869
C51B C -0.0354(2) 0.3534(3) 0.6359(3)
H48B H 0.0015 0.3505 0.6358
C52B C -0.0600(2) 0.39360(17) 0.60513(19)
C53B C -0.1139(2) 0.39607(17) 0.6050(2)
H49B H -0.1307 0.422 0.5832
C54B C -0.1449(2) 0.3608(2) 0.6366(3)
H50B H -0.1817 0.3645 0.6364
O10B O -0.04493(12) -0.43395(13) 0.96727(13)
O11B O -0.21266(19) -0.02886(18) 0.7675(2)
O12B O -0.2354(2) 0.15434(15) 0.77085(17)
O13B O -0.21494(18) 0.15240(15) 0.6571(2)
O14B O -0.20197(16) 0.06192(16) 0.5863(2)
O15B O -0.19827(17) -0.02769(13) 0.65904(17)
O16B O -0.06350(17) -0.33277(14) 0.50913(14)
O17B O -0.12248(15) -0.38312(14) 0.55563(15)
Zn1B Zn -0.03769(2) -0.40773(2) 1.04833(2)
Zn2B Zn -0.11908(2) -0.43994(2) 0.94480(2)
O4D O -0.07244(14) -0.47697(13) 1.07921(15)
O4G O 0.07244(14) 0.47697(13) 1.07921(15)
O5D O -0.03977(12) 0.45256(12) 1.03381(13)
O5G O 0.03977(12) -0.45256(12) 1.03381(13)
O5G_2 O 0.03977(12) 0.54744(12) 1.03381(13)
O6_2 O 0.13318(14) 0.50637(16) 0.90592(15)
O6B_2 O -0.13318(14) -0.50637(16) 0.90592(15)
O7_2 O 0.05035(15) 0.53779(17) 0.90640(15)
O10B_2 O -0.04493(12) 0.56605(13) 0.96727(13)
O16D O 0.16723(14) 0.43650(17) 1.00913(14)
O16G O -0.16723(14) -0.43650(17) 1.00913(14)
O17D O 0.11688(14) 0.37752(15) 1.05563(15)
O17G O -0.11688(14) -0.37752(15) 1.05563(15)
Zn1D Zn 0.09227(2) -0.53769(2) 0.54833(2)
Zn1D_2 Zn 0.09227(2) 0.46231(2) 0.54833(2)
Zn1G Zn -0.09227(2) -0.46231(2) 0.54833(2)
Zn1G_2 Zn -0.09227(2) 0.53769(2) 0.54833(2)
Zn2_2 Zn 0.11908(2) -0.56006(2) 0.94480(2)
Zn2B_2 Zn -0.11908(2) 0.56006(2) 0.94480(2)
Zn2D Zn 0.06006(2) 0.38092(2) 0.44480(2)
Zn2G Zn -0.06006(2) -0.38092(2) 0.44480(2)
Zn3_2 Zn 0.00000 -0.50000 0.96656(3)
Zn3D Zn 0.00000 -0.50000 0.46656(3)
Zn3D_2 Zn 0.00000 0.50000 0.46656(3)
loop_
_geom_bond_atom_site_label_1
_geom_bond_atom_site_label_2
_geom_bond_site_symmetry_1
_geom_bond_site_symmetry_2
C1 C23 1_555 1_555
C2 H1 1_555 1_555
H2 C2 1_555 1_555
C3 H3 1_555 1_555
H4 C3 1_555 1_555
C4 C3 1_555 1_555
H5 C4 1_555 1_555
H6 C4 1_555 1_555
C5 H7 1_555 1_555
H8 C5 1_555 1_555
C6 O4 1_555 1_555
C7 C8 1_555 1_555
C8 H9 1_555 1_555
C9 C8 1_555 1_555
H10 C9 1_555 1_555
C10 C9 1_555 1_555
C11 C10 1_555 1_555
H11 C11 1_555 1_555
C12 C7 1_555 1_555
H12 C12 1_555 1_555
C13 C10 1_555 1_555
C14 H13 1_555 1_555
C15 H14 1_555 1_555
H15 C15 1_555 1_555
H16 C15 1_555 1_555
C16 H17 1_555 1_555
H18 C16 1_555 1_555
H19 C16 1_555 1_555
C17 H20 1_555 1_555
C18 H21 1_555 1_555
H22 C18 1_555 1_555
H23 C18 1_555 1_555
C19 H24 1_555 1_555
H25 C19 1_555 1_555
H26 C19 1_555 1_555
O1 C20 1_555 1_555
O2 C20 1_555 1_555
O3 C2 1_555 1_555
O4 Zn1G 1_555 1_555
O5 C6 1_555 1_555
O6 C13 1_555 1_555
O7 C13 1_555 1_555
O8 C14 1_555 1_555
O9 C17 1_555 1_555
N1 C14 1_555 1_555
N2 C17 1_555 1_555
C20 C21 1_555 1_555
C21 C22 1_555 1_555
C22 H27 1_555 1_555
C23 C22 1_555 1_555
H28 C23 1_555 1_555
C24 C1 1_555 1_555
H29 C24 1_555 1_555
C25 C21 1_555 1_555
H30 C25 1_555 1_555
C26 C1 1_555 1_555
C27 C26 1_555 1_555
H31 C27 1_555 1_555
C28 C27 1_555 1_555
C29 C28 1_555 1_555
C30 C29 1_555 1_555
H32 C30 1_555 1_555
C31 C26 1_555 1_555
C32 C31 1_555 1_555
C33 C32 1_555 1_555
H33 C33 1_555 1_555
C34 C33 1_555 1_555
H34 C34 1_555 1_555
C35 C34 1_555 1_555
C36 C35 1_555 1_555
H35 C36 1_555 1_555
C37 C32 1_555 1_555
H36 C37 1_555 1_555
C38 C35 1_555 1_555
C39 C2 1_555 1_555
H37 C39 1_555 1_555
H38 C39 1_555 1_555
C40 C5 1_555 1_555
H39 C40 1_555 1_555
H40 C40 1_555 1_555
C41 H41 1_555 1_555
H42 C41 1_555 1_555
C42 C41 1_555 1_555
H43 C42 1_555 1_555
H44 C42 1_555 1_555
C43 C44 1_555 1_555
C44 C45 1_555 1_555
C45 H45 1_555 1_555
C46 C7 1_555 1_555
C47 C46 1_555 1_555
C48 C43 1_555 1_555
H46 C48 1_555 1_555
C49 C47 1_555 1_555
C50 C49 1_555 1_555
H47 C50 1_555 1_555
C51 C50 1_555 1_555
H48 C51 1_555 1_555
C52 C6 1_555 1_555
C53 C52 1_555 1_555
H49 C53 1_555 1_555
C54 C49 1_555 1_555
H50 C54 1_555 1_555
O10 Zn1 1_555 1_555
O11 C28 1_555 1_555
O12 C4 1_555 1_555
O13 C5 1_555 1_555
O14 C40 1_555 1_555
O15 C29 1_555 1_555
O16 C38 1_555 1_555
O17 C38 1_555 1_555
Zn1 O8 1_555 1_555
Zn2 O1 1_555 1_555
Zn3 O10 1_555 1_555
C1B C23B 1_555 1_555
C2B H1B 1_555 1_555
H2B C2B 1_555 1_555
C3B H3B 1_555 1_555
H4B C3B 1_555 1_555
C4B C3B 1_555 1_555
H5B C4B 1_555 1_555
H6B C4B 1_555 1_555
C5B H7B 1_555 1_555
H8B C5B 1_555 1_555
C6B O4B 1_555 1_555
C7B C8B 1_555 1_555
C8B H9B 1_555 1_555
C9B C8B 1_555 1_555
H10B C9B 1_555 1_555
C10B C9B 1_555 1_555
C11B C10B 1_555 1_555
H11B C11B 1_555 1_555
C12B C7B 1_555 1_555
H12B C12B 1_555 1_555
C13B C10B 1_555 1_555
C14B H13B 1_555 1_555
C15B H14B 1_555 1_555
H15B C15B 1_555 1_555
H16B C15B 1_555 1_555
C16B H17B 1_555 1_555
H18B C16B 1_555 1_555
H19B C16B 1_555 1_555
C17B H20B 1_555 1_555
C18B H21B 1_555 1_555
H22B C18B 1_555 1_555
H23B C18B 1_555 1_555
C19B H24B 1_555 1_555
H25B C19B 1_555 1_555
H26B C19B 1_555 1_555
O1B C20B 1_555 1_555
O2B C20B 1_555 1_555
O3B C2B 1_555 1_555
O4B Zn1D_2 1_555 1_555
O5B C6B 1_555 1_555
O6B C13B 1_555 1_555
O7B Zn3 1_555 1_555
O8B C14B 1_555 1_555
O9B C17B 1_555 1_555
N1B C14B 1_555 1_555
N2B C17B 1_555 1_555
C20B C21B 1_555 1_555
C21B C22B 1_555 1_555
C22B H27B 1_555 1_555
C23B C22B 1_555 1_555
H28B C23B 1_555 1_555
C24B C1B 1_555 1_555
H29B C24B 1_555 1_555
C25B C21B 1_555 1_555
H30B C25B 1_555 1_555
C26B C1B 1_555 1_555
C27B C26B 1_555 1_555
H31B C27B 1_555 1_555
C28B C27B 1_555 1_555
C29B C28B 1_555 1_555
C30B C29B 1_555 1_555
H32B C30B 1_555 1_555
C31B C26B 1_555 1_555
C32B C31B 1_555 1_555
C33B C32B 1_555 1_555
H33B C33B 1_555 1_555
C34B C33B 1_555 1_555
H34B C34B 1_555 1_555
C35B C34B 1_555 1_555
C36B C35B 1_555 1_555
H35B C36B 1_555 1_555
C37B C32B 1_555 1_555
H36B C37B 1_555 1_555
C38B C35B 1_555 1_555
C39B C2B 1_555 1_555
H37B C39B 1_555 1_555
H38B C39B 1_555 1_555
C40B C5B 1_555 1_555
H39B C40B 1_555 1_555
H40B C40B 1_555 1_555
C41B H41B 1_555 1_555
H42B C41B 1_555 1_555
C42B C41B 1_555 1_555
H43B C42B 1_555 1_555
H44B C42B 1_555 1_555
C43B C44B 1_555 1_555
C44B C45B 1_555 1_555
C45B H45B 1_555 1_555
C46B C7B 1_555 1_555
C47B C46B 1_555 1_555
C48B C43B 1_555 1_555
H46B C48B 1_555 1_555
C49B C47B 1_555 1_555
C50B C49B 1_555 1_555
H47B C50B 1_555 1_555
C51B C50B 1_555 1_555
H48B C51B 1_555 1_555
C52B C6B 1_555 1_555
C53B C52B 1_555 1_555
H49B C53B 1_555 1_555
C54B C49B 1_555 1_555
H50B C54B 1_555 1_555
O10B Zn1B 1_555 1_555
O11B C28B 1_555 1_555
O12B C4B 1_555 1_555
O13B C5B 1_555 1_555
O14B C40B 1_555 1_555
O15B C29B 1_555 1_555
O16B C38B 1_555 1_555
O17B C38B 1_555 1_555
Zn1B O8B 1_555 1_555
Zn2B O1B 1_555 1_555
O4D Zn1B 1_555 1_555
O4G Zn1 1_555 1_555
O5D Zn1 1_555 1_555
O5G Zn1B 1_555 1_555
O5G_2 Zn3 1_555 1_555
O6_2 Zn2 1_555 1_555
O6B_2 Zn2B 1_555 1_555
O7_2 Zn3 1_555 1_555
O10B_2 Zn3 1_555 1_555
O16D Zn2 1_555 1_555
O16G Zn2B 1_555 1_555
O17D Zn1 1_555 1_555
O17G Zn1B 1_555 1_555
Zn1D O5 1_555 1_555
Zn1D_2 O17 1_555 1_555
Zn1G O17B 1_555 1_555
Zn1G_2 O5B 1_555 1_555
Zn2_2 O6 1_555 1_555
Zn2B_2 O6B 1_555 1_555
Zn2D O16 1_555 1_555
Zn2G O16B 1_555 1_555
Zn3_2 O7 1_555 1_555
Zn3D O5 1_555 1_555
Zn3D_2 O5B 1_555 1_555
C3 O3 1_555 1_555
C11 C12 1_555 1_555
C15 N1 1_555 1_555
C16 N1 1_555 1_555
C18 N2 1_555 1_555
C19 N2 1_555 1_555
O9 Zn1 1_555 1_555
C24 C25 1_555 1_555
C30 C31 1_555 1_555
C36 C37 1_555 1_555
C39 O11 1_555 1_555
C41 O14 1_555 1_555
C42 O15 1_555 1_555
C43 O13 1_555 1_555
C44 O12 1_555 1_555
C45 C46 1_555 1_555
C47 C48 1_555 1_555
C51 C52 1_555 1_555
C53 C54 1_555 1_555
O10 Zn2 1_555 1_555
Zn3 O5D 1_555 1_555
C3B O3B 1_555 1_555
C11B C12B 1_555 1_555
C13B O7B 1_555 1_555
C15B N1B 1_555 1_555
C16B N1B 1_555 1_555
C18B N2B 1_555 1_555
C19B N2B 1_555 1_555
O9B Zn1B 1_555 1_555
C24B C25B 1_555 1_555
C30B C31B 1_555 1_555
C36B C37B 1_555 1_555
C39B O11B 1_555 1_555
C41B O14B 1_555 1_555
C42B O15B 1_555 1_555
C43B O13B 1_555 1_555
C44B O12B 1_555 1_555
C45B C46B 1_555 1_555
C47B C48B 1_555 1_555
C51B C52B 1_555 1_555
C53B C54B 1_555 1_555
O10B Zn2B 1_555 1_555
O10B Zn3_2 1_555 1_555
O5G Zn3_2 1_555 1_555
O10B_2 Zn2B_2 1_555 1_555

#END
