
#######################################################################
#
#                 Cambridge Crystallographic Data Centre
#                                CCDC 
#
#######################################################################
#
# If this CIF has been generated from an entry in the Cambridge 
# Structural Database, then it will include bibliographic, chemical, 
# crystal, experimental, refinement or atomic coordinate data resulting 
# from the CCDC's data processing and validation procedures.
#
#######################################################################

data_QOTHOY
_chemical_formula_moiety         '(C54 H32 Co4 N2 O21)n,n(C3 H7 N1 O1)'
_chemical_name_systematic        
"catena-[bis(\m-oxo)-(\m-5,5',5'',5'''-pyrene-1,3,6,8-tetrayltetraisophthalato)-bis(N,N-dimethylformamide)-oxo-tetra-cobalt N,N-dimethylformamide solvate]"
_symmetry_cell_setting           orthorhombic
_symmetry_space_group_name_H-M   'P n m a'
_symmetry_Int_Tables_number      62
_space_group_name_Hall           '-P 2ac 2n'
loop_
_symmetry_equiv_pos_site_id
_symmetry_equiv_pos_as_xyz
1 x,y,z
2 1/2-x,-y,1/2+z
3 1/2+x,1/2-y,1/2-z
4 -x,1/2+y,-z
5 -x,-y,-z
6 1/2+x,y,1/2-z
7 1/2-x,1/2+y,1/2+z
8 x,1/2-y,z
_cell_length_a                   33.152(2)
_cell_length_b                   14.4302(10)
_cell_length_c                   14.0799(10)
_cell_angle_alpha                90
_cell_angle_beta                 90
_cell_angle_gamma                90
_cell_volume                     6735.68
_cell_formula_units_Z            4
loop_
_atom_site_label
_atom_site_type_symbol
_atom_site_fract_x
_atom_site_fract_y
_atom_site_fract_z
O14 O 0.0889(12) 0.2500 0.720(3)
C31 C 0.1601(17) 0.2500 0.534(4)
C32 C 0.1260(13) 0.2500 0.697(3)
C33 C 0.0814(14) 0.2500 0.566(4)
N3 N 0.1246(13) 0.2500 0.601(4)
C34 C 0.4920(9) 0.2500 -0.0519(18)
O15 O 0.5166(6) 0.2500 0.2009(14)
C35 C 0.5209(10) 0.2500 0.1103(19)
C36 C 0.4486(10) 0.2500 0.096(2)
N4 N 0.4895(8) 0.2500 0.0558(17)
C37 C 0.3056(7) 0.4689(17) 0.5745(17)
O16 O 0.2555(10) 0.347(2) 0.686(2)
C38 C 0.3623(9) 0.421(3) 0.658(3)
N5 N 0.3183(8) 0.4063(19) 0.648(2)
O17 O 0.3073(14) 0.287(3) 0.756(3)
C39 C 0.2946(12) 0.345(3) 0.697(3)
C37G C 0.3056(7) 0.0311(17) 0.5745(17)
O16G O 0.2555(10) 0.153(2) 0.686(2)
C38G C 0.3623(9) 0.079(3) 0.658(3)
N5G N 0.3183(8) 0.0937(19) 0.648(2)
O17G O 0.3073(14) 0.213(3) 0.756(3)
C39G C 0.2946(12) 0.155(3) 0.697(3)
Co1 Co 0.24118(3) 0.2500 1.15735(7)
Co2 Co 0.36281(3) 0.7500 0.63345(8)
Co3 Co 0.19637(3) 0.2500 0.92921(8)
Co4 Co 0.55720(5) 0.2500 0.46655(13)
O1 O 0.30831(13) 0.7500 0.5718(3)
O2 O 0.1989(2) 0.2500 0.7819(5)
O3 O 0.28220(12) 0.6472(3) 0.7463(3)
O4 O 0.65210(13) 0.3524(3) 0.5831(3)
O5 O 0.26891(12) 0.3493(3) 1.0745(3)
O6 O 0.61050(14) 0.3441(3) 0.4586(3)
C1 C 0.44471(16) 0.4915(4) 0.9702(4)
O7 O 0.23962(12) 0.3530(3) 0.9306(3)
C2 C 0.32320(17) 0.5563(4) 0.8484(4)
C3 C 0.44784(16) 0.4783(4) 0.8699(4)
H1 H 0.4240 0.4682 0.8340
C4 C 0.52041(16) 0.4957(4) 0.8755(4)
C5 C 0.29891(17) 0.4402(4) 0.9542(4)
C6 C 0.36088(16) 0.5518(4) 0.8914(4)
H2 H 0.3823 0.5894 0.8684
C7 C 0.62159(18) 0.3752(4) 0.5379(5)
C8 C 0.33635(16) 0.4386(4) 0.9993(4)
H3 H 0.3404 0.3994 1.0527
C9 C 0.59328(18) 0.4444(4) 0.5824(5)
C10 C 0.36743(16) 0.4932(4) 0.9672(4)
O8 O 0.34921(13) 0.6508(4) 0.7280(4)
C11 C 0.40683(16) 0.4925(4) 1.0180(4)
C12 C 0.48096(15) 0.4987(4) 1.0245(4)
C13 C 0.31754(17) 0.6240(4) 0.7672(4)
C14 C 0.59311(16) 0.5055(4) 0.8829(4)
H4 H 0.6183 0.5065 0.8507
O9 O 0.48405(18) 0.6538(5) 0.5555(5)
C15 C 0.29228(16) 0.4992(4) 0.8790(4)
H5 H 0.2667 0.5007 0.8484
C16 C 0.55826(17) 0.5020(4) 0.8294(4)
C17 C 0.26587(17) 0.3748(4) 0.9890(4)
C18 C 0.48367(16) 0.4800(4) 0.8249(4)
H6 H 0.4846 0.4704 0.7582
C19 C 0.59043(19) 0.4463(5) 0.6807(5)
H7 H 0.6078 0.4098 0.7193
C20 C 0.56183(16) 0.5025(4) 0.7199(5)
C21 C 0.5413(2) 0.5593(5) 0.5704(5)
O10 O 0.2928(2) 0.2500 1.2413(5)
C22 C 0.5378(2) 0.5595(5) 0.6683(5)
H8 H 0.5188 0.5989 0.6988
C23 C 0.5143(2) 0.6202(6) 0.5139(5)
O11 O 0.5231(2) 0.6333(5) 0.4276(4)
C24 C 0.5689(2) 0.4996(5) 0.5274(5)
H9 H 0.5708 0.4971 0.4601
N1 N 0.3486(6) 0.2500 1.3308(14)
C25 C 0.3153(7) 0.2876(18) 1.2966(17)
C26 C 0.1976(9) 0.2931(19) 0.7074(15)
N2 N 0.1934(8) 0.2500 0.624(2)
C27 C 0.1914(15) 0.288(4) 0.530(2)
C28 C 0.191(2) 0.1472(13) 0.631(4)
C29 C 0.3757(11) 0.295(3) 1.397(3)
C30 C 0.3605(18) 0.157(2) 1.301(4)
O12 O 0.5743(2) 0.2500 0.3166(6)
O13 O 0.5615(7) 0.2500 0.6137(15)
C26G C 0.1976(9) 0.2069(19) 0.7074(15)
C27G C 0.1914(15) 0.212(4) 0.530(2)
C28G C 0.191(2) 0.3528(13) 0.631(4)
O3D O 0.71780(12) 0.3528(3) 1.2537(3)
O4D O 0.34790(13) 0.6476(3) 1.4169(3)
O5D O 0.73109(12) 0.6507(3) 0.9255(3)
O6D O 0.38950(14) 0.6559(3) 1.5414(3)
C1D C 0.55529(16) 0.5085(4) 1.0298(4)
O7D O 0.76038(12) 0.6470(3) 1.0694(3)
C2D C 0.67680(17) 0.4437(4) 1.1516(4)
C3D C 0.55216(16) 0.5217(4) 1.1301(4)
H1D H 0.5760 0.5318 1.1660
C4D C 0.47959(16) 0.5043(4) 1.1245(4)
C5D C 0.70109(17) 0.5598(4) 1.0458(4)
C6D C 0.63912(16) 0.4482(4) 1.1086(4)
H2D H 0.6177 0.4106 1.1316
C7D C 0.37841(18) 0.6248(4) 1.4621(5)
C8D C 0.66365(16) 0.5614(4) 1.0007(4)
H3D H 0.6596 0.6006 0.9473
C9D C 0.40672(18) 0.5556(4) 1.4176(5)
C10D C 0.63257(16) 0.5068(4) 1.0328(4)
O8D O 0.65079(13) 0.3492(4) 1.2720(4)
C11D C 0.59317(16) 0.5075(4) 0.9820(4)
C12D C 0.51904(15) 0.5013(4) 0.9755(4)
C13D C 0.68246(17) 0.3760(4) 1.2328(4)
C14D C 0.40689(16) 0.4945(4) 1.1171(4)
H4D H 0.3817 0.4935 1.1493
O9D O 0.51595(18) 0.3462(5) 1.4445(5)
C15D C 0.70772(16) 0.5008(4) 1.1210(4)
H5D H 0.7333 0.4993 1.1516
C16D C 0.44174(17) 0.4980(4) 1.1706(4)
C17D C 0.73413(17) 0.6252(4) 1.0110(4)
C18D C 0.51633(16) 0.5200(4) 1.1751(4)
H6D H 0.5154 0.5296 1.2418
C19D C 0.40957(19) 0.5537(5) 1.3193(5)
H7D H 0.3922 0.5902 1.2807
C20D C 0.43817(16) 0.4975(4) 1.2801(5)
C21D C 0.4587(2) 0.4407(5) 1.4296(5)
C22D C 0.4622(2) 0.4405(5) 1.3317(5)
H8D H 0.4812 0.4011 1.3012
C23D C 0.4857(2) 0.3798(6) 1.4861(5)
O11D O 0.4769(2) 0.3667(5) 1.5724(4)
C24D C 0.4311(2) 0.5004(5) 1.4726(5)
H9D H 0.4292 0.5029 1.5399
C25G C 0.3153(7) 0.2124(18) 1.2966(17)
C29G C 0.3757(11) 0.205(3) 1.397(3)
C30G C 0.3605(18) 0.343(2) 1.301(4)
Co1A Co 0.25882(3) 0.7500 0.65735(7)
Co1B Co 0.74118(3) 0.2500 1.34265(7)
Co1C Co 0.75882(3) 0.7500 0.84265(7)
Co2_2 Co 0.36281(3) 0.7500 1.63345(8)
Co2C Co 0.63719(3) 0.2500 0.36655(8)
Co2C_2 Co 0.63719(3) 0.2500 1.36655(8)
Co3A Co 0.30363(3) 0.7500 0.42921(8)
Co3A_2 Co 0.30363(3) 0.7500 1.42921(8)
Co3B Co 0.69637(3) 0.2500 0.57079(8)
Co3C Co 0.80363(3) 0.7500 1.07079(8)
Co4_2 Co 0.55720(5) 0.2500 1.46655(13)
Co4C Co 0.44280(5) 0.7500 0.53345(13)
Co4C_2 Co 0.44280(5) 0.7500 1.53345(13)
O1A O 0.19169(13) 0.2500 1.0718(3)
O3A O 0.21780(12) 0.3528(3) 1.2463(3)
O3F O 0.21780(12) 0.1472(3) 1.2463(3)
O4B O 0.15210(13) 0.1476(3) 0.9169(3)
O4E O 0.15210(13) 0.3524(3) 0.9169(3)
O5G O 0.26891(12) 0.1507(3) 1.0745(3)
O6C O 0.38950(14) 0.8441(3) 0.5414(3)
O6D_2 O 0.38950(14) 0.6559(3) 0.5414(3)
O6G O 0.61050(14) 0.1559(3) 0.4586(3)
O7G O 0.23962(12) 0.1470(3) 0.9306(3)
O8G O 0.34921(13) 0.8492(4) 0.7280(4)
O9C O 0.51595(18) 0.1538(5) 0.4445(5)
O9D_2 O 0.51595(18) 0.3462(5) 0.4445(5)
O12C O 0.4257(2) 0.7500 0.6834(6)
Co5? Co 0.4769(2) 0.2500 0.6477(7)
O18? O 0.5216(7) 0.2500 0.7417(19)
O19? O 0.4309(6) 0.2500 0.7281(18)
O20? O 0.5665(9) 0.2500 0.065(2)
O21? O 0.3648(13) 0.2500 1.135(3)
O22? O 0.389(3) 0.2500 1.249(7)
Co6? Co 0.4955(5) 0.2500 0.6421(9)
C40? C 0.3230(13) 0.2500 0.775(4)
N6? N 0.3670(13) 0.2500 0.785(3)
C41? C 0.385(2) 0.2500 0.881(4)
C42? C 0.3943(9) 0.2500 0.715(4)
O23? O 0.1964(12) -0.014(3) 0.732(3)
O24? O 0.417(2) 0.2500 0.014(6)
O25? O 0.2398(17) 0.2500 0.479(4)
O26? O 0.268(3) 0.2500 0.426(7)
C43? C 0.554(2) 0.174(4) 0.281(6)
O27? O 0.5555(10) 0.2500 0.707(3)
O28? O 0.5444(8) 0.2500 0.6084(16)
loop_
_geom_bond_atom_site_label_1
_geom_bond_atom_site_label_2
_geom_bond_site_symmetry_1
_geom_bond_site_symmetry_2
Co1 O5 1_555 1_555
Co2 O1 1_555 1_555
Co3 O2 1_555 1_555
Co4 O6 1_555 1_555
O1 Co1A 1_555 1_555
O2 C26 1_555 1_555
O3 C13 1_555 1_555
O4 C7 1_555 1_555
O5 C17 1_555 1_555
O6 C7 1_555 1_555
C1 C3 1_555 1_555
O7 Co3 1_555 1_555
C2 C6 1_555 1_555
C3 H1 1_555 1_555
C4 C16 1_555 1_555
C5 C8 1_555 1_555
C6 H2 1_555 1_555
C7 C9 1_555 1_555
C8 H3 1_555 1_555
C9 C19 1_555 1_555
C10 C6 1_555 1_555
O8 Co2 1_555 1_555
C11 C1 1_555 1_555
C12 C1 1_555 1_555
C13 C2 1_555 1_555
C14 H4 1_555 1_555
O9 C23 1_555 1_555
C15 C2 1_555 1_555
H5 C15 1_555 1_555
C16 C14 1_555 1_555
C17 O7 1_555 1_555
C18 C3 1_555 1_555
H6 C18 1_555 1_555
C19 H7 1_555 1_555
C20 C16 1_555 1_555
C21 C22 1_555 1_555
O10 Co1 1_555 1_555
C22 C20 1_555 1_555
H8 C22 1_555 1_555
C23 C21 1_555 1_555
O11 C23 1_555 1_555
C24 C9 1_555 1_555
H9 C24 1_555 1_555
N1 C25 1_555 1_555
C25 O10 1_555 1_555
C26 N2 1_555 1_555
N2 C27 1_555 1_555
C28 N2 1_555 1_555
C29 N1 1_555 1_555
C30 N1 1_555 1_555
O12 Co4 1_555 1_555
O13 Co4 1_555 1_555
O14 C32 1_555 1_555
C31 N3 1_555 1_555
C32 N3 1_555 1_555
C33 N3 1_555 1_555
C34 N4 1_555 1_555
O15 C35 1_555 1_555
C35 N4 1_555 1_555
C36 N4 1_555 1_555
C37 N5 1_555 1_555
O16 C39 1_555 1_555
C38 N5 1_555 1_555
N5 C39 1_555 1_555
O17 C39 1_555 1_555
C26G O2 1_555 1_555
C27G N2 1_555 1_555
C28G N2 1_555 1_555
O3D C13D 1_555 1_555
O4D C7D 1_555 1_555
O5D C17D 1_555 1_555
O6D C7D 1_555 1_555
C1D C3D 1_555 1_555
O7D C17D 1_555 1_555
C2D C6D 1_555 1_555
C3D H1D 1_555 1_555
C4D C12 1_555 1_555
C5D C8D 1_555 1_555
C6D H2D 1_555 1_555
C7D C9D 1_555 1_555
C8D H3D 1_555 1_555
C9D C19D 1_555 1_555
C10D C6D 1_555 1_555
O8D C13D 1_555 1_555
C11D C14 1_555 1_555
C12D C4 1_555 1_555
C13D C2D 1_555 1_555
C14D C11 1_555 1_555
H4D C14D 1_555 1_555
O9D C23D 1_555 1_555
C15D C2D 1_555 1_555
H5D C15D 1_555 1_555
C16D C4D 1_555 1_555
C17D C5D 1_555 1_555
C18D C3D 1_555 1_555
H6D C18D 1_555 1_555
C19D H7D 1_555 1_555
C20D C16D 1_555 1_555
C21D C22D 1_555 1_555
C22D C20D 1_555 1_555
H8D C22D 1_555 1_555
C23D C21D 1_555 1_555
O11D C23D 1_555 1_555
C24D C9D 1_555 1_555
H9D C24D 1_555 1_555
C25G O10 1_555 1_555
C29G N1 1_555 1_555
C30G N1 1_555 1_555
Co1A O3 1_555 1_555
Co1B O3D 1_555 1_555
Co1C O5D 1_555 1_555
Co2_2 O6D 1_555 1_555
Co2C Co4 1_555 1_555
Co2C_2 O8D 1_555 1_555
Co3A O1 1_555 1_555
Co3A_2 O4D 1_555 1_555
Co3B O4 1_555 1_555
Co3C O7D 1_555 1_555
Co4_2 O9D 1_555 1_555
Co4C Co2 1_555 1_555
Co4C_2 O6D 1_555 1_555
O1A Co1 1_555 1_555
O3A Co1 1_555 1_555
O3F Co1 1_555 1_555
O4B Co3 1_555 1_555
O4E Co3 1_555 1_555
O5G Co1 1_555 1_555
O6C Co2 1_555 1_555
O6D_2 Co2 1_555 1_555
O6G Co4 1_555 1_555
O7G Co3 1_555 1_555
O8G Co2 1_555 1_555
O9C Co4 1_555 1_555
O9D_2 Co4 1_555 1_555
O12C Co2 1_555 1_555
C37G N5G 1_555 1_555
O16G C39G 1_555 1_555
C38G N5G 1_555 1_555
N5G C39G 1_555 1_555
O17G C39G 1_555 1_555
Co3 O1A 1_555 1_555
O6 Co2C 1_555 1_555
C4 C18 1_555 1_555
C5 C15 1_555 1_555
C5 C17 1_555 1_555
C8 C10 1_555 1_555
C10 C11 1_555 1_555
O8 C13 1_555 1_555
C12 C12D 1_555 1_555
O9 Co4C 1_555 1_555
C19 C20 1_555 1_555
C21 C24 1_555 1_555
N1 C25G 1_555 1_555
N2 C26G 1_555 1_555
O12 Co2C 1_555 1_555
C1D C11D 1_555 1_555
C1D C12D 1_555 1_555
C4D C18D 1_555 1_555
C5D C15D 1_555 1_555
C8D C10D 1_555 1_555
C10D C11D 1_555 1_555
C14D C16D 1_555 1_555
C19D C20D 1_555 1_555
C21D C24D 1_555 1_555
Co2_2 Co4C_2 1_555 1_555
Co2C O6G 1_555 1_555
Co2C_2 Co4_2 1_555 1_555
Co4C O6C 1_555 1_555
Co4C O6D_2 1_555 1_555
Co4C O12C 1_555 1_555

#END
