
#######################################################################
#
#                 Cambridge Crystallographic Data Centre
#                                CCDC 
#
#######################################################################
#
# If this CIF has been generated from an entry in the Cambridge 
# Structural Database, then it will include bibliographic, chemical, 
# crystal, experimental, refinement or atomic coordinate data resulting 
# from the CCDC's data processing and validation procedures.
#
#######################################################################

data_BEPREV03
_chemical_formula_moiety         '(C72 H43 N6 Ni3 O13)n,12n(C3 H7 N1 O1)'
_chemical_name_systematic        
"catena-[tris(\m~5~-4,4'-(4,4'-Bipyridine-2,6-diyl)dibenzoato)-(\m~3~-hydroxo)-tri-nickel N,N-dimethylformamide solvate]"
_symmetry_cell_setting           rhombohedral
_symmetry_space_group_name_H-M   'R -3 c'
_symmetry_Int_Tables_number      167
_space_group_name_Hall           '-R 3 2"c'
loop_
_symmetry_equiv_pos_site_id
_symmetry_equiv_pos_as_xyz
1 x,y,z
2 -y,x-y,z
3 -x+y,-x,z
4 y,x,1/2-z
5 x-y,-y,1/2-z
6 -x,-x+y,1/2-z
7 2/3+x,1/3+y,1/3+z
8 2/3-y,1/3+x-y,1/3+z
9 2/3-x+y,1/3-x,1/3+z
10 2/3+y,1/3+x,5/6-z
11 2/3+x-y,1/3-y,5/6-z
12 2/3-x,1/3-x+y,5/6-z
13 1/3+x,2/3+y,2/3+z
14 1/3-y,2/3+x-y,2/3+z
15 1/3-x+y,2/3-x,2/3+z
16 1/3+y,2/3+x,1/6-z
17 1/3+x-y,2/3-y,1/6-z
18 1/3-x,2/3-x+y,1/6-z
19 -x,-y,-z
20 y,-x+y,-z
21 x-y,x,-z
22 -y,-x,1/2+z
23 -x+y,y,1/2+z
24 x,x-y,1/2+z
25 1/3-x,2/3-y,2/3-z
26 1/3+y,2/3-x+y,2/3-z
27 1/3+x-y,2/3+x,2/3-z
28 1/3-y,2/3-x,1/6+z
29 1/3-x+y,2/3+y,1/6+z
30 1/3+x,2/3+x-y,1/6+z
31 2/3-x,1/3-y,1/3-z
32 2/3+y,1/3-x+y,1/3-z
33 2/3+x-y,1/3+x,1/3-z
34 2/3-y,1/3-x,5/6+z
35 2/3-x+y,1/3+y,5/6+z
36 2/3+x,1/3+x-y,5/6+z
_cell_length_a                   29.106(3)
_cell_length_b                   29.106(3)
_cell_length_c                   23.417(2)
_cell_angle_alpha                90
_cell_angle_beta                 90
_cell_angle_gamma                120
_cell_volume                     17180.1
_exptl_crystal_colour            green
_exptl_crystal_description       plate
_cell_formula_units_Z            6
loop_
_atom_site_label
_atom_site_type_symbol
_atom_site_fract_x
_atom_site_fract_y
_atom_site_fract_z
Ni1 Ni 0.6667 0.40220(3) 0.0833
O1 O 0.6667 0.3333 0.0833
O2 O 0.43417(17) 0.71387(17) -0.0170(2)
O3 O 0.39681(17) 0.62572(16) -0.0269(2)
N1 N 0.6667 0.4739(2) 0.0833
N2 N 0.6667 0.7177(2) 0.0833
C1 C 0.4336(2) 0.6703(2) -0.0117(3)
C2 C 0.4823(2) 0.6726(3) 0.0143(3)
C3 C 0.5293(3) 0.7193(3) 0.0210(4)
H1 H 0.5310 0.7519 0.0122
C4 C 0.5748(3) 0.7194(3) 0.0408(4)
H2 H 0.6070 0.7522 0.0450
C5 C 0.5737(3) 0.6732(3) 0.0542(3)
C6 C 0.5248(3) 0.6264(3) 0.0522(5)
H3 H 0.5221 0.5942 0.0650
C7 C 0.4800(3) 0.6260(3) 0.0317(4)
H4 H 0.4474 0.5935 0.0296
C8 C 0.6225(3) 0.6717(2) 0.0698(3)
C9 C 0.6219(3) 0.6233(3) 0.0687(3)
H5 H 0.5905 0.5917 0.0580
C10 C 0.6667 0.6214(3) 0.0833
C11 C 0.6667 0.5698(3) 0.0833
C12 C 0.7134(3) 0.5684(3) 0.0867(4)
H6 H 0.7465 0.6005 0.0891
C13 C 0.7117(3) 0.5201(3) 0.0866(3)
H7 H 0.7442 0.5199 0.0891
O2Q O 0.89916(17) 0.94637(24) 0.1837(2)
O3Q O 0.93652(17) 0.89558(23) 0.1936(2)
C1Q C 0.8997(2) 0.9034(3) 0.1784(3)
C2Q C 0.8510(2) 0.8570(4) 0.1524(3)
C3Q C 0.8040(3) 0.8567(4) 0.1457(4)
H1Q H 0.8023 0.8876 0.1545
C4Q C 0.7585(3) 0.8113(4) 0.1259(4)
H2Q H 0.7263 0.8119 0.1217
C5Q C 0.7596(3) 0.7662(4) 0.1125(3)
C6Q C 0.8085(3) 0.7683(4) 0.1145(5)
H3Q H 0.8112 0.7388 0.1017
C7Q C 0.8533(3) 0.8127(4) 0.1350(4)
H4Q H 0.8859 0.8128 0.1371
C8Q C 0.7108(3) 0.7159(4) 0.0969(3)
C9Q C 0.7114(3) 0.6681(4) 0.0980(3)
H5Q H 0.7428 0.6679 0.1087
C12Q C 0.6199(3) 0.5217(4) 0.0800(4)
H6Q H 0.5868 0.5207 0.0776
C13Q C 0.6216(3) 0.4751(4) 0.0801(3)
H7Q H 0.5891 0.4424 0.0776
Ni1A Ni 0.59780(3) 0.26450(3) 0.0833
O2A O 0.28613(17) -0.27970(24) -0.0170(2)
O3A O 0.37428(16) -0.22891(23) -0.0269(2)
N1A N 0.5261(2) 0.1928(2) 0.0833
N2A N 0.2823(2) -0.0510(2) 0.0833
C1A C 0.3297(2) -0.2367(3) -0.0117(3)
C2A C 0.3274(3) -0.1903(4) 0.0143(3)
C3A C 0.2807(3) -0.1900(4) 0.0210(4)
H1A H 0.2481 -0.2209 0.0122
C4A C 0.2806(3) -0.1446(4) 0.0408(4)
H2A H 0.2478 -0.1452 0.0450
C5A C 0.3268(3) -0.0995(4) 0.0542(3)
C6A C 0.3736(3) -0.1016(4) 0.0522(5)
H3A H 0.4058 -0.0721 0.0650
C7A C 0.3740(3) -0.1460(4) 0.0317(4)
H4A H 0.4065 -0.1461 0.0296
C8A C 0.3283(2) -0.0492(4) 0.0698(3)
C9A C 0.3767(3) -0.0014(4) 0.0687(3)
H5A H 0.4083 -0.0012 0.0580
C10A C 0.3786(3) 0.0453(3) 0.0833
C11A C 0.4302(3) 0.0969(3) 0.0833
C12A C 0.4316(3) 0.1450(4) 0.0867(4)
H6A H 0.3995 0.1460 0.0891
C13A C 0.4799(3) 0.1916(4) 0.0866(3)
H7A H 0.4801 0.2243 0.0891
O2P O 0.05363(24) -0.04720(17) 0.1837(2)
O3P O 0.10442(23) 0.04095(16) 0.1936(2)
C1P C 0.0966(3) -0.0036(2) 0.1784(3)
C2P C 0.1430(4) -0.0059(3) 0.1524(3)
C3P C 0.1433(4) -0.0526(3) 0.1457(4)
H1P H 0.1124 -0.0852 0.1545
C4P C 0.1887(4) -0.0527(3) 0.1259(4)
H2P H 0.1881 -0.0855 0.1217
C5P C 0.2338(4) -0.0065(3) 0.1125(3)
C6P C 0.2317(4) 0.0403(3) 0.1145(5)
H3P H 0.2612 0.0725 0.1017
C7P C 0.1873(4) 0.0407(3) 0.1350(4)
H4P H 0.1872 0.0732 0.1371
C8P C 0.2841(4) -0.0050(2) 0.0969(3)
C9P C 0.3319(4) 0.0434(3) 0.0980(3)
H5P H 0.3321 0.0750 0.1087
C12P C 0.4783(4) 0.0983(3) 0.0800(4)
H6P H 0.4793 0.0662 0.0776
C13P C 0.5249(4) 0.1466(3) 0.0801(3)
H7P H 0.5576 0.1468 0.0776
Ni1B Ni 0.73550(3) 0.3333 0.0833
O2B O 1.27970(24) 0.56583(17) -0.0170(2)
O3B O 1.22891(23) 0.60319(17) -0.0269(2)
N1B N 0.8072(2) 0.3333 0.0833
N2B N 1.0510(2) 0.3333 0.0833
C1B C 1.2367(3) 0.5664(2) -0.0117(3)
C2B C 1.1903(4) 0.5177(2) 0.0143(3)
C3B C 1.1900(4) 0.4707(3) 0.0210(4)
H1B H 1.2209 0.4690 0.0122
C4B C 1.1446(4) 0.4252(3) 0.0408(4)
H2B H 1.1452 0.3930 0.0450
C5B C 1.0995(4) 0.4263(3) 0.0542(3)
C6B C 1.1016(4) 0.4752(3) 0.0522(5)
H3B H 1.0721 0.4779 0.0650
C7B C 1.1460(4) 0.5200(3) 0.0317(4)
H4B H 1.1461 0.5526 0.0296
C8B C 1.0492(4) 0.3775(3) 0.0698(3)
C9B C 1.0014(4) 0.3781(3) 0.0687(3)
H5B H 1.0012 0.4095 0.0580
C10B C 0.9547(3) 0.3333 0.0833
C11B C 0.9031(3) 0.3333 0.0833
C12B C 0.8550(4) 0.2866(3) 0.0867(4)
H6B H 0.8540 0.2535 0.0891
C13B C 0.8084(4) 0.2883(3) 0.0866(3)
H7B H 0.7757 0.2558 0.0891
O2O O 1.04720(17) 0.10084(17) 0.1837(2)
O3O O 0.95905(16) 0.06348(17) 0.1936(2)
C1O C 1.0036(2) 0.1003(2) 0.1784(3)
C2O C 1.0059(3) 0.1490(2) 0.1524(3)
C3O C 1.0526(3) 0.1960(3) 0.1457(4)
H1O H 1.0852 0.1977 0.1545
C4O C 1.0527(3) 0.2415(3) 0.1259(4)
H2O H 1.0855 0.2737 0.1217
C5O C 1.0065(3) 0.2404(3) 0.1125(3)
C6O C 0.9597(3) 0.1915(3) 0.1145(5)
H3O H 0.9275 0.1888 0.1017
C7O C 0.9593(3) 0.1467(3) 0.1350(4)
H4O H 0.9268 0.1141 0.1371
C8O C 1.0050(2) 0.2892(3) 0.0969(3)
C9O C 0.9566(3) 0.2886(3) 0.0980(3)
H5O H 0.9250 0.2572 0.1087
C12O C 0.9017(3) 0.3801(3) 0.0800(4)
H6O H 0.9338 0.4132 0.0776
C13O C 0.8534(3) 0.3784(3) 0.0801(3)
H7O H 0.8532 0.4109 0.0776
Ni1R Ni 0.3333 0.59780(3) -0.0833
Ni1R_2 Ni 1.3333 0.59780(3) -0.0833
Ni1S Ni 0.40220(3) -0.26450(3) -0.0833
Ni1S_2 Ni 0.40220(3) 0.73550(3) -0.0833
Ni1T Ni 0.26450(3) -0.3333 -0.0833
Ni1T_2 Ni 1.26450(3) 0.6667 -0.0833
Ni1DA Ni -0.0000 -0.06887(3) 0.2500
Ni1DA_2 Ni 1.0000 0.93113(3) 0.2500
Ni1EA Ni 0.06887(3) 0.06883(3) 0.2500
Ni1EA_2 Ni 1.06887(3) 0.06883(3) 0.2500
Ni1FA Ni 0.93117(3) 0.0000 0.2500
Ni1FA_2 Ni 0.93117(3) 1.0000 0.2500
O2R O 0.56583(17) 0.28613(17) 0.0170(2)
O2S O 0.71387(17) 0.27970(24) 0.0170(2)
O2T O 0.72030(24) 0.43417(17) 0.0170(2)
O2AA O 0.61946(17) 0.23250(17) 0.1497(2)
O2BA O 0.61303(24) 0.38054(17) 0.1497(2)
O2CA O 0.76750(17) 0.38697(24) 0.1497(2)
O3R O 0.60319(17) 0.37428(16) 0.0269(2)
O3S O 0.62572(16) 0.22891(23) 0.0269(2)
O3T O 0.77109(23) 0.39681(17) 0.0269(2)
O3AA O 0.70761(16) 0.26986(17) 0.1398(2)
O3BA O 0.56224(23) 0.29239(16) 0.1398(2)
O3CA O 0.73014(17) 0.43776(23) 0.1398(2)
O4 O 0.6742(8) 0.5240(8) 0.2380(9)
N3 N 0.6936(8) 0.4643(7) 0.2806(8)
C14 C 0.6711(8) 0.4808(8) 0.2401(9)
H8 H 0.6512 0.4562 0.2109
C15 C 0.6928(9) 0.4139(7) 0.2728(9)
H9 H 0.6709 0.3953 0.2395
H10 H 0.6780 0.3919 0.3069
H11 H 0.7291 0.4210 0.2666
C16 C 0.7232(9) 0.5025(9) 0.3260(9)
H12 H 0.7171 0.5326 0.3234
H13 H 0.7611 0.5150 0.3216
H14 H 0.7110 0.4853 0.3632
O5? O 0.5577(14) 0.4887(11) 0.3056(13)
C17? C 0.5468(12) 0.5237(10) 0.3012(8)
H15? H 0.5333 0.5331 0.3338
C18? C 0.5339(15) 0.5893(11) 0.2515(15)
H16? H 0.5249 0.5948 0.2893
H17? H 0.5602 0.6226 0.2356
H18? H 0.5028 0.5741 0.2279
C19? C 0.5634(13) 0.5337(12) 0.1978(7)
H19? H 0.5761 0.5100 0.2075
H20? H 0.5339 0.5163 0.1720
H21? H 0.5913 0.5648 0.1797
N4? N 0.7378(9) 0.6930(8) 0.2480(11)
O6? O 0.8103(10) 0.6814(14) 0.2346(16)
C20? C 0.7904(9) 0.7094(11) 0.2397(13)
H22? H 0.8151 0.7463 0.2361
C21? C 0.7179(10) 0.7299(10) 0.250(2)
H23? H 0.7426 0.7673 0.2411
H24? H 0.7006 0.7271 0.2864
H25? H 0.6909 0.7147 0.2195
C22? C 0.7024(11) 0.6364(10) 0.2546(18)
H26? H 0.7208 0.6161 0.2516
H27? H 0.6731 0.6226 0.2272
H28? H 0.6885 0.6331 0.2934
H29? H 0.6667 0.3333 0.1260
N5? N 0.5484(6) 0.5484(6) 0.2500
loop_
_geom_bond_atom_site_label_1
_geom_bond_atom_site_label_2
_geom_bond_site_symmetry_1
_geom_bond_site_symmetry_2
Ni1 O1 1_555 1_555
O1 Ni1A 1_555 1_555
O2 C1 1_555 1_555
O3 C1 1_555 1_555
N1 Ni1 1_555 1_555
N2 C8 1_555 1_555
C1 C2 1_555 1_555
C2 C3 1_555 1_555
C3 H1 1_555 1_555
C4 C3 1_555 1_555
H2 C4 1_555 1_555
C5 C4 1_555 1_555
C6 C5 1_555 1_555
H3 C6 1_555 1_555
C7 C2 1_555 1_555
H4 C7 1_555 1_555
C8 C5 1_555 1_555
C9 C8 1_555 1_555
H5 C9 1_555 1_555
C10 C9 1_555 1_555
C11 C10 1_555 1_555
C12 C11 1_555 1_555
H6 C12 1_555 1_555
C13 N1 1_555 1_555
H7 C13 1_555 1_555
O4 C14 1_555 1_555
N3 C14 1_555 1_555
C14 H8 1_555 1_555
C15 N3 1_555 1_555
H9 C15 1_555 1_555
H10 C15 1_555 1_555
H11 C15 1_555 1_555
C16 N3 1_555 1_555
H12 C16 1_555 1_555
H13 C16 1_555 1_555
H14 C16 1_555 1_555
O2Q C1Q 1_555 1_555
O3Q C1Q 1_555 1_555
C1Q C2Q 1_555 1_555
C2Q C3Q 1_555 1_555
C3Q H1Q 1_555 1_555
C4Q C3Q 1_555 1_555
H2Q C4Q 1_555 1_555
C5Q C4Q 1_555 1_555
C6Q C5Q 1_555 1_555
H3Q C6Q 1_555 1_555
C7Q C2Q 1_555 1_555
H4Q C7Q 1_555 1_555
C8Q N2 1_555 1_555
C9Q C10 1_555 1_555
H5Q C9Q 1_555 1_555
C12Q C11 1_555 1_555
H6Q C12Q 1_555 1_555
C13Q N1 1_555 1_555
H7Q C13Q 1_555 1_555
Ni1A N1A 1_555 1_555
O2A C1A 1_555 1_555
O3A C1A 1_555 1_555
N1A C13A 1_555 1_555
N2A C8A 1_555 1_555
C1A C2A 1_555 1_555
C2A C3A 1_555 1_555
C3A H1A 1_555 1_555
C4A C3A 1_555 1_555
H2A C4A 1_555 1_555
C5A C4A 1_555 1_555
C6A C5A 1_555 1_555
H3A C6A 1_555 1_555
C7A C2A 1_555 1_555
H4A C7A 1_555 1_555
C8A C5A 1_555 1_555
C9A C8A 1_555 1_555
H5A C9A 1_555 1_555
C10A C9A 1_555 1_555
C11A C10A 1_555 1_555
C12A C11A 1_555 1_555
H6A C12A 1_555 1_555
C13A C12A 1_555 1_555
H7A C13A 1_555 1_555
O2P C1P 1_555 1_555
O3P C1P 1_555 1_555
C1P C2P 1_555 1_555
C2P C3P 1_555 1_555
C3P H1P 1_555 1_555
C4P C3P 1_555 1_555
H2P C4P 1_555 1_555
C5P C4P 1_555 1_555
C6P C5P 1_555 1_555
H3P C6P 1_555 1_555
C7P C2P 1_555 1_555
H4P C7P 1_555 1_555
C8P N2A 1_555 1_555
C9P C10A 1_555 1_555
H5P C9P 1_555 1_555
C12P C11A 1_555 1_555
H6P C12P 1_555 1_555
C13P N1A 1_555 1_555
H7P C13P 1_555 1_555
Ni1B O1 1_555 1_555
O2B C1B 1_555 1_555
O3B C1B 1_555 1_555
N1B Ni1B 1_555 1_555
N2B C8B 1_555 1_555
C1B C2B 1_555 1_555
C2B C3B 1_555 1_555
C3B H1B 1_555 1_555
C4B C3B 1_555 1_555
H2B C4B 1_555 1_555
C5B C4B 1_555 1_555
C6B C5B 1_555 1_555
H3B C6B 1_555 1_555
C7B C2B 1_555 1_555
H4B C7B 1_555 1_555
C8B C5B 1_555 1_555
C9B C8B 1_555 1_555
H5B C9B 1_555 1_555
C10B C9B 1_555 1_555
C11B C10B 1_555 1_555
C12B C11B 1_555 1_555
H6B C12B 1_555 1_555
C13B N1B 1_555 1_555
H7B C13B 1_555 1_555
O2O C1O 1_555 1_555
O3O C1O 1_555 1_555
C1O C2O 1_555 1_555
C2O C3O 1_555 1_555
C3O H1O 1_555 1_555
C4O C3O 1_555 1_555
H2O C4O 1_555 1_555
C5O C4O 1_555 1_555
C6O C5O 1_555 1_555
H3O C6O 1_555 1_555
C7O C2O 1_555 1_555
H4O C7O 1_555 1_555
C8O N2B 1_555 1_555
C9O C10B 1_555 1_555
H5O C9O 1_555 1_555
C12O C11B 1_555 1_555
H6O C12O 1_555 1_555
C13O N1B 1_555 1_555
H7O C13O 1_555 1_555
Ni1R O3 1_555 1_555
Ni1R_2 O2B 1_555 1_555
Ni1S O3A 1_555 1_555
Ni1S_2 O2 1_555 1_555
Ni1T O2A 1_555 1_555
Ni1T_2 O3B 1_555 1_555
Ni1DA O2P 1_555 1_555
Ni1DA_2 O3Q 1_555 1_555
Ni1EA O3P 1_555 1_555
Ni1EA_2 O2O 1_555 1_555
Ni1FA O3O 1_555 1_555
Ni1FA_2 O2Q 1_555 1_555
O2R Ni1A 1_555 1_555
O2S Ni1B 1_555 1_555
O2T Ni1 1_555 1_555
O2AA Ni1A 1_555 1_555
O2BA Ni1 1_555 1_555
O2CA Ni1B 1_555 1_555
O3R Ni1 1_555 1_555
O3S Ni1A 1_555 1_555
O3T Ni1B 1_555 1_555
O3AA Ni1B 1_555 1_555
O3BA Ni1A 1_555 1_555
O3CA Ni1 1_555 1_555
C6 C7 1_555 1_555
C12 C13 1_555 1_555
C5Q C8Q 1_555 1_555
C6Q C7Q 1_555 1_555
C8Q C9Q 1_555 1_555
C12Q C13Q 1_555 1_555
C6A C7A 1_555 1_555
C5P C8P 1_555 1_555
C6P C7P 1_555 1_555
C8P C9P 1_555 1_555
C12P C13P 1_555 1_555
C6B C7B 1_555 1_555
C12B C13B 1_555 1_555
C5O C8O 1_555 1_555
C6O C7O 1_555 1_555
C8O C9O 1_555 1_555
C12O C13O 1_555 1_555

#END
