
#######################################################################
#
#                 Cambridge Crystallographic Data Centre
#                                CCDC 
#
#######################################################################
#
# If this CIF has been generated from an entry in the Cambridge 
# Structural Database, then it will include bibliographic, chemical, 
# crystal, experimental, refinement or atomic coordinate data resulting 
# from the CCDC's data processing and validation procedures.
#
#######################################################################

data_BUYDEG
_chemical_formula_moiety         '(C12 H8 N6 O6 Zn2)n'
_chemical_name_systematic        
'catena-[bis(\m~3~-1,2,4-Triazolyl)-(\m~2~-2,5-dihydroxyterephthalato)-di-zinc unknown solvate]'
_symmetry_cell_setting           tetragonal
_symmetry_space_group_name_H-M   'P 4/n c c'
_symmetry_Int_Tables_number      130
_space_group_name_Hall           '-P 4a 2ac'
loop_
_symmetry_equiv_pos_site_id
_symmetry_equiv_pos_as_xyz
1 x,y,z
2 1/2-y,x,z
3 1/2-x,1/2-y,z
4 y,1/2-x,z
5 1/2+x,-y,1/2-z
6 1/2+y,1/2+x,1/2-z
7 -x,1/2+y,1/2-z
8 -y,-x,1/2-z
9 -x,-y,-z
10 1/2+y,-x,-z
11 1/2+x,1/2+y,-z
12 -y,1/2+x,-z
13 1/2-x,y,1/2+z
14 1/2-y,1/2-x,1/2+z
15 x,1/2-y,1/2+z
16 y,x,1/2+z
_cell_length_a                   13.6204(5)
_cell_length_b                   13.6204(5)
_cell_length_c                   27.0027(9)
_cell_angle_alpha                90
_cell_angle_beta                 90
_cell_angle_gamma                90
_cell_volume                     5009.41
_exptl_crystal_colour            colorless
_exptl_crystal_description       block
_cell_formula_units_Z            8
loop_
_atom_site_label
_atom_site_type_symbol
_atom_site_fract_x
_atom_site_fract_y
_atom_site_fract_z
_atom_site_U_iso_or_equiv
_atom_site_thermal_displace_type
Zn1 Zn -0.01966(8) 0.09401(8) 0.44974(4) 0.0271 Uani
C1 C -0.1037(12) 0.0049(11) 0.2866(5) 0.0640 Uani
H1 H -0.1385 -0.0276 0.3113 0.0770 Uiso
C2 C -0.0336(9) 0.0737(9) 0.2994(4) 0.0430 Uani
C3 C 0.0158(11) 0.1223(12) 0.2617(4) 0.0623 Uani
C4 C -0.0126(10) 0.0944(9) 0.3527(4) 0.0473 Uani
C5 C -0.0628(7) 0.2843(6) 0.5014(4) 0.0300 Uani
H2 H -0.1084 0.2546 0.5222 0.0360 Uiso
C6 C 0.0414(5) 0.3055(7) 0.4463(4) 0.0267 Uani
H3 H 0.0843 0.2940 0.4201 0.0320 Uiso
N1 N -0.0406(6) 0.3793(6) 0.5030(3) 0.0307 Uani
N2 N -0.0127(6) 0.2363(6) 0.4667(3) 0.0327 Uani
N3 N 0.0290(6) 0.3923(6) 0.4665(3) 0.0327 Uani
O1 O 0.0578(8) 0.1482(8) 0.3645(3) 0.0657 Uani
O2 O -0.0670(7) 0.0561(7) 0.3851(3) 0.0540 Uani
O3 O 0.0822(16) 0.1932(18) 0.2707(5) 0.1953 Uani
H4 H 0.0929 0.1979 0.3017 0.2940 Uiso
C1G C -0.0049(11) 0.1037(12) 0.2134(5) 0.0640 Uani
H1G H 0.0276 0.1385 0.1887 0.0770 Uiso
C2G C -0.0737(9) 0.0336(9) 0.2006(4) 0.0430 Uani
C3G C -0.1223(12) -0.0158(11) 0.2383(4) 0.0623 Uani
C4G C -0.0944(9) 0.0126(10) 0.1473(4) 0.0473 Uani
O1G O -0.1482(8) -0.0578(8) 0.1355(3) 0.0657 Uani
O2G O -0.0561(7) 0.0670(7) 0.1149(3) 0.0540 Uani
O3G O -0.1932(18) -0.0822(16) 0.2293(5) 0.1953 Uani
H4G H -0.1979 -0.0929 0.1983 0.2940 Uiso
Zn1A Zn 0.40599(8) -0.01966(8) 0.44974(4) 0.0271 Uani
C5A C 0.2157(6) -0.0628(7) 0.5014(4) 0.0300 Uani
H2A H 0.2454 -0.1084 0.5222 0.0360 Uiso
C6A C 0.1945(7) 0.0414(5) 0.4463(4) 0.0267 Uani
H3A H 0.2060 0.0843 0.4201 0.0320 Uiso
N1A N 0.1207(6) -0.0406(6) 0.5030(3) 0.0307 Uani
N2A N 0.2637(6) -0.0127(6) 0.4667(3) 0.0327 Uani
N3A N 0.1077(6) 0.0290(6) 0.4665(3) 0.0327 Uani
Zn1C Zn 0.09401(8) 0.51966(8) 0.44974(4) 0.0271 Uani
Zn1G Zn -0.09401(8) 0.01966(8) 0.05026(4) 0.0271 Uani
Zn1H Zn 0.01966(8) -0.09401(8) 0.55026(4) 0.0271 Uani
Zn1K Zn -0.09401(8) 0.48034(8) 0.55026(4) 0.0271 Uani
N1I N -0.1207(6) 0.0406(6) 0.4970(3) 0.0307 Uani
N1J N 0.4594(6) -0.1207(6) 0.4970(3) 0.0307 Uani
N3B N 0.4710(6) 0.1077(6) 0.4665(3) 0.0327 Uani
O2A O 0.4439(7) -0.0670(7) 0.3851(3) 0.0540 Uani
loop_
_atom_site_aniso_label
_atom_site_aniso_U_11
_atom_site_aniso_U_22
_atom_site_aniso_U_33
_atom_site_aniso_U_23
_atom_site_aniso_U_13
_atom_site_aniso_U_12
Zn1 0.0292(6) 0.0268(6) 0.0254(6) 0.0009(4) 0.0004(4) 0.0021(4)
C1 0.084(11) 0.072(9) 0.036(6) 0.000(6) -0.004(6) -0.024(8)
C2 0.051(7) 0.047(6) 0.031(5) -0.005(5) -0.006(5) 0.001(5)
C3 0.070(9) 0.083(10) 0.034(6) -0.004(6) -0.009(6) -0.030(8)
C4 0.059(7) 0.053(7) 0.030(5) -0.004(5) -0.007(5) 0.011(6)
C5 0.035(5) 0.023(4) 0.032(4) 0.002(4) 0.009(4) 0.001(4)
C6 0.000(3) 0.037(5) 0.043(5) -0.002(4) 0.005(3) -0.008(3)
N1 0.027(4) 0.034(4) 0.031(4) -0.001(3) 0.002(3) -0.002(3)
N2 0.040(5) 0.018(4) 0.040(4) 0.005(3) 0.005(4) 0.013(3)
N3 0.035(5) 0.029(4) 0.034(4) -0.002(3) 0.003(4) -0.010(4)
O1 0.082(7) 0.074(7) 0.041(5) -0.013(4) -0.008(5) -0.012(6)
O2 0.060(5) 0.075(6) 0.027(4) -0.004(4) -0.005(4) 0.004(5)
O3 0.20(2) 0.31(3) 0.076(9) -0.006(12) 0.002(11) -0.16(2)
C1G 0.072 0.084 0.036 -0.004 0 -0.024
C2G 0.047 0.051 0.031 -0.006 -0.005 0.001
C3G 0.083 0.07 0.034 -0.009 -0.004 -0.03
C4G 0.053 0.059 0.03 -0.007 -0.004 0.011
O1G 0.074 0.082 0.041 -0.008 -0.013 -0.012
O2G 0.075 0.06 0.027 -0.005 -0.004 0.004
O3G 0.31 0.2 0.076 0.002 -0.006 -0.16
Zn1A 0.0268 0.0292 0.0254 0.0004 -0.0009 -0.0021
C5A 0.023 0.035 0.032 0.009 -0.002 -0.001
C6A 0.037 0 0.043 0.005 0.002 0.008
N1A 0.034 0.027 0.031 0.002 0.001 0.002
N2A 0.018 0.04 0.04 0.005 -0.005 -0.013
N3A 0.029 0.035 0.034 0.003 0.002 0.01
Zn1C 0.0268 0.0292 0.0254 -0.0004 0.0009 -0.0021
Zn1G 0.0268 0.0292 0.0254 0.0004 0.0009 0.0021
Zn1H 0.0292 0.0268 0.0254 0.0009 0.0004 0.0021
Zn1K 0.0268 0.0292 0.0254 -0.0004 0.0009 -0.0021
N1I 0.034 0.027 0.031 0.002 0.001 0.002
N1J 0.027 0.034 0.031 0.001 -0.002 -0.002
N3B 0.035 0.029 0.034 0.002 -0.003 -0.01
O2A 0.075 0.06 0.027 -0.005 0.004 -0.004
loop_
_geom_bond_atom_site_label_1
_geom_bond_atom_site_label_2
_geom_bond_site_symmetry_1
_geom_bond_site_symmetry_2
Zn1 N2 1_555 1_555
C1 H1 1_555 1_555
C2 C1 1_555 1_555
C3 C2 1_555 1_555
C4 C2 1_555 1_555
C5 H2 1_555 1_555
C6 H3 1_555 1_555
N1 C5 1_555 1_555
N2 C5 1_555 1_555
N3 C6 1_555 1_555
O1 C4 1_555 1_555
O2 Zn1 1_555 1_555
O3 C3 1_555 1_555
H4 O3 1_555 1_555
C1G C3 1_555 1_555
H1G C1G 1_555 1_555
C2G C1G 1_555 1_555
C3G C1 1_555 1_555
C4G C2G 1_555 1_555
O1G C4G 1_555 1_555
O2G C4G 1_555 1_555
O3G C3G 1_555 1_555
H4G O3G 1_555 1_555
Zn1A N2A 1_555 1_555
C5A H2A 1_555 1_555
C6A H3A 1_555 1_555
N1A C5A 1_555 1_555
N2A C5A 1_555 1_555
N3A Zn1 1_555 1_555
Zn1C N3 1_555 1_555
Zn1G O2G 1_555 1_555
Zn1H N1A 1_555 1_555
Zn1K N1 1_555 1_555
N1I Zn1 1_555 1_555
N1J Zn1A 1_555 1_555
N3B Zn1A 1_555 1_555
O2A Zn1A 1_555 1_555
C4 O2 1_555 1_555
C6 N2 1_555 1_555
N1 N3 1_555 1_555
C2G C3G 1_555 1_555
C6A N2A 1_555 1_555
C6A N3A 1_555 1_555
N1A N3A 1_555 1_555

#END
