
#######################################################################
#
#                 Cambridge Crystallographic Data Centre
#                                CCDC 
#
#######################################################################
#
# If this CIF has been generated from an entry in the Cambridge 
# Structural Database, then it will include bibliographic, chemical, 
# crystal, experimental, refinement or atomic coordinate data resulting 
# from the CCDC's data processing and validation procedures.
#
#######################################################################

data_DEYMOL
_chemical_formula_moiety         
'(C37 H20 In2 O20 2-)n,2n(C2 H8 N1 1+),9n(C3 H7 N1 O1),5n(H2 O1)'
_chemical_name_systematic        
'catena-(bis(Dimethylammonium) (\m~8~-5-(3-(3,5-Dicarboxylatophenoxy)-2,2-bis((3,5-dicarboxylatophenoxy)methyl)propoxy)isophthalato)-di-indium dimethylformamide solvate pentahydrate)'
_symmetry_cell_setting           orthorhombic
_symmetry_space_group_name_H-M   'P 2 2 21'
_symmetry_Int_Tables_number      17
_space_group_name_Hall           'P 2c 2'
loop_
_symmetry_equiv_pos_site_id
_symmetry_equiv_pos_as_xyz
1 x,y,z
2 -x,-y,1/2+z
3 x,-y,-z
4 -x,y,1/2-z
_cell_length_a                   12.7321(15)
_cell_length_b                   13.5133(16)
_cell_length_c                   25.484(5)
_cell_angle_alpha                90
_cell_angle_beta                 90
_cell_angle_gamma                90
_cell_volume                     4384.59
_exptl_crystal_colour            colorless
_exptl_crystal_description       prism
_cell_formula_units_Z            2
loop_
_atom_site_label
_atom_site_type_symbol
_atom_site_fract_x
_atom_site_fract_y
_atom_site_fract_z
In1 In 1.0000 0.45818(2) 0.7500
In2 In 0.50069(4) 0.5000 0.5000
O1 O 0.8745(2) 0.3189(4) 0.75339(18)
O2 O 0.9090(4) 0.4030(3) 0.6841(2)
O3 O 0.6318(4) 0.4451(3) 0.5480(2)
O4 O 0.4909(3) 0.3587(4) 0.55437(13)
O5 O 0.5109(3) -0.3614(5) 0.56566(13)
O6 O 0.3732(6) -0.4479(3) 0.5488(2)
O7 O 0.1010(4) -0.4852(3) 0.6869(2)
O8 O 0.1171(3) -0.4037(4) 0.75826(15)
O9 O 0.5592(3) 0.1039(4) 0.69039(13)
O10 O 0.3830(3) -0.1431(4) 0.72133(13)
C1 C 0.8550(4) 0.3392(4) 0.7071(2)
C2 C 0.7605(3) 0.2984(3) 0.67925(19)
C3 C 0.7229(4) 0.3470(4) 0.6359(2)
H1 H 0.7599 0.4002 0.6221
C4 C 0.6284(4) 0.3166(4) 0.61242(17)
C5 C 0.5768(3) 0.2363(4) 0.63201(16)
H2 H 0.5138 0.2164 0.6168
C6 C 0.6174(3) 0.1828(5) 0.67500(17)
C7 C 0.7091(3) 0.2152(4) 0.69892(18)
H3 H 0.7360 0.1817 0.7278
C8 C 0.5810(4) 0.3772(5) 0.56886(19)
C9 C 0.5924(3) 0.0487(5) 0.73411(17)
H4 H 0.6112 0.0924 0.7628
H5 H 0.6531 0.0088 0.7252
C10 C 0.5000 -0.0179(6) 0.7500
C11 C 0.4667(3) -0.0829(5) 0.70350(16)
H6 H 0.4439 -0.0420 0.6744
H7 H 0.5251 -0.1236 0.6919
C12 C 0.3542(3) -0.2235(4) 0.69361(17)
C13 C 0.4022(4) -0.2562(4) 0.64767(17)
H8 H 0.4585 -0.2216 0.6335
C14 C 0.3645(4) -0.3425(4) 0.62288(17)
C15 C 0.2793(4) -0.3912(4) 0.6426(2)
H9 H 0.2524 -0.4456 0.6247
C16 C 0.2317(3) -0.3602(4) 0.68936(18)
C17 C 0.2694(4) -0.2769(4) 0.71466(18)
H10 H 0.2384 -0.2562 0.7458
C18 C 0.4196(5) -0.3850(4) 0.5753(2)
C19 C 0.1444(4) -0.4177(4) 0.7131(2)
O1C O 0.1255(2) 0.3189(4) 0.74661(18)
O2C O 0.0910(4) 0.4030(3) 0.8159(2)
O3C O 0.3682(4) 0.4451(3) 0.9520(2)
O4C O 0.5091(3) 0.3587(4) 0.94563(13)
O5C O 0.4891(3) -0.3614(5) 0.93434(13)
O6C O 0.6268(6) -0.4479(3) 0.9512(2)
O7C O 0.8990(4) -0.4852(3) 0.8131(2)
O8C O 0.8829(3) -0.4037(4) 0.74174(15)
O9C O 0.4408(3) 0.1039(4) 0.80961(13)
O10C O 0.6170(3) -0.1431(4) 0.77867(13)
C1C C 0.1450(4) 0.3392(4) 0.7929(2)
C2C C 0.2395(3) 0.2984(3) 0.82075(19)
C3C C 0.2771(4) 0.3470(4) 0.8641(2)
H1C H 0.2401 0.4002 0.8779
C4C C 0.3716(4) 0.3166(4) 0.88758(17)
C5C C 0.4232(3) 0.2363(4) 0.86799(16)
H2C H 0.4862 0.2164 0.8832
C6C C 0.3826(3) 0.1828(5) 0.82500(17)
C7C C 0.2909(3) 0.2152(4) 0.80108(18)
H3C H 0.2640 0.1817 0.7722
C8C C 0.4190(4) 0.3772(5) 0.93114(19)
C9C C 0.4076(3) 0.0487(5) 0.76589(17)
H4C H 0.3888 0.0924 0.7372
H5C H 0.3469 0.0088 0.7748
C11C C 0.5333(3) -0.0829(5) 0.79650(16)
H6C H 0.5561 -0.0420 0.8256
H7C H 0.4749 -0.1236 0.8081
C12C C 0.6458(3) -0.2235(4) 0.80639(17)
C13C C 0.5978(4) -0.2562(4) 0.85233(17)
H8C H 0.5415 -0.2216 0.8665
C14C C 0.6355(4) -0.3425(4) 0.87712(17)
C15C C 0.7207(4) -0.3912(4) 0.8574(2)
H9C H 0.7476 -0.4456 0.8753
C16C C 0.7683(3) -0.3602(4) 0.81064(18)
C17C C 0.7306(4) -0.2769(4) 0.78534(18)
H10C H 0.7616 -0.2562 0.7542
C18C C 0.5804(5) -0.3850(4) 0.9247(2)
C19C C 0.8556(4) -0.4177(4) 0.7869(2)
In1_2 In 0.0000 -0.54182(2) 0.7500
In1_3 In 0.0000 0.45818(2) 0.7500
In1_4 In 1.0000 -0.54182(2) 0.7500
In2_2 In 0.50069(4) -0.5000 0.5000
In2A In 0.49931(4) -0.5000 1.0000
In2A_2 In 0.49931(4) 0.5000 1.0000
O1C_2 O 1.1255(2) 0.3189(4) 0.74661(18)
O2C_2 O 1.0910(4) 0.4030(3) 0.8159(2)
O3B O 0.6318(4) 0.5549(3) 0.4520(2)
O4B O 0.4909(3) 0.6413(4) 0.44563(13)
O5_2 O 0.5109(3) 0.6386(5) 0.56566(13)
O5B O 0.5109(3) 0.3614(5) 0.43434(13)
O6_2 O 0.3732(6) 0.5521(3) 0.5488(2)
O6B O 0.3732(6) 0.4479(3) 0.4512(2)
O7_2 O 1.1010(4) 0.5148(3) 0.6869(2)
O7C_2 O 0.8990(4) 0.5148(3) 0.8131(2)
O8_2 O 1.1171(3) 0.5963(4) 0.75826(15)
O8C_2 O 0.8829(3) 0.5963(4) 0.74174(15)
loop_
_geom_bond_atom_site_label_1
_geom_bond_atom_site_label_2
_geom_bond_site_symmetry_1
_geom_bond_site_symmetry_2
In1 O1 1_555 1_555
In2 O3 1_555 1_555
O1 C1 1_555 1_555
O2 In1 1_555 1_555
O3 C8 1_555 1_555
O4 In2 1_555 1_555
O5 C18 1_555 1_555
O6 C18 1_555 1_555
O7 C19 1_555 1_555
O8 C19 1_555 1_555
O9 C6 1_555 1_555
O10 C11 1_555 1_555
C1 O2 1_555 1_555
C2 C1 1_555 1_555
C3 C2 1_555 1_555
H1 C3 1_555 1_555
C4 C3 1_555 1_555
C5 C4 1_555 1_555
H2 C5 1_555 1_555
C6 C5 1_555 1_555
C7 C2 1_555 1_555
H3 C7 1_555 1_555
C8 O4 1_555 1_555
C9 O9 1_555 1_555
H4 C9 1_555 1_555
H5 C9 1_555 1_555
C10 C9 1_555 1_555
C11 C10 1_555 1_555
H6 C11 1_555 1_555
H7 C11 1_555 1_555
C12 O10 1_555 1_555
C13 C12 1_555 1_555
H8 C13 1_555 1_555
C14 C13 1_555 1_555
C15 C14 1_555 1_555
H9 C15 1_555 1_555
C16 C15 1_555 1_555
C17 C12 1_555 1_555
H10 C17 1_555 1_555
C18 C14 1_555 1_555
C19 C16 1_555 1_555
O1C C1C 1_555 1_555
O2C C1C 1_555 1_555
O3C C8C 1_555 1_555
O4C C8C 1_555 1_555
O5C C18C 1_555 1_555
O6C C18C 1_555 1_555
O7C C19C 1_555 1_555
O8C C19C 1_555 1_555
O9C C6C 1_555 1_555
O10C C11C 1_555 1_555
C1C C2C 1_555 1_555
C2C C3C 1_555 1_555
C3C H1C 1_555 1_555
C4C C3C 1_555 1_555
C5C C4C 1_555 1_555
H2C C5C 1_555 1_555
C6C C5C 1_555 1_555
C7C C2C 1_555 1_555
H3C C7C 1_555 1_555
C8C C4C 1_555 1_555
C9C C10 1_555 1_555
H4C C9C 1_555 1_555
H5C C9C 1_555 1_555
C11C C10 1_555 1_555
H6C C11C 1_555 1_555
H7C C11C 1_555 1_555
C12C O10C 1_555 1_555
C13C C12C 1_555 1_555
H8C C13C 1_555 1_555
C14C C13C 1_555 1_555
C15C C14C 1_555 1_555
H9C C15C 1_555 1_555
C16C C15C 1_555 1_555
C17C C12C 1_555 1_555
H10C C17C 1_555 1_555
C18C C14C 1_555 1_555
C19C C16C 1_555 1_555
In1_2 O7 1_555 1_555
In1_3 O1C 1_555 1_555
In1_4 O7C 1_555 1_555
In2_2 O5 1_555 1_555
In2A O5C 1_555 1_555
In2A_2 O3C 1_555 1_555
O1C_2 In1 1_555 1_555
O2C_2 In1 1_555 1_555
O3B In2 1_555 1_555
O4B In2 1_555 1_555
O5_2 In2 1_555 1_555
O5B In2 1_555 1_555
O6_2 In2 1_555 1_555
O6B In2 1_555 1_555
O7_2 In1 1_555 1_555
O7C_2 In1 1_555 1_555
O8_2 In1 1_555 1_555
O8C_2 In1 1_555 1_555
O6 In2_2 1_555 1_555
O8 In1_2 1_555 1_555
C4 C8 1_555 1_555
C6 C7 1_555 1_555
C16 C17 1_555 1_555
O2C In1_3 1_555 1_555
O4C In2A_2 1_555 1_555
O6C In2A 1_555 1_555
O8C In1_4 1_555 1_555
O9C C9C 1_555 1_555
C6C C7C 1_555 1_555
C16C C17C 1_555 1_555

#END
