
#######################################################################
#
#                 Cambridge Crystallographic Data Centre
#                                CCDC 
#
#######################################################################
#
# If this CIF has been generated from an entry in the Cambridge 
# Structural Database, then it will include bibliographic, chemical, 
# crystal, experimental, refinement or atomic coordinate data resulting 
# from the CCDC's data processing and validation procedures.
#
#######################################################################

data_OYUJUO
_chemical_name_common            
"catena-[hexakis(mu!4$-Terephthalato-O,O',O'',O''')-tetrakis(mu!3$-hydroxo)-dodecakis(mu!3$-isonicotinato)-octa-nickel(ii)-tetra-nickel(iii) dimethylformamide solvate hexadecahydrate]"
_chemical_formula_moiety         
'(C120 H76 N12 Ni12 O52)n,16n(C3 H7 N1 O1),16n(H2 O1)'
_chemical_name_systematic        
"catena-[hexakis(\m~4~-Benzene-1,4-dicarboxylato-O,O',O'',O''')-tetrakis(\m~3~-hydroxo)-dodecakis(\m~3~-pyridine-4-carboxylate)-octa-nickel(ii)-tetra-nickel(iii) dimethylformamide solvate hexadecahydrate]"
_symmetry_cell_setting           cubic
_symmetry_space_group_name_H-M   'I -4 3 m'
_symmetry_Int_Tables_number      217
_space_group_name_Hall           'I -4 2 3'
loop_
_symmetry_equiv_pos_site_id
_symmetry_equiv_pos_as_xyz
1 x,y,z
2 y,-x,-z
3 -x,-y,z
4 -y,x,-z
5 x,-y,-z
6 -y,-x,z
7 -x,y,-z
8 y,x,z
9 z,x,y
10 x,-z,-y
11 -z,-x,y
12 -x,z,-y
13 z,-x,-y
14 -x,-z,y
15 -z,x,-y
16 x,z,y
17 y,z,x
18 z,y,x
19 z,-y,-x
20 -z,-y,x
21 -z,y,-x
22 y,-z,-x
23 -y,-z,x
24 -y,z,-x
25 1/2+x,1/2+y,1/2+z
26 1/2+y,1/2-x,1/2-z
27 1/2-x,1/2-y,1/2+z
28 1/2-y,1/2+x,1/2-z
29 1/2+x,1/2-y,1/2-z
30 1/2-y,1/2-x,1/2+z
31 1/2-x,1/2+y,1/2-z
32 1/2+y,1/2+x,1/2+z
33 1/2+z,1/2+x,1/2+y
34 1/2+x,1/2-z,1/2-y
35 1/2-z,1/2-x,1/2+y
36 1/2-x,1/2+z,1/2-y
37 1/2+z,1/2-x,1/2-y
38 1/2-x,1/2-z,1/2+y
39 1/2-z,1/2+x,1/2-y
40 1/2+x,1/2+z,1/2+y
41 1/2+y,1/2+z,1/2+x
42 1/2+z,1/2+y,1/2+x
43 1/2+z,1/2-y,1/2-x
44 1/2-z,1/2-y,1/2+x
45 1/2-z,1/2+y,1/2-x
46 1/2+y,1/2-z,1/2-x
47 1/2-y,1/2-z,1/2+x
48 1/2-y,1/2+z,1/2-x
_cell_length_a                   21.6623(19)
_cell_length_b                   21.6623(19)
_cell_length_c                   21.6623(19)
_cell_angle_alpha                90
_cell_angle_beta                 90
_cell_angle_gamma                90
_cell_volume                     10165.1
_exptl_crystal_colour            green
_exptl_crystal_description       block
_cell_formula_units_Z            2
loop_
_atom_site_label
_atom_site_type_symbol
_atom_site_fract_x
_atom_site_fract_y
_atom_site_fract_z
C1 C 0.58574(13) 0.79686(13) 1.20314(18)
C2 C 0.55366(14) 0.75204(14) 1.17137(13)
H1 H 0.5726 0.7301 1.1397
C3 C 0.45475(12) 0.5453(2) 1.24710(12)
C4 C 0.49384(12) 0.74031(15) 1.18688(13)
H2 H 0.4726 0.7110 1.1639
C5 C 0.43851(15) 0.4840(2) 1.24340(15)
H3 H 0.3971 0.4730 1.2409
C6 C 0.65392(12) 0.80811(12) 1.19189(17)
C7 C 0.40521(12) 0.5948(2) 1.25470(12)
N1 N 0.46417(10) 0.76774(10) 1.23226(11)
Ni1 Ni 0.381200(18) 0.731960(14) 1.268040(14)
O1 O 0.67879(8) 0.77433(10) 1.15252(8)
O2 O 0.42338(9) 0.64816(12) 1.25888(9)
O3 O 0.30071(11) 0.69929(11) 1.30071(11)
C1Y C 0.29686(13) 0.91426(13) 1.29686(18)
C1NA C 0.29686(13) 0.70314(18) 1.08574(13)
C1R C 0.20314(18) 1.20314(13) 1.41426(13)
C1B C 0.41426(13) 1.20314(13) 1.20314(18)
C1C C 0.20314(13) 0.58574(13) 0.79686(18)
C1F C 0.41426(13) 0.79686(13) 0.79686(18)
C1PA C 0.70314(18) 0.70314(13) 0.91426(13)
C1G C 0.79686(13) 0.58574(13) 1.20314(18)
C1AA C 0.70314(13) 1.08574(13) 1.29686(18)
C1T C 0.79686(18) 0.79686(13) 1.41426(13)
C1Q C 0.20314(18) 0.79686(13) 1.58574(13)
C2I C 0.55366(14) 0.82863(13) 1.24796(14)
C2HA C 0.32863(13) 0.94634(14) 1.25204(14)
C2Y C 0.25204(14) 0.94634(14) 1.32863(13)
C2QA C 0.32863(13) 0.74796(14) 1.05366(14)
C2NA C 0.25204(14) 0.67137(13) 1.05366(14)
C2W C 0.24796(14) 1.17137(13) 1.44634(14)
C2R C 0.17137(13) 1.24796(14) 1.44634(14)
C2K C 0.44634(14) 1.17137(13) 1.24796(14)
C2B C 0.44634(14) 1.24796(14) 1.17137(13)
C2C C 0.24796(14) 0.55366(14) 0.82863(13)
C2H C 0.17137(13) 0.55366(14) 0.75204(14)
C2F C 0.44634(14) 0.75204(14) 0.82863(13)
C2M C 0.44634(14) 0.82863(13) 0.75204(14)
C2UA C 0.74796(14) 0.67137(13) 0.94634(14)
C2PA C 0.67137(13) 0.74796(14) 0.94634(14)
C2G C 0.75204(14) 0.55366(14) 1.17137(13)
C2N C 0.82863(13) 0.55366(14) 1.24796(14)
C2AA C 0.74796(14) 1.05366(14) 1.32863(13)
C2FA C 0.67137(13) 1.05366(14) 1.25204(14)
C2U C 0.75204(14) 0.82863(13) 1.44634(14)
C2T C 0.82863(13) 0.75204(14) 1.44634(14)
C2Q C 0.17137(13) 0.75204(14) 1.55366(14)
C2V C 0.24796(14) 0.82863(13) 1.55366(14)
H1I H 0.5726 0.8603 1.2699
H1HA H 0.3603 0.9274 1.2301
H1Y H 0.2301 0.9274 1.3603
H1QA H 0.3603 0.7699 1.0726
H1NA H 0.2301 0.6397 1.0726
H1W H 0.2699 1.1397 1.4274
H1R H 0.1397 1.2699 1.4274
H1K H 0.4274 1.1397 1.2699
H1B H 0.4274 1.2699 1.1397
H1C H 0.2699 0.5726 0.8603
H1H H 0.1397 0.5726 0.7301
H1F H 0.4274 0.7301 0.8603
H1M H 0.4274 0.8603 0.7301
H1UA H 0.7699 0.6397 0.9274
H1PA H 0.6397 0.7699 0.9274
H1G H 0.7301 0.5726 1.1397
H1N H 0.8603 0.5726 1.2699
H1AA H 0.7699 1.0726 1.3603
H1FA H 0.6397 1.0726 1.2301
H1U H 0.7301 0.8603 1.4274
H1T H 0.8603 0.7301 1.4274
H1Q H 0.1397 0.7301 1.5726
H1V H 0.2699 0.8603 1.5726
C3G C 0.5453(2) 0.45475(12) 1.24710(12)
C3I C 0.45475(12) 0.75290(12) 1.4547(2)
C3U C 0.5453(2) 0.75290(12) 1.54525(12)
C3HA C 0.25290(12) 1.04525(12) 1.0453(2)
C3QA C 0.25290(12) 0.9547(2) 0.95475(12)
C3Y C 0.0453(2) 1.04525(12) 1.25290(12)
C3BA C -0.04525(12) 0.9547(2) 1.25290(12)
C3NA C 0.0453(2) 0.74710(12) 0.95475(12)
C3MA C -0.04525(12) 0.74710(12) 1.0453(2)
C3UA C 0.9547(2) 0.74710(12) 1.04525(12)
C3IA C 1.04525(12) 0.74710(12) 0.9547(2)
C4I C 0.49384(12) 0.81312(13) 1.25969(15)
C4HA C 0.31312(13) 1.00616(12) 1.24031(15)
C4Y C 0.24031(15) 1.00616(12) 1.31312(13)
C4QA C 0.31312(13) 0.75969(15) 0.99384(12)
C4NA C 0.24031(15) 0.68688(13) 0.99384(12)
C4W C 0.25969(15) 1.18688(13) 1.50616(12)
C4R C 0.18688(13) 1.25969(15) 1.50616(12)
C4K C 0.50616(12) 1.18688(13) 1.25969(15)
C4B C 0.50616(12) 1.25969(15) 1.18688(13)
C4C C 0.25969(15) 0.49384(12) 0.81312(13)
C4H C 0.18688(13) 0.49384(12) 0.74031(15)
C4F C 0.50616(12) 0.74031(15) 0.81312(13)
C4M C 0.50616(12) 0.81312(13) 0.74031(15)
C4UA C 0.75969(15) 0.68688(13) 1.00616(12)
C4PA C 0.68688(13) 0.75969(15) 1.00616(12)
C4G C 0.74031(15) 0.49384(12) 1.18688(13)
C4N C 0.81312(13) 0.49384(12) 1.25969(15)
C4AA C 0.75969(15) 0.99384(12) 1.31312(13)
C4FA C 0.68688(13) 0.99384(12) 1.24031(15)
C4U C 0.74031(15) 0.81312(13) 1.50616(12)
C4T C 0.81312(13) 0.74031(15) 1.50616(12)
C4Q C 0.18688(13) 0.74031(15) 1.49384(12)
C4V C 0.25969(15) 0.81312(13) 1.49384(12)
H2I H 0.4726 0.8361 1.2890
H2HA H 0.3361 1.0274 1.2110
H2Y H 0.2110 1.0274 1.3361
H2QA H 0.3361 0.7890 0.9726
H2NA H 0.2110 0.6639 0.9726
H2W H 0.2890 1.1639 1.5274
H2R H 0.1639 1.2890 1.5274
H2K H 0.5274 1.1639 1.2890
H2B H 0.5274 1.2890 1.1639
H2C H 0.2890 0.4726 0.8361
H2H H 0.1639 0.4726 0.7110
H2F H 0.5274 0.7110 0.8361
H2M H 0.5274 0.8361 0.7110
H2UA H 0.7890 0.6639 1.0274
H2PA H 0.6639 0.7890 1.0274
H2G H 0.7110 0.4726 1.1639
H2N H 0.8361 0.4726 1.2890
H2AA H 0.7890 0.9726 1.3361
H2FA H 0.6639 0.9726 1.2110
H2U H 0.7110 0.8361 1.5274
H2T H 0.8361 0.7110 1.5274
H2Q H 0.1639 0.7110 1.4726
H2V H 0.2890 0.8361 1.4726
C5G C 0.4840(2) 0.43851(15) 1.24340(15)
C5B C 0.56149(15) 0.5160(2) 1.24340(15)
C5E C 0.5160(2) 0.56149(15) 1.24340(15)
C5I C 0.43851(15) 0.75660(15) 1.5160(2)
C5U C 0.4840(2) 0.75660(15) 1.56149(15)
C5M C 0.56149(15) 0.75660(15) 1.4840(2)
C5V C 0.5160(2) 0.75660(15) 1.43851(15)
C5HA C 0.25660(15) 1.06149(15) 0.9840(2)
C5QA C 0.25660(15) 1.0160(2) 0.93851(15)
C5LA C 0.25660(15) 0.93851(15) 1.0160(2)
C5RA C 0.25660(15) 0.9840(2) 1.06149(15)
C5Y C -0.0160(2) 1.06149(15) 1.25660(15)
C5BA C -0.06149(15) 1.0160(2) 1.25660(15)
C5AA C 0.0160(2) 0.93851(15) 1.25660(15)
C5DA C 0.06149(15) 0.9840(2) 1.25660(15)
C5NA C -0.0160(2) 0.74340(15) 0.93851(15)
C5MA C -0.06149(15) 0.74340(15) 0.9840(2)
C5UA C 0.0160(2) 0.74340(15) 1.06149(15)
C5IA C 0.06149(15) 0.74340(15) 1.0160(2)
C5UA_2 C 1.0160(2) 0.74340(15) 1.06149(15)
C5IA_2 C 1.06149(15) 0.74340(15) 1.0160(2)
C5NA_2 C 0.9840(2) 0.74340(15) 0.93851(15)
C5MA_2 C 0.93851(15) 0.74340(15) 0.9840(2)
H3E H 0.5270 0.6029 1.2409
H3B H 0.6029 0.5270 1.2409
H3G H 0.4730 0.3971 1.2409
H3I H 0.3971 0.7591 1.5270
H3V H 0.5270 0.7591 1.3971
H3M H 0.6029 0.7591 1.4730
H3U H 0.4730 0.7591 1.6029
H3HA H 0.2591 1.1029 0.9730
H3RA H 0.2591 0.9730 1.1029
H3LA H 0.2591 0.8971 1.0270
H3QA H 0.2591 1.0270 0.8971
H3Y H -0.0270 1.1029 1.2591
H3DA H 0.1029 0.9730 1.2591
H3AA H 0.0270 0.8971 1.2591
H3BA H -0.1029 1.0270 1.2591
H3NA H -0.0270 0.7409 0.8971
H3IA H 0.1029 0.7409 1.0270
H3UA H 0.0270 0.7409 1.1029
H3MA H -0.1029 0.7409 0.9730
H3UA_2 H 1.0270 0.7409 1.1029
H3MA_2 H 0.8971 0.7409 0.9730
H3NA_2 H 0.9730 0.7409 0.8971
H3IA_2 H 1.1029 0.7409 1.0270
C6Y C 0.30811(12) 0.84608(12) 1.30811(17)
C6NA C 0.30811(12) 0.69189(17) 1.15392(12)
C6R C 0.19189(17) 1.19189(12) 1.34608(12)
C6B C 0.34608(12) 1.19189(12) 1.19189(17)
C6C C 0.19189(12) 0.65392(12) 0.80811(17)
C6F C 0.34608(12) 0.80811(12) 0.80811(17)
C6PA C 0.69189(17) 0.69189(12) 0.84608(12)
C6G C 0.80811(12) 0.65392(12) 1.19189(17)
C6AA C 0.69189(12) 1.15392(12) 1.30811(17)
C6T C 0.80811(17) 0.80811(12) 1.34608(12)
C6Q C 0.19189(17) 0.80811(12) 1.65392(12)
C7G C 0.5948(2) 0.40521(12) 1.25470(12)
C7I C 0.40521(12) 0.74530(12) 1.4052(2)
C7U C 0.5948(2) 0.74530(12) 1.59479(12)
C7HA C 0.24530(12) 1.09479(12) 1.0948(2)
C7QA C 0.24530(12) 0.9052(2) 0.90521(12)
C7Y C 0.0948(2) 1.09479(12) 1.24530(12)
C7BA C -0.09479(12) 0.9052(2) 1.24530(12)
C7NA C 0.0948(2) 0.75470(12) 0.90521(12)
C7MA C -0.09479(12) 0.75470(12) 1.0948(2)
C7UA C 0.9052(2) 0.75470(12) 1.09479(12)
C7IA C 1.09479(12) 0.75470(12) 0.9052(2)
N1Y N 0.26774(10) 1.03583(10) 1.26774(11)
N1NA N 0.26774(10) 0.73226(11) 0.96417(10)
N1R N 0.23226(11) 1.23226(10) 1.53583(10)
N1B N 0.53583(10) 1.23226(10) 1.23226(11)
N1C N 0.23226(10) 0.46417(10) 0.76774(11)
N1F N 0.53583(10) 0.76774(10) 0.76774(11)
N1PA N 0.73226(11) 0.73226(10) 1.03583(10)
N1G N 0.76774(10) 0.46417(10) 1.23226(11)
N1AA N 0.73226(10) 0.96417(10) 1.26774(11)
N1T N 0.76774(11) 0.76774(10) 1.53583(10)
N1Q N 0.23226(11) 0.76774(10) 1.46417(10)
N1E N 0.23226(10) 0.53583(10) 1.23226(11)
N1B_2 N 0.53583(10) 0.23226(10) 1.23226(11)
N1F_2 N 0.53583(10) 0.76774(10) 1.76774(11)
Ni1Y Ni 0.231960(14) 1.118800(18) 1.231960(14)
Ni1NA Ni 0.231960(14) 0.768040(14) 0.881200(18)
Ni1PA Ni 0.768040(14) 0.768040(14) 1.118800(18)
Ni1AA Ni 0.768040(14) 0.881200(18) 1.231960(14)
Ni1Q Ni 0.268040(14) 0.731960(14) 1.381200(18)
Ni1E Ni 0.268040(14) 0.618800(18) 1.268040(14)
Ni1G Ni 0.731960(14) 0.381200(18) 1.268040(14)
Ni1B Ni 0.618800(18) 0.268040(14) 1.268040(14)
Ni1T Ni 0.731960(14) 0.731960(14) 1.618800(18)
Ni1F Ni 0.618800(18) 0.731960(14) 1.731960(14)
Ni1R Ni 0.268040(14) 1.268040(14) 1.618800(18)
Ni1DA Ni 0.118800(18) 1.231960(14) 1.231960(14)
Ni1B_2 Ni 0.618800(18) 1.268040(14) 1.268040(14)
Ni1RA Ni 0.231960(14) 1.231960(14) 1.118800(18)
Ni1EA Ni 0.231960(14) 0.881200(18) 0.768040(14)
Ni1BA Ni -0.118800(18) 0.768040(14) 1.231960(14)
Ni1AA_2 Ni -0.231960(14) 0.881200(18) 1.231960(14)
Ni1C Ni 0.268040(14) 0.381200(18) 0.731960(14)
Ni1Z Ni 0.118800(18) 0.768040(14) 0.768040(14)
Ni1F_2 Ni 0.618800(18) 0.731960(14) 0.731960(14)
Ni1PA_2 Ni -0.231960(14) 0.768040(14) 1.118800(18)
Ni1A Ni 0.731960(14) 0.618800(18) 0.731960(14)
Ni1BA_2 Ni 0.881200(18) 0.768040(14) 1.231960(14)
Ni1Z_2 Ni 1.118800(18) 0.768040(14) 0.768040(14)
Ni1NA_2 Ni 1.231960(14) 0.768040(14) 0.881200(18)
Ni1P Ni 0.731960(14) 1.268040(14) 1.381200(18)
Ni1Z_3 Ni 0.118800(18) 0.768040(14) 1.768040(14)
Ni1EA_2 Ni 0.231960(14) 0.881200(18) 1.768040(14)
O1I O 0.67879(8) 0.84748(8) 1.22567(10)
O1HA O 0.34748(8) 0.82121(8) 1.27433(10)
O1Y O 0.27433(10) 0.82121(8) 1.34748(8)
O1QA O 0.34748(8) 0.72567(10) 1.17879(8)
O1NA O 0.27433(10) 0.65252(8) 1.17879(8)
O1W O 0.22567(10) 1.15252(8) 1.32121(8)
O1R O 0.15252(8) 1.22567(10) 1.32121(8)
O1K O 0.32121(8) 1.15252(8) 1.22567(10)
O1B O 0.32121(8) 1.22567(10) 1.15252(8)
O1C O 0.22567(10) 0.67879(8) 0.84748(8)
O1H O 0.15252(8) 0.67879(8) 0.77433(10)
O1F O 0.32121(8) 0.77433(10) 0.84748(8)
O1M O 0.32121(8) 0.84748(8) 0.77433(10)
O1UA O 0.72567(10) 0.65252(8) 0.82121(8)
O1PA O 0.65252(8) 0.72567(10) 0.82121(8)
O1G O 0.77433(10) 0.67879(8) 1.15252(8)
O1N O 0.84748(8) 0.67879(8) 1.22567(10)
O1AA O 0.72567(10) 1.17879(8) 1.34748(8)
O1FA O 0.65252(8) 1.17879(8) 1.27433(10)
O1U O 0.77433(10) 0.84748(8) 1.32121(8)
O1T O 0.84748(8) 0.77433(10) 1.32121(8)
O1Q O 0.15252(8) 0.77433(10) 1.67879(8)
O1V O 0.22567(10) 0.84748(8) 1.67879(8)
O1BA O 0.17879(8) 0.72567(10) 1.34748(8)
O1MA O 0.17879(8) 0.65252(8) 1.27433(10)
O1KA O 0.82121(8) 0.34748(8) 1.27433(10)
O1TA O 0.72567(10) 0.34748(8) 1.17879(8)
O1FA_2 O 0.65252(8) 0.17879(8) 1.27433(10)
O1OA O 0.65252(8) 0.27433(10) 1.17879(8)
O1Z O 0.82121(8) 0.72567(10) 1.65252(8)
O1CA O 0.72567(10) 0.82121(8) 1.65252(8)
O1PA_2 O 0.65252(8) 0.72567(10) 1.82121(8)
O1JA O 0.65252(8) 0.82121(8) 1.72567(10)
O1X O 0.17879(8) 1.27433(10) 1.65252(8)
O1EA O 0.27433(10) 1.17879(8) 1.65252(8)
O2E O 0.35184(12) 0.57662(9) 1.25888(9)
O2G O 0.64816(12) 0.42338(9) 1.25888(9)
O2B O 0.57662(9) 0.35184(12) 1.25888(9)
O2I O 0.42338(9) 0.74112(9) 1.35184(12)
O2V O 0.35184(12) 0.74112(9) 1.42338(9)
O2U O 0.64816(12) 0.74112(9) 1.57662(9)
O2M O 0.57662(9) 0.74112(9) 1.64816(12)
O2HA O 0.24112(9) 1.07662(9) 1.14816(12)
O2RA O 0.24112(9) 1.14816(12) 1.07662(9)
O2QA O 0.24112(9) 0.85184(12) 0.92338(9)
O2LA O 0.24112(9) 0.92338(9) 0.85184(12)
O2Y O 0.14816(12) 1.07662(9) 1.24112(9)
O2DA O 0.07662(9) 1.14816(12) 1.24112(9)
O2BA O -0.07662(9) 0.85184(12) 1.24112(9)
O2AA O -0.14816(12) 0.92338(9) 1.24112(9)
O2NA O 0.14816(12) 0.75888(9) 0.92338(9)
O2IA O 0.07662(9) 0.75888(9) 0.85184(12)
O2MA O -0.07662(9) 0.75888(9) 1.14816(12)
O2UA O -0.14816(12) 0.75888(9) 1.07662(9)
O2UA_2 O 0.85184(12) 0.75888(9) 1.07662(9)
O2MA_2 O 0.92338(9) 0.75888(9) 1.14816(12)
O2IA_2 O 1.07662(9) 0.75888(9) 0.85184(12)
O2NA_2 O 1.14816(12) 0.75888(9) 0.92338(9)
O2PA O 0.75888(9) 0.85184(12) 1.07662(9)
O2AA_2 O 0.85184(12) 0.92338(9) 1.24112(9)
O2FA O 0.75888(9) 0.92338(9) 1.14816(12)
O2Q O 0.25888(9) 0.64816(12) 1.42338(9)
O2L O 0.25888(9) 0.57662(9) 1.35184(12)
O2N O 0.74112(9) 0.42338(9) 1.35184(12)
O2K O 0.57662(9) 0.25888(9) 1.35184(12)
O2T O 0.74112(9) 0.64816(12) 1.57662(9)
O2F O 0.57662(9) 0.64816(12) 1.74112(9)
O2W O 0.35184(12) 1.25888(9) 1.57662(9)
O2R O 0.25888(9) 1.35184(12) 1.57662(9)
O3Y O 0.19929(11) 1.19929(11) 1.19929(11)
O3Z O 0.19929(11) 0.80071(11) 0.80071(11)
O3AA O 0.80071(11) 0.80071(11) 1.19929(11)
O3B O 0.69929(11) 0.30071(11) 1.30071(11)
O3A O 0.69929(11) 0.69929(11) 1.69929(11)
O3C O 0.30071(11) 1.30071(11) 1.69929(11)
loop_
_geom_bond_atom_site_label_1
_geom_bond_atom_site_label_2
_geom_bond_site_symmetry_1
_geom_bond_site_symmetry_2
C1 C2 1_555 1_555
C2 H1 1_555 1_555
C3 C5 1_555 1_555
C4 C2 1_555 1_555
H2 C4 1_555 1_555
C5 H3 1_555 1_555
C6 C1 1_555 1_555
C7 C3 1_555 1_555
N1 C4 1_555 1_555
Ni1 N1 1_555 1_555
O1 C6 1_555 1_555
O2 C7 1_555 1_555
O3 Ni1 1_555 1_555
C1Y C2HA 1_555 1_555
C1NA C2QA 1_555 1_555
C1R C2W 1_555 1_555
C1B C2K 1_555 1_555
C1C C2C 1_555 1_555
C1F C2F 1_555 1_555
C1PA C2UA 1_555 1_555
C1G C2G 1_555 1_555
C1AA C2AA 1_555 1_555
C1T C2U 1_555 1_555
C1Q C2Q 1_555 1_555
C2I C1 1_555 1_555
C2HA H1HA 1_555 1_555
C2Y C1Y 1_555 1_555
C2QA H1QA 1_555 1_555
C2NA C1NA 1_555 1_555
C2W H1W 1_555 1_555
C2R C1R 1_555 1_555
C2K H1K 1_555 1_555
C2B C1B 1_555 1_555
C2C H1C 1_555 1_555
C2H C1C 1_555 1_555
C2F H1F 1_555 1_555
C2M C1F 1_555 1_555
C2UA H1UA 1_555 1_555
C2PA C1PA 1_555 1_555
C2G H1G 1_555 1_555
C2N C1G 1_555 1_555
C2AA H1AA 1_555 1_555
C2FA C1AA 1_555 1_555
C2U H1U 1_555 1_555
C2T C1T 1_555 1_555
C2Q H1Q 1_555 1_555
C2V C1Q 1_555 1_555
H1I C2I 1_555 1_555
H1Y C2Y 1_555 1_555
H1NA C2NA 1_555 1_555
H1R C2R 1_555 1_555
H1B C2B 1_555 1_555
H1H C2H 1_555 1_555
H1M C2M 1_555 1_555
H1PA C2PA 1_555 1_555
H1N C2N 1_555 1_555
H1FA C2FA 1_555 1_555
H1T C2T 1_555 1_555
H1V C2V 1_555 1_555
C3G C5G 1_555 1_555
C3I C5I 1_555 1_555
C3U C5U 1_555 1_555
C3HA C5HA 1_555 1_555
C3QA C5QA 1_555 1_555
C3Y C5Y 1_555 1_555
C3BA C5BA 1_555 1_555
C3NA C5NA 1_555 1_555
C3MA C5MA 1_555 1_555
C3UA C5UA_2 1_555 1_555
C3IA C5IA_2 1_555 1_555
C4I N1 1_555 1_555
C4HA C2HA 1_555 1_555
C4Y C2Y 1_555 1_555
C4QA C2QA 1_555 1_555
C4NA C2NA 1_555 1_555
C4W C2W 1_555 1_555
C4R C2R 1_555 1_555
C4K C2K 1_555 1_555
C4B C2B 1_555 1_555
C4C C2C 1_555 1_555
C4H C2H 1_555 1_555
C4F C2F 1_555 1_555
C4M C2M 1_555 1_555
C4UA C2UA 1_555 1_555
C4PA C2PA 1_555 1_555
C4G C2G 1_555 1_555
C4N C2N 1_555 1_555
C4AA C2AA 1_555 1_555
C4FA C2FA 1_555 1_555
C4U C2U 1_555 1_555
C4T C2T 1_555 1_555
C4Q C2Q 1_555 1_555
C4V C2V 1_555 1_555
H2I C4I 1_555 1_555
H2HA C4HA 1_555 1_555
H2Y C4Y 1_555 1_555
H2QA C4QA 1_555 1_555
H2NA C4NA 1_555 1_555
H2W C4W 1_555 1_555
H2R C4R 1_555 1_555
H2K C4K 1_555 1_555
H2B C4B 1_555 1_555
H2C C4C 1_555 1_555
H2H C4H 1_555 1_555
H2F C4F 1_555 1_555
H2M C4M 1_555 1_555
H2UA C4UA 1_555 1_555
H2PA C4PA 1_555 1_555
H2G C4G 1_555 1_555
H2N C4N 1_555 1_555
H2AA C4AA 1_555 1_555
H2FA C4FA 1_555 1_555
H2U C4U 1_555 1_555
H2T C4T 1_555 1_555
H2Q C4Q 1_555 1_555
H2V C4V 1_555 1_555
C5G C5 1_555 1_555
C5B C3G 1_555 1_555
C5E C3 1_555 1_555
C5I C5U 1_555 1_555
C5U H3U 1_555 1_555
C5M C3U 1_555 1_555
C5V C3I 1_555 1_555
C5HA C5QA 1_555 1_555
C5QA H3QA 1_555 1_555
C5LA C3QA 1_555 1_555
C5RA C3HA 1_555 1_555
C5Y C5BA 1_555 1_555
C5BA H3BA 1_555 1_555
C5AA C3BA 1_555 1_555
C5DA C3Y 1_555 1_555
C5NA C5MA 1_555 1_555
C5MA H3MA 1_555 1_555
C5UA C3MA 1_555 1_555
C5IA C3NA 1_555 1_555
C5UA_2 C5IA_2 1_555 1_555
C5IA_2 H3IA_2 1_555 1_555
C5NA_2 C3IA 1_555 1_555
C5MA_2 C3UA 1_555 1_555
H3E C5E 1_555 1_555
H3B C5B 1_555 1_555
H3G C5G 1_555 1_555
H3I C5I 1_555 1_555
H3V C5V 1_555 1_555
H3M C5M 1_555 1_555
H3HA C5HA 1_555 1_555
H3RA C5RA 1_555 1_555
H3LA C5LA 1_555 1_555
H3Y C5Y 1_555 1_555
H3DA C5DA 1_555 1_555
H3AA C5AA 1_555 1_555
H3NA C5NA 1_555 1_555
H3IA C5IA 1_555 1_555
H3UA C5UA 1_555 1_555
H3UA_2 C5UA_2 1_555 1_555
H3MA_2 C5MA_2 1_555 1_555
H3NA_2 C5NA_2 1_555 1_555
C6Y C1Y 1_555 1_555
C6NA C1NA 1_555 1_555
C6R C1R 1_555 1_555
C6B C1B 1_555 1_555
C6C C1C 1_555 1_555
C6F C1F 1_555 1_555
C6PA C1PA 1_555 1_555
C6G C1G 1_555 1_555
C6AA C1AA 1_555 1_555
C6T C1T 1_555 1_555
C6Q C1Q 1_555 1_555
C7G C3G 1_555 1_555
C7I C3I 1_555 1_555
C7U C3U 1_555 1_555
C7HA C3HA 1_555 1_555
C7QA C3QA 1_555 1_555
C7Y C3Y 1_555 1_555
C7BA C3BA 1_555 1_555
C7NA C3NA 1_555 1_555
C7MA C3MA 1_555 1_555
C7UA C3UA 1_555 1_555
C7IA C3IA 1_555 1_555
N1Y C4HA 1_555 1_555
N1NA C4QA 1_555 1_555
N1R C4W 1_555 1_555
N1B C4K 1_555 1_555
N1C C4C 1_555 1_555
N1F C4F 1_555 1_555
N1PA C4UA 1_555 1_555
N1G C4G 1_555 1_555
N1AA C4AA 1_555 1_555
N1T C4U 1_555 1_555
N1Q C4Q 1_555 1_555
N1E Ni1E 1_555 1_555
N1B_2 Ni1B 1_555 1_555
N1F_2 Ni1F 1_555 1_555
Ni1Y N1Y 1_555 1_555
Ni1NA N1NA 1_555 1_555
Ni1PA O1 1_555 1_555
Ni1AA N1AA 1_555 1_555
Ni1Q O3 1_555 1_555
Ni1E O3 1_555 1_555
Ni1G N1G 1_555 1_555
Ni1B O1FA_2 1_555 1_555
Ni1T N1T 1_555 1_555
Ni1F O1PA_2 1_555 1_555
Ni1R N1R 1_555 1_555
Ni1DA O1R 1_555 1_555
Ni1B_2 N1B 1_555 1_555
Ni1RA O1B 1_555 1_555
Ni1EA O1M 1_555 1_555
Ni1BA O2BA 1_555 1_555
Ni1AA_2 O2AA 1_555 1_555
Ni1C N1C 1_555 1_555
Ni1Z O1H 1_555 1_555
Ni1F_2 N1F 1_555 1_555
Ni1PA_2 O2UA 1_555 1_555
Ni1A O1UA 1_555 1_555
Ni1BA_2 O1N 1_555 1_555
Ni1Z_2 O2IA_2 1_555 1_555
Ni1NA_2 O2NA_2 1_555 1_555
Ni1P O1AA 1_555 1_555
Ni1Z_3 O1Q 1_555 1_555
Ni1EA_2 O1V 1_555 1_555
O1I C6 1_555 1_555
O1HA Ni1 1_555 1_555
O1Y C6Y 1_555 1_555
O1QA Ni1 1_555 1_555
O1NA C6NA 1_555 1_555
O1W C6R 1_555 1_555
O1R C6R 1_555 1_555
O1K C6B 1_555 1_555
O1B C6B 1_555 1_555
O1C C6C 1_555 1_555
O1H C6C 1_555 1_555
O1F C6F 1_555 1_555
O1M C6F 1_555 1_555
O1UA C6PA 1_555 1_555
O1PA C6PA 1_555 1_555
O1G C6G 1_555 1_555
O1N C6G 1_555 1_555
O1AA C6AA 1_555 1_555
O1FA C6AA 1_555 1_555
O1U C6T 1_555 1_555
O1T C6T 1_555 1_555
O1Q C6Q 1_555 1_555
O1V C6Q 1_555 1_555
O1BA Ni1Q 1_555 1_555
O1MA Ni1E 1_555 1_555
O1KA Ni1G 1_555 1_555
O1TA Ni1G 1_555 1_555
O1OA Ni1B 1_555 1_555
O1Z Ni1T 1_555 1_555
O1CA Ni1T 1_555 1_555
O1JA Ni1F 1_555 1_555
O1X Ni1R 1_555 1_555
O1EA Ni1R 1_555 1_555
O2E C7 1_555 1_555
O2G C7G 1_555 1_555
O2B C7G 1_555 1_555
O2I Ni1 1_555 1_555
O2V C7I 1_555 1_555
O2U C7U 1_555 1_555
O2M C7U 1_555 1_555
O2HA C7HA 1_555 1_555
O2RA C7HA 1_555 1_555
O2QA C7QA 1_555 1_555
O2LA C7QA 1_555 1_555
O2Y C7Y 1_555 1_555
O2DA C7Y 1_555 1_555
O2BA C7BA 1_555 1_555
O2AA C7BA 1_555 1_555
O2NA C7NA 1_555 1_555
O2IA C7NA 1_555 1_555
O2MA C7MA 1_555 1_555
O2UA C7MA 1_555 1_555
O2UA_2 C7UA 1_555 1_555
O2MA_2 C7UA 1_555 1_555
O2IA_2 C7IA 1_555 1_555
O2NA_2 C7IA 1_555 1_555
O2PA Ni1PA 1_555 1_555
O2AA_2 Ni1AA 1_555 1_555
O2FA Ni1AA 1_555 1_555
O2Q Ni1Q 1_555 1_555
O2L Ni1E 1_555 1_555
O2N Ni1G 1_555 1_555
O2K Ni1B 1_555 1_555
O2T Ni1T 1_555 1_555
O2F Ni1F 1_555 1_555
O2W Ni1R 1_555 1_555
O2R Ni1R 1_555 1_555
O3Y Ni1Y 1_555 1_555
O3Z Ni1NA 1_555 1_555
O3AA Ni1PA 1_555 1_555
O3B Ni1G 1_555 1_555
O3A Ni1T 1_555 1_555
O3C Ni1R 1_555 1_555
Ni1 O2 1_555 1_555
C2I C4I 1_555 1_555
C4Y N1Y 1_555 1_555
C4NA N1NA 1_555 1_555
C4R N1R 1_555 1_555
C4B N1B 1_555 1_555
C4H N1C 1_555 1_555
C4M N1F 1_555 1_555
C4PA N1PA 1_555 1_555
C4N N1G 1_555 1_555
C4FA N1AA 1_555 1_555
C4T N1T 1_555 1_555
C4V N1Q 1_555 1_555
C5B C5E 1_555 1_555
C5M C5V 1_555 1_555
C5LA C5RA 1_555 1_555
C5AA C5DA 1_555 1_555
C5UA C5IA 1_555 1_555
C5NA_2 C5MA_2 1_555 1_555
C6Y O1HA 1_555 1_555
C6NA O1QA 1_555 1_555
C7I O2I 1_555 1_555
N1PA Ni1PA 1_555 1_555
N1Q Ni1Q 1_555 1_555
Ni1Y O1W 1_555 1_555
Ni1Y O1K 1_555 1_555
Ni1Y O2HA 1_555 1_555
Ni1Y O2Y 1_555 1_555
Ni1NA O1C 1_555 1_555
Ni1NA O1F 1_555 1_555
Ni1NA O2QA 1_555 1_555
Ni1NA O2NA 1_555 1_555
Ni1PA O1G 1_555 1_555
Ni1PA O2UA_2 1_555 1_555
Ni1AA O1I 1_555 1_555
Ni1AA O1U 1_555 1_555
Ni1AA O3AA 1_555 1_555
Ni1Q O1Y 1_555 1_555
Ni1Q O2V 1_555 1_555
Ni1E O1NA 1_555 1_555
Ni1E O2E 1_555 1_555
Ni1G O2G 1_555 1_555
Ni1B O2B 1_555 1_555
Ni1B O3B 1_555 1_555
Ni1T O2U 1_555 1_555
Ni1F O2M 1_555 1_555
Ni1F O3A 1_555 1_555
Ni1DA O2DA 1_555 1_555
Ni1DA O3Y 1_555 1_555
Ni1B_2 O1FA 1_555 1_555
Ni1RA O2RA 1_555 1_555
Ni1RA O3Y 1_555 1_555
Ni1EA O2LA 1_555 1_555
Ni1EA O3Z 1_555 1_555
Ni1BA O2MA 1_555 1_555
Ni1Z O2IA 1_555 1_555
Ni1Z O3Z 1_555 1_555
Ni1F_2 O1PA 1_555 1_555
Ni1BA_2 O1T 1_555 1_555
Ni1BA_2 O2MA_2 1_555 1_555
Ni1BA_2 O3AA 1_555 1_555

#END
