
#######################################################################
#
#                 Cambridge Crystallographic Data Centre
#                                CCDC 
#
#######################################################################
#
# If this CIF has been generated from an entry in the Cambridge 
# Structural Database, then it will include bibliographic, chemical, 
# crystal, experimental, refinement or atomic coordinate data resulting 
# from the CCDC's data processing and validation procedures.
#
#######################################################################

data_MUZKAV
_chemical_formula_moiety         '(C150 H96 Al6 O32 2+)n,2n(Cl1 1-)'
_chemical_name_systematic        
"catena-[tris(\m-5',5''-naphthalene-1,4-diylbis(1,1':3',1''-terphenyl-4,4''-dicarboxylato))-bis(\m-oxo)-hexaaqua-hexa-aluminium dichloride]"
_symmetry_cell_setting           cubic
_symmetry_space_group_name_H-M   'P m -3 n'
_symmetry_Int_Tables_number      223
_space_group_name_Hall           '-P 4n 2 3'
loop_
_symmetry_equiv_pos_site_id
_symmetry_equiv_pos_as_xyz
1 x,y,z
2 -x,-y,z
3 -x,y,-z
4 x,-y,-z
5 z,x,y
6 z,-x,-y
7 -z,-x,y
8 -z,x,-y
9 y,z,x
10 -y,z,-x
11 y,-z,-x
12 -y,-z,x
13 1/2+y,1/2+x,1/2-z
14 1/2-y,1/2-x,1/2-z
15 1/2+y,1/2-x,1/2+z
16 1/2-y,1/2+x,1/2+z
17 1/2+x,1/2+z,1/2-y
18 1/2-x,1/2+z,1/2+y
19 1/2-x,1/2-z,1/2-y
20 1/2+x,1/2-z,1/2+y
21 1/2+z,1/2+y,1/2-x
22 1/2+z,1/2-y,1/2+x
23 1/2-z,1/2+y,1/2+x
24 1/2-z,1/2-y,1/2-x
25 -x,-y,-z
26 x,y,-z
27 x,-y,z
28 -x,y,z
29 -z,-x,-y
30 -z,x,y
31 z,x,-y
32 z,-x,y
33 -y,-z,-x
34 y,-z,x
35 -y,z,x
36 y,z,-x
37 1/2-y,1/2-x,1/2+z
38 1/2+y,1/2+x,1/2+z
39 1/2-y,1/2+x,1/2-z
40 1/2+y,1/2-x,1/2-z
41 1/2-x,1/2-z,1/2+y
42 1/2+x,1/2-z,1/2-y
43 1/2+x,1/2+z,1/2+y
44 1/2-x,1/2+z,1/2-y
45 1/2-z,1/2-y,1/2+x
46 1/2-z,1/2+y,1/2-x
47 1/2+z,1/2-y,1/2-x
48 1/2+z,1/2+y,1/2+x
_cell_length_a                   35.7316(2)
_cell_length_b                   35.7316(2)
_cell_length_c                   35.7316(2)
_cell_angle_alpha                90
_cell_angle_beta                 90
_cell_angle_gamma                90
_cell_volume                     45620.2
_exptl_crystal_colour            yellow
_exptl_crystal_description       cube
_cell_formula_units_Z            4
loop_
_atom_site_label
_atom_site_type_symbol
_atom_site_fract_x
_atom_site_fract_y
_atom_site_fract_z
Cl1 Cl 0.2084(4) 0.3227(6) 0.1130(3)
Al1 Al 0.2500 0.28620(2) 0.21380(2)
O1 O 0.19802(7) 0.28716(6) 0.20682(6)
O2 O 0.2500 0.32437(6) 0.17563(6)
H1 H 0.2540 0.3448 0.1853
O3 O 0.2500 0.2500 0.2500
O4 O 0.17327(6) 0.25166(6) 0.25216(6)
C1 C 0.17181(9) 0.26846(10) 0.22095(10)
C2 C 0.13607(9) 0.26501(11) 0.20005(9)
C3 C 0.13341(10) 0.28139(14) 0.16499(10)
H2 H 0.1535 0.2947 0.1551
C4 C 0.10616(10) 0.24705(13) 0.21463(10)
H3 H 0.1081 0.2364 0.2383
C5 C 0.07266(10) 0.24411(15) 0.19524(11)
H4 H 0.0524 0.2317 0.2059
C6 C 0.10056(10) 0.27763(17) 0.14482(11)
H5 H 0.0992 0.2873 0.1207
C7 C 0.06939(10) 0.25971(17) 0.16001(11)
C8 C 0.03399(11) 0.2566(2) 0.13894(11)
C9 C 0.03380(11) 0.2554(2) 0.10036(12)
H6 H 0.0563 0.2551 0.0873
C10 C 0.0000 0.2572(3) 0.15817(15)
H7 H 0.0000 0.2580 0.1842
C11 C 0.0000 0.2546(4) 0.08079(16)
C12 C 0.0000 0.2504(5) 0.04012(19)
C13 C 0.0191(3) 0.2194(4) 0.0209(3)
C14 C 0.0353(5) 0.1871(6) 0.0381(5)
H8 H 0.0412 0.1900 0.0633
C15 C 0.0445(6) 0.1490(6) 0.0218(2)
H9 H 0.0495 0.1279 0.0363
C16 C 0.0209(3) 0.2644(3) 0.0214(3)
H10 H 0.0403 0.2774 0.0331
O1Y O 0.19802(7) 0.28716(6) -0.20682(6)
O4Y O 0.17327(6) 0.25166(6) -0.25216(6)
C1Y C 0.17181(9) 0.26846(10) -0.22095(10)
C2Y C 0.13607(9) 0.26501(11) -0.20005(9)
C3Y C 0.13341(10) 0.28139(14) -0.16499(10)
H2Y H 0.1535 0.2947 -0.1551
C4Y C 0.10616(10) 0.24705(13) -0.21463(10)
H3Y H 0.1081 0.2364 -0.2383
C5Y C 0.07266(10) 0.24411(15) -0.19524(11)
H4Y H 0.0524 0.2317 -0.2059
C6Y C 0.10056(10) 0.27763(17) -0.14482(11)
H5Y H 0.0992 0.2873 -0.1207
C7Y C 0.06939(10) 0.25971(17) -0.16001(11)
C8Y C 0.03399(11) 0.2566(2) -0.13894(11)
C9Y C 0.03380(11) 0.2554(2) -0.10036(12)
H6Y H 0.0563 0.2551 -0.0873
C10B C 0.0000 0.2572(3) -0.15817(15)
H7B H 0.0000 0.2580 -0.1842
C11B C 0.0000 0.2546(4) -0.08079(16)
C12B C 0.0000 0.2504(5) -0.04012(19)
C13Y C 0.0191(3) 0.2194(4) -0.0209(3)
C14Y C 0.0353(5) 0.1871(6) -0.0381(5)
H8Y H 0.0412 0.1900 -0.0633
C15Y C 0.0445(6) 0.1490(6) -0.0218(2)
H9Y H 0.0495 0.1279 -0.0363
C16Y C 0.0209(3) 0.2644(3) -0.0214(3)
H10Y H 0.0403 0.2774 -0.0331
O1AA O -0.19802(7) 0.28716(6) 0.20682(6)
O4AA O -0.17327(6) 0.25166(6) 0.25216(6)
C1AA C -0.17181(9) 0.26846(10) 0.22095(10)
C2AA C -0.13607(9) 0.26501(11) 0.20005(9)
C3AA C -0.13341(10) 0.28139(14) 0.16499(10)
H2AA H -0.1535 0.2947 0.1551
C4AA C -0.10616(10) 0.24705(13) 0.21463(10)
H3AA H -0.1081 0.2364 0.2383
C5AA C -0.07266(10) 0.24411(15) 0.19524(11)
H4AA H -0.0524 0.2317 0.2059
C6AA C -0.10056(10) 0.27763(17) 0.14482(11)
H5AA H -0.0992 0.2873 0.1207
C7AA C -0.06939(10) 0.25971(17) 0.16001(11)
C8AA C -0.03399(11) 0.2566(2) 0.13894(11)
C9AA C -0.03380(11) 0.2554(2) 0.10036(12)
H6AA H -0.0563 0.2551 0.0873
C13AA C -0.0191(3) 0.2194(4) 0.0209(3)
C14AA C -0.0353(5) 0.1871(6) 0.0381(5)
H8AA H -0.0412 0.1900 0.0633
C15AA C -0.0445(6) 0.1490(6) 0.0218(2)
H9AA H -0.0495 0.1279 0.0363
C16AA C -0.0209(3) 0.2644(3) 0.0214(3)
H10AA H -0.0403 0.2774 0.0331
O1B O -0.19802(7) 0.28716(6) -0.20682(6)
O4B O -0.17327(6) 0.25166(6) -0.25216(6)
C1B C -0.17181(9) 0.26846(10) -0.22095(10)
C2B C -0.13607(9) 0.26501(11) -0.20005(9)
C3B C -0.13341(10) 0.28139(14) -0.16499(10)
H2B H -0.1535 0.2947 -0.1551
C4B C -0.10616(10) 0.24705(13) -0.21463(10)
H3B H -0.1081 0.2364 -0.2383
C5B C -0.07266(10) 0.24411(15) -0.19524(11)
H4B H -0.0524 0.2317 -0.2059
C6B C -0.10056(10) 0.27763(17) -0.14482(11)
H5B H -0.0992 0.2873 -0.1207
C7B C -0.06939(10) 0.25971(17) -0.16001(11)
C8B C -0.03399(11) 0.2566(2) -0.13894(11)
C9B C -0.03380(11) 0.2554(2) -0.10036(12)
H6B H -0.0563 0.2551 -0.0873
C13B C -0.0191(3) 0.2194(4) -0.0209(3)
C14B C -0.0353(5) 0.1871(6) -0.0381(5)
H8B H -0.0412 0.1900 -0.0633
C15B C -0.0445(6) 0.1490(6) -0.0218(2)
H9B H -0.0495 0.1279 -0.0363
C16B C -0.0209(3) 0.2644(3) -0.0214(3)
H10B H -0.0403 0.2774 -0.0331
H1R H 0.2460 0.3147 0.1552
Al1D Al 0.21380(2) 0.2500 0.28620(2)
O1D O 0.20682(6) 0.19802(7) 0.28716(6)
O2D O 0.17563(6) 0.2500 0.32437(6)
H1D H 0.1853 0.2540 0.3448
O4D O 0.25216(6) 0.17327(6) 0.25166(6)
C1D C 0.22095(10) 0.17181(9) 0.26846(10)
C2D C 0.20005(9) 0.13607(9) 0.26501(11)
C3D C 0.16499(10) 0.13341(10) 0.28139(14)
H2D H 0.1551 0.1535 0.2947
C4D C 0.21463(10) 0.10616(10) 0.24705(13)
H3D H 0.2383 0.1081 0.2364
C5D C 0.19524(11) 0.07266(10) 0.24411(15)
H4D H 0.2059 0.0524 0.2317
C6D C 0.14482(11) 0.10056(10) 0.27763(17)
H5D H 0.1207 0.0992 0.2873
C7D C 0.16001(11) 0.06939(10) 0.25971(17)
C8D C 0.13894(11) 0.03399(11) 0.2566(2)
C9D C 0.10036(12) 0.03380(11) 0.2554(2)
H6D H 0.0873 0.0563 0.2551
C10D C 0.15817(15) 0.0000 0.2572(3)
H7D H 0.1842 0.0000 0.2580
C11D C 0.08079(16) 0.0000 0.2546(4)
C12D C 0.04012(19) 0.0000 0.2504(5)
C13D C 0.0209(3) 0.0191(3) 0.2194(4)
C14D C 0.0381(5) 0.0353(5) 0.1871(6)
H8D H 0.0633 0.0412 0.1900
C15D C 0.0218(2) 0.0445(6) 0.1490(6)
H9D H 0.0363 0.0495 0.1279
C16D C 0.0214(3) 0.0209(3) 0.2644(3)
H10D H 0.0331 0.0403 0.2774
O1CA O -0.20682(6) 0.19802(7) 0.28716(6)
O4CA O -0.25216(6) 0.17327(6) 0.25166(6)
C1CA C -0.22095(10) 0.17181(9) 0.26846(10)
C2CA C -0.20005(9) 0.13607(9) 0.26501(11)
C3CA C -0.16499(10) 0.13341(10) 0.28139(14)
H2CA H -0.1551 0.1535 0.2947
C4CA C -0.21463(10) 0.10616(10) 0.24705(13)
H3CA H -0.2383 0.1081 0.2364
C5CA C -0.19524(11) 0.07266(10) 0.24411(15)
H4CA H -0.2059 0.0524 0.2317
C6CA C -0.14482(11) 0.10056(10) 0.27763(17)
H5CA H -0.1207 0.0992 0.2873
C7CA C -0.16001(11) 0.06939(10) 0.25971(17)
C8CA C -0.13894(11) 0.03399(11) 0.2566(2)
C9CA C -0.10036(12) 0.03380(11) 0.2554(2)
H6CA H -0.0873 0.0563 0.2551
C10F C -0.15817(15) 0.0000 0.2572(3)
H7F H -0.1842 0.0000 0.2580
C11F C -0.08079(16) 0.0000 0.2546(4)
C12F C -0.04012(19) 0.0000 0.2504(5)
C13CA C -0.0209(3) 0.0191(3) 0.2194(4)
C14CA C -0.0381(5) 0.0353(5) 0.1871(6)
H8CA H -0.0633 0.0412 0.1900
C15CA C -0.0218(2) 0.0445(6) 0.1490(6)
H9CA H -0.0363 0.0495 0.1279
C16CA C -0.0214(3) 0.0209(3) 0.2644(3)
H10CA H -0.0331 0.0403 0.2774
O1EA O 0.20682(6) -0.19802(7) 0.28716(6)
O4EA O 0.25216(6) -0.17327(6) 0.25166(6)
C1EA C 0.22095(10) -0.17181(9) 0.26846(10)
C2EA C 0.20005(9) -0.13607(9) 0.26501(11)
C3EA C 0.16499(10) -0.13341(10) 0.28139(14)
H2EA H 0.1551 -0.1535 0.2947
C4EA C 0.21463(10) -0.10616(10) 0.24705(13)
H3EA H 0.2383 -0.1081 0.2364
C5EA C 0.19524(11) -0.07266(10) 0.24411(15)
H4EA H 0.2059 -0.0524 0.2317
C6EA C 0.14482(11) -0.10056(10) 0.27763(17)
H5EA H 0.1207 -0.0992 0.2873
C7EA C 0.16001(11) -0.06939(10) 0.25971(17)
C8EA C 0.13894(11) -0.03399(11) 0.2566(2)
C9EA C 0.10036(12) -0.03380(11) 0.2554(2)
H6EA H 0.0873 -0.0563 0.2551
C13EA C 0.0209(3) -0.0191(3) 0.2194(4)
C14EA C 0.0381(5) -0.0353(5) 0.1871(6)
H8EA H 0.0633 -0.0412 0.1900
C15EA C 0.0218(2) -0.0445(6) 0.1490(6)
H9EA H 0.0363 -0.0495 0.1279
C16EA C 0.0214(3) -0.0209(3) 0.2644(3)
H10EA H 0.0331 -0.0403 0.2774
O1F O -0.20682(6) -0.19802(7) 0.28716(6)
O4F O -0.25216(6) -0.17327(6) 0.25166(6)
C1F C -0.22095(10) -0.17181(9) 0.26846(10)
C2F C -0.20005(9) -0.13607(9) 0.26501(11)
C3F C -0.16499(10) -0.13341(10) 0.28139(14)
H2F H -0.1551 -0.1535 0.2947
C4F C -0.21463(10) -0.10616(10) 0.24705(13)
H3F H -0.2383 -0.1081 0.2364
C5F C -0.19524(11) -0.07266(10) 0.24411(15)
H4F H -0.2059 -0.0524 0.2317
C6F C -0.14482(11) -0.10056(10) 0.27763(17)
H5F H -0.1207 -0.0992 0.2873
C7F C -0.16001(11) -0.06939(10) 0.25971(17)
C8F C -0.13894(11) -0.03399(11) 0.2566(2)
C9F C -0.10036(12) -0.03380(11) 0.2554(2)
H6F H -0.0873 -0.0563 0.2551
C13F C -0.0209(3) -0.0191(3) 0.2194(4)
C14F C -0.0381(5) -0.0353(5) 0.1871(6)
H8F H -0.0633 -0.0412 0.1900
C15F C -0.0218(2) -0.0445(6) 0.1490(6)
H9F H -0.0363 -0.0495 0.1279
C16F C -0.0214(3) -0.0209(3) 0.2644(3)
H10F H -0.0331 -0.0403 0.2774
H1M H 0.1552 0.2460 0.3147
Al1H Al 0.28620(2) 0.21380(2) 0.2500
O2H O 0.32437(6) 0.17563(6) 0.2500
H1H H 0.3448 0.1853 0.2540
H1W H 0.3147 0.1552 0.2460
Al1Y Al 0.2500 0.28620(2) -0.21380(2)
O2Y O 0.2500 0.32437(6) -0.17563(6)
H1Y H 0.2540 0.3448 -0.1853
H1NA H 0.2460 0.3147 -0.1552
Al1CA Al -0.21380(2) 0.2500 0.28620(2)
O2CA O -0.17563(6) 0.2500 0.32437(6)
H1CA H -0.1853 0.2540 0.3448
H1MA H -0.1552 0.2460 0.3147
Al1EA Al 0.21380(2) -0.2500 0.28620(2)
O2EA O 0.17563(6) -0.2500 0.32437(6)
H1EA H 0.1853 -0.2540 0.3448
H1LA H 0.1552 -0.2460 0.3147
O1R O 0.30198(7) 0.29318(6) 0.21284(6)
O4R O 0.32673(6) 0.24784(6) 0.24834(6)
C1R C 0.32819(9) 0.27905(10) 0.23154(10)
C2R C 0.36393(9) 0.29995(9) 0.23499(11)
C3R C 0.36659(10) 0.33501(10) 0.21861(14)
H2R H 0.3465 0.3449 0.2053
C4R C 0.39384(10) 0.28537(10) 0.25295(13)
H3R H 0.3919 0.2617 0.2636
C5R C 0.42734(10) 0.30476(11) 0.25589(15)
H4R H 0.4476 0.2941 0.2683
C6R C 0.39944(10) 0.35518(11) 0.22237(17)
H5R H 0.4008 0.3793 0.2127
C7R C 0.43061(10) 0.33999(11) 0.24029(17)
C8R C 0.46601(11) 0.36106(11) 0.2434(2)
C9R C 0.46620(11) 0.39964(12) 0.2446(2)
H6R H 0.4437 0.4127 0.2449
C10R C 0.5000 0.34183(15) 0.2428(3)
H7R H 0.5000 0.3158 0.2420
C11R C 0.5000 0.41921(16) 0.2454(4)
C12R C 0.5000 0.45988(19) 0.2496(5)
C13R C 0.4809(3) 0.4791(3) 0.2806(4)
C14R C 0.4647(5) 0.4619(5) 0.3129(6)
H8R H 0.4588 0.4367 0.3100
C15R C 0.4555(6) 0.4782(2) 0.3510(6)
H9R H 0.4505 0.4637 0.3721
C16R C 0.4791(3) 0.4786(3) 0.2356(3)
H10R H 0.4597 0.4669 0.2226
O1QA O 0.30198(7) 0.70682(6) 0.21284(6)
O4QA O 0.32673(6) 0.75216(6) 0.24834(6)
C1QA C 0.32819(9) 0.72095(10) 0.23154(10)
C2QA C 0.36393(9) 0.70005(9) 0.23499(11)
C3QA C 0.36659(10) 0.66499(10) 0.21861(14)
H2QA H 0.3465 0.6551 0.2053
C4QA C 0.39384(10) 0.71463(10) 0.25295(13)
H3QA H 0.3919 0.7383 0.2636
C5QA C 0.42734(10) 0.69524(11) 0.25589(15)
H4QA H 0.4476 0.7059 0.2683
C6QA C 0.39944(10) 0.64482(11) 0.22237(17)
H5QA H 0.4008 0.6207 0.2127
C7QA C 0.43061(10) 0.66001(11) 0.24029(17)
C8QA C 0.46601(11) 0.63894(11) 0.2434(2)
C9QA C 0.46620(11) 0.60036(12) 0.2446(2)
H6QA H 0.4437 0.5873 0.2449
C10P C 0.5000 0.65817(15) 0.2428(3)
H7P H 0.5000 0.6842 0.2420
C11P C 0.5000 0.58079(16) 0.2454(4)
C12P C 0.5000 0.54012(19) 0.2496(5)
C13QA C 0.4809(3) 0.5209(3) 0.2806(4)
C14QA C 0.4647(5) 0.5381(5) 0.3129(6)
H8QA H 0.4588 0.5633 0.3100
C15QA C 0.4555(6) 0.5218(2) 0.3510(6)
H9QA H 0.4505 0.5363 0.3721
C16QA C 0.4791(3) 0.5214(3) 0.2356(3)
H10QA H 0.4597 0.5331 0.2226
O1OA O 0.69802(7) 0.29318(6) 0.21284(6)
O4OA O 0.67327(6) 0.24784(6) 0.24834(6)
C1OA C 0.67181(9) 0.27905(10) 0.23154(10)
C2OA C 0.63607(9) 0.29995(9) 0.23499(11)
C3OA C 0.63341(10) 0.33501(10) 0.21861(14)
H2OA H 0.6535 0.3449 0.2053
C4OA C 0.60616(10) 0.28537(10) 0.25295(13)
H3OA H 0.6081 0.2617 0.2636
C5OA C 0.57266(10) 0.30476(11) 0.25589(15)
H4OA H 0.5524 0.2941 0.2683
C6OA C 0.60056(10) 0.35518(11) 0.22237(17)
H5OA H 0.5992 0.3793 0.2127
C7OA C 0.56939(10) 0.33999(11) 0.24029(17)
C8OA C 0.53399(11) 0.36106(11) 0.2434(2)
C9OA C 0.53380(11) 0.39964(12) 0.2446(2)
H6OA H 0.5563 0.4127 0.2449
C13OA C 0.5191(3) 0.4791(3) 0.2806(4)
C14OA C 0.5353(5) 0.4619(5) 0.3129(6)
H8OA H 0.5412 0.4367 0.3100
C15OA C 0.5445(6) 0.4782(2) 0.3510(6)
H9OA H 0.5495 0.4637 0.3721
C16OA C 0.5209(3) 0.4786(3) 0.2356(3)
H10OA H 0.5403 0.4669 0.2226
O1P O 0.69802(7) 0.70682(6) 0.21284(6)
O4P O 0.67327(6) 0.75216(6) 0.24834(6)
C1P C 0.67181(9) 0.72095(10) 0.23154(10)
C2P C 0.63607(9) 0.70005(9) 0.23499(11)
C3P C 0.63341(10) 0.66499(10) 0.21861(14)
H2P H 0.6535 0.6551 0.2053
C4P C 0.60616(10) 0.71463(10) 0.25295(13)
H3P H 0.6081 0.7383 0.2636
C5P C 0.57266(10) 0.69524(11) 0.25589(15)
H4P H 0.5524 0.7059 0.2683
C6P C 0.60056(10) 0.64482(11) 0.22237(17)
H5P H 0.5992 0.6207 0.2127
C7P C 0.56939(10) 0.66001(11) 0.24029(17)
C8P C 0.53399(11) 0.63894(11) 0.2434(2)
C9P C 0.53380(11) 0.60036(12) 0.2446(2)
H6P H 0.5563 0.5873 0.2449
C13P C 0.5191(3) 0.5209(3) 0.2806(4)
C14P C 0.5353(5) 0.5381(5) 0.3129(6)
H8P H 0.5412 0.5633 0.3100
C15P C 0.5445(6) 0.5218(2) 0.3510(6)
H9P H 0.5495 0.5363 0.3721
C16P C 0.5209(3) 0.5214(3) 0.2356(3)
H10P H 0.5403 0.5331 0.2226
O3Y O 0.2500 0.2500 -0.2500
Al1A Al 0.7500 0.71380(2) 0.21380(2)
Al1B Al -0.2500 0.28620(2) -0.21380(2)
Al1F Al -0.21380(2) -0.2500 0.28620(2)
Al1G Al -0.21380(2) 0.2500 -0.28620(2)
Al1K Al -0.28620(2) -0.21380(2) 0.2500
Al1K_2 Al 0.71380(2) 0.78620(2) 0.2500
Al1Z Al 0.2500 0.71380(2) 0.21380(2)
Al1AA Al -0.2500 0.28620(2) 0.21380(2)
Al1AA_2 Al 0.7500 0.28620(2) 0.21380(2)
Al1DA Al 0.21380(2) 0.2500 -0.28620(2)
Al1GA Al 0.28620(2) -0.21380(2) 0.2500
Al1GA_2 Al 0.28620(2) 0.78620(2) 0.2500
Al1HA Al -0.28620(2) 0.21380(2) 0.2500
Al1HA_2 Al 0.71380(2) 0.21380(2) 0.2500
Al1IA Al 0.28620(2) 0.21380(2) -0.2500
O1H O 0.28716(6) 0.20682(6) 0.19802(7)
O1M O 0.21284(6) 0.30198(7) 0.29318(6)
O1W O 0.29318(6) 0.21284(6) 0.30198(7)
O1LA O 0.21284(6) -0.30198(7) 0.29318(6)
O1MA O -0.21284(6) 0.30198(7) 0.29318(6)
O1NA O 0.30198(7) 0.29318(6) -0.21284(6)
O3Z O 0.2500 -0.2500 0.2500
O3AA O -0.2500 0.2500 0.2500
O4H O 0.25166(6) 0.25216(6) 0.17327(6)
O4M O 0.24834(6) 0.32673(6) 0.24784(6)
O4W O 0.24784(6) 0.24834(6) 0.32673(6)
O4Z O 0.17327(6) -0.25166(6) 0.25216(6)
O4IA O 0.25166(6) 0.25216(6) -0.17327(6)
O4JA O 0.24834(6) 0.32673(6) -0.24784(6)
O4SA O 0.24784(6) -0.24834(6) 0.32673(6)
O4TA O -0.24784(6) 0.24834(6) 0.32673(6)
loop_
_geom_bond_atom_site_label_1
_geom_bond_atom_site_label_2
_geom_bond_site_symmetry_1
_geom_bond_site_symmetry_2
Al1 O1 1_555 1_555
O1 C1 1_555 1_555
O2 Al1 1_555 1_555
H1 O2 1_555 1_555
O3 Al1 1_555 1_555
O4 C1 1_555 1_555
C1 C2 1_555 1_555
C2 C3 1_555 1_555
C3 H2 1_555 1_555
C4 C2 1_555 1_555
H3 C4 1_555 1_555
C5 C4 1_555 1_555
H4 C5 1_555 1_555
C6 C3 1_555 1_555
H5 C6 1_555 1_555
C7 C5 1_555 1_555
C8 C7 1_555 1_555
C9 C8 1_555 1_555
H6 C9 1_555 1_555
C10 C8 1_555 1_555
H7 C10 1_555 1_555
C11 C9 1_555 1_555
C12 C11 1_555 1_555
C13 C12 1_555 1_555
C14 C13 1_555 1_555
H8 C14 1_555 1_555
C15 C14 1_555 1_555
H9 C15 1_555 1_555
C16 C12 1_555 1_555
H10 C16 1_555 1_555
O1Y C1Y 1_555 1_555
O4Y C1Y 1_555 1_555
C1Y C2Y 1_555 1_555
C2Y C3Y 1_555 1_555
C3Y H2Y 1_555 1_555
C4Y C2Y 1_555 1_555
H3Y C4Y 1_555 1_555
C5Y C4Y 1_555 1_555
H4Y C5Y 1_555 1_555
C6Y C3Y 1_555 1_555
H5Y C6Y 1_555 1_555
C7Y C5Y 1_555 1_555
C8Y C7Y 1_555 1_555
C9Y C8Y 1_555 1_555
H6Y C9Y 1_555 1_555
C10B C8Y 1_555 1_555
H7B C10B 1_555 1_555
C11B C9Y 1_555 1_555
C12B C11B 1_555 1_555
C13Y C13 1_555 1_555
C14Y C13Y 1_555 1_555
H8Y C14Y 1_555 1_555
C15Y C15 1_555 1_555
H9Y C15Y 1_555 1_555
C16Y C16 1_555 1_555
H10Y C16Y 1_555 1_555
O1AA C1AA 1_555 1_555
O4AA C1AA 1_555 1_555
C1AA C2AA 1_555 1_555
C2AA C3AA 1_555 1_555
C3AA H2AA 1_555 1_555
C4AA C2AA 1_555 1_555
H3AA C4AA 1_555 1_555
C5AA C4AA 1_555 1_555
H4AA C5AA 1_555 1_555
C6AA C3AA 1_555 1_555
H5AA C6AA 1_555 1_555
C7AA C5AA 1_555 1_555
C8AA C10 1_555 1_555
C9AA C11 1_555 1_555
H6AA C9AA 1_555 1_555
C13AA C12 1_555 1_555
C14AA C13AA 1_555 1_555
H8AA C14AA 1_555 1_555
C15AA C14AA 1_555 1_555
H9AA C15AA 1_555 1_555
C16AA C12 1_555 1_555
H10AA C16AA 1_555 1_555
O1B C1B 1_555 1_555
O4B C1B 1_555 1_555
C1B C2B 1_555 1_555
C2B C3B 1_555 1_555
C3B H2B 1_555 1_555
C4B C2B 1_555 1_555
H3B C4B 1_555 1_555
C5B C4B 1_555 1_555
H4B C5B 1_555 1_555
C6B C3B 1_555 1_555
H5B C6B 1_555 1_555
C7B C5B 1_555 1_555
C8B C10B 1_555 1_555
C9B C11B 1_555 1_555
H6B C9B 1_555 1_555
C13B C12B 1_555 1_555
C14B C13B 1_555 1_555
H8B C14B 1_555 1_555
C15B C15AA 1_555 1_555
H9B C15B 1_555 1_555
C16B C12B 1_555 1_555
H10B C16B 1_555 1_555
H1R O2 1_555 1_555
Al1D O3 1_555 1_555
O1D Al1D 1_555 1_555
O2D Al1D 1_555 1_555
H1D O2D 1_555 1_555
O4D C1D 1_555 1_555
C1D O1D 1_555 1_555
C2D C1D 1_555 1_555
C3D C2D 1_555 1_555
H2D C3D 1_555 1_555
C4D C2D 1_555 1_555
H3D C4D 1_555 1_555
C5D C4D 1_555 1_555
H4D C5D 1_555 1_555
C6D C3D 1_555 1_555
H5D C6D 1_555 1_555
C7D C5D 1_555 1_555
C8D C7D 1_555 1_555
C9D C8D 1_555 1_555
H6D C9D 1_555 1_555
C10D C8D 1_555 1_555
H7D C10D 1_555 1_555
C11D C9D 1_555 1_555
C12D C11D 1_555 1_555
C13D C12D 1_555 1_555
C14D C13D 1_555 1_555
H8D C14D 1_555 1_555
C15D C14D 1_555 1_555
H9D C15D 1_555 1_555
C16D C12D 1_555 1_555
H10D C16D 1_555 1_555
O1CA C1CA 1_555 1_555
O4CA C1CA 1_555 1_555
C1CA C2CA 1_555 1_555
C2CA C3CA 1_555 1_555
C3CA H2CA 1_555 1_555
C4CA C2CA 1_555 1_555
H3CA C4CA 1_555 1_555
C5CA C4CA 1_555 1_555
H4CA C5CA 1_555 1_555
C6CA C3CA 1_555 1_555
H5CA C6CA 1_555 1_555
C7CA C5CA 1_555 1_555
C8CA C7CA 1_555 1_555
C9CA C8CA 1_555 1_555
H6CA C9CA 1_555 1_555
C10F C8CA 1_555 1_555
H7F C10F 1_555 1_555
C11F C9CA 1_555 1_555
C12F C11F 1_555 1_555
C13CA C13D 1_555 1_555
C14CA C13CA 1_555 1_555
H8CA C14CA 1_555 1_555
C15CA C15D 1_555 1_555
H9CA C15CA 1_555 1_555
C16CA C16D 1_555 1_555
H10CA C16CA 1_555 1_555
O1EA C1EA 1_555 1_555
O4EA C1EA 1_555 1_555
C1EA C2EA 1_555 1_555
C2EA C3EA 1_555 1_555
C3EA H2EA 1_555 1_555
C4EA C2EA 1_555 1_555
H3EA C4EA 1_555 1_555
C5EA C4EA 1_555 1_555
H4EA C5EA 1_555 1_555
C6EA C3EA 1_555 1_555
H5EA C6EA 1_555 1_555
C7EA C5EA 1_555 1_555
C8EA C10D 1_555 1_555
C9EA C11D 1_555 1_555
H6EA C9EA 1_555 1_555
C13EA C12D 1_555 1_555
C14EA C13EA 1_555 1_555
H8EA C14EA 1_555 1_555
C15EA C14EA 1_555 1_555
H9EA C15EA 1_555 1_555
C16EA C12D 1_555 1_555
H10EA C16EA 1_555 1_555
O1F C1F 1_555 1_555
O4F C1F 1_555 1_555
C1F C2F 1_555 1_555
C2F C3F 1_555 1_555
C3F H2F 1_555 1_555
C4F C2F 1_555 1_555
H3F C4F 1_555 1_555
C5F C4F 1_555 1_555
H4F C5F 1_555 1_555
C6F C3F 1_555 1_555
H5F C6F 1_555 1_555
C7F C5F 1_555 1_555
C8F C10F 1_555 1_555
C9F C11F 1_555 1_555
H6F C9F 1_555 1_555
C13F C12F 1_555 1_555
C14F C13F 1_555 1_555
H8F C14F 1_555 1_555
C15F C15EA 1_555 1_555
H9F C15F 1_555 1_555
C16F C12F 1_555 1_555
H10F C16F 1_555 1_555
H1M O2D 1_555 1_555
Al1H O3 1_555 1_555
O2H Al1H 1_555 1_555
H1H O2H 1_555 1_555
H1W O2H 1_555 1_555
Al1Y O1Y 1_555 1_555
O2Y Al1Y 1_555 1_555
H1Y O2Y 1_555 1_555
H1NA O2Y 1_555 1_555
Al1CA O4AA 1_555 1_555
O2CA Al1CA 1_555 1_555
H1CA O2CA 1_555 1_555
H1MA O2CA 1_555 1_555
Al1EA O1EA 1_555 1_555
O2EA Al1EA 1_555 1_555
H1EA O2EA 1_555 1_555
H1LA O2EA 1_555 1_555
O1R Al1 1_555 1_555
O4R Al1H 1_555 1_555
C1R O1R 1_555 1_555
C2R C1R 1_555 1_555
C3R C2R 1_555 1_555
H2R C3R 1_555 1_555
C4R C2R 1_555 1_555
H3R C4R 1_555 1_555
C5R C4R 1_555 1_555
H4R C5R 1_555 1_555
C6R C3R 1_555 1_555
H5R C6R 1_555 1_555
C7R C5R 1_555 1_555
C8R C7R 1_555 1_555
C9R C8R 1_555 1_555
H6R C9R 1_555 1_555
C10R C8R 1_555 1_555
H7R C10R 1_555 1_555
C11R C9R 1_555 1_555
C12R C11R 1_555 1_555
C13R C12R 1_555 1_555
C14R C13R 1_555 1_555
H8R C14R 1_555 1_555
C15R C14R 1_555 1_555
H9R C15R 1_555 1_555
C16R C12R 1_555 1_555
H10R C16R 1_555 1_555
O1QA C1QA 1_555 1_555
O4QA C1QA 1_555 1_555
C1QA C2QA 1_555 1_555
C2QA C3QA 1_555 1_555
C3QA H2QA 1_555 1_555
C4QA C2QA 1_555 1_555
H3QA C4QA 1_555 1_555
C5QA C4QA 1_555 1_555
H4QA C5QA 1_555 1_555
C6QA C3QA 1_555 1_555
H5QA C6QA 1_555 1_555
C7QA C5QA 1_555 1_555
C8QA C7QA 1_555 1_555
C9QA C8QA 1_555 1_555
H6QA C9QA 1_555 1_555
C10P C8QA 1_555 1_555
H7P C10P 1_555 1_555
C11P C9QA 1_555 1_555
C12P C11P 1_555 1_555
C13QA C13R 1_555 1_555
C14QA C13QA 1_555 1_555
H8QA C14QA 1_555 1_555
C15QA C15R 1_555 1_555
H9QA C15QA 1_555 1_555
C16QA C16R 1_555 1_555
H10QA C16QA 1_555 1_555
O1OA C1OA 1_555 1_555
O4OA C1OA 1_555 1_555
C1OA C2OA 1_555 1_555
C2OA C3OA 1_555 1_555
C3OA H2OA 1_555 1_555
C4OA C2OA 1_555 1_555
H3OA C4OA 1_555 1_555
C5OA C4OA 1_555 1_555
H4OA C5OA 1_555 1_555
C6OA C3OA 1_555 1_555
H5OA C6OA 1_555 1_555
C7OA C5OA 1_555 1_555
C8OA C10R 1_555 1_555
C9OA C11R 1_555 1_555
H6OA C9OA 1_555 1_555
C13OA C12R 1_555 1_555
C14OA C13OA 1_555 1_555
H8OA C14OA 1_555 1_555
C15OA C14OA 1_555 1_555
H9OA C15OA 1_555 1_555
C16OA C12R 1_555 1_555
H10OA C16OA 1_555 1_555
O1P C1P 1_555 1_555
O4P C1P 1_555 1_555
C1P C2P 1_555 1_555
C2P C3P 1_555 1_555
C3P H2P 1_555 1_555
C4P C2P 1_555 1_555
H3P C4P 1_555 1_555
C5P C4P 1_555 1_555
H4P C5P 1_555 1_555
C6P C3P 1_555 1_555
H5P C6P 1_555 1_555
C7P C5P 1_555 1_555
C8P C10P 1_555 1_555
C9P C11P 1_555 1_555
H6P C9P 1_555 1_555
C13P C12P 1_555 1_555
C14P C13P 1_555 1_555
H8P C14P 1_555 1_555
C15P C15OA 1_555 1_555
H9P C15P 1_555 1_555
C16P C12P 1_555 1_555
H10P C16P 1_555 1_555
O3Y Al1Y 1_555 1_555
Al1A O1P 1_555 1_555
Al1B O1B 1_555 1_555
Al1F O1F 1_555 1_555
Al1G O4B 1_555 1_555
Al1K O4F 1_555 1_555
Al1K_2 O4P 1_555 1_555
Al1Z O1QA 1_555 1_555
Al1AA O1AA 1_555 1_555
Al1AA_2 O1OA 1_555 1_555
Al1DA O4Y 1_555 1_555
Al1GA O4EA 1_555 1_555
Al1GA_2 O4QA 1_555 1_555
Al1HA O4CA 1_555 1_555
Al1HA_2 O4OA 1_555 1_555
Al1IA O3Y 1_555 1_555
O1H Al1H 1_555 1_555
O1M Al1D 1_555 1_555
O1W Al1H 1_555 1_555
O1LA Al1EA 1_555 1_555
O1MA Al1CA 1_555 1_555
O1NA Al1Y 1_555 1_555
O3Z Al1EA 1_555 1_555
O3AA Al1CA 1_555 1_555
O4H Al1 1_555 1_555
O4M Al1 1_555 1_555
O4W Al1D 1_555 1_555
O4Z Al1EA 1_555 1_555
O4IA Al1Y 1_555 1_555
O4JA Al1Y 1_555 1_555
O4SA Al1EA 1_555 1_555
O4TA Al1CA 1_555 1_555
O4 Al1D 1_555 1_555
C6 C7 1_555 1_555
C13 C16 1_555 1_555
C13 C13AA 1_555 1_555
C16 C16AA 1_555 1_555
C6Y C7Y 1_555 1_555
C12B C13Y 1_555 1_555
C12B C16Y 1_555 1_555
C13Y C16Y 1_555 1_555
C13Y C13B 1_555 1_555
C14Y C15Y 1_555 1_555
C16Y C16B 1_555 1_555
C6AA C7AA 1_555 1_555
C7AA C8AA 1_555 1_555
C8AA C9AA 1_555 1_555
C13AA C16AA 1_555 1_555
C13AA C13B 1_555 1_555
C16AA C16B 1_555 1_555
C6B C7B 1_555 1_555
C7B C8B 1_555 1_555
C8B C9B 1_555 1_555
C13B C16B 1_555 1_555
C14B C15B 1_555 1_555
O4D Al1H 1_555 1_555
C6D C7D 1_555 1_555
C13D C16D 1_555 1_555
C13D C13EA 1_555 1_555
C16D C16EA 1_555 1_555
O1CA Al1CA 1_555 1_555
C6CA C7CA 1_555 1_555
C12F C13CA 1_555 1_555
C12F C16CA 1_555 1_555
C13CA C16CA 1_555 1_555
C13CA C13F 1_555 1_555
C14CA C15CA 1_555 1_555
C16CA C16F 1_555 1_555
C6EA C7EA 1_555 1_555
C7EA C8EA 1_555 1_555
C8EA C9EA 1_555 1_555
C13EA C16EA 1_555 1_555
C13EA C13F 1_555 1_555
C16EA C16F 1_555 1_555
C6F C7F 1_555 1_555
C7F C8F 1_555 1_555
C8F C9F 1_555 1_555
C13F C16F 1_555 1_555
C14F C15F 1_555 1_555
O4R C1R 1_555 1_555
C6R C7R 1_555 1_555
C13R C16R 1_555 1_555
C13R C13OA 1_555 1_555
C16R C16OA 1_555 1_555
C6QA C7QA 1_555 1_555
C12P C13QA 1_555 1_555
C12P C16QA 1_555 1_555
C13QA C16QA 1_555 1_555
C13QA C13P 1_555 1_555
C14QA C15QA 1_555 1_555
C16QA C16P 1_555 1_555
C6OA C7OA 1_555 1_555
C7OA C8OA 1_555 1_555
C8OA C9OA 1_555 1_555
C13OA C16OA 1_555 1_555
C13OA C13P 1_555 1_555
C16OA C16P 1_555 1_555
C6P C7P 1_555 1_555
C7P C8P 1_555 1_555
C8P C9P 1_555 1_555
C13P C16P 1_555 1_555
C14P C15P 1_555 1_555
O3Y Al1DA 1_555 1_555
Al1AA O3AA 1_555 1_555
Al1GA O3Z 1_555 1_555
Al1HA O3AA 1_555 1_555

#END
