
#######################################################################
#
#                 Cambridge Crystallographic Data Centre
#                                CCDC 
#
#######################################################################
#
# If this CIF has been generated from an entry in the Cambridge 
# Structural Database, then it will include bibliographic, chemical, 
# crystal, experimental, refinement or atomic coordinate data resulting 
# from the CCDC's data processing and validation procedures.
#
#######################################################################

data_GENMIY
_chemical_formula_moiety         '(C8 H2 Co2 O6)n,1.89(C2 H4)'
_chemical_name_systematic        
'catena-[(\m-2,5-dioxyterephthalato)-di-cobalt ethene]'
_symmetry_cell_setting           rhombohedral
_symmetry_space_group_name_H-M   'R -3'
_symmetry_Int_Tables_number      148
_space_group_name_Hall           '-R 3'
loop_
_symmetry_equiv_pos_site_id
_symmetry_equiv_pos_as_xyz
1 x,y,z
2 -y,x-y,z
3 -x+y,-x,z
4 2/3+x,1/3+y,1/3+z
5 2/3-y,1/3+x-y,1/3+z
6 2/3-x+y,1/3-x,1/3+z
7 1/3+x,2/3+y,2/3+z
8 1/3-y,2/3+x-y,2/3+z
9 1/3-x+y,2/3-x,2/3+z
10 -x,-y,-z
11 y,-x+y,-z
12 x-y,x,-z
13 1/3-x,2/3-y,2/3-z
14 1/3+y,2/3-x+y,2/3-z
15 1/3+x-y,2/3+x,2/3-z
16 2/3-x,1/3-y,1/3-z
17 2/3+y,1/3-x+y,1/3-z
18 2/3+x-y,1/3+x,1/3-z
_cell_length_a                   25.720(7)
_cell_length_b                   25.720(7)
_cell_length_c                   6.853(2)
_cell_angle_alpha                90
_cell_angle_beta                 90
_cell_angle_gamma                120
_cell_volume                     3926.03
_exptl_crystal_colour            violet
_exptl_crystal_description       needle
_cell_formula_units_Z            9
loop_
_atom_site_label
_atom_site_type_symbol
_atom_site_fract_x
_atom_site_fract_y
_atom_site_fract_z
Co1 Co 0.69936(3) 0.71740(3) 0.18847(11)
O1 O 0.60688(15) 0.58564(21) 0.6643(5)
O2 O 0.62855(15) 0.63835(15) 0.3117(5)
O3 O 0.56362(16) 0.59422(23) 0.0716(6)
C1 C 0.5551(2) 0.5453(2) 0.5788(8)
C2 C 0.5409(2) 0.5477(2) 0.3813(8)
C3 C 0.4862(2) 0.5024(2) 0.3088(8)
H1 H 0.476659 0.504315 0.176031
C4 C 0.5797(2) 0.5959(2) 0.2448(8)
O1I O 0.39312(15) 0.41436(21) 0.3357(5)
O2I O 0.37145(15) 0.36165(15) 0.6883(5)
O3I O 0.43638(16) 0.40578(23) 0.9284(6)
C1I C 0.4449(2) 0.4547(2) 0.4212(8)
C2I C 0.4591(2) 0.4523(2) 0.6187(8)
C3I C 0.5138(2) 0.4976(2) 0.6912(8)
H1I H 0.523341 0.495685 0.823969
C4I C 0.4203(2) 0.4041(2) 0.7552(8)
Co1I Co 0.30064(3) 0.28260(3) 0.81153(11)
Co1E Co 0.68471(4) 0.63397(3) 0.52180(11)
Co1G Co 0.61593(3) 0.64863(4) -0.14486(11)
Co1G_2 Co 0.61593(3) 0.64863(4) 0.85514(11)
Co1P Co 0.38407(3) 0.35137(4) 0.14486(11)
Co1P_2 Co 0.38407(3) 0.35137(4) 1.14486(11)
Co1N Co 0.31529(4) 0.36603(3) 0.47820(11)
O1E O 0.64543(26) 0.72645(15) -0.0024(5)
O1G O 0.74769(21) 0.68791(26) 0.3310(5)
O1P O 0.25231(21) 0.31209(26) 0.6690(5)
O1N O 0.35457(26) 0.27355(15) 1.0024(5)
O2G O 0.69498(15) 0.65687(21) -0.0216(5)
O2P O 0.30502(15) 0.34313(21) 1.0216(5)
O3E O 0.69727(28) 0.76971(16) 0.4049(6)
O3N O 0.30273(28) 0.23029(16) 0.5951(6)
C5 C 0.5077(3) 0.6364(4) 0.8005(11)
H2 H 0.507(3) 0.652(2) 0.930(3)
H3 H 0.484(2) 0.5932(11) 0.813(7)
C6 C 0.5363(3) 0.6679(3) 0.6453(11)
H4 H 0.557(3) 0.7116(11) 0.631(7)
H5 H 0.537(3) 0.653(2) 0.516(4)
loop_
_geom_bond_atom_site_label_1
_geom_bond_atom_site_label_2
_geom_bond_site_symmetry_1
_geom_bond_site_symmetry_2
Co1 O2 1_555 1_555
O1 C1 1_555 1_555
O2 C4 1_555 1_555
O3 C4 1_555 1_555
C1 C2 1_555 1_555
C2 C3 1_555 1_555
C3 H1 1_555 1_555
C4 C2 1_555 1_555
C5 H2 1_555 1_555
H3 C5 1_555 1_555
C6 C5 1_555 1_555
H4 C6 1_555 1_555
H5 C6 1_555 1_555
O1I C1I 1_555 1_555
O2I C4I 1_555 1_555
O3I C4I 1_555 1_555
C1I C3 1_555 1_555
C2I C1I 1_555 1_555
C3I C1 1_555 1_555
H1I C3I 1_555 1_555
C4I C2I 1_555 1_555
Co1I O2I 1_555 1_555
Co1E O1 1_555 1_555
Co1G O3 1_555 1_555
Co1G_2 O1 1_555 1_555
Co1P O1I 1_555 1_555
Co1P_2 O3I 1_555 1_555
Co1N O1I 1_555 1_555
O1E Co1 1_555 1_555
O1G Co1 1_555 1_555
O1P Co1I 1_555 1_555
O1N Co1I 1_555 1_555
O2G Co1 1_555 1_555
O2P Co1I 1_555 1_555
O3E Co1 1_555 1_555
O3N Co1I 1_555 1_555
O2 Co1E 1_555 1_555
O2I Co1N 1_555 1_555
C2I C3I 1_555 1_555
Co1E O1G 1_555 1_555
Co1G O1E 1_555 1_555
Co1G O2G 1_555 1_555
Co1P_2 O1N 1_555 1_555
Co1P_2 O2P 1_555 1_555
Co1N O1P 1_555 1_555

#END
