
#######################################################################
#
#                 Cambridge Crystallographic Data Centre
#                                CCDC 
#
#######################################################################
#
# If this CIF has been generated from an entry in the Cambridge 
# Structural Database, then it will include bibliographic, chemical, 
# crystal, experimental, refinement or atomic coordinate data resulting 
# from the CCDC's data processing and validation procedures.
#
#######################################################################

data_ARAJUA01
_chemical_formula_moiety         '(C20 H12 Cu1 N2 O4)n'
_chemical_name_systematic        
catena-[bis(\m-quinoline-5-carboxylato)-copper(ii)]
_symmetry_cell_setting           monoclinic
_symmetry_space_group_name_H-M   'P 21/c'
_symmetry_Int_Tables_number      14
_space_group_name_Hall           '-P 2ybc'
loop_
_symmetry_equiv_pos_site_id
_symmetry_equiv_pos_as_xyz
1 x,y,z
2 -x,1/2+y,1/2-z
3 -x,-y,-z
4 x,1/2-y,1/2+z
_cell_length_a                   5.6674(5)
_cell_length_b                   10.9072(12)
_cell_length_c                   14.5876(11)
_cell_angle_alpha                90
_cell_angle_beta                 93.491(7)
_cell_angle_gamma                90
_cell_volume                     900.066
_cell_formula_units_Z            2
loop_
_atom_site_label
_atom_site_type_symbol
_atom_site_fract_x
_atom_site_fract_y
_atom_site_fract_z
_atom_site_U_iso_or_equiv
_atom_site_thermal_displace_type
C1 C -0.1985(7) 0.72300(35) 0.06894(27) 0.0407 Uiso
C2 C -0.2375(7) 0.82278(35) 0.12746(27) 0.0407 Uiso
C3 C -0.0936(7) 0.83830(35) 0.20613(27) 0.0407 Uiso
C4 C 0.0906(7) 0.75675(35) 0.22589(27) 0.0407 Uiso
C5 C 0.1296(7) 0.66226(35) 0.15984(27) 0.0407 Uiso
C6 C 0.3288(7) 0.58416(35) 0.17102(27) 0.0407 Uiso
C7 C 0.4836(7) 0.59738(35) 0.24712(27) 0.0407 Uiso
C8 C 0.4431(7) 0.68642(35) 0.31454(27) 0.0407 Uiso
C9 C 0.2493(7) 0.76439(35) 0.30615(27) 0.0407 Uiso
C10 C 0.2154(7) 0.85183(35) 0.38489(27) 0.0407 Uiso
H1 H -0.3177(7) 0.70360(35) 0.00889(27) 0.0635 Uiso
H2 H -0.3854(7) 0.88464(35) 0.11107(27) 0.0635 Uiso
H3 H -0.1261(7) 0.91176(35) 0.25421(27) 0.0635 Uiso
H4 H 0.3610(7) 0.51559(35) 0.11879(27) 0.0635 Uiso
H5 H 0.6397(7) 0.53859(35) 0.25498(27) 0.0635 Uiso
H6 H 0.5659(7) 0.69654(35) 0.37462(27) 0.0635 Uiso
N1 N -0.0191(7) 0.64564(35) 0.08490(27) 0.0387 Uiso
O1 O 0.0203(28) 0.8854(14) 0.3926(11) 0.0351 Uiso
O2 O 0.3804(29) 0.8801(15) 0.4388(11) 0.0603 Uiso
Cu1 Cu 0.000 0.500 0.000 0.0341 Uiso
C1B C 0.1985(7) 0.27700(35) -0.06894(27) 0.0407 Uiso
C2B C 0.2375(7) 0.17722(35) -0.12746(27) 0.0407 Uiso
C3B C 0.0936(7) 0.16170(35) -0.20613(27) 0.0407 Uiso
C4B C -0.0906(7) 0.24325(35) -0.22589(27) 0.0407 Uiso
C5B C -0.1296(7) 0.33774(35) -0.15984(27) 0.0407 Uiso
C6B C -0.3288(7) 0.41584(35) -0.17102(27) 0.0407 Uiso
C7B C -0.4836(7) 0.40262(35) -0.24712(27) 0.0407 Uiso
C8B C -0.4431(7) 0.31358(35) -0.31454(27) 0.0407 Uiso
C9B C -0.2493(7) 0.23561(35) -0.30615(27) 0.0407 Uiso
C10B C -0.2154(7) 0.14817(35) -0.38489(27) 0.0407 Uiso
H1B H 0.3177(7) 0.29640(35) -0.00889(27) 0.0635 Uiso
H2B H 0.3854(7) 0.11536(35) -0.11107(27) 0.0635 Uiso
H3B H 0.1261(7) 0.08824(35) -0.25421(27) 0.0635 Uiso
H4B H -0.3610(7) 0.48441(35) -0.11879(27) 0.0635 Uiso
H5B H -0.6397(7) 0.46141(35) -0.25498(27) 0.0635 Uiso
H6B H -0.5659(7) 0.30346(35) -0.37462(27) 0.0635 Uiso
N1B N 0.0191(7) 0.35436(35) -0.08490(27) 0.0387 Uiso
O1B O -0.0203(28) 0.1146(14) -0.3926(11) 0.0351 Uiso
O2B O -0.3804(29) 0.1199(15) -0.4388(11) 0.0603 Uiso
O1A O -0.0203(28) 0.3854(14) 0.1074(11) 0.0351 Uiso
O1C O 0.0203(28) 0.6146(14) -0.1074(11) 0.0351 Uiso
O2A O -0.3804(29) 0.3801(15) 0.0612(11) 0.0603 Uiso
O2C O 0.3804(29) 0.6199(15) -0.0612(11) 0.0603 Uiso
Cu1A Cu 0.000 0.000 -0.500 0.0341 Uiso
Cu1A_2 Cu 0.000 1.000 0.500 0.0341 Uiso
loop_
_geom_bond_atom_site_label_1
_geom_bond_atom_site_label_2
_geom_bond_site_symmetry_1
_geom_bond_site_symmetry_2
C1 C2 1_555 1_555
C2 C3 1_555 1_555
C3 C4 1_555 1_555
C4 C5 1_555 1_555
C5 C6 1_555 1_555
C6 C7 1_555 1_555
C7 C8 1_555 1_555
C8 C9 1_555 1_555
C9 C4 1_555 1_555
C10 C9 1_555 1_555
H1 C1 1_555 1_555
H2 C2 1_555 1_555
H3 C3 1_555 1_555
H4 C6 1_555 1_555
H5 C7 1_555 1_555
H6 C8 1_555 1_555
N1 C1 1_555 1_555
O1 C10 1_555 1_555
O2 C10 1_555 1_555
Cu1 N1 1_555 1_555
C1B C2B 1_555 1_555
C2B C3B 1_555 1_555
C3B C4B 1_555 1_555
C4B C5B 1_555 1_555
C5B C6B 1_555 1_555
C6B C7B 1_555 1_555
C7B C8B 1_555 1_555
C8B C9B 1_555 1_555
C9B C4B 1_555 1_555
C10B C9B 1_555 1_555
H1B C1B 1_555 1_555
H2B C2B 1_555 1_555
H3B C3B 1_555 1_555
H4B C6B 1_555 1_555
H5B C7B 1_555 1_555
H6B C8B 1_555 1_555
N1B Cu1 1_555 1_555
O1B C10B 1_555 1_555
O2B C10B 1_555 1_555
O1A Cu1 1_555 1_555
O1C Cu1 1_555 1_555
O2A Cu1 1_555 1_555
O2C Cu1 1_555 1_555
Cu1A O1B 1_555 1_555
Cu1A_2 O1 1_555 1_555
C5 N1 1_555 1_555
O2 Cu1A_2 1_555 1_555
C1B N1B 1_555 1_555
C5B N1B 1_555 1_555
O2B Cu1A 1_555 1_555

#END
