
#######################################################################
#
#                 Cambridge Crystallographic Data Centre
#                                CCDC 
#
#######################################################################
#
# If this CIF has been generated from an entry in the Cambridge 
# Structural Database, then it will include bibliographic, chemical, 
# crystal, experimental, refinement or atomic coordinate data resulting 
# from the CCDC's data processing and validation procedures.
#
#######################################################################

data_QUPZIM01
_chemical_formula_moiety         '(C12 H8 Fe1 N4)n'
_chemical_name_systematic        
catena-[(\m-4,4'-(1,4-phenylene)bis(pyrazolato))-iron]
_symmetry_cell_setting           monoclinic
_symmetry_space_group_name_H-M   'C 2/c'
_symmetry_Int_Tables_number      15
_space_group_name_Hall           '-C 2yc'
loop_
_symmetry_equiv_pos_site_id
_symmetry_equiv_pos_as_xyz
1 x,y,z
2 -x,y,1/2-z
3 1/2-x,1/2+y,1/2-z
4 1/2+x,1/2+y,z
5 -x,-y,-z
6 x,-y,1/2+z
7 1/2+x,1/2-y,1/2+z
8 1/2-x,1/2-y,-z
_cell_length_a                   20.153(29)
_cell_length_b                   17.908(20)
_cell_length_c                   6.9533(35)
_cell_angle_alpha                90
_cell_angle_beta                 97.343(64)
_cell_angle_gamma                90
_cell_volume                     2488.86
_exptl_crystal_colour            yellow
_cell_formula_units_Z            4
loop_
_atom_site_label
_atom_site_type_symbol
_atom_site_fract_x
_atom_site_fract_y
_atom_site_fract_z
_atom_site_U_iso_or_equiv
_atom_site_thermal_displace_type
C1 C 0.127449 0.589821 -0.156225 0.2166 Uiso
C2 C 0.089949 0.645503 0.090592 0.2166 Uiso
C3 C 0.139315 0.646336 -0.025706 0.2166 Uiso
C4 C 0.196764 0.700141 -0.012364 0.2166 Uiso
C5 C 0.27492 0.773339 -0.167453 0.2166 Uiso
C6 C 0.221684 0.72348 -0.179817 0.2166 Uiso
N1 N 0.070749 0.554060 -0.120592 0.2166 Uiso
N2 N 0.047573 0.588473 0.031949 0.2166 Uiso
H1 H 0.154089 0.577488 -0.254953 0.2166 Uiso
H2 H 0.085795 0.678896 0.194542 0.2166 Uiso
H3 H 0.291952 0.789291 -0.2819 0.2166 Uiso
H4 H 0.202331 0.705355 -0.302714 0.2166 Uiso
Fe1 Fe 0.000 0.4842(20) -0.25 0.2166 Uiso
C1G C 0.372551 0.910179 0.156225 0.2166 Uiso
C2G C 0.410051 0.854497 -0.090592 0.2166 Uiso
C3G C 0.360685 0.853664 0.025706 0.2166 Uiso
C4G C 0.303236 0.799859 0.012364 0.2166 Uiso
C5G C 0.22508 0.726661 0.167453 0.2166 Uiso
C6G C 0.278316 0.77652 0.179817 0.2166 Uiso
N1G N 0.429251 0.945940 0.120592 0.2166 Uiso
N2G N 0.452427 0.911527 -0.031949 0.2166 Uiso
H1G H 0.345911 0.922512 0.254953 0.2166 Uiso
H2G H 0.414205 0.821104 -0.194542 0.2166 Uiso
H3G H 0.208048 0.710709 0.2819 0.2166 Uiso
H4G H 0.297669 0.794645 0.302714 0.2166 Uiso
N1A N -0.070749 0.554060 -0.379408 0.2166 Uiso
N2D N -0.047573 0.411527 -0.031949 0.2166 Uiso
N2E N 0.047573 0.411527 -0.468051 0.2166 Uiso
Fe1D Fe 0.000 0.5158(20) 0.25 0.2166 Uiso
Fe1G Fe 0.500 1.0158(20) 0.25 0.2166 Uiso
Fe1B Fe 0.500 0.9842(20) -0.25 0.2166 Uiso
loop_
_geom_bond_atom_site_label_1
_geom_bond_atom_site_label_2
_geom_bond_site_symmetry_1
_geom_bond_site_symmetry_2
C1 C3 1_555 1_555
C2 C3 1_555 1_555
C3 C4 1_555 1_555
C4 C6 1_555 1_555
C5 C6 1_555 1_555
C6 H4 1_555 1_555
N1 C1 1_555 1_555
N2 C2 1_555 1_555
H1 C1 1_555 1_555
H2 C2 1_555 1_555
H3 C5 1_555 1_555
Fe1 N1 1_555 1_555
C1G C3G 1_555 1_555
C2G C3G 1_555 1_555
C3G C4G 1_555 1_555
C4G C5 1_555 1_555
C5G C4 1_555 1_555
C6G C4G 1_555 1_555
N1G C1G 1_555 1_555
N2G C2G 1_555 1_555
H1G C1G 1_555 1_555
H2G C2G 1_555 1_555
H3G C5G 1_555 1_555
H4G C6G 1_555 1_555
N1A Fe1 1_555 1_555
N2D Fe1 1_555 1_555
N2E Fe1 1_555 1_555
Fe1D N2 1_555 1_555
Fe1G N1G 1_555 1_555
Fe1B N2G 1_555 1_555
N1 N2 1_555 1_555
C5G C6G 1_555 1_555
N1G N2G 1_555 1_555

#END
