
#######################################################################
#
#                 Cambridge Crystallographic Data Centre
#                                CCDC 
#
#######################################################################
#
# If this CIF has been generated from an entry in the Cambridge 
# Structural Database, then it will include bibliographic, chemical, 
# crystal, experimental, refinement or atomic coordinate data resulting 
# from the CCDC's data processing and validation procedures.
#
#######################################################################

data_QUPZAE01
_chemical_formula_moiety         '(C12 H8 Co1 N4)n'
_chemical_name_systematic        
catena-[(\m-4,4'-(1,4-phenylene)bis(pyrazolato))-cobalt]
_symmetry_cell_setting           monoclinic
_symmetry_space_group_name_H-M   'C 2/c'
_symmetry_Int_Tables_number      15
_space_group_name_Hall           '-C 2yc'
loop_
_symmetry_equiv_pos_site_id
_symmetry_equiv_pos_as_xyz
1 x,y,z
2 -x,y,1/2-z
3 1/2-x,1/2+y,1/2-z
4 1/2+x,1/2+y,z
5 -x,-y,-z
6 x,-y,1/2+z
7 1/2+x,1/2-y,1/2+z
8 1/2-x,1/2-y,-z
_cell_length_a                   21.7628(25)
_cell_length_b                   15.2203(22)
_cell_length_c                   6.98265(70)
_cell_angle_alpha                90
_cell_angle_beta                 97.367(10)
_cell_angle_gamma                90
_cell_volume                     2293.81
_exptl_crystal_colour            purple
_cell_formula_units_Z            4
loop_
_atom_site_label
_atom_site_type_symbol
_atom_site_fract_x
_atom_site_fract_y
_atom_site_fract_z
_atom_site_U_iso_or_equiv
_atom_site_thermal_displace_type
C1 C 0.393876 0.892194 0.149227 0.0048 Uiso
C2 C 0.400682 0.845190 -0.145331 0.0048 Uiso
C3 C 0.366467 0.840324 0.004205 0.0048 Uiso
C4 C 0.308650 0.787095 0.008441 0.0048 Uiso
C5 C 0.217999 0.754004 0.159742 0.0048 Uiso
C6 C 0.276649 0.791098 0.168183 0.0048 Uiso
N1 N 0.445030 0.929116 0.089319 0.0048 Uiso
N2 N 0.449237 0.900066 -0.092728 0.0048 Uiso
H1 H 0.379766 0.901076 0.270997 0.0048 Uiso
H2 H 0.392161 0.815473 -0.265443 0.0048 Uiso
H3 H 0.196128 0.756740 0.268919 0.0048 Uiso
H4 H 0.294863 0.819187 0.283128 0.0048 Uiso
Co1 Co 0.500 1.01922(60) 0.250 0.0048 Uiso
C1G C 0.106124 0.607806 -0.149227 0.0048 Uiso
C2G C 0.099318 0.654810 0.145331 0.0048 Uiso
C3G C 0.133533 0.659676 -0.004205 0.0048 Uiso
C4G C 0.191350 0.712905 -0.008441 0.0048 Uiso
C5G C 0.282001 0.745996 -0.159742 0.0048 Uiso
C6G C 0.223351 0.708902 -0.168183 0.0048 Uiso
N1G N 0.054970 0.570884 -0.089319 0.0048 Uiso
N2G N 0.050763 0.599934 0.092728 0.0048 Uiso
H1G H 0.120234 0.598924 -0.270997 0.0048 Uiso
H2G H 0.107839 0.684527 0.265443 0.0048 Uiso
H3G H 0.303872 0.743260 -0.268919 0.0048 Uiso
H4G H 0.205137 0.680813 -0.283128 0.0048 Uiso
N1A N 0.554970 0.929116 0.410681 0.0048 Uiso
N2D N 0.550763 1.099934 0.092728 0.0048 Uiso
N2E N 0.449237 1.099934 0.407272 0.0048 Uiso
Co1D Co 0.500 0.98078(60) -0.250 0.0048 Uiso
Co1G Co 0.000 0.48078(60) -0.250 0.0048 Uiso
Co1B Co 0.000 0.51922(60) 0.250 0.0048 Uiso
loop_
_geom_bond_atom_site_label_1
_geom_bond_atom_site_label_2
_geom_bond_site_symmetry_1
_geom_bond_site_symmetry_2
C1 C3 1_555 1_555
C2 C3 1_555 1_555
C3 C4 1_555 1_555
C4 C6 1_555 1_555
C5 C6 1_555 1_555
C6 H4 1_555 1_555
N1 C1 1_555 1_555
N2 C2 1_555 1_555
H1 C1 1_555 1_555
H2 C2 1_555 1_555
H3 C5 1_555 1_555
Co1 N1 1_555 1_555
C1G C3G 1_555 1_555
C2G C3G 1_555 1_555
C3G C4G 1_555 1_555
C4G C5 1_555 1_555
C5G C4 1_555 1_555
C6G C4G 1_555 1_555
N1G C1G 1_555 1_555
N2G C2G 1_555 1_555
H1G C1G 1_555 1_555
H2G C2G 1_555 1_555
H3G C5G 1_555 1_555
H4G C6G 1_555 1_555
N1A Co1 1_555 1_555
N2D Co1 1_555 1_555
N2E Co1 1_555 1_555
Co1D N2 1_555 1_555
Co1G N1G 1_555 1_555
Co1B N2G 1_555 1_555
N1 N2 1_555 1_555
C5G C6G 1_555 1_555
N1G N2G 1_555 1_555

#END
