
#######################################################################
#
#                 Cambridge Crystallographic Data Centre
#                                CCDC 
#
#######################################################################
#
# If this CIF has been generated from an entry in the Cambridge 
# Structural Database, then it will include bibliographic, chemical, 
# crystal, experimental, refinement or atomic coordinate data resulting 
# from the CCDC's data processing and validation procedures.
#
#######################################################################

data_QUQBAH
_chemical_formula_moiety         '(C24 H16 Fe2 N8)n,6n(C3 H7 N1 O1)'
_chemical_name_systematic        
"catena-[bis(\m-4,4'-(1,4-phenylene)bis(pyrazolato))-di-iron N,N-dimethylformamide solvate]"
_symmetry_cell_setting           monoclinic
_symmetry_space_group_name_H-M   'P 21/c'
_symmetry_Int_Tables_number      14
_space_group_name_Hall           '-P 2ybc'
loop_
_symmetry_equiv_pos_site_id
_symmetry_equiv_pos_as_xyz
1 x,y,z
2 -x,1/2+y,1/2-z
3 -x,-y,-z
4 x,1/2-y,1/2+z
_cell_length_a                   13.4333(4)
_cell_length_b                   13.8493(4)
_cell_length_c                   26.7477(9)
_cell_angle_alpha                90
_cell_angle_beta                 101.5505(18)
_cell_angle_gamma                90
_cell_volume                     4875.42
_exptl_crystal_colour            yellow
_exptl_crystal_description       block
_cell_formula_units_Z            4
loop_
_atom_site_label
_atom_site_type_symbol
_atom_site_fract_x
_atom_site_fract_y
_atom_site_fract_z
Fe1 Fe 0.47925(4) 0.36603(4) 0.22908(2)
Fe2 Fe 0.48841(4) 0.61244(3) 0.25751(2)
N1 N 0.4704(3) 0.7971(2) 0.69680(11)
N2 N 0.4975(2) 0.7017(2) 0.70269(11)
N3 N 0.5013(2) 0.6797(2) 0.32583(10)
N4 N -0.3855(2) 0.5365(2) 0.25217(12)
N5 N -0.3951(2) 0.4465(2) 0.23087(12)
N6 N 0.5197(2) 0.7767(2) 0.33012(11)
N7 N 0.3512(2) 0.4426(2) 0.22759(12)
N8 N 0.3611(2) 0.5332(2) 0.24901(11)
C1 C 0.2679(3) 0.5620(3) 0.25456(14)
H1 H 0.2535 0.6219 0.2689
C2 C 0.1958(3) 0.4913(3) 0.23616(14)
C3 C 0.2531(3) 0.4171(3) 0.21996(14)
H2 H 0.2262 0.3575 0.2057
C4 C 0.0853(3) 0.4928(3) 0.23573(15)
C5 C 0.0434(3) 0.5675(3) 0.25957(16)
H3 H 0.0857 0.6185 0.2753
C6 C -0.0598(3) 0.5683(3) 0.26064(15)
H4 H -0.0873 0.6198 0.2770
C7 C -0.1233(3) 0.4936(3) 0.23765(15)
C8 C -0.0808(3) 0.4193(3) 0.21394(17)
H5 H -0.1226 0.3680 0.1983
C9 C 0.0226(3) 0.4192(3) 0.21284(16)
H6 H 0.0503 0.3681 0.1962
C10 C -0.3026(3) 0.4202(3) 0.22255(15)
H7 H -0.2876 0.3609 0.2078
C11 C -0.2334(3) 0.4932(3) 0.23893(15)
C12 C -0.2890(3) 0.5646(3) 0.25706(15)
H8 H -0.2625 0.6246 0.2709
C13 C 0.4875(3) 0.6466(3) 0.37133(14)
H9 H 0.4745 0.5812 0.3786
C14 C 0.4951(3) 0.7216(3) 0.40601(13)
C15 C 0.5163(3) 0.8023(3) 0.37836(14)
H10 H 0.5266 0.8659 0.3917
C16 C 0.4854(3) 0.7220(3) 0.45981(14)
C17 C 0.5108(3) 0.6425(3) 0.49144(14)
H11 H 0.5321 0.5845 0.4778
C18 C 0.5056(3) 0.6464(3) 0.54290(14)
H12 H 0.5240 0.5913 0.5639
C19 C 0.4736(3) 0.7305(3) 0.56401(13)
C20 C 0.4437(4) 0.8089(3) 0.53168(15)
H13 H 0.4187 0.8658 0.5447
C21 C 0.4501(4) 0.8044(3) 0.48103(15)
H14 H 0.4300 0.8589 0.4598
C22 C 0.4551(3) 0.8179(3) 0.64696(14)
H15 H 0.4340 0.8791 0.6326
C23 C 0.4745(3) 0.7370(3) 0.61891(13)
C24 C 0.5007(4) 0.6659(3) 0.65635(14)
H16 H 0.5182 0.6013 0.6499
Fe1_2 Fe -0.52075(4) 0.36603(4) 0.22908(2)
Fe1A Fe 0.52075(4) 0.86603(4) 0.27092(2)
Fe1B Fe 0.52075(4) 0.63397(4) 0.77092(2)
Fe2_2 Fe -0.51159(4) 0.61244(3) 0.25751(2)
Fe2C Fe 0.48841(4) 0.88756(3) 0.75751(2)
N1C N 0.4704(3) 0.7029(2) 0.19680(11)
N2B N 0.5025(2) 0.2983(2) 0.29731(11)
N4_2 N 0.6145(2) 0.5365(2) 0.25217(12)
N5_2 N 0.6049(2) 0.4465(2) 0.23087(12)
N6A N 0.4803(2) 0.2767(2) 0.16988(11)
O1 O 0.0830(4) 0.8588(4) 0.04600(16)
N9 N 0.1525(4) 0.7901(5) 0.12149(19)
C25 C 0.0902(5) 0.7934(5) 0.0770(2)
H17 H 0.0464 0.7396 0.0681
C26 C 0.1555(8) 0.7140(9) 0.1570(4)
H18 H 0.2255 0.6909 0.1676
H19 H 0.1121 0.6609 0.1411
H20 H 0.1309 0.7374 0.1869
C27 C 0.2247(6) 0.8708(7) 0.1365(3)
H21 H 0.2286 0.9098 0.1063
H22 H 0.2921 0.8448 0.1511
H23 H 0.2011 0.9112 0.1619
O2 O 0.2181(3) 0.7330(2) 0.33482(12)
N10 N 0.2108(3) 0.6938(3) 0.41634(15)
C28 C 0.2340(3) 0.6769(3) 0.37112(16)
H24 H 0.2652 0.6169 0.3665
C29 C 0.2365(4) 0.6259(4) 0.45860(19)
H25 H 0.2597 0.5651 0.4461
H26 H 0.1764 0.6139 0.4733
H27 H 0.2908 0.6532 0.4848
C30 C 0.1670(5) 0.7869(4) 0.4269(2)
H28 H 0.2195 0.8264 0.4482
H29 H 0.1112 0.7760 0.4448
H30 H 0.1413 0.8206 0.3946
O3 O -0.1811(3) 0.7177(3) 0.34631(14)
N11 N -0.1666(4) 0.6305(4) 0.41901(17)
C31 C -0.2165(4) 0.6809(4) 0.3802(2)
H31 H -0.2873 0.6893 0.3785
C32 C -0.2148(7) 0.5925(7) 0.4586(3)
H32 H -0.2867 0.6108 0.4515
H33 H -0.1813 0.6189 0.4917
H34 H -0.2090 0.5219 0.4593
C33 C -0.0585(5) 0.6103(6) 0.4236(3)
H35 H -0.0482 0.5404 0.4220
H36 H -0.0210 0.6352 0.4563
H37 H -0.0338 0.6418 0.3956
O4 O 0.3513(3) 0.4920(2) 0.08265(14)
N12 N 0.1800(3) 0.4707(3) 0.06750(16)
C34 C 0.2750(4) 0.4480(4) 0.08890(19)
H38 H 0.2850 0.3933 0.1108
C35 C 0.1610(6) 0.5517(5) 0.0331(3)
H39 H 0.2208 0.5938 0.0386
H40 H 0.1023 0.5881 0.0396
H41 H 0.1469 0.5284 -0.0022
C36 C 0.0947(5) 0.4132(5) 0.0740(3)
H42 H 0.1174 0.3635 0.0999
H43 H 0.0645 0.3824 0.0416
H44 H 0.0440 0.4546 0.0851
O5 O 0.3040(3) 0.4465(3) 0.37430(15)
N13 N 0.1666(4) 0.3512(4) 0.34796(19)
C37 C 0.2624(4) 0.3773(4) 0.3515(2)
H45 H 0.3027 0.3378 0.3344
C38 C 0.1256(7) 0.2668(5) 0.3196(3)
H46 H 0.0898 0.2270 0.3406
H47 H 0.1811 0.2293 0.3103
H48 H 0.0781 0.2867 0.2885
C39 C 0.0978(5) 0.4121(6) 0.3705(3)
H49 H 0.1331 0.4715 0.3838
H50 H 0.0765 0.3770 0.3984
H51 H 0.0380 0.4283 0.3444
O6 O 0.0759(4) 0.1041(4) 0.4268(2)
N14 N 0.2431(4) 0.1044(4) 0.42299(19)
C40 C 0.1474(5) 0.0762(5) 0.4075(3)
H52 H 0.1327 0.0319 0.3799
C41 C 0.3245(6) 0.0694(6) 0.3992(3)
H53 H 0.3479 0.1219 0.3799
H54 H 0.2994 0.0160 0.3761
H55 H 0.3811 0.0468 0.4257
C42 C 0.2709(5) 0.1749(6) 0.4638(3)
H56 H 0.2094 0.1980 0.4745
H57 H 0.3058 0.2295 0.4515
H58 H 0.3162 0.1447 0.4929
loop_
_geom_bond_atom_site_label_1
_geom_bond_atom_site_label_2
_geom_bond_site_symmetry_1
_geom_bond_site_symmetry_2
Fe1 N7 1_555 1_555
Fe2 N3 1_555 1_555
N1 N2 1_555 1_555
N2 C24 1_555 1_555
N3 N6 1_555 1_555
N4 N5 1_555 1_555
N5 C10 1_555 1_555
N6 C15 1_555 1_555
N7 N8 1_555 1_555
N8 Fe2 1_555 1_555
C1 N8 1_555 1_555
H1 C1 1_555 1_555
C2 C1 1_555 1_555
C3 N7 1_555 1_555
H2 C3 1_555 1_555
C4 C2 1_555 1_555
C5 C4 1_555 1_555
H3 C5 1_555 1_555
C6 C5 1_555 1_555
H4 C6 1_555 1_555
C7 C6 1_555 1_555
C8 C7 1_555 1_555
H5 C8 1_555 1_555
C9 C4 1_555 1_555
H6 C9 1_555 1_555
C10 H7 1_555 1_555
C11 C7 1_555 1_555
C12 N4 1_555 1_555
H8 C12 1_555 1_555
C13 N3 1_555 1_555
H9 C13 1_555 1_555
C14 C13 1_555 1_555
C15 C14 1_555 1_555
H10 C15 1_555 1_555
C16 C14 1_555 1_555
C17 C16 1_555 1_555
H11 C17 1_555 1_555
C18 C17 1_555 1_555
H12 C18 1_555 1_555
C19 C18 1_555 1_555
C20 C19 1_555 1_555
H13 C20 1_555 1_555
C21 C16 1_555 1_555
H14 C21 1_555 1_555
C22 N1 1_555 1_555
H15 C22 1_555 1_555
C23 C19 1_555 1_555
C24 C23 1_555 1_555
H16 C24 1_555 1_555
O1 C25 1_555 1_555
N9 C25 1_555 1_555
C25 H17 1_555 1_555
C26 N9 1_555 1_555
H18 C26 1_555 1_555
H19 C26 1_555 1_555
H20 C26 1_555 1_555
C27 N9 1_555 1_555
H21 C27 1_555 1_555
H22 C27 1_555 1_555
H23 C27 1_555 1_555
O2 C28 1_555 1_555
N10 C28 1_555 1_555
C28 H24 1_555 1_555
C29 N10 1_555 1_555
H25 C29 1_555 1_555
H26 C29 1_555 1_555
H27 C29 1_555 1_555
C30 N10 1_555 1_555
H28 C30 1_555 1_555
H29 C30 1_555 1_555
H30 C30 1_555 1_555
O3 C31 1_555 1_555
N11 C31 1_555 1_555
C31 H31 1_555 1_555
C32 N11 1_555 1_555
H32 C32 1_555 1_555
H33 C32 1_555 1_555
H34 C32 1_555 1_555
C33 N11 1_555 1_555
H35 C33 1_555 1_555
H36 C33 1_555 1_555
H37 C33 1_555 1_555
O4 C34 1_555 1_555
N12 C34 1_555 1_555
C34 H38 1_555 1_555
C35 N12 1_555 1_555
H39 C35 1_555 1_555
H40 C35 1_555 1_555
H41 C35 1_555 1_555
C36 N12 1_555 1_555
H42 C36 1_555 1_555
H43 C36 1_555 1_555
H44 C36 1_555 1_555
O5 C37 1_555 1_555
N13 C37 1_555 1_555
C37 H45 1_555 1_555
C38 N13 1_555 1_555
H46 C38 1_555 1_555
H47 C38 1_555 1_555
H48 C38 1_555 1_555
C39 N13 1_555 1_555
H49 C39 1_555 1_555
H50 C39 1_555 1_555
H51 C39 1_555 1_555
O6 C40 1_555 1_555
N14 C40 1_555 1_555
C40 H52 1_555 1_555
C41 N14 1_555 1_555
H53 C41 1_555 1_555
H54 C41 1_555 1_555
H55 C41 1_555 1_555
C42 N14 1_555 1_555
H56 C42 1_555 1_555
H57 C42 1_555 1_555
H58 C42 1_555 1_555
Fe1_2 N5 1_555 1_555
Fe1A N6 1_555 1_555
Fe1B N2 1_555 1_555
Fe2_2 N4 1_555 1_555
Fe2C N1 1_555 1_555
N1C Fe2 1_555 1_555
N2B Fe1 1_555 1_555
N4_2 Fe2 1_555 1_555
N5_2 Fe1 1_555 1_555
N6A Fe1 1_555 1_555
C2 C3 1_555 1_555
C8 C9 1_555 1_555
C10 C11 1_555 1_555
C11 C12 1_555 1_555
C20 C21 1_555 1_555
C22 C23 1_555 1_555
N4_2 N5_2 1_555 1_555

#END
