
#######################################################################
#
#                 Cambridge Crystallographic Data Centre
#                                CCDC 
#
#######################################################################
#
# If this CIF has been generated from an entry in the Cambridge 
# Structural Database, then it will include bibliographic, chemical, 
# crystal, experimental, refinement or atomic coordinate data resulting 
# from the CCDC's data processing and validation procedures.
#
#######################################################################

data_SERCAV
_chemical_formula_moiety         '(C144 H78 O45 Zn12)n'
_chemical_name_systematic        
catena-[tetrakis(\m~6~-1,3,5-benzenetribenzoato)-tris(\m~4~-4,8-dihydroxynaphthalene-2,6-dicarboxylato)-tris(\m~4~-oxo)-dodeca-zinc(ii)]
_symmetry_cell_setting           cubic
_symmetry_space_group_name_H-M   'P m -3 n'
_symmetry_Int_Tables_number      223
_space_group_name_Hall           '-P 4n 2 3'
loop_
_symmetry_equiv_pos_site_id
_symmetry_equiv_pos_as_xyz
1 x,y,z
2 -x,-y,z
3 -x,y,-z
4 x,-y,-z
5 z,x,y
6 z,-x,-y
7 -z,-x,y
8 -z,x,-y
9 y,z,x
10 -y,z,-x
11 y,-z,-x
12 -y,-z,x
13 1/2+y,1/2+x,1/2-z
14 1/2-y,1/2-x,1/2-z
15 1/2+y,1/2-x,1/2+z
16 1/2-y,1/2+x,1/2+z
17 1/2+x,1/2+z,1/2-y
18 1/2-x,1/2+z,1/2+y
19 1/2-x,1/2-z,1/2-y
20 1/2+x,1/2-z,1/2+y
21 1/2+z,1/2+y,1/2-x
22 1/2+z,1/2-y,1/2+x
23 1/2-z,1/2+y,1/2+x
24 1/2-z,1/2-y,1/2-x
25 -x,-y,-z
26 x,y,-z
27 x,-y,z
28 -x,y,z
29 -z,-x,-y
30 -z,x,y
31 z,x,-y
32 z,-x,y
33 -y,-z,-x
34 y,-z,x
35 -y,z,x
36 y,z,-x
37 1/2-y,1/2-x,1/2+z
38 1/2+y,1/2+x,1/2+z
39 1/2-y,1/2+x,1/2-z
40 1/2+y,1/2-x,1/2-z
41 1/2-x,1/2-z,1/2+y
42 1/2+x,1/2-z,1/2-y
43 1/2+x,1/2+z,1/2+y
44 1/2-x,1/2+z,1/2-y
45 1/2-z,1/2-y,1/2+x
46 1/2-z,1/2+y,1/2-x
47 1/2+z,1/2-y,1/2-x
48 1/2+z,1/2+y,1/2+x
_cell_length_a                   30.367(4)
_cell_length_b                   30.367(4)
_cell_length_c                   30.367(4)
_cell_angle_alpha                90
_cell_angle_beta                 90
_cell_angle_gamma                90
_cell_volume                     28003.1
_exptl_crystal_colour            orange
_exptl_crystal_description       cube
_cell_formula_units_Z            6
loop_
_atom_site_label
_atom_site_type_symbol
_atom_site_fract_x
_atom_site_fract_y
_atom_site_fract_z
Zn1 Zn 0.5000 0.2125(9) 0.0519(12)
O1 O 0.5000 0.2500 0.0000
O2 O 0.449(6) 0.222(6) 0.088(6)
O3 O 0.5000 0.150(7) 0.040(6)
C1 C 0.420(11) 0.2500 0.080(11)
C2 C 0.382(11) 0.2500 0.118(11)
C3 C 0.393(13) 0.227(10) 0.161(12)
H1 H 0.4192 0.2132 0.1666
C4 C 0.358(14) 0.229(12) 0.192(16)
H2 H 0.3610 0.2154 0.2190
C5 C 0.319(16) 0.2500 0.181(16)
C6 C 0.284(14) 0.2500 0.216(14)
C7 C 0.285(13) 0.215(13) 0.2500
H3 H 0.3064 0.1936 0.2500
C8 C 0.5000 0.136(8) 0.0000
C9 C 0.5000 0.085(10) 0.0000
C10 C 0.5000 0.0652 0.0445
H4 H 0.5000 0.0918 0.0598
C11 C 0.5000 0.0202 0.0538
C12 C 0.5000 -0.0050 0.0155
O4 O 0.5000 0.0000 0.0977
C13 C 0.5000 0.0481 0.0346
O2D O 0.088(6) 0.449(6) 0.222(6)
C1D C 0.080(11) 0.420(11) 0.2500
C2D C 0.118(11) 0.382(11) 0.2500
C3D C 0.161(12) 0.393(13) 0.227(10)
H1D H 0.1666 0.4192 0.2132
C4D C 0.192(16) 0.358(14) 0.229(12)
H2D H 0.2190 0.3610 0.2154
C5D C 0.181(16) 0.319(16) 0.2500
C6D C 0.216(14) 0.284(14) 0.2500
C7D C 0.2500 0.285(13) 0.215(13)
H3D H 0.2500 0.3064 0.1936
O2H O 0.222(6) 0.088(6) 0.449(6)
C1H C 0.2500 0.080(11) 0.420(11)
C2H C 0.2500 0.118(11) 0.382(11)
C3H C 0.227(10) 0.161(12) 0.393(13)
H1H H 0.2132 0.1666 0.4192
C4H C 0.229(12) 0.192(16) 0.358(14)
H2H H 0.2154 0.2190 0.3610
C5H C 0.2500 0.181(16) 0.319(16)
C6H C 0.2500 0.216(14) 0.284(14)
C7H C 0.215(13) 0.2500 0.285(13)
H3H H 0.1936 0.2500 0.3064
O2M O 0.278(6) 0.051(6) 0.412(6)
C3M C 0.273(10) 0.107(13) 0.339(12)
H1M H 0.2868 0.0808 0.3334
C4M C 0.271(12) 0.142(14) 0.308(16)
H2M H 0.2846 0.1390 0.2810
O2W O 0.412(6) 0.278(6) 0.051(6)
C3W C 0.339(12) 0.273(10) 0.107(13)
H1W H 0.3334 0.2868 0.0808
C4W C 0.308(16) 0.271(12) 0.142(14)
H2W H 0.2810 0.2846 0.1390
O2R O 0.051(6) 0.412(6) 0.278(6)
C3R C 0.107(13) 0.339(12) 0.273(10)
H1R H 0.0808 0.3334 0.2868
C4R C 0.142(14) 0.308(16) 0.271(12)
H2R H 0.1390 0.2810 0.2846
O3A O 0.5000 -0.150(7) 0.040(6)
C8A C 0.5000 -0.136(8) 0.0000
C9A C 0.5000 -0.085(10) 0.0000
C10A C 0.5000 -0.0652 0.0445
H4A H 0.5000 -0.0918 0.0598
C11A C 0.5000 -0.0202 0.0538
C12A C 0.5000 0.0050 0.0155
C13A C 0.5000 -0.0481 0.0346
O3B O 0.5000 0.150(7) -0.040(6)
C10B C 0.5000 0.0652 -0.0445
H4B H 0.5000 0.0918 -0.0598
C11B C 0.5000 0.0202 -0.0538
C12B C 0.5000 -0.0050 -0.0155
O4B O 0.5000 0.0000 -0.0977
C13B C 0.5000 0.0481 -0.0346
O3C O 0.5000 -0.150(7) -0.040(6)
C10C C 0.5000 -0.0652 -0.0445
H4C H 0.5000 -0.0918 -0.0598
C11C C 0.5000 -0.0202 -0.0538
C12C C 0.5000 0.0050 -0.0155
C13C C 0.5000 -0.0481 -0.0346
Zn1A Zn 0.5000 -0.2125(9) 0.0519(12)
O1A O 0.5000 -0.2500 0.0000
O2A O 0.551(6) -0.222(6) 0.088(6)
C1A C 0.580(11) -0.2500 0.080(11)
C2A C 0.618(11) -0.2500 0.118(11)
C3A C 0.607(13) -0.227(10) 0.161(12)
H1A H 0.5808 -0.2132 0.1666
C4A C 0.642(14) -0.229(12) 0.192(16)
H2A H 0.6390 -0.2154 0.2190
C5A C 0.681(16) -0.2500 0.181(16)
C6A C 0.716(14) -0.2500 0.216(14)
C7A C 0.715(13) -0.215(13) 0.2500
H3A H 0.6936 -0.1936 0.2500
O2F O 0.912(6) -0.449(6) 0.222(6)
C1F C 0.920(11) -0.420(11) 0.2500
C2F C 0.882(11) -0.382(11) 0.2500
C3F C 0.839(12) -0.393(13) 0.227(10)
H1F H 0.8334 -0.4192 0.2132
C4F C 0.808(16) -0.358(14) 0.229(12)
H2F H 0.7810 -0.3610 0.2154
C5F C 0.819(16) -0.319(16) 0.2500
C6F C 0.784(14) -0.284(14) 0.2500
C7F C 0.7500 -0.285(13) 0.215(13)
H3F H 0.7500 -0.3064 0.1936
O2K O 0.778(6) -0.088(6) 0.449(6)
C1K C 0.7500 -0.080(11) 0.420(11)
C2K C 0.7500 -0.118(11) 0.382(11)
C3K C 0.773(10) -0.161(12) 0.393(13)
H1K H 0.7868 -0.1666 0.4192
C4K C 0.771(12) -0.192(16) 0.358(14)
H2K H 0.7846 -0.2190 0.3610
C5K C 0.7500 -0.181(16) 0.319(16)
C6K C 0.7500 -0.216(14) 0.284(14)
C7K C 0.785(13) -0.2500 0.285(13)
H3K H 0.8064 -0.2500 0.3064
O2L O 0.722(6) -0.051(6) 0.412(6)
C3L C 0.727(10) -0.107(13) 0.339(12)
H1L H 0.7132 -0.0808 0.3334
C4L C 0.729(12) -0.142(14) 0.308(16)
H2L H 0.7154 -0.1390 0.2810
O2T O 0.588(6) -0.278(6) 0.051(6)
C3T C 0.661(12) -0.273(10) 0.107(13)
H1T H 0.6666 -0.2868 0.0808
C4T C 0.692(16) -0.271(12) 0.142(14)
H2T H 0.7190 -0.2846 0.1390
O2P O 0.949(6) -0.412(6) 0.278(6)
C3P C 0.893(13) -0.339(12) 0.273(10)
H1P H 0.9192 -0.3334 0.2868
C4P C 0.858(14) -0.308(16) 0.271(12)
H2P H 0.8610 -0.2810 0.2846
Zn1B Zn 0.5000 0.2125(9) -0.0519(12)
O2B O 0.551(6) 0.222(6) -0.088(6)
C1B C 0.580(11) 0.2500 -0.080(11)
C2B C 0.618(11) 0.2500 -0.118(11)
C3B C 0.607(13) 0.227(10) -0.161(12)
H1B H 0.5808 0.2132 -0.1666
C4B C 0.642(14) 0.229(12) -0.192(16)
H2B H 0.6390 0.2154 -0.2190
C5B C 0.681(16) 0.2500 -0.181(16)
C6B C 0.716(14) 0.2500 -0.216(14)
C7B C 0.715(13) 0.215(13) -0.2500
H3B H 0.6936 0.1936 -0.2500
O2G O 0.912(6) 0.449(6) -0.222(6)
C1G C 0.920(11) 0.420(11) -0.2500
C2G C 0.882(11) 0.382(11) -0.2500
C3G C 0.839(12) 0.393(13) -0.227(10)
H1G H 0.8334 0.4192 -0.2132
C4G C 0.808(16) 0.358(14) -0.229(12)
H2G H 0.7810 0.3610 -0.2154
C5G C 0.819(16) 0.319(16) -0.2500
C6G C 0.784(14) 0.284(14) -0.2500
C7G C 0.7500 0.285(13) -0.215(13)
H3G H 0.7500 0.3064 -0.1936
O2I O 0.778(6) 0.088(6) -0.449(6)
C1I C 0.7500 0.080(11) -0.420(11)
C2I C 0.7500 0.118(11) -0.382(11)
C3I C 0.773(10) 0.161(12) -0.393(13)
H1I H 0.7868 0.1666 -0.4192
C4I C 0.771(12) 0.192(16) -0.358(14)
H2I H 0.7846 0.2190 -0.3610
C5I C 0.7500 0.181(16) -0.319(16)
C6I C 0.7500 0.216(14) -0.284(14)
C7I C 0.785(13) 0.2500 -0.285(13)
H3I H 0.8064 0.2500 -0.3064
O2N O 0.722(6) 0.051(6) -0.412(6)
C3N C 0.727(10) 0.107(13) -0.339(12)
H1N H 0.7132 0.0808 -0.3334
C4N C 0.729(12) 0.142(14) -0.308(16)
H2N H 0.7154 0.1390 -0.2810
O2U O 0.588(6) 0.278(6) -0.051(6)
C3U C 0.661(12) 0.273(10) -0.107(13)
H1U H 0.6666 0.2868 -0.0808
C4U C 0.692(16) 0.271(12) -0.142(14)
H2U H 0.7190 0.2846 -0.1390
O2S O 0.949(6) 0.412(6) -0.278(6)
C3S C 0.893(13) 0.339(12) -0.273(10)
H1S H 0.9192 0.3334 -0.2868
C4S C 0.858(14) 0.308(16) -0.271(12)
H2S H 0.8610 0.2810 -0.2846
Zn1C Zn 0.5000 -0.2125(9) -0.0519(12)
O2C O 0.449(6) -0.222(6) -0.088(6)
C1C C 0.420(11) -0.2500 -0.080(11)
C2C C 0.382(11) -0.2500 -0.118(11)
C3C C 0.393(13) -0.227(10) -0.161(12)
H1C H 0.4192 -0.2132 -0.1666
C4C C 0.358(14) -0.229(12) -0.192(16)
H2C H 0.3610 -0.2154 -0.2190
C5C C 0.319(16) -0.2500 -0.181(16)
C6C C 0.284(14) -0.2500 -0.216(14)
C7C C 0.285(13) -0.215(13) -0.2500
H3C H 0.3064 -0.1936 -0.2500
O2E O 0.088(6) -0.449(6) -0.222(6)
C1E C 0.080(11) -0.420(11) -0.2500
C2E C 0.118(11) -0.382(11) -0.2500
C3E C 0.161(12) -0.393(13) -0.227(10)
H1E H 0.1666 -0.4192 -0.2132
C4E C 0.192(16) -0.358(14) -0.229(12)
H2E H 0.2190 -0.3610 -0.2154
C5E C 0.181(16) -0.319(16) -0.2500
C6E C 0.216(14) -0.284(14) -0.2500
C7E C 0.2500 -0.285(13) -0.215(13)
H3E H 0.2500 -0.3064 -0.1936
O2J O 0.222(6) -0.088(6) -0.449(6)
C1J C 0.2500 -0.080(11) -0.420(11)
C2J C 0.2500 -0.118(11) -0.382(11)
C3J C 0.227(10) -0.161(12) -0.393(13)
H1J H 0.2132 -0.1666 -0.4192
C4J C 0.229(12) -0.192(16) -0.358(14)
H2J H 0.2154 -0.2190 -0.3610
C5J C 0.2500 -0.181(16) -0.319(16)
C6J C 0.2500 -0.216(14) -0.284(14)
C7J C 0.215(13) -0.2500 -0.285(13)
H3J H 0.1936 -0.2500 -0.3064
O2O O 0.278(6) -0.051(6) -0.412(6)
C3O C 0.273(10) -0.107(13) -0.339(12)
H1O H 0.2868 -0.0808 -0.3334
C4O C 0.271(12) -0.142(14) -0.308(16)
H2O H 0.2846 -0.1390 -0.2810
O2V O 0.412(6) -0.278(6) -0.051(6)
C3V C 0.339(12) -0.273(10) -0.107(13)
H1V H 0.3334 -0.2868 -0.0808
C4V C 0.308(16) -0.271(12) -0.142(14)
H2V H 0.2810 -0.2846 -0.1390
O2Q O 0.051(6) -0.412(6) -0.278(6)
C3Q C 0.107(13) -0.339(12) -0.273(10)
H1Q H 0.0808 -0.3334 -0.2868
C4Q C 0.142(14) -0.308(16) -0.271(12)
H2Q H 0.1390 -0.2810 -0.2846
Zn1D Zn 0.0519(12) 0.5000 0.2125(9)
O1D O 0.0000 0.5000 0.2500
O3D O 0.040(6) 0.5000 0.150(7)
C8D C 0.0000 0.5000 0.136(8)
C9D C 0.0000 0.5000 0.085(10)
C10D C 0.0445 0.5000 0.0652
H4D H 0.0598 0.5000 0.0918
C11D C 0.0538 0.5000 0.0202
C12D C 0.0155 0.5000 -0.0050
O4D O 0.0977 0.5000 0.0000
C13D C 0.0346 0.5000 0.0481
O3E O 0.040(6) 0.5000 -0.150(7)
C8E C 0.0000 0.5000 -0.136(8)
C9E C 0.0000 0.5000 -0.085(10)
C10E C 0.0445 0.5000 -0.0652
H4E H 0.0598 0.5000 -0.0918
C11E C 0.0538 0.5000 -0.0202
C12E C 0.0155 0.5000 0.0050
C13E C 0.0346 0.5000 -0.0481
O3F O -0.040(6) 0.5000 0.150(7)
C10F C -0.0445 0.5000 0.0652
H4F H -0.0598 0.5000 0.0918
C11F C -0.0538 0.5000 0.0202
C12F C -0.0155 0.5000 -0.0050
O4F O -0.0977 0.5000 0.0000
C13F C -0.0346 0.5000 0.0481
O3G O -0.040(6) 0.5000 -0.150(7)
C10G C -0.0445 0.5000 -0.0652
H4G H -0.0598 0.5000 -0.0918
C11G C -0.0538 0.5000 -0.0202
C12G C -0.0155 0.5000 0.0050
C13G C -0.0346 0.5000 -0.0481
Zn1E Zn 0.0519(12) -0.5000 -0.2125(9)
O3E_2 O 0.040(6) -0.5000 -0.150(7)
C8E_2 C 0.0000 -0.5000 -0.136(8)
C9E_2 C 0.0000 -0.5000 -0.085(10)
C10E_2 C 0.0445 -0.5000 -0.0652
H4E_2 H 0.0598 -0.5000 -0.0918
C11E_2 C 0.0538 -0.5000 -0.0202
C12E_2 C 0.0155 -0.5000 0.0050
O4D_2 O 0.0977 -0.5000 0.0000
C13E_2 C 0.0346 -0.5000 -0.0481
O3D_2 O 0.040(6) -0.5000 0.150(7)
C8D_2 C 0.0000 -0.5000 0.136(8)
C9D_2 C 0.0000 -0.5000 0.085(10)
C10D_2 C 0.0445 -0.5000 0.0652
H4D_2 H 0.0598 -0.5000 0.0918
C11D_2 C 0.0538 -0.5000 0.0202
C12D_2 C 0.0155 -0.5000 -0.0050
C13D_2 C 0.0346 -0.5000 0.0481
O3G_2 O -0.040(6) -0.5000 -0.150(7)
C10G_2 C -0.0445 -0.5000 -0.0652
H4G_2 H -0.0598 -0.5000 -0.0918
C11G_2 C -0.0538 -0.5000 -0.0202
C12G_2 C -0.0155 -0.5000 0.0050
O4F_2 O -0.0977 -0.5000 0.0000
C13G_2 C -0.0346 -0.5000 -0.0481
O3F_2 O -0.040(6) -0.5000 0.150(7)
C10F_2 C -0.0445 -0.5000 0.0652
H4F_2 H -0.0598 -0.5000 0.0918
C11F_2 C -0.0538 -0.5000 0.0202
C12F_2 C -0.0155 -0.5000 -0.0050
C13F_2 C -0.0346 -0.5000 0.0481
Zn1G Zn -0.0519(12) 0.5000 -0.2125(9)
Zn1H Zn 0.2125(9) 0.0519(12) 0.5000
Zn1J Zn 0.2125(9) -0.0519(12) -0.5000
Zn1L Zn 0.7125(9) 0.0000 0.4481(12)
Zn1M Zn 0.2875(9) 0.0000 0.4481(12)
Zn1W Zn 0.4481(12) 0.2875(9) 0.0000
Zn1D_2 Zn 0.0519(12) -0.5000 0.2125(9)
Zn1E_2 Zn 0.0519(12) 0.5000 -0.2125(9)
Zn1F Zn -0.0519(12) -0.5000 0.2125(9)
Zn1F_2 Zn -0.0519(12) 0.5000 0.2125(9)
Zn1F_3 Zn 0.9481(12) -0.5000 0.2125(9)
Zn1G_2 Zn -0.0519(12) -0.5000 -0.2125(9)
Zn1G_3 Zn 0.9481(12) 0.5000 -0.2125(9)
Zn1I Zn 0.7875(9) 0.0519(12) -0.5000
Zn1K Zn 0.7875(9) -0.0519(12) 0.5000
Zn1N Zn 0.7125(9) 0.0000 -0.4481(12)
Zn1O Zn 0.2875(9) 0.0000 -0.4481(12)
Zn1P Zn 0.0000 0.5519(12) 0.2875(9)
Zn1P_2 Zn 1.0000 -0.4481(12) 0.2875(9)
Zn1Q Zn 0.0000 -0.4481(12) -0.2875(9)
Zn1R Zn 0.0000 0.4481(12) 0.2875(9)
Zn1S Zn 1.0000 0.4481(12) -0.2875(9)
Zn1T Zn 0.5519(12) -0.2875(9) 0.0000
Zn1U Zn 0.5519(12) 0.2875(9) 0.0000
Zn1V Zn 0.4481(12) -0.2875(9) 0.0000
O1E O 0.0000 -0.5000 -0.2500
O1E_2 O 0.0000 0.5000 -0.2500
O1H O 0.2500 0.0000 -0.5000
O1H_2 O 0.2500 0.0000 0.5000
O1I O 0.7500 0.0000 0.5000
O2G_2 O -0.088(6) 0.449(6) -0.222(6)
O2X O 0.551(6) -0.222(6) -0.088(6)
O2Y O 0.449(6) 0.222(6) -0.088(6)
O2Z O 0.449(6) -0.222(6) 0.088(6)
O2AA O 0.551(6) 0.222(6) 0.088(6)
O2BA O -0.088(6) 0.551(6) -0.222(6)
O2DA O 0.088(6) -0.551(6) -0.222(6)
O2EA O 0.088(6) 0.551(6) 0.222(6)
O2GA O 0.222(6) -0.088(6) -0.551(6)
O2IA O 0.222(6) 0.088(6) 0.551(6)
O2LA O 0.278(6) -0.051(6) 0.412(6)
O2MA O 0.722(6) 0.051(6) 0.412(6)
O2RA O 0.412(6) 0.278(6) -0.051(6)
O3H O 0.150(7) 0.040(6) 0.5000
O3J O 0.150(7) -0.040(6) -0.5000
O3L O 0.650(7) 0.0000 0.460(6)
O3M O 0.350(7) 0.0000 0.460(6)
O3W O 0.460(6) 0.350(7) 0.0000
loop_
_geom_bond_atom_site_label_1
_geom_bond_atom_site_label_2
_geom_bond_site_symmetry_1
_geom_bond_site_symmetry_2
Zn1 O1 1_555 1_555
O1 Zn1B 1_555 1_555
O2 Zn1 1_555 1_555
O3 Zn1 1_555 1_555
C1 O2 1_555 1_555
C2 C1 1_555 1_555
C3 C2 1_555 1_555
H1 C3 1_555 1_555
C4 C3 1_555 1_555
H2 C4 1_555 1_555
C5 C4 1_555 1_555
C6 C5 1_555 1_555
C7 C6 1_555 1_555
H3 C7 1_555 1_555
C8 O3 1_555 1_555
C9 C8 1_555 1_555
C10 C9 1_555 1_555
H4 C10 1_555 1_555
C11 C10 1_555 1_555
C12 C11 1_555 1_555
O4 C11 1_555 1_555
C13 C9 1_555 1_555
O2D C1D 1_555 1_555
C1D C2D 1_555 1_555
C2D C3D 1_555 1_555
C3D H1D 1_555 1_555
C4D C3D 1_555 1_555
H2D C4D 1_555 1_555
C5D C4D 1_555 1_555
C6D C5D 1_555 1_555
C7D C6 1_555 1_555
H3D C7D 1_555 1_555
O2H C1H 1_555 1_555
C1H C2H 1_555 1_555
C2H C3H 1_555 1_555
C3H H1H 1_555 1_555
C4H C3H 1_555 1_555
H2H C4H 1_555 1_555
C5H C4H 1_555 1_555
C6H C7 1_555 1_555
C7H C6D 1_555 1_555
H3H C7H 1_555 1_555
O2M C1H 1_555 1_555
C3M C2H 1_555 1_555
H1M C3M 1_555 1_555
C4M C5H 1_555 1_555
H2M C4M 1_555 1_555
O2W C1 1_555 1_555
C3W C2 1_555 1_555
H1W C3W 1_555 1_555
C4W C5 1_555 1_555
H2W C4W 1_555 1_555
O2R C1D 1_555 1_555
C3R C2D 1_555 1_555
H1R C3R 1_555 1_555
C4R C5D 1_555 1_555
H2R C4R 1_555 1_555
O3A C8A 1_555 1_555
C8A C9A 1_555 1_555
C9A C10A 1_555 1_555
C10A H4A 1_555 1_555
C11A C11 1_555 1_555
C12A C11 1_555 1_555
C13A C12 1_555 1_555
O3B C8 1_555 1_555
C10B C9 1_555 1_555
H4B C10B 1_555 1_555
C11B C10B 1_555 1_555
C12B C12 1_555 1_555
O4B C11B 1_555 1_555
C13B C9 1_555 1_555
O3C C8A 1_555 1_555
C10C C9A 1_555 1_555
H4C C10C 1_555 1_555
C11C C11B 1_555 1_555
C12C C12 1_555 1_555
C13C C9A 1_555 1_555
Zn1A O3A 1_555 1_555
O1A Zn1A 1_555 1_555
O2A Zn1A 1_555 1_555
C1A O2A 1_555 1_555
C2A C1A 1_555 1_555
C3A C2A 1_555 1_555
H1A C3A 1_555 1_555
C4A C3A 1_555 1_555
H2A C4A 1_555 1_555
C5A C4A 1_555 1_555
C6A C5A 1_555 1_555
C7A C6A 1_555 1_555
H3A C7A 1_555 1_555
O2F C1F 1_555 1_555
C1F C2F 1_555 1_555
C2F C3F 1_555 1_555
C3F H1F 1_555 1_555
C4F C3F 1_555 1_555
H2F C4F 1_555 1_555
C5F C4F 1_555 1_555
C6F C5F 1_555 1_555
C7F C6A 1_555 1_555
H3F C7F 1_555 1_555
O2K C1K 1_555 1_555
C1K C2K 1_555 1_555
C2K C3K 1_555 1_555
C3K H1K 1_555 1_555
C4K C3K 1_555 1_555
H2K C4K 1_555 1_555
C5K C4K 1_555 1_555
C6K C7A 1_555 1_555
C7K C6F 1_555 1_555
H3K C7K 1_555 1_555
O2L C1K 1_555 1_555
C3L C2K 1_555 1_555
H1L C3L 1_555 1_555
C4L C5K 1_555 1_555
H2L C4L 1_555 1_555
O2T C1A 1_555 1_555
C3T C2A 1_555 1_555
H1T C3T 1_555 1_555
C4T C5A 1_555 1_555
H2T C4T 1_555 1_555
O2P C1F 1_555 1_555
C3P C2F 1_555 1_555
H1P C3P 1_555 1_555
C4P C5F 1_555 1_555
H2P C4P 1_555 1_555
Zn1B O3B 1_555 1_555
O2B Zn1B 1_555 1_555
C1B O2B 1_555 1_555
C2B C1B 1_555 1_555
C3B C2B 1_555 1_555
H1B C3B 1_555 1_555
C4B C3B 1_555 1_555
H2B C4B 1_555 1_555
C5B C4B 1_555 1_555
C6B C5B 1_555 1_555
C7B C6B 1_555 1_555
H3B C7B 1_555 1_555
O2G C1G 1_555 1_555
C1G C2G 1_555 1_555
C2G C3G 1_555 1_555
C3G H1G 1_555 1_555
C4G C3G 1_555 1_555
H2G C4G 1_555 1_555
C5G C4G 1_555 1_555
C6G C5G 1_555 1_555
C7G C6B 1_555 1_555
H3G C7G 1_555 1_555
O2I C1I 1_555 1_555
C1I C2I 1_555 1_555
C2I C3I 1_555 1_555
C3I H1I 1_555 1_555
C4I C3I 1_555 1_555
H2I C4I 1_555 1_555
C5I C4I 1_555 1_555
C6I C7B 1_555 1_555
C7I C6G 1_555 1_555
H3I C7I 1_555 1_555
O2N C1I 1_555 1_555
C3N C2I 1_555 1_555
H1N C3N 1_555 1_555
C4N C5I 1_555 1_555
H2N C4N 1_555 1_555
O2U C1B 1_555 1_555
C3U C2B 1_555 1_555
H1U C3U 1_555 1_555
C4U C5B 1_555 1_555
H2U C4U 1_555 1_555
O2S C1G 1_555 1_555
C3S C2G 1_555 1_555
H1S C3S 1_555 1_555
C4S C5G 1_555 1_555
H2S C4S 1_555 1_555
Zn1C O3C 1_555 1_555
O2C Zn1C 1_555 1_555
C1C O2C 1_555 1_555
C2C C1C 1_555 1_555
C3C C2C 1_555 1_555
H1C C3C 1_555 1_555
C4C C3C 1_555 1_555
H2C C4C 1_555 1_555
C5C C4C 1_555 1_555
C6C C5C 1_555 1_555
C7C C6C 1_555 1_555
H3C C7C 1_555 1_555
O2E C1E 1_555 1_555
C1E C2E 1_555 1_555
C2E C3E 1_555 1_555
C3E H1E 1_555 1_555
C4E C3E 1_555 1_555
H2E C4E 1_555 1_555
C5E C4E 1_555 1_555
C6E C5E 1_555 1_555
C7E C6C 1_555 1_555
H3E C7E 1_555 1_555
O2J C1J 1_555 1_555
C1J C2J 1_555 1_555
C2J C3J 1_555 1_555
C3J H1J 1_555 1_555
C4J C3J 1_555 1_555
H2J C4J 1_555 1_555
C5J C4J 1_555 1_555
C6J C7C 1_555 1_555
C7J C6E 1_555 1_555
H3J C7J 1_555 1_555
O2O C1J 1_555 1_555
C3O C2J 1_555 1_555
H1O C3O 1_555 1_555
C4O C5J 1_555 1_555
H2O C4O 1_555 1_555
O2V C1C 1_555 1_555
C3V C2C 1_555 1_555
H1V C3V 1_555 1_555
C4V C5C 1_555 1_555
H2V C4V 1_555 1_555
O2Q C1E 1_555 1_555
C3Q C2E 1_555 1_555
H1Q C3Q 1_555 1_555
C4Q C5E 1_555 1_555
H2Q C4Q 1_555 1_555
Zn1D O2D 1_555 1_555
O1D Zn1D 1_555 1_555
O3D Zn1D 1_555 1_555
C8D O3D 1_555 1_555
C9D C8D 1_555 1_555
C10D C9D 1_555 1_555
H4D C10D 1_555 1_555
C11D C10D 1_555 1_555
C12D C11D 1_555 1_555
O4D C11D 1_555 1_555
C13D C9D 1_555 1_555
O3E C8E 1_555 1_555
C8E C9E 1_555 1_555
C9E C10E 1_555 1_555
C10E H4E 1_555 1_555
C11E C11D 1_555 1_555
C12E C11D 1_555 1_555
C13E C12D 1_555 1_555
O3F C8D 1_555 1_555
C10F C9D 1_555 1_555
H4F C10F 1_555 1_555
C11F C10F 1_555 1_555
C12F C12D 1_555 1_555
O4F C11F 1_555 1_555
C13F C9D 1_555 1_555
O3G C8E 1_555 1_555
C10G C9E 1_555 1_555
H4G C10G 1_555 1_555
C11G C11F 1_555 1_555
C12G C12D 1_555 1_555
C13G C9E 1_555 1_555
Zn1E O2E 1_555 1_555
O3E_2 Zn1E 1_555 1_555
C8E_2 O3E_2 1_555 1_555
C9E_2 C8E_2 1_555 1_555
C10E_2 C9E_2 1_555 1_555
H4E_2 C10E_2 1_555 1_555
C11E_2 C10E_2 1_555 1_555
C12E_2 C11E_2 1_555 1_555
O4D_2 C11E_2 1_555 1_555
C13E_2 C9E_2 1_555 1_555
O3D_2 C8D_2 1_555 1_555
C8D_2 C9D_2 1_555 1_555
C9D_2 C10D_2 1_555 1_555
C10D_2 H4D_2 1_555 1_555
C11D_2 C11E_2 1_555 1_555
C12D_2 C11E_2 1_555 1_555
C13D_2 C12E_2 1_555 1_555
O3G_2 C8E_2 1_555 1_555
C10G_2 C9E_2 1_555 1_555
H4G_2 C10G_2 1_555 1_555
C11G_2 C10G_2 1_555 1_555
C12G_2 C12E_2 1_555 1_555
O4F_2 C11G_2 1_555 1_555
C13G_2 C9E_2 1_555 1_555
O3F_2 C8D_2 1_555 1_555
C10F_2 C9D_2 1_555 1_555
H4F_2 C10F_2 1_555 1_555
C11F_2 C11G_2 1_555 1_555
C12F_2 C12E_2 1_555 1_555
C13F_2 C9D_2 1_555 1_555
Zn1G O3G 1_555 1_555
Zn1H O2H 1_555 1_555
Zn1J O2J 1_555 1_555
Zn1L O2L 1_555 1_555
Zn1M O2M 1_555 1_555
Zn1W O1 1_555 1_555
Zn1D_2 O3D_2 1_555 1_555
Zn1E_2 O3E 1_555 1_555
Zn1F O3F_2 1_555 1_555
Zn1F_2 O1D 1_555 1_555
Zn1F_3 O2F 1_555 1_555
Zn1G_2 O3G_2 1_555 1_555
Zn1G_3 O2G 1_555 1_555
Zn1I O2I 1_555 1_555
Zn1K O2K 1_555 1_555
Zn1N O2N 1_555 1_555
Zn1O O2O 1_555 1_555
Zn1P O1D 1_555 1_555
Zn1P_2 O2P 1_555 1_555
Zn1Q O2Q 1_555 1_555
Zn1R O2R 1_555 1_555
Zn1S O2S 1_555 1_555
Zn1T O1A 1_555 1_555
Zn1U O1 1_555 1_555
Zn1V O1A 1_555 1_555
O1E Zn1E 1_555 1_555
O1E_2 Zn1G 1_555 1_555
O1H Zn1J 1_555 1_555
O1H_2 Zn1H 1_555 1_555
O1I Zn1L 1_555 1_555
O2G_2 Zn1G 1_555 1_555
O2X Zn1C 1_555 1_555
O2Y Zn1B 1_555 1_555
O2Z Zn1A 1_555 1_555
O2AA Zn1 1_555 1_555
O2BA Zn1G 1_555 1_555
O2DA Zn1E 1_555 1_555
O2EA Zn1D 1_555 1_555
O2GA Zn1J 1_555 1_555
O2IA Zn1H 1_555 1_555
O2LA Zn1M 1_555 1_555
O2MA Zn1L 1_555 1_555
O2RA Zn1W 1_555 1_555
O3H Zn1H 1_555 1_555
O3J Zn1J 1_555 1_555
O3L Zn1L 1_555 1_555
O3M Zn1M 1_555 1_555
O3W Zn1W 1_555 1_555
C10 C13 1_555 1_555
C11 C13 1_555 1_555
C12 C13 1_555 1_555
C12 C11A 1_555 1_555
O4 C11A 1_555 1_555
C13 C12A 1_555 1_555
C6D C7D 1_555 1_555
C5H C6H 1_555 1_555
C6H C7H 1_555 1_555
C3M C4M 1_555 1_555
O2W Zn1W 1_555 1_555
C3W C4W 1_555 1_555
C3R C4R 1_555 1_555
C9A C13A 1_555 1_555
C10A C11A 1_555 1_555
C10A C13A 1_555 1_555
C11A C12A 1_555 1_555
C11A C13A 1_555 1_555
C12A C13A 1_555 1_555
C12A C12B 1_555 1_555
C12A C12C 1_555 1_555
C10B C13B 1_555 1_555
C11B C12B 1_555 1_555
C11B C13B 1_555 1_555
C11B C12C 1_555 1_555
C12B C13B 1_555 1_555
C12B C11C 1_555 1_555
C12B C13C 1_555 1_555
O4B C11C 1_555 1_555
C13B C12C 1_555 1_555
C10C C11C 1_555 1_555
C10C C13C 1_555 1_555
C11C C12C 1_555 1_555
C11C C13C 1_555 1_555
C12C C13C 1_555 1_555
O1A Zn1C 1_555 1_555
C6F C7F 1_555 1_555
C5K C6K 1_555 1_555
C6K C7K 1_555 1_555
C3L C4L 1_555 1_555
O2T Zn1T 1_555 1_555
C3T C4T 1_555 1_555
C3P C4P 1_555 1_555
C6G C7G 1_555 1_555
C5I C6I 1_555 1_555
C6I C7I 1_555 1_555
C3N C4N 1_555 1_555
O2U Zn1U 1_555 1_555
C3U C4U 1_555 1_555
C3S C4S 1_555 1_555
C6E C7E 1_555 1_555
C5J C6J 1_555 1_555
C6J C7J 1_555 1_555
C3O C4O 1_555 1_555
O2V Zn1V 1_555 1_555
C3V C4V 1_555 1_555
C3Q C4Q 1_555 1_555
O1D Zn1R 1_555 1_555
C10D C13D 1_555 1_555
C11D C13D 1_555 1_555
C12D C13D 1_555 1_555
C12D C11E 1_555 1_555
O4D C11E 1_555 1_555
C13D C12E 1_555 1_555
C9E C13E 1_555 1_555
C10E C11E 1_555 1_555
C10E C13E 1_555 1_555
C11E C12E 1_555 1_555
C11E C13E 1_555 1_555
C12E C13E 1_555 1_555
C12E C12F 1_555 1_555
C12E C12G 1_555 1_555
O3F Zn1F_2 1_555 1_555
C10F C13F 1_555 1_555
C11F C12F 1_555 1_555
C11F C13F 1_555 1_555
C11F C12G 1_555 1_555
C12F C13F 1_555 1_555
C12F C11G 1_555 1_555
C12F C13G 1_555 1_555
O4F C11G 1_555 1_555
C13F C12G 1_555 1_555
C10G C11G 1_555 1_555
C10G C13G 1_555 1_555
C11G C12G 1_555 1_555
C11G C13G 1_555 1_555
C12G C13G 1_555 1_555
C10E_2 C13E_2 1_555 1_555
C11E_2 C13E_2 1_555 1_555
C12E_2 C13E_2 1_555 1_555
C12E_2 C11D_2 1_555 1_555
O4D_2 C11D_2 1_555 1_555
C13E_2 C12D_2 1_555 1_555
C9D_2 C13D_2 1_555 1_555
C10D_2 C11D_2 1_555 1_555
C10D_2 C13D_2 1_555 1_555
C11D_2 C12D_2 1_555 1_555
C11D_2 C13D_2 1_555 1_555
C12D_2 C13D_2 1_555 1_555
C12D_2 C12G_2 1_555 1_555
C12D_2 C12F_2 1_555 1_555
C10G_2 C13G_2 1_555 1_555
C11G_2 C12G_2 1_555 1_555
C11G_2 C13G_2 1_555 1_555
C11G_2 C12F_2 1_555 1_555
C12G_2 C13G_2 1_555 1_555
C12G_2 C11F_2 1_555 1_555
C12G_2 C13F_2 1_555 1_555
O4F_2 C11F_2 1_555 1_555
C13G_2 C12F_2 1_555 1_555
C10F_2 C11F_2 1_555 1_555
C10F_2 C13F_2 1_555 1_555
C11F_2 C12F_2 1_555 1_555
C11F_2 C13F_2 1_555 1_555
C12F_2 C13F_2 1_555 1_555
Zn1M O1H_2 1_555 1_555
Zn1E_2 O1E_2 1_555 1_555
Zn1G_2 O1E 1_555 1_555
Zn1K O1I 1_555 1_555
Zn1O O1H 1_555 1_555
Zn1Q O1E 1_555 1_555

#END
