
#######################################################################
#
#                 Cambridge Crystallographic Data Centre
#                                CCDC 
#
#######################################################################
#
# If this CIF has been generated from an entry in the Cambridge 
# Structural Database, then it will include bibliographic, chemical, 
# crystal, experimental, refinement or atomic coordinate data resulting 
# from the CCDC's data processing and validation procedures.
#
#######################################################################

data_HATGUF01
_chemical_formula_moiety         '(C8 H6 Cu1 O5)n,2n(H2 O1)'
_chemical_name_systematic        
'catena-((\m~4~-Isophthalato)-aqua-copper(ii) dihydrate)'
_symmetry_cell_setting           tetragonal
_symmetry_space_group_name_H-M   'P 4/n m m'
_symmetry_Int_Tables_number      129
_space_group_name_Hall           '-P 4a 2a'
loop_
_symmetry_equiv_pos_site_id
_symmetry_equiv_pos_as_xyz
1 x,y,z
2 1/2-x,1/2-y,z
3 1/2-y,x,z
4 y,1/2-x,z
5 -x,1/2+y,-z
6 1/2+x,-y,-z
7 1/2+y,1/2+x,-z
8 -y,-x,-z
9 -x,-y,-z
10 1/2+x,1/2+y,-z
11 1/2+y,-x,-z
12 -y,1/2+x,-z
13 x,1/2-y,z
14 1/2-x,y,z
15 1/2-y,1/2-x,z
16 y,x,z
_cell_length_a                   19.129(3)
_cell_length_b                   19.129(3)
_cell_length_c                   6.7640(14)
_cell_angle_alpha                90
_cell_angle_beta                 90
_cell_angle_gamma                90
_cell_volume                     2475.07
_exptl_crystal_colour            blue
_exptl_crystal_description       block
_cell_formula_units_Z            8
loop_
_atom_site_label
_atom_site_type_symbol
_atom_site_fract_x
_atom_site_fract_y
_atom_site_fract_z
_atom_site_U_iso_or_equiv
_atom_site_thermal_displace_type
Cu1 Cu 0.531159(15) 0.531159(15) 0.14758(6) 0.0173 Uani
C1 C 0.52582(14) 0.31305(14) 0.2645(4) 0.0244 Uani
C2 C 0.54892(17) 0.31301(15) 0.4601(5) 0.0319 Uani
H1 H 0.5569 0.3551 0.5251 0.0380 Uiso
C3 C 0.5600(3) 0.2500 0.5581(7) 0.0383 Uani
H2 H 0.5749 0.2500 0.6890 0.0460 Uiso
C4 C 0.5140(2) 0.2500 0.1676(6) 0.0256 Uani
H3 H 0.4981 0.2500 0.0376 0.0310 Uiso
C5 C 0.51447(15) 0.38136(14) 0.1615(4) 0.0223 Uani
O1 O 0.48406(14) 0.38101(11) -0.0026(4) 0.0441 Uani
O2 O 0.53591(13) 0.43497(11) 0.2473(4) 0.0408 Uani
O3 O 0.57482(12) 0.57482(12) 0.4086(5) 0.0384 Uani
H4 H 0.6048 0.6048 0.3949 0.0460 Uiso
H5 H 0.5669 0.5669 0.5253 0.0460 Uiso
Cu1G Cu 0.468841(15) 0.468841(15) -0.14758(6) 0.0173 Uani
Cu1D Cu 0.468841(15) 0.031159(15) -0.14758(6) 0.0173 Uani
Cu1C Cu 0.531159(15) -0.031159(15) 0.14758(6) 0.0173 Uani
C1L C 0.52582(14) 0.18695(14) 0.2645(4) 0.0244 Uani
C2L C 0.54892(17) 0.18699(15) 0.4601(5) 0.0319 Uani
H1L H 0.5569 0.1449 0.5251 0.0380 Uiso
C5L C 0.51447(15) 0.11864(14) 0.1615(4) 0.0223 Uani
O1L O 0.48406(14) 0.11899(11) -0.0026(4) 0.0441 Uani
O1H O 0.51594(14) 0.61899(11) 0.0026(4) 0.0441 Uani
O1G O 0.61899(11) 0.51594(14) 0.0026(4) 0.0441 Uani
O2L O 0.53591(13) 0.06503(11) 0.2473(4) 0.0408 Uani
O2O O 0.43497(11) 0.53591(13) 0.2473(4) 0.0408 Uani
O4 O 0.6726(3) 0.6726(3) 0.9545(19) 0.2410 Uani
H6 H 0.6656 0.6656 1.0727 0.2890 Uiso
H7 H 0.6480 0.6480 0.8832 0.2890 Uiso
O5 O 0.6721(3) 0.6721(3) 0.487(2) 0.3000 Uani
H8 H 0.7022 0.7022 0.5008 0.3600 Uiso
H9 H 0.6580 0.6580 0.5943 0.3600 Uiso
loop_
_atom_site_aniso_label
_atom_site_aniso_U_11
_atom_site_aniso_U_22
_atom_site_aniso_U_33
_atom_site_aniso_U_23
_atom_site_aniso_U_13
_atom_site_aniso_U_12
Cu1 0.0159(2) 0.0159(2) 0.0200(3) -0.00074(11) -0.00074(11) -0.00081(14)
C1 0.0302(14) 0.0174(12) 0.0256(14) 0.0015(10) -0.0026(11) -0.0007(10)
C2 0.0456(16) 0.0194(12) 0.0308(16) -0.0024(11) -0.0071(13) -0.0014(12)
C3 0.064(3) 0.024(2) 0.027(2) 0.000 -0.013(2) 0.000
C4 0.032(2) 0.0207(18) 0.0242(19) 0.000 -0.0023(16) 0.000
C5 0.0236(12) 0.0175(12) 0.0259(14) -0.0006(9) 0.0014(10) 0.0010(10)
O1 0.0744(17) 0.0196(10) 0.0382(13) 0.0055(9) -0.0263(13) -0.0075(10)
O2 0.0680(16) 0.0160(9) 0.0385(13) 0.0030(9) -0.0226(11) -0.0019(9)
O3 0.0440(11) 0.0440(11) 0.0271(15) -0.0072(10) -0.0072(10) -0.0051(15)
Cu1G 0.0159 0.0159 0.02 -0.00074 -0.00074 -0.00081
Cu1D 0.0159 0.0159 0.02 0.00074 -0.00074 0.00081
Cu1C 0.0159 0.0159 0.02 0.00074 -0.00074 0.00081
C1L 0.0302 0.0174 0.0256 -0.0015 -0.0026 0.0007
C2L 0.0456 0.0194 0.0308 0.0024 -0.0071 0.0014
C5L 0.0236 0.0175 0.0259 0.0006 0.0014 -0.001
O1L 0.0744 0.0196 0.0382 -0.0055 -0.0263 0.0075
O1H 0.0744 0.0196 0.0382 0.0055 -0.0263 -0.0075
O1G 0.0196 0.0744 0.0382 -0.0263 0.0055 -0.0075
O2L 0.068 0.016 0.0385 -0.003 -0.0226 0.0019
O2O 0.016 0.068 0.0385 -0.0226 0.003 -0.0019
O4 0.209(9) 0.209(9) 0.305(14) 0.010(6) 0.010(6) -0.144(10)
O5 0.251(11) 0.251(11) 0.398(19) -0.040(7) -0.040(7) -0.187(12)
loop_
_geom_bond_atom_site_label_1
_geom_bond_atom_site_label_2
_geom_bond_site_symmetry_1
_geom_bond_site_symmetry_2
Cu1 O2 1_555 1_555
C1 C2 1_555 1_555
C2 H1 1_555 1_555
C3 C2 1_555 1_555
H2 C3 1_555 1_555
C4 C1 1_555 1_555
H3 C4 1_555 1_555
C5 C1 1_555 1_555
O1 C5 1_555 1_555
O2 C5 1_555 1_555
O3 Cu1 1_555 1_555
H4 O3 1_555 1_555
H5 O3 1_555 1_555
O4 H6 1_555 1_555
H7 O4 1_555 1_555
O5 H8 1_555 1_555
H9 O5 1_555 1_555
Cu1G Cu1 1_555 1_555
Cu1D Cu1C 1_555 1_555
Cu1C O2L 1_555 1_555
C1L C4 1_555 1_555
C2L C3 1_555 1_555
H1L C2L 1_555 1_555
C5L C1L 1_555 1_555
O1L Cu1D 1_555 1_555
O1H Cu1 1_555 1_555
O1G Cu1 1_555 1_555
O2L C5L 1_555 1_555
O2O Cu1 1_555 1_555
O1 Cu1G 1_555 1_555
C1L C2L 1_555 1_555
C5L O1L 1_555 1_555

#END
