
#######################################################################
#
#                 Cambridge Crystallographic Data Centre
#                                CCDC 
#
#######################################################################
#
# If this CIF has been generated from an entry in the Cambridge 
# Structural Database, then it will include bibliographic, chemical, 
# crystal, experimental, refinement or atomic coordinate data resulting 
# from the CCDC's data processing and validation procedures.
#
#######################################################################

data_UKUPUM
_chemical_formula_moiety         '(C21 H21 Cu2 N1 O10)n'
_chemical_name_systematic        
catena-(bis(\m~4~-Isophthalato)-aqua-(N,N-diethylformamide)-di-copper(ii))
_symmetry_cell_setting           orthorhombic
_symmetry_space_group_name_H-M   'P b c a'
_symmetry_Int_Tables_number      61
_space_group_name_Hall           '-P 2ac 2ab'
loop_
_symmetry_equiv_pos_site_id
_symmetry_equiv_pos_as_xyz
1 x,y,z
2 1/2-x,-y,1/2+z
3 1/2+x,1/2-y,-z
4 -x,1/2+y,1/2-z
5 -x,-y,-z
6 1/2+x,y,1/2-z
7 1/2-x,1/2+y,z
8 x,1/2-y,1/2+z
_cell_length_a                   18.0520(4)
_cell_length_b                   13.8360(3)
_cell_length_c                   19.1140(4)
_cell_angle_alpha                90
_cell_angle_beta                 90
_cell_angle_gamma                90
_cell_volume                     4774.06
_exptl_crystal_colour            blue
_exptl_crystal_description       block
_cell_formula_units_Z            8
loop_
_atom_site_label
_atom_site_type_symbol
_atom_site_fract_x
_atom_site_fract_y
_atom_site_fract_z
_atom_site_U_iso_or_equiv
_atom_site_thermal_displace_type
Cu1 Cu 0.23193(12) 0.16765(15) 0.51182(11) 0.0494 Uani
Cu2 Cu 0.30899(11) 0.30896(14) 0.45728(11) 0.0488 Uani
C1 C 0.2594(9) 0.1174(13) 0.2948(9) 0.0507 Uani
C2 C 0.2684(9) 0.1657(12) 0.2343(9) 0.0487 Uani
H1 H 0.2819 0.2305 0.2363 0.0580 Uiso
C3 C 0.2585(9) 0.1242(13) 0.1696(9) 0.0523 Uani
C4 C 0.2398(11) 0.0253(13) 0.1668(10) 0.0610 Uani
H2 H 0.2343 -0.0060 0.1240 0.0730 Uiso
C5 C 0.2301(12) -0.0234(14) 0.2280(9) 0.0697 Uani
H3 H 0.2163 -0.0882 0.2265 0.0830 Uiso
C6 C 0.2400(10) 0.0195(13) 0.2909(9) 0.0577 Uani
H4 H 0.2339 -0.0161 0.3318 0.0690 Uiso
C7 C 0.2692(9) 0.1626(12) 0.3640(9) 0.0497 Uani
C8 C 0.2639(9) 0.1780(13) 0.1031(8) 0.0490 Uani
C9 C 0.4529(9) 0.1063(12) 0.5531(9) 0.0507 Uani
C10 C 0.5197(9) 0.1543(12) 0.5416(9) 0.0497 Uani
H5 H 0.5189 0.2132 0.5181 0.0600 Uiso
C11 C 0.5872(9) 0.1177(12) 0.5637(9) 0.0507 Uani
C12 C 0.5871(9) 0.0303(14) 0.5993(10) 0.0600 Uani
H6 H 0.6316 0.0035 0.6142 0.0720 Uiso
C13 C 0.5209(9) -0.0172(13) 0.6128(10) 0.0603 Uani
H7 H 0.5211 -0.0747 0.6380 0.0720 Uiso
C14 C 0.4550(9) 0.0206(13) 0.5890(10) 0.0613 Uani
H8 H 0.4111 -0.0126 0.5975 0.0740 Uiso
C15 C 0.3850(10) 0.1481(12) 0.5254(9) 0.0500 Uani
C16 C 0.6574(10) 0.1670(12) 0.5483(8) 0.0470 Uani
C17 C 0.4393(13) 0.3828(17) 0.3919(13) 0.0967 Uani
C18 C 0.5611(8) 0.3834(10) 0.3257(8) 0.0500 Uiso
C19 C 0.5505(9) 0.3146(11) 0.2718(8) 0.0500 Uiso
C20 C 0.4685(9) 0.5251(9) 0.3315(8) 0.0500 Uiso
C21 C 0.5041(9) 0.5956(11) 0.3744(8) 0.0500 Uiso
N1 N 0.4950(9) 0.4306(12) 0.3529(12) 0.1160 Uani
O1 O 0.2366(6) 0.1236(8) 0.4153(6) 0.0543 Uani
O2 O 0.3088(6) 0.2389(8) 0.3683(6) 0.0533 Uani
O3 O 0.2402(7) 0.2657(9) 0.1017(6) 0.0597 Uani
O4 O 0.2938(6) 0.1366(8) 0.0512(6) 0.0550 Uani
O5 O 0.3253(6) 0.1029(9) 0.5342(6) 0.0587 Uani
O6 O 0.3891(6) 0.2287(8) 0.4951(6) 0.0530 Uani
O7 O 0.6514(6) 0.2446(9) 0.5132(7) 0.0620 Uani
O8 O 0.7164(6) 0.1338(9) 0.5705(7) 0.0573 Uani
O9 O 0.3869(7) 0.4165(9) 0.4203(7) 0.0683 Uani
O10 O 0.1549(6) 0.0507(8) 0.5309(6) 0.0620 Uani
H9 H 0.1311 0.0360 0.4959 0.0750 Uiso
H10 H 0.1675 0.0026 0.5527 0.0750 Uiso
Cu1G Cu 0.23193(12) 0.33235(15) 0.01182(11) 0.0494 Uani
Cu1B Cu 0.73193(12) 0.33235(15) 0.48818(11) 0.0494 Uani
Cu2G Cu 0.30899(11) 0.19104(14) -0.04272(11) 0.0488 Uani
Cu2B Cu 0.80899(11) 0.19104(14) 0.54272(11) 0.0488 Uani
O3G O 0.2402(7) 0.2343(9) 0.6017(6) 0.0597 Uani
O4G O 0.2938(6) 0.3634(8) 0.5512(6) 0.0550 Uani
O7B O 0.1514(6) 0.2554(9) 0.4868(7) 0.0620 Uani
O8B O 0.2164(6) 0.3662(9) 0.4295(7) 0.0573 Uani
loop_
_atom_site_aniso_label
_atom_site_aniso_U_11
_atom_site_aniso_U_22
_atom_site_aniso_U_33
_atom_site_aniso_U_23
_atom_site_aniso_U_13
_atom_site_aniso_U_12
Cu1 0.0499(12) 0.0551(12) 0.0432(12) 0.0016(10) 0.0004(9) -0.0006(10)
Cu2 0.0503(12) 0.0557(12) 0.0404(12) 0.0014(9) 0.0005(10) -0.0008(10)
C1 0.050(10) 0.064(11) 0.038(10) 0.007(8) -0.005(8) 0.002(9)
C2 0.050(10) 0.044(9) 0.052(11) -0.009(8) -0.001(8) 0.000(8)
C3 0.052(10) 0.068(11) 0.037(10) -0.002(8) -0.009(8) 0.005(9)
C4 0.076(13) 0.064(12) 0.043(11) -0.006(9) 0.008(10) 0.000(10)
C5 0.105(16) 0.061(12) 0.043(11) -0.005(9) 0.004(11) -0.026(11)
C6 0.076(12) 0.064(12) 0.033(10) 0.003(8) 0.002(9) -0.002(10)
C7 0.049(10) 0.057(10) 0.043(10) 0.001(8) 0.007(8) 0.010(9)
C8 0.048(9) 0.063(11) 0.036(10) -0.008(8) -0.007(8) -0.012(9)
C9 0.045(9) 0.056(10) 0.051(11) -0.002(9) 0.005(8) -0.001(9)
C10 0.053(10) 0.053(10) 0.043(10) 0.004(8) -0.001(8) 0.004(8)
C11 0.050(10) 0.055(10) 0.047(11) -0.001(8) 0.003(8) -0.005(9)
C12 0.033(9) 0.076(13) 0.071(14) -0.005(11) -0.006(8) 0.000(9)
C13 0.046(10) 0.058(11) 0.077(14) 0.017(10) 0.006(9) 0.006(9)
C14 0.035(9) 0.068(12) 0.081(15) 0.008(11) 0.001(9) 0.005(9)
C15 0.051(10) 0.050(10) 0.049(11) 0.006(8) -0.001(8) 0.004(9)
C16 0.053(10) 0.062(11) 0.026(9) 0.005(8) 0.007(8) -0.005(9)
C17 0.085(17) 0.085(16) 0.12(2) 0.007(15) 0.019(16) -0.012(15)
N1 0.082(13) 0.106(17) 0.16(2) 0.010(16) 0.005(14) -0.004(13)
O1 0.068(7) 0.055(7) 0.040(7) -0.005(5) 0.002(6) -0.005(6)
O2 0.057(7) 0.058(7) 0.045(7) 0.003(5) 0.001(6) -0.013(6)
O3 0.072(8) 0.068(8) 0.039(7) 0.002(6) -0.005(6) 0.008(7)
O4 0.070(8) 0.057(7) 0.038(7) 0.003(5) 0.004(6) 0.003(6)
O5 0.053(7) 0.066(8) 0.057(8) 0.020(6) -0.008(6) 0.000(6)
O6 0.041(6) 0.067(8) 0.051(7) 0.012(6) -0.007(5) 0.001(6)
O7 0.050(7) 0.069(8) 0.067(9) 0.008(7) -0.002(6) -0.002(6)
O8 0.043(7) 0.061(7) 0.068(9) 0.010(6) -0.006(6) 0.004(6)
O9 0.054(8) 0.069(8) 0.082(10) 0.001(7) 0.014(7) -0.002(7)
O10 0.065(7) 0.055(7) 0.066(9) 0.007(6) 0.005(6) -0.008(6)
Cu1G 0.0499 0.0551 0.0432 -0.0016 0.0004 0.0006
Cu1B 0.0499 0.0551 0.0432 0.0016 -0.0004 0.0006
Cu2G 0.0503 0.0557 0.0404 -0.0014 0.0005 0.0008
Cu2B 0.0503 0.0557 0.0404 0.0014 -0.0005 0.0008
O3G 0.072 0.068 0.039 -0.002 -0.005 -0.008
O4G 0.07 0.057 0.038 -0.003 0.004 -0.003
O7B 0.05 0.069 0.067 0.008 0.002 0.002
O8B 0.043 0.061 0.068 0.01 0.006 -0.004
loop_
_geom_bond_atom_site_label_1
_geom_bond_atom_site_label_2
_geom_bond_site_symmetry_1
_geom_bond_site_symmetry_2
Cu1 Cu2 1_555 1_555
Cu2 O2 1_555 1_555
C1 C2 1_555 1_555
C2 H1 1_555 1_555
C3 C2 1_555 1_555
C4 C3 1_555 1_555
H2 C4 1_555 1_555
C5 C4 1_555 1_555
H3 C5 1_555 1_555
C6 C1 1_555 1_555
H4 C6 1_555 1_555
C7 C1 1_555 1_555
C8 C3 1_555 1_555
C9 C10 1_555 1_555
C10 H5 1_555 1_555
C11 C10 1_555 1_555
C12 C11 1_555 1_555
H6 C12 1_555 1_555
C13 C12 1_555 1_555
H7 C13 1_555 1_555
C14 C9 1_555 1_555
H8 C14 1_555 1_555
C15 C9 1_555 1_555
C16 C11 1_555 1_555
C17 N1 1_555 1_555
C18 C19 1_555 1_555
C20 C21 1_555 1_555
N1 C18 1_555 1_555
O1 Cu1 1_555 1_555
O2 C7 1_555 1_555
O3 C8 1_555 1_555
O4 C8 1_555 1_555
O5 Cu1 1_555 1_555
O6 Cu2 1_555 1_555
O7 C16 1_555 1_555
O8 C16 1_555 1_555
O9 Cu2 1_555 1_555
O10 Cu1 1_555 1_555
H9 O10 1_555 1_555
H10 O10 1_555 1_555
Cu1G O3 1_555 1_555
Cu1B O7 1_555 1_555
Cu2G O4 1_555 1_555
Cu2B O8 1_555 1_555
O3G Cu1 1_555 1_555
O4G Cu2 1_555 1_555
O7B Cu1 1_555 1_555
O8B Cu2 1_555 1_555
C5 C6 1_555 1_555
C7 O1 1_555 1_555
C13 C14 1_555 1_555
C15 O5 1_555 1_555
C15 O6 1_555 1_555
C17 O9 1_555 1_555
C20 N1 1_555 1_555
Cu1G Cu2G 1_555 1_555
Cu1B Cu2B 1_555 1_555

#END
