
#######################################################################
#
#                 Cambridge Crystallographic Data Centre
#                                CCDC 
#
#######################################################################
#
# If this CIF has been generated from an entry in the Cambridge 
# Structural Database, then it will include bibliographic, chemical, 
# crystal, experimental, refinement or atomic coordinate data resulting 
# from the CCDC's data processing and validation procedures.
#
#######################################################################

data_UKUQEX
_chemical_formula_moiety         '(C72 H52 Cu8 N4 O36)n,9n(H2 O1)'
_chemical_name_systematic        
'catena-(octakis(\m~4~-Isophthalato)-tetrakis(acetonitrile)-tetra-aqua-octa-copper(ii) nonahydrate)'
_symmetry_cell_setting           monoclinic
_symmetry_space_group_name_H-M   'C 2/m'
_symmetry_Int_Tables_number      12
_space_group_name_Hall           '-C 2y'
loop_
_symmetry_equiv_pos_site_id
_symmetry_equiv_pos_as_xyz
1 x,y,z
2 -x,y,-z
3 1/2+x,1/2+y,z
4 1/2-x,1/2+y,-z
5 -x,-y,-z
6 x,-y,z
7 1/2-x,1/2-y,-z
8 1/2+x,1/2-y,z
_cell_length_a                   17.781(4)
_cell_length_b                   28.331(6)
_cell_length_c                   10.766(2)
_cell_angle_alpha                90
_cell_angle_beta                 101.92(3)
_cell_angle_gamma                90
_cell_volume                     5306.47
_exptl_crystal_colour            blue
_exptl_crystal_description       block
_cell_formula_units_Z            2
loop_
_atom_site_label
_atom_site_type_symbol
_atom_site_fract_x
_atom_site_fract_y
_atom_site_fract_z
Cu1 Cu 0.79169(3) 0.780608(17) 0.95029(5)
Cu2 Cu 0.50015(4) 0.5000 0.62170(6)
Cu3 Cu 0.92409(4) 0.5000 1.46959(8)
C1 C 0.9388(3) 0.67659(18) 1.1579(5)
C2 C 0.9365(3) 0.63354(18) 1.2185(5)
H1 H 0.8894 0.6200 1.2225
C3 C 1.0042(3) 0.61077(19) 1.2730(5)
C4 C 1.0744(3) 0.6317(3) 1.2683(7)
H2 H 1.1201 0.6167 1.3051
C5 C 1.0760(4) 0.6749(3) 1.2086(8)
H3 H 1.1229 0.6888 1.2053
C6 C 1.0085(3) 0.6974(2) 1.1542(6)
H4 H 1.0100 0.7266 1.1150
C7 C 0.8663(3) 0.70200(17) 1.0981(4)
C8 C 1.0019(3) 0.56591(18) 1.3472(5)
C9 C 0.7111(3) 0.67286(16) 0.6773(4)
C10 C 0.6668(3) 0.63168(15) 0.6642(4)
H5 H 0.6471 0.6206 0.7323
C11 C 0.6523(3) 0.60718(16) 0.5498(4)
C12 C 0.6842(3) 0.6231(2) 0.4495(5)
H6 H 0.6759 0.6065 0.3735
C13 C 0.7283(4) 0.6637(2) 0.4634(5)
H7 H 0.7490 0.6744 0.3960
C14 C 0.7417(3) 0.68850(18) 0.5756(4)
H8 H 0.7714 0.7158 0.5837
C15 C 0.7243(2) 0.70066(16) 0.7993(4)
C16 C 0.5991(3) 0.56509(16) 0.5335(4)
C17 C 0.9271(3) 0.8356(2) 0.8380(5)
C18 C 0.9949(4) 0.8544(4) 0.7972(8)
H9 H 1.0385 0.8531 0.8667
H10 H 0.9856 0.8866 0.7704
H11 H 1.0051 0.8359 0.7279
N1 N 0.8759(3) 0.82195(16) 0.8713(4)
O1 O 0.87316(18) 0.73792(12) 1.0344(3)
O2 O 0.80324(19) 0.68469(11) 1.1149(3)
O3 O 0.9371(2) 0.54916(13) 1.3485(4)
O4 O 1.0655(2) 0.54935(13) 1.4013(4)
O5 O 0.76366(19) 0.73745(11) 0.8033(3)
O6 O 0.69631(19) 0.68438(11) 0.8888(3)
O7 O 0.5788(2) 0.54946(12) 0.6301(3)
O8 O 0.5788(2) 0.54905(11) 0.4228(3)
O9 O 0.5001(4) 0.5000 0.8212(5)
H12 H 0.4620 0.5000 0.8626
H13 H 0.5374 0.5000 0.8894
O10 O 0.7970(4) 0.5000 1.4282(9)
H14 H 0.7808 0.5000 1.4942
H15 H 0.7622 0.5000 1.3656
Cu1E Cu 0.79169(3) 0.219392(17) 0.95029(5)
Cu1A Cu 0.20831(3) 0.780608(17) 0.04971(5)
Cu1D Cu 0.20831(3) 0.219392(17) 0.04971(5)
Cu1F Cu 0.70831(3) 0.719392(17) 1.04971(5)
Cu1C Cu 0.70831(3) 0.280608(17) 1.04971(5)
Cu1G Cu 0.29169(3) 0.719392(17) -0.04971(5)
Cu1B Cu 0.29169(3) 0.280608(17) -0.04971(5)
Cu2A Cu 0.49985(4) 0.5000 0.37830(6)
Cu3C Cu 0.57591(4) 1.0000 0.53041(8)
Cu3A Cu 1.07591(4) 0.5000 1.53041(8)
Cu3B Cu 0.42409(4) 1.0000 0.46959(8)
Cu3C_2 Cu 0.57591(4) 0.0000 0.53041(8)
Cu3B_2 Cu 0.42409(4) 0.0000 0.46959(8)
C1F C 0.5612(3) 0.82341(18) 0.8421(5)
C1E C 0.9388(3) 0.32341(18) 1.1579(5)
C1C C 0.5612(3) 0.17659(18) 0.8421(5)
C2F C 0.5635(3) 0.86646(18) 0.7815(5)
C2E C 0.9365(3) 0.36646(18) 1.2185(5)
C2C C 0.5635(3) 0.13354(18) 0.7815(5)
H1F H 0.6106 0.8800 0.7775
H1E H 0.8894 0.3800 1.2225
H1C H 0.6106 0.1200 0.7775
C3F C 0.4958(3) 0.88923(19) 0.7270(5)
C3E C 1.0042(3) 0.38923(19) 1.2730(5)
C3C C 0.4958(3) 0.11077(19) 0.7270(5)
C4F C 0.4256(3) 0.8683(3) 0.7317(7)
C4E C 1.0744(3) 0.3683(3) 1.2683(7)
C4C C 0.4256(3) 0.1317(3) 0.7317(7)
H2F H 0.3799 0.8833 0.6949
H2E H 1.1201 0.3833 1.3051
H2C H 0.3799 0.1167 0.6949
C5F C 0.4240(4) 0.8251(3) 0.7914(8)
C5E C 1.0760(4) 0.3251(3) 1.2086(8)
C5C C 0.4240(4) 0.1749(3) 0.7914(8)
H3F H 0.3771 0.8112 0.7947
H3E H 1.1229 0.3112 1.2053
H3C H 0.3771 0.1888 0.7947
C6F C 0.4915(3) 0.8026(2) 0.8458(6)
C6E C 1.0085(3) 0.3026(2) 1.1542(6)
C6C C 0.4915(3) 0.1974(2) 0.8458(6)
H4F H 0.4900 0.7734 0.8850
H4E H 1.0100 0.2734 1.1150
H4C H 0.4900 0.2266 0.8850
C7F C 0.6337(3) 0.79800(17) 0.9019(4)
C7E C 0.8663(3) 0.29800(17) 1.0981(4)
C7C C 0.6337(3) 0.20200(17) 0.9019(4)
C8F C 0.4981(3) 0.93409(18) 0.6528(5)
C8E C 1.0019(3) 0.43409(18) 1.3472(5)
C8C C 0.4981(3) 0.06591(18) 0.6528(5)
C9E C 0.7111(3) 0.32714(16) 0.6773(4)
C9A C 0.2889(3) 0.67286(16) 0.3227(4)
C9D C 0.2889(3) 0.32714(16) 0.3227(4)
C10E C 0.6668(3) 0.36832(15) 0.6642(4)
C10A C 0.3332(3) 0.63168(15) 0.3358(4)
C10D C 0.3332(3) 0.36832(15) 0.3358(4)
H5E H 0.6471 0.3794 0.7323
H5A H 0.3529 0.6206 0.2677
H5D H 0.3529 0.3794 0.2677
C11E C 0.6523(3) 0.39282(16) 0.5498(4)
C11A C 0.3477(3) 0.60718(16) 0.4502(4)
C11D C 0.3477(3) 0.39282(16) 0.4502(4)
C12E C 0.6842(3) 0.3769(2) 0.4495(5)
C12A C 0.3158(3) 0.6231(2) 0.5505(5)
C12D C 0.3158(3) 0.3769(2) 0.5505(5)
H6E H 0.6759 0.3935 0.3735
H6A H 0.3241 0.6065 0.6265
H6D H 0.3241 0.3935 0.6265
C13E C 0.7283(4) 0.3363(2) 0.4634(5)
C13A C 0.2717(4) 0.6637(2) 0.5366(5)
C13D C 0.2717(4) 0.3363(2) 0.5366(5)
H7E H 0.7490 0.3256 0.3960
H7A H 0.2510 0.6744 0.6040
H7D H 0.2510 0.3256 0.6040
C14E C 0.7417(3) 0.31150(18) 0.5756(4)
C14A C 0.2583(3) 0.68850(18) 0.4244(4)
C14D C 0.2583(3) 0.31150(18) 0.4244(4)
H8E H 0.7714 0.2842 0.5837
H8A H 0.2286 0.7158 0.4163
H8D H 0.2286 0.2842 0.4163
C15E C 0.7243(2) 0.29934(16) 0.7993(4)
C15A C 0.2757(2) 0.70066(16) 0.2007(4)
C15D C 0.2757(2) 0.29934(16) 0.2007(4)
C16E C 0.5991(3) 0.43491(16) 0.5335(4)
C16A C 0.4009(3) 0.56509(16) 0.4665(4)
C16D C 0.4009(3) 0.43491(16) 0.4665(4)
C17E C 0.9271(3) 0.1644(2) 0.8380(5)
C17A C 0.0729(3) 0.8356(2) 0.1620(5)
C17D C 0.0729(3) 0.1644(2) 0.1620(5)
C18E C 0.9949(4) 0.1456(4) 0.7972(8)
C18A C 0.0051(4) 0.8544(4) 0.2028(8)
C18D C 0.0051(4) 0.1456(4) 0.2028(8)
H9E H 1.0385 0.1469 0.8667
H9A H -0.0385 0.8531 0.1333
H9D H -0.0385 0.1469 0.1333
H10E H 0.9856 0.1134 0.7704
H10A H 0.0144 0.8866 0.2296
H10D H 0.0144 0.1134 0.2296
H11E H 1.0051 0.1641 0.7279
H11A H -0.0051 0.8359 0.2721
H11D H -0.0051 0.1641 0.2721
N1E N 0.8759(3) 0.17805(16) 0.8713(4)
N1A N 0.1241(3) 0.82195(16) 0.1287(4)
N1D N 0.1241(3) 0.17805(16) 0.1287(4)
O1F O 0.62684(18) 0.76208(12) 0.9656(3)
O1E O 0.87316(18) 0.26208(12) 1.0344(3)
O1C O 0.62684(18) 0.23792(12) 0.9656(3)
O1A O 0.12684(18) 0.73792(12) -0.0344(3)
O1D O 0.12684(18) 0.26208(12) -0.0344(3)
O2F O 0.69676(19) 0.81531(11) 0.8851(3)
O2E O 0.80324(19) 0.31531(11) 1.1149(3)
O2C O 0.69676(19) 0.18469(11) 0.8851(3)
O2G O 0.30324(19) 0.81531(11) 0.1149(3)
O2B O 0.30324(19) 0.18469(11) 0.1149(3)
O3F O 0.5629(2) 0.95084(13) 0.6515(4)
O3E O 0.9371(2) 0.45084(13) 1.3485(4)
O3C O 0.5629(2) 0.04916(13) 0.6515(4)
O3C_2 O 0.5629(2) 1.04916(13) 0.6515(4)
O4F O 0.4345(2) 0.95065(13) 0.5987(4)
O4E O 1.0655(2) 0.45065(13) 1.4013(4)
O4C O 0.4345(2) 0.04935(13) 0.5987(4)
O4A O 0.9345(2) 0.54935(13) 1.5987(4)
O4D O 0.9345(2) 0.45065(13) 1.5987(4)
O4G O 0.5655(2) 0.95065(13) 0.4013(4)
O4B O 0.5655(2) 1.04935(13) 0.4013(4)
O5E O 0.76366(19) 0.26255(11) 0.8033(3)
O5A O 0.23634(19) 0.73745(11) 0.1967(3)
O5D O 0.23634(19) 0.26255(11) 0.1967(3)
O6E O 0.69631(19) 0.31562(11) 0.8888(3)
O6A O 0.30369(19) 0.68438(11) 0.1112(3)
O6D O 0.30369(19) 0.31562(11) 0.1112(3)
O6F O 0.80369(19) 0.81562(11) 1.1112(3)
O6C O 0.80369(19) 0.18438(11) 1.1112(3)
O6G O 0.19631(19) 0.81562(11) -0.1112(3)
O6B O 0.19631(19) 0.18438(11) -0.1112(3)
O7E O 0.5788(2) 0.45054(12) 0.6301(3)
O7A O 0.4212(2) 0.54946(12) 0.3699(3)
O7D O 0.4212(2) 0.45054(12) 0.3699(3)
O8E O 0.5788(2) 0.45095(11) 0.4228(3)
O8A O 0.4212(2) 0.54905(11) 0.5772(3)
O8D O 0.4212(2) 0.45095(11) 0.5772(3)
O9A O 0.4999(4) 0.5000 0.1788(5)
H12A H 0.5380 0.5000 0.1374
H13A H 0.4626 0.5000 0.1106
O10C O 0.7030(4) 1.0000 0.5718(9)
H14C H 0.7192 1.0000 0.5058
H15C H 0.7378 1.0000 0.6344
O11 O 0.3966(16) 0.4413(9) 0.986(2)
O13 O 0.2343(11) 0.5000 0.3263(18)
O14 O 1.0000 0.7978(10) 0.5000
O16 O 0.0000 0.5000 0.0000
O12? O 0.3276(17) 0.4340(10) 0.981(2)
O15? O 0.960(2) 0.7178(14) 0.490(4)
O17? O 1.0000 0.7620(13) 0.5000
loop_
_geom_bond_atom_site_label_1
_geom_bond_atom_site_label_2
_geom_bond_site_symmetry_1
_geom_bond_site_symmetry_2
Cu1 N1 1_555 1_555
Cu2 O7 1_555 1_555
Cu3 O3 1_555 1_555
C1 C2 1_555 1_555
C2 H1 1_555 1_555
C3 C2 1_555 1_555
C4 C3 1_555 1_555
H2 C4 1_555 1_555
C5 C4 1_555 1_555
H3 C5 1_555 1_555
C6 C1 1_555 1_555
H4 C6 1_555 1_555
C7 C1 1_555 1_555
C8 C3 1_555 1_555
C9 C10 1_555 1_555
C10 H5 1_555 1_555
C11 C10 1_555 1_555
C12 C11 1_555 1_555
H6 C12 1_555 1_555
C13 C12 1_555 1_555
H7 C13 1_555 1_555
C14 C9 1_555 1_555
H8 C14 1_555 1_555
C15 C9 1_555 1_555
C16 C11 1_555 1_555
C17 C18 1_555 1_555
C18 H9 1_555 1_555
H10 C18 1_555 1_555
H11 C18 1_555 1_555
N1 C17 1_555 1_555
O1 Cu1 1_555 1_555
O2 C7 1_555 1_555
O3 C8 1_555 1_555
O4 C8 1_555 1_555
O5 Cu1 1_555 1_555
O6 C15 1_555 1_555
O7 C16 1_555 1_555
O8 C16 1_555 1_555
O9 Cu2 1_555 1_555
H12 O9 1_555 1_555
H13 O9 1_555 1_555
O10 Cu3 1_555 1_555
H14 O10 1_555 1_555
H15 O10 1_555 1_555
Cu1E Cu1C 1_555 1_555
Cu1A Cu1G 1_555 1_555
Cu1D Cu1B 1_555 1_555
Cu1F Cu1 1_555 1_555
Cu1C O1C 1_555 1_555
Cu1G O6A 1_555 1_555
Cu1B O6D 1_555 1_555
Cu2A Cu2 1_555 1_555
Cu3C Cu3B 1_555 1_555
Cu3A Cu3 1_555 1_555
Cu3B O4F 1_555 1_555
Cu3C_2 Cu3B_2 1_555 1_555
Cu3B_2 O4C 1_555 1_555
C1F C2F 1_555 1_555
C1E C2E 1_555 1_555
C1C C2C 1_555 1_555
C2F H1F 1_555 1_555
C2E H1E 1_555 1_555
C2C H1C 1_555 1_555
C3F C2F 1_555 1_555
C3E C2E 1_555 1_555
C3C C2C 1_555 1_555
C4F C3F 1_555 1_555
C4E C3E 1_555 1_555
C4C C3C 1_555 1_555
H2F C4F 1_555 1_555
H2E C4E 1_555 1_555
H2C C4C 1_555 1_555
C5F C4F 1_555 1_555
C5E C4E 1_555 1_555
C5C C4C 1_555 1_555
H3F C5F 1_555 1_555
H3E C5E 1_555 1_555
H3C C5C 1_555 1_555
C6F C1F 1_555 1_555
C6E C1E 1_555 1_555
C6C C1C 1_555 1_555
H4F C6F 1_555 1_555
H4E C6E 1_555 1_555
H4C C6C 1_555 1_555
C7F C1F 1_555 1_555
C7E C1E 1_555 1_555
C7C C1C 1_555 1_555
C8F C3F 1_555 1_555
C8E C3E 1_555 1_555
C8C C3C 1_555 1_555
C9E C10E 1_555 1_555
C9A C10A 1_555 1_555
C9D C10D 1_555 1_555
C10E H5E 1_555 1_555
C10A H5A 1_555 1_555
C10D H5D 1_555 1_555
C11E C10E 1_555 1_555
C11A C10A 1_555 1_555
C11D C10D 1_555 1_555
C12E C11E 1_555 1_555
C12A C11A 1_555 1_555
C12D C11D 1_555 1_555
H6E C12E 1_555 1_555
H6A C12A 1_555 1_555
H6D C12D 1_555 1_555
C13E C12E 1_555 1_555
C13A C12A 1_555 1_555
C13D C12D 1_555 1_555
H7E C13E 1_555 1_555
H7A C13A 1_555 1_555
H7D C13D 1_555 1_555
C14E C9E 1_555 1_555
C14A C9A 1_555 1_555
C14D C9D 1_555 1_555
H8E C14E 1_555 1_555
H8A C14A 1_555 1_555
H8D C14D 1_555 1_555
C15E C9E 1_555 1_555
C15A C9A 1_555 1_555
C15D C9D 1_555 1_555
C16E C11E 1_555 1_555
C16A C11A 1_555 1_555
C16D C11D 1_555 1_555
C17E C18E 1_555 1_555
C17A C18A 1_555 1_555
C17D C18D 1_555 1_555
C18E H9E 1_555 1_555
C18A H9A 1_555 1_555
C18D H9D 1_555 1_555
H10E C18E 1_555 1_555
H10A C18A 1_555 1_555
H10D C18D 1_555 1_555
H11E C18E 1_555 1_555
H11A C18A 1_555 1_555
H11D C18D 1_555 1_555
N1E Cu1E 1_555 1_555
N1A Cu1A 1_555 1_555
N1D Cu1D 1_555 1_555
O1F Cu1F 1_555 1_555
O1E Cu1E 1_555 1_555
O1C C7C 1_555 1_555
O1A Cu1A 1_555 1_555
O1D Cu1D 1_555 1_555
O2F Cu1 1_555 1_555
O2E Cu1C 1_555 1_555
O2C Cu1E 1_555 1_555
O2G Cu1A 1_555 1_555
O2B Cu1D 1_555 1_555
O3F Cu3C 1_555 1_555
O3E Cu3 1_555 1_555
O3C Cu3C_2 1_555 1_555
O3C_2 Cu3C 1_555 1_555
O4F C8F 1_555 1_555
O4E Cu3A 1_555 1_555
O4C C8C 1_555 1_555
O4A Cu3 1_555 1_555
O4D Cu3 1_555 1_555
O4G Cu3C 1_555 1_555
O4B Cu3C 1_555 1_555
O5E Cu1E 1_555 1_555
O5A Cu1A 1_555 1_555
O5D Cu1D 1_555 1_555
O6E Cu1C 1_555 1_555
O6A C15A 1_555 1_555
O6D C15D 1_555 1_555
O6F Cu1 1_555 1_555
O6C Cu1E 1_555 1_555
O6G Cu1A 1_555 1_555
O6B Cu1D 1_555 1_555
O7E Cu2 1_555 1_555
O7A Cu2A 1_555 1_555
O7D Cu2A 1_555 1_555
O8E Cu2A 1_555 1_555
O8A Cu2 1_555 1_555
O8D Cu2 1_555 1_555
O9A Cu2A 1_555 1_555
H12A O9A 1_555 1_555
H13A O9A 1_555 1_555
O10C Cu3C 1_555 1_555
H14C O10C 1_555 1_555
H15C O10C 1_555 1_555
C5 C6 1_555 1_555
C7 O1 1_555 1_555
C13 C14 1_555 1_555
C15 O5 1_555 1_555
O2 Cu1F 1_555 1_555
O4 Cu3A 1_555 1_555
O6 Cu1F 1_555 1_555
O8 Cu2A 1_555 1_555
C5F C6F 1_555 1_555
C5E C6E 1_555 1_555
C5C C6C 1_555 1_555
C7F O1F 1_555 1_555
C7F O2F 1_555 1_555
C7E O1E 1_555 1_555
C7E O2E 1_555 1_555
C7C O2C 1_555 1_555
C8F O3F 1_555 1_555
C8E O3E 1_555 1_555
C8E O4E 1_555 1_555
C8C O3C 1_555 1_555
C13E C14E 1_555 1_555
C13A C14A 1_555 1_555
C13D C14D 1_555 1_555
C15E O5E 1_555 1_555
C15E O6E 1_555 1_555
C15A O5A 1_555 1_555
C15D O5D 1_555 1_555
C16E O7E 1_555 1_555
C16E O8E 1_555 1_555
C16A O7A 1_555 1_555
C16A O8A 1_555 1_555
C16D O7D 1_555 1_555
C16D O8D 1_555 1_555
C17E N1E 1_555 1_555
C17A N1A 1_555 1_555
C17D N1D 1_555 1_555

#END
