
#######################################################################
#
#                 Cambridge Crystallographic Data Centre
#                                CCDC 
#
#######################################################################
#
# If this CIF has been generated from an entry in the Cambridge 
# Structural Database, then it will include bibliographic, chemical, 
# crystal, experimental, refinement or atomic coordinate data resulting 
# from the CCDC's data processing and validation procedures.
#
#######################################################################

data_XUDPET
_chemical_name_common            DUT-73_a
_chemical_formula_moiety         '(C148 H102 Cu8 N12 O38)n'
_chemical_name_systematic        
"catena-[tetrakis(\m-4,4',4'',4'''-(1,3-phenylenedinitrilo)tetrabenzoato)-(\m-,3-bis(1H-imidazol-1-yl)-benzene)-hexa-aqua-octa-copper unknown solvate]"
_symmetry_cell_setting           tetragonal
_symmetry_space_group_name_H-M   'P 4/m n c'
_symmetry_Int_Tables_number      128
_space_group_name_Hall           '-P 4 2n'
loop_
_symmetry_equiv_pos_site_id
_symmetry_equiv_pos_as_xyz
1 x,y,z
2 -x,-y,z
3 -y,x,z
4 y,-x,z
5 1/2-x,1/2+y,1/2-z
6 1/2+x,1/2-y,1/2-z
7 1/2+y,1/2+x,1/2-z
8 1/2-y,1/2-x,1/2-z
9 -x,-y,-z
10 x,y,-z
11 y,-x,-z
12 -y,x,-z
13 1/2+x,1/2-y,1/2+z
14 1/2-x,1/2+y,1/2+z
15 1/2-y,1/2-x,1/2+z
16 1/2+y,1/2+x,1/2+z
_cell_length_a                   26.700(4)
_cell_length_b                   26.700(4)
_cell_length_c                   26.720(5)
_cell_angle_alpha                90
_cell_angle_beta                 90
_cell_angle_gamma                90
_cell_volume                     19048.4
_exptl_crystal_colour            blue
_exptl_crystal_description       stick
_cell_formula_units_Z            2
_chemical_properties_physical    Moisture-sensitive
loop_
_atom_site_label
_atom_site_type_symbol
_atom_site_fract_x
_atom_site_fract_y
_atom_site_fract_z
Cu1 Cu 1.0000 1.0000 0.149818(15)
Cu2 Cu 1.0000 1.0000 0.249568(13)
Cu3 Cu 0.522014(11) 1.044143(16) 0.0000
N1 N 0.71110(6) 0.89267(8) 0.19566(8)
O1 O 0.93090(4) 0.97499(5) 0.24042(5)
O2 O 0.92942(4) 0.98141(6) 0.15649(5)
O3 O 0.56556(7) 1.01475(9) 0.05181(8)
O4 O 0.52840(7) 0.93887(9) 0.05125(8)
O5 O 0.55765(13) 1.11685(13) 0.0000
O6 O 1.0131(10) 0.9863(14) 0.0717(2)
C1 C 0.90977(6) 0.97141(6) 0.19837(7)
C2 C 0.85694(6) 0.95300(7) 0.19782(8)
C3 C 0.83164(7) 0.94726(10) 0.15312(8)
H1 H 0.8470 0.9561 0.1232
C4 C 0.78288(8) 0.92814(11) 0.15283(9)
H2 H 0.7659 0.9245 0.1227
C5 C 0.76010(7) 0.91485(9) 0.19633(9)
C6 C 0.78491(8) 0.92064(11) 0.24112(9)
H3 H 0.7693 0.9115 0.2709
C7 C 0.83287(7) 0.93994(9) 0.24200(9)
H4 H 0.8492 0.9442 0.2724
C8 C 0.67397(7) 0.91192(10) 0.16429(10)
C9 C 0.67050(8) 0.96264(10) 0.15423(11)
H5 H 0.6937 0.9843 0.1687
C10 C 0.63431(8) 0.98199(10) 0.12387(11)
H6 H 0.6326 1.0164 0.1185
C11 C 0.59955(7) 0.94987(10) 0.10073(10)
C12 C 0.60210(8) 0.89942(11) 0.11170(11)
H7 H 0.5783 0.8779 0.0981
C13 C 0.63901(9) 0.87994(11) 0.14225(12)
H8 H 0.6406 0.8456 0.1481
C14 C 0.56136(8) 0.96972(13) 0.06532(12)
C15 C 0.70315(8) 0.84824(9) 0.22343(10)
C16 C 0.74018(10) 0.81095(12) 0.22466(17)
H9 H 0.7703 0.8160 0.2080
C17 C 0.65983(9) 0.84017(9) 0.2500
H10 H 0.6352 0.8648 0.2500
C18 C 0.73237(12) 0.76763(12) 0.2500
H11 H 0.7570 0.7430 0.2500
N2 N 1.0068(4) 1.0009(6) 0.32820(12)
C19 C 0.9671(3) 1.0029(6) 0.3635(2)
H12 H 0.9333 0.9980 0.3565
N3 N 0.9879(3) 1.0136(5) 0.41113(15)
C20 C 1.0406(3) 1.0182(6) 0.4054(3)
H13 H 1.0635 1.0252 0.4307
C21 C 1.0523(3) 1.0104(7) 0.3541(3)
H14 H 1.0841 1.0113 0.3400
C22 C 0.9608(4) 1.0120(12) 0.4556(2)
C23 C 0.9866(5) 1.007(2) 0.5000
H15 H 1.0249 1.0083 0.5000
C24 C 0.9095(4) 1.0185(11) 0.4551(3)
H16 H 0.8927 1.0249 0.4254
C25 C 0.8836(5) 1.0151(15) 0.5000
H17 H 0.8491 1.0070 0.5000
N1G N 0.60733(8) 0.78890(6) 0.30434(8)
O1G O 0.52501(5) 0.56910(4) 0.25958(5)
O2G O 0.51859(6) 0.57058(4) 0.34351(5)
O3G O 0.48525(9) 0.93444(7) 0.44819(8)
O4G O 0.56113(9) 0.97160(7) 0.44875(8)
C1G C 0.52859(6) 0.59023(6) 0.30163(7)
C2G C 0.54700(7) 0.64306(6) 0.30218(8)
C3G C 0.55274(10) 0.66836(7) 0.34688(8)
H1G H 0.5439 0.6530 0.3768
C4G C 0.57186(11) 0.71712(8) 0.34717(9)
H2G H 0.5755 0.7341 0.3773
C5G C 0.58515(9) 0.73990(7) 0.30367(9)
C6G C 0.57936(11) 0.71509(8) 0.25888(9)
H3G H 0.5885 0.7307 0.2291
C7G C 0.56006(9) 0.66713(7) 0.25800(9)
H4G H 0.5558 0.6508 0.2276
C8G C 0.58808(10) 0.82603(7) 0.33571(10)
C9G C 0.53736(10) 0.82950(8) 0.34577(11)
H5G H 0.5157 0.8063 0.3313
C10G C 0.51801(10) 0.86569(8) 0.37613(11)
H6G H 0.4836 0.8674 0.3815
C11G C 0.55013(10) 0.90045(7) 0.39927(10)
C12G C 0.60058(11) 0.89790(8) 0.38830(11)
H7G H 0.6221 0.9217 0.4019
C13G C 0.62006(11) 0.86099(9) 0.35775(12)
H8G H 0.6544 0.8594 0.3519
C14G C 0.53028(13) 0.93864(8) 0.43468(12)
C15G C 0.65176(9) 0.79685(8) 0.27657(10)
C16G C 0.68905(12) 0.75982(10) 0.27534(17)
H9G H 0.6840 0.7297 0.2920
O6A O 0.9869(10) 1.0137(14) 0.0717(2)
O6B O 1.0137(14) 1.0131(10) 0.0717(2)
O6C O 0.9863(14) 0.9869(10) 0.0717(2)
N2A N 0.9932(4) 0.9991(6) 0.32820(12)
C19A C 1.0329(3) 0.9971(6) 0.3635(2)
H12A H 1.0667 1.0020 0.3565
N3A N 1.0121(3) 0.9864(5) 0.41113(15)
C20A C 0.9594(3) 0.9818(6) 0.4054(3)
H13A H 0.9365 0.9748 0.4307
C21A C 0.9477(3) 0.9896(7) 0.3541(3)
H14A H 0.9159 0.9887 0.3400
C22A C 1.0392(4) 0.9880(12) 0.4556(2)
C23A C 1.0134(5) 0.993(2) 0.5000
H15A H 0.9751 0.9917 0.5000
C24A C 1.0905(4) 0.9815(11) 0.4551(3)
H16A H 1.1073 0.9751 0.4254
C25A C 1.1164(5) 0.9849(15) 0.5000
H17A H 1.1509 0.9930 0.5000
N2B N 0.9991(6) 1.0068(4) 0.32820(12)
C19B C 0.9971(6) 0.9671(3) 0.3635(2)
H12B H 1.0020 0.9333 0.3565
N3B N 0.9864(5) 0.9879(3) 0.41113(15)
C20B C 0.9818(6) 1.0406(3) 0.4054(3)
H13B H 0.9748 1.0635 0.4307
C21B C 0.9896(7) 1.0523(3) 0.3541(3)
H14B H 0.9887 1.0841 0.3400
C22B C 0.9880(12) 0.9608(4) 0.4556(2)
C23B C 0.993(2) 0.9866(5) 0.5000
H15B H 0.9917 1.0249 0.5000
C24B C 0.9815(11) 0.9095(4) 0.4551(3)
H16B H 0.9751 0.8927 0.4254
C25B C 0.9849(15) 0.8836(5) 0.5000
H17B H 0.9930 0.8491 0.5000
N2C N 1.0009(6) 0.9932(4) 0.32820(12)
C19C C 1.0029(6) 1.0329(3) 0.3635(2)
H12C H 0.9980 1.0667 0.3565
N3C N 1.0136(5) 1.0121(3) 0.41113(15)
C20C C 1.0182(6) 0.9594(3) 0.4054(3)
H13C H 1.0252 0.9365 0.4307
C21C C 1.0104(7) 0.9477(3) 0.3541(3)
H14C H 1.0113 0.9159 0.3400
C22C C 1.0120(12) 1.0392(4) 0.4556(2)
C23C C 1.007(2) 1.0134(5) 0.5000
H15C H 1.0083 0.9751 0.5000
C24C C 1.0185(11) 1.0905(4) 0.4551(3)
H16C H 1.0249 1.1073 0.4254
C25C C 1.0151(15) 1.1164(5) 0.5000
H17C H 1.0070 1.1509 0.5000
N2H N 0.9932(4) 0.9991(6) 0.67180(12)
C19H C 1.0329(3) 0.9971(6) 0.6365(2)
H12H H 1.0667 1.0020 0.6435
N3H N 1.0121(3) 0.9864(5) 0.58887(15)
C20H C 0.9594(3) 0.9818(6) 0.5946(3)
H13H H 0.9365 0.9748 0.5693
C21H C 0.9477(3) 0.9896(7) 0.6459(3)
H14H H 0.9159 0.9887 0.6600
C22H C 1.0392(4) 0.9880(12) 0.5444(2)
C24H C 1.0905(4) 0.9815(11) 0.5449(3)
H16H H 1.1073 0.9751 0.5746
N2I N 1.0068(4) 1.0009(6) 0.67180(12)
C19I C 0.9671(3) 1.0029(6) 0.6365(2)
H12I H 0.9333 0.9980 0.6435
N3I N 0.9879(3) 1.0136(5) 0.58887(15)
C20I C 1.0406(3) 1.0182(6) 0.5946(3)
H13I H 1.0635 1.0252 0.5693
C21I C 1.0523(3) 1.0104(7) 0.6459(3)
H14I H 1.0841 1.0113 0.6600
C22I C 0.9608(4) 1.0120(12) 0.5444(2)
C24I C 0.9095(4) 1.0185(11) 0.5449(3)
H16I H 0.8927 1.0249 0.5746
N2J N 1.0009(6) 0.9932(4) 0.67180(12)
C19J C 1.0029(6) 1.0329(3) 0.6365(2)
H12J H 0.9980 1.0667 0.6435
N3J N 1.0136(5) 1.0121(3) 0.58887(15)
C20J C 1.0182(6) 0.9594(3) 0.5946(3)
H13J H 1.0252 0.9365 0.5693
C21J C 1.0104(7) 0.9477(3) 0.6459(3)
H14J H 1.0113 0.9159 0.6600
C22J C 1.0120(12) 1.0392(4) 0.5444(2)
C24J C 1.0185(11) 1.0905(4) 0.5449(3)
H16J H 1.0249 1.1073 0.5746
N2K N 0.9991(6) 1.0068(4) 0.67180(12)
C19K C 0.9971(6) 0.9671(3) 0.6365(2)
H12K H 1.0020 0.9333 0.6435
N3K N 0.9864(5) 0.9879(3) 0.58887(15)
C20K C 0.9818(6) 1.0406(3) 0.5946(3)
H13K H 0.9748 1.0635 0.5693
C21K C 0.9896(7) 1.0523(3) 0.6459(3)
H14K H 0.9887 1.0841 0.6600
C22K C 0.9880(12) 0.9608(4) 0.5444(2)
C24K C 0.9815(11) 0.9095(4) 0.5449(3)
H16K H 0.9751 0.8927 0.5746
Cu3A Cu 0.477986(11) 0.955857(16) 0.0000
N1A N 0.28890(6) 1.10733(8) 0.19566(8)
O1A O 0.06910(4) 1.02501(5) 0.24042(5)
O2A O 0.07058(4) 1.01859(6) 0.15649(5)
O3A O 0.43444(7) 0.98525(9) 0.05181(8)
O4A O 0.47160(7) 1.06113(9) 0.05125(8)
O5A O 0.44235(13) 0.88315(13) 0.0000
C1A C 0.09023(6) 1.02859(6) 0.19837(7)
C2A C 0.14306(6) 1.04700(7) 0.19782(8)
C3A C 0.16836(7) 1.05274(10) 0.15312(8)
H1A H 0.1530 1.0439 0.1232
C4A C 0.21712(8) 1.07186(11) 0.15283(9)
H2A H 0.2341 1.0755 0.1227
C5A C 0.23990(7) 1.08515(9) 0.19633(9)
C6A C 0.21509(8) 1.07936(11) 0.24112(9)
H3A H 0.2307 1.0885 0.2709
C7A C 0.16713(7) 1.06006(9) 0.24200(9)
H4A H 0.1508 1.0558 0.2724
C8A C 0.32603(7) 1.08808(10) 0.16429(10)
C9A C 0.32950(8) 1.03736(10) 0.15423(11)
H5A H 0.3063 1.0157 0.1687
C10A C 0.36569(8) 1.01801(10) 0.12387(11)
H6A H 0.3674 0.9836 0.1185
C11A C 0.40045(7) 1.05013(10) 0.10073(10)
C12A C 0.39790(8) 1.10058(11) 0.11170(11)
H7A H 0.4217 1.1221 0.0981
C13A C 0.36099(9) 1.12006(11) 0.14225(12)
H8A H 0.3594 1.1544 0.1481
C14A C 0.43864(8) 1.03028(13) 0.06532(12)
C15A C 0.29685(8) 1.15176(9) 0.22343(10)
C16A C 0.25982(10) 1.18905(12) 0.22466(17)
H9A H 0.2297 1.1840 0.2080
C17A C 0.34017(9) 1.15983(9) 0.2500
H10A H 0.3648 1.1352 0.2500
C18A C 0.26763(12) 1.23237(12) 0.2500
H11A H 0.2430 1.2570 0.2500
N1F N 0.39267(8) 1.21110(6) 0.30434(8)
O1F O 0.47499(5) 1.43090(4) 0.25958(5)
O2F O 0.48141(6) 1.42942(4) 0.34351(5)
O3F O 0.51475(9) 1.06556(7) 0.44819(8)
O4F O 0.43887(9) 1.02840(7) 0.44875(8)
C1F C 0.47141(6) 1.40977(6) 0.30163(7)
C2F C 0.45300(7) 1.35694(6) 0.30218(8)
C3F C 0.44726(10) 1.33164(7) 0.34688(8)
H1F H 0.4561 1.3470 0.3768
C4F C 0.42814(11) 1.28288(8) 0.34717(9)
H2F H 0.4245 1.2659 0.3773
C5F C 0.41485(9) 1.26010(7) 0.30367(9)
C6F C 0.42064(11) 1.28491(8) 0.25888(9)
H3F H 0.4115 1.2693 0.2291
C7F C 0.43994(9) 1.33287(7) 0.25800(9)
H4F H 0.4442 1.3492 0.2276
C8F C 0.41192(10) 1.17397(7) 0.33571(10)
C9F C 0.46264(10) 1.17050(8) 0.34577(11)
H5F H 0.4843 1.1937 0.3313
C10F C 0.48199(10) 1.13431(8) 0.37613(11)
H6F H 0.5164 1.1326 0.3815
C11F C 0.44987(10) 1.09955(7) 0.39927(10)
C12F C 0.39942(11) 1.10210(8) 0.38830(11)
H7F H 0.3779 1.0783 0.4019
C13F C 0.37994(11) 1.13901(9) 0.35775(12)
H8F H 0.3456 1.1406 0.3519
C14F C 0.46972(13) 1.06136(8) 0.43468(12)
C15F C 0.34824(9) 1.20315(8) 0.27657(10)
C16F C 0.31095(12) 1.24018(10) 0.27534(17)
H9F H 0.3160 1.2703 0.2920
Cu3C Cu 1.044143(16) 1.477986(11) 0.0000
N1C N 0.89267(8) 1.28890(6) 0.19566(8)
O1C O 0.97499(5) 1.06910(4) 0.24042(5)
O2C O 0.98141(6) 1.07058(4) 0.15649(5)
O3C O 1.01475(9) 1.43444(7) 0.05181(8)
O4C O 0.93887(9) 1.47160(7) 0.05125(8)
O5C O 1.11685(13) 1.44235(13) 0.0000
C1C C 0.97141(6) 1.09023(6) 0.19837(7)
C2C C 0.95300(7) 1.14306(6) 0.19782(8)
C3C C 0.94726(10) 1.16836(7) 0.15312(8)
H1C H 0.9561 1.1530 0.1232
C4C C 0.92814(11) 1.21712(8) 0.15283(9)
H2C H 0.9245 1.2341 0.1227
C5C C 0.91485(9) 1.23990(7) 0.19633(9)
C6C C 0.92064(11) 1.21509(8) 0.24112(9)
H3C H 0.9115 1.2307 0.2709
C7C C 0.93994(9) 1.16713(7) 0.24200(9)
H4C H 0.9442 1.1508 0.2724
C8C C 0.91192(10) 1.32603(7) 0.16429(10)
C9C C 0.96264(10) 1.32950(8) 0.15423(11)
H5C H 0.9843 1.3063 0.1687
C10C C 0.98199(10) 1.36569(8) 0.12387(11)
H6C H 1.0164 1.3674 0.1185
C11C C 0.94987(10) 1.40045(7) 0.10073(10)
C12C C 0.89942(11) 1.39790(8) 0.11170(11)
H7C H 0.8779 1.4217 0.0981
C13C C 0.87994(11) 1.36099(9) 0.14225(12)
H8C H 0.8456 1.3594 0.1481
C14C C 0.96972(13) 1.43864(8) 0.06532(12)
C15C C 0.84824(9) 1.29685(8) 0.22343(10)
C16C C 0.81095(12) 1.25982(10) 0.22466(17)
H9C H 0.8160 1.2297 0.2080
C17C C 0.84017(9) 1.34017(9) 0.2500
H10C H 0.8648 1.3648 0.2500
C18C C 0.76763(12) 1.26763(12) 0.2500
H11C H 0.7430 1.2430 0.2500
N1D N 0.78890(6) 1.39267(8) 0.30434(8)
O1D O 0.56910(4) 1.47499(5) 0.25958(5)
O2D O 0.57058(4) 1.48141(6) 0.34351(5)
O3D O 0.93444(7) 1.51475(9) 0.44819(8)
O4D O 0.97160(7) 1.43887(9) 0.44875(8)
C1D C 0.59023(6) 1.47141(6) 0.30163(7)
C2D C 0.64306(6) 1.45300(7) 0.30218(8)
C3D C 0.66836(7) 1.44726(10) 0.34688(8)
H1D H 0.6530 1.4561 0.3768
C4D C 0.71712(8) 1.42814(11) 0.34717(9)
H2D H 0.7341 1.4245 0.3773
C5D C 0.73990(7) 1.41485(9) 0.30367(9)
C6D C 0.71509(8) 1.42064(11) 0.25888(9)
H3D H 0.7307 1.4115 0.2291
C7D C 0.66713(7) 1.43994(9) 0.25800(9)
H4D H 0.6508 1.4442 0.2276
C8D C 0.82603(7) 1.41192(10) 0.33571(10)
C9D C 0.82950(8) 1.46264(10) 0.34577(11)
H5D H 0.8063 1.4843 0.3313
C10D C 0.86569(8) 1.48199(10) 0.37613(11)
H6D H 0.8674 1.5164 0.3815
C11D C 0.90045(7) 1.44987(10) 0.39927(10)
C12D C 0.89790(8) 1.39942(11) 0.38830(11)
H7D H 0.9217 1.3779 0.4019
C13D C 0.86099(9) 1.37994(11) 0.35775(12)
H8D H 0.8594 1.3456 0.3519
C14D C 0.93864(8) 1.46972(13) 0.43468(12)
C15D C 0.79685(8) 1.34824(9) 0.27657(10)
C16D C 0.75982(10) 1.31095(12) 0.27534(17)
H9D H 0.7297 1.3160 0.2920
Cu3B Cu 0.955857(16) 0.522014(11) 0.0000
N1B N 1.10733(8) 0.71110(6) 0.19566(8)
O1B O 1.02501(5) 0.93090(4) 0.24042(5)
O2B O 1.01859(6) 0.92942(4) 0.15649(5)
O3B O 0.98525(9) 0.56556(7) 0.05181(8)
O4B O 1.06113(9) 0.52840(7) 0.05125(8)
O5B O 0.88315(13) 0.55765(13) 0.0000
C1B C 1.02859(6) 0.90977(6) 0.19837(7)
C2B C 1.04700(7) 0.85694(6) 0.19782(8)
C3B C 1.05274(10) 0.83164(7) 0.15312(8)
H1B H 1.0439 0.8470 0.1232
C4B C 1.07186(11) 0.78288(8) 0.15283(9)
H2B H 1.0755 0.7659 0.1227
C5B C 1.08515(9) 0.76010(7) 0.19633(9)
C6B C 1.07936(11) 0.78491(8) 0.24112(9)
H3B H 1.0885 0.7693 0.2709
C7B C 1.06006(9) 0.83287(7) 0.24200(9)
H4B H 1.0558 0.8492 0.2724
C8B C 1.08808(10) 0.67397(7) 0.16429(10)
C9B C 1.03736(10) 0.67050(8) 0.15423(11)
H5B H 1.0157 0.6937 0.1687
C10B C 1.01801(10) 0.63431(8) 0.12387(11)
H6B H 0.9836 0.6326 0.1185
C11B C 1.05013(10) 0.59955(7) 0.10073(10)
C12B C 1.10058(11) 0.60210(8) 0.11170(11)
H7B H 1.1221 0.5783 0.0981
C13B C 1.12006(11) 0.63901(9) 0.14225(12)
H8B H 1.1544 0.6406 0.1481
C14B C 1.03028(13) 0.56136(8) 0.06532(12)
C15B C 1.15176(9) 0.70315(8) 0.22343(10)
C16B C 1.18905(12) 0.74018(10) 0.22466(17)
H9B H 1.1840 0.7703 0.2080
C17B C 1.15983(9) 0.65983(9) 0.2500
H10B H 1.1352 0.6352 0.2500
C18B C 1.23237(12) 0.73237(12) 0.2500
H11B H 1.2570 0.7570 0.2500
N1E N 1.21110(6) 0.60733(8) 0.30434(8)
O1E O 1.43090(4) 0.52501(5) 0.25958(5)
O2E O 1.42942(4) 0.51859(6) 0.34351(5)
O3E O 1.06556(7) 0.48525(9) 0.44819(8)
O4E O 1.02840(7) 0.56113(9) 0.44875(8)
C1E C 1.40977(6) 0.52859(6) 0.30163(7)
C2E C 1.35694(6) 0.54700(7) 0.30218(8)
C3E C 1.33164(7) 0.55274(10) 0.34688(8)
H1E H 1.3470 0.5439 0.3768
C4E C 1.28288(8) 0.57186(11) 0.34717(9)
H2E H 1.2659 0.5755 0.3773
C5E C 1.26010(7) 0.58515(9) 0.30367(9)
C6E C 1.28491(8) 0.57936(11) 0.25888(9)
H3E H 1.2693 0.5885 0.2291
C7E C 1.33287(7) 0.56006(9) 0.25800(9)
H4E H 1.3492 0.5558 0.2276
C8E C 1.17397(7) 0.58808(10) 0.33571(10)
C9E C 1.17050(8) 0.53736(10) 0.34577(11)
H5E H 1.1937 0.5157 0.3313
C10E C 1.13431(8) 0.51801(10) 0.37613(11)
H6E H 1.1326 0.4836 0.3815
C11E C 1.09955(7) 0.55013(10) 0.39927(10)
C12E C 1.10210(8) 0.60058(11) 0.38830(11)
H7E H 1.0783 0.6221 0.4019
C13E C 1.13901(9) 0.62006(11) 0.35775(12)
H8E H 1.1406 0.6544 0.3519
C14E C 1.06136(8) 0.53028(13) 0.43468(12)
C15E C 1.20315(8) 0.65176(9) 0.27657(10)
C16E C 1.24018(10) 0.68905(12) 0.27534(17)
H9E H 1.2703 0.6840 0.2920
Cu1D Cu 0.5000 0.5000 0.350182(15)
O6E O 0.5131(10) 0.5137(14) 0.4283(2)
O6D O 0.4869(10) 0.4863(14) 0.4283(2)
O6G O 0.5137(14) 0.4869(10) 0.4283(2)
O6F O 0.4863(14) 0.5131(10) 0.4283(2)
Cu2D Cu 0.5000 0.5000 0.250432(13)
Cu1_2 Cu 0.0000 1.0000 0.149818(15)
Cu1D_2 Cu 0.5000 1.5000 0.350182(15)
Cu1D_3 Cu 1.5000 0.5000 0.350182(15)
Cu2_2 Cu 0.0000 1.0000 0.249568(13)
Cu2D_2 Cu 0.5000 1.5000 0.250432(13)
Cu2D_3 Cu 1.5000 0.5000 0.250432(13)
Cu2H Cu 1.0000 1.0000 0.750432(13)
Cu3B_2 Cu 0.955857(16) 1.522014(11) 0.0000
Cu3C_2 Cu 1.044143(16) 0.477986(11) 0.0000
Cu3D Cu 0.977986(11) 0.544143(16) 0.5000
Cu3D_2 Cu 0.977986(11) 1.544143(16) 0.5000
Cu3E Cu 1.022014(11) 0.455857(16) 0.5000
Cu3E_2 Cu 1.022014(11) 1.455857(16) 0.5000
Cu3F Cu 0.544143(16) 1.022014(11) 0.5000
Cu3G Cu 0.455857(16) 0.977986(11) 0.5000
O1A_2 O 1.06910(4) 1.02501(5) 0.24042(5)
O1D_2 O 0.56910(4) 0.47499(5) 0.25958(5)
O1E_2 O 0.43090(4) 0.52501(5) 0.25958(5)
O1F_2 O 0.47499(5) 0.43090(4) 0.25958(5)
O2A_2 O 1.07058(4) 1.01859(6) 0.15649(5)
O2D_2 O 0.57058(4) 0.48141(6) 0.34351(5)
O2E_2 O 0.42942(4) 0.51859(6) 0.34351(5)
O2F_2 O 0.48141(6) 0.42942(4) 0.34351(5)
O3H O 0.43444(7) 0.98525(9) -0.05181(8)
O3I O 0.56556(7) 1.01475(9) -0.05181(8)
O3J O 1.01475(9) 1.43444(7) -0.05181(8)
O3K O 0.98525(9) 0.56556(7) -0.05181(8)
O4B_2 O 1.06113(9) 1.52840(7) 0.05125(8)
O4C_2 O 0.93887(9) 0.47160(7) 0.05125(8)
O4H O 0.47160(7) 1.06113(9) -0.05125(8)
O4I O 0.52840(7) 0.93887(9) -0.05125(8)
O4J O 0.93887(9) 0.47160(7) -0.05125(8)
O4K O 1.06113(9) 1.52840(7) -0.05125(8)
N2D N 0.4932(4) 0.5009(6) 0.17180(12)
N2E N 0.5068(4) 0.4991(6) 0.17180(12)
N2F N 0.5009(6) 0.5068(4) 0.17180(12)
N2G N 0.4991(6) 0.4932(4) 0.17180(12)
loop_
_geom_bond_atom_site_label_1
_geom_bond_atom_site_label_2
_geom_bond_site_symmetry_1
_geom_bond_site_symmetry_2
Cu1 O2 1_555 1_555
Cu2 O1 1_555 1_555
Cu3 O3 1_555 1_555
N1 C5 1_555 1_555
O1 C1 1_555 1_555
O2 C1 1_555 1_555
O3 C14 1_555 1_555
O4 C14 1_555 1_555
O5 Cu3 1_555 1_555
O6 Cu1 1_555 1_555
C1 C2 1_555 1_555
C2 C3 1_555 1_555
C3 H1 1_555 1_555
C4 C3 1_555 1_555
H2 C4 1_555 1_555
C5 C4 1_555 1_555
C6 C5 1_555 1_555
H3 C6 1_555 1_555
C7 C2 1_555 1_555
H4 C7 1_555 1_555
C8 N1 1_555 1_555
C9 C8 1_555 1_555
H5 C9 1_555 1_555
C10 C9 1_555 1_555
H6 C10 1_555 1_555
C11 C10 1_555 1_555
C12 C11 1_555 1_555
H7 C12 1_555 1_555
C13 C8 1_555 1_555
H8 C13 1_555 1_555
C14 C11 1_555 1_555
C15 N1 1_555 1_555
C16 C15 1_555 1_555
H9 C16 1_555 1_555
C17 C15 1_555 1_555
H10 C17 1_555 1_555
C18 C16 1_555 1_555
H11 C18 1_555 1_555
N2 Cu2 1_555 1_555
C19 N2 1_555 1_555
H12 C19 1_555 1_555
N3 C22 1_555 1_555
C20 H13 1_555 1_555
C21 N2 1_555 1_555
H14 C21 1_555 1_555
C22 C24 1_555 1_555
C23 H15 1_555 1_555
H15 C22A 1_555 1_555
C24 H16 1_555 1_555
C25 C24 1_555 1_555
H17 C25 1_555 1_555
N1G C5G 1_555 1_555
O1G C1G 1_555 1_555
O2G C1G 1_555 1_555
O3G C14G 1_555 1_555
O4G C14G 1_555 1_555
C1G C2G 1_555 1_555
C2G C3G 1_555 1_555
C3G H1G 1_555 1_555
C4G C3G 1_555 1_555
H2G C4G 1_555 1_555
C5G C4G 1_555 1_555
C6G C5G 1_555 1_555
H3G C6G 1_555 1_555
C7G C2G 1_555 1_555
H4G C7G 1_555 1_555
C8G N1G 1_555 1_555
C9G C8G 1_555 1_555
H5G C9G 1_555 1_555
C10G C9G 1_555 1_555
H6G C10G 1_555 1_555
C11G C10G 1_555 1_555
C12G C11G 1_555 1_555
H7G C12G 1_555 1_555
C13G C8G 1_555 1_555
H8G C13G 1_555 1_555
C14G C11G 1_555 1_555
C15G C17 1_555 1_555
C16G C18 1_555 1_555
H9G C16G 1_555 1_555
O6A Cu1 1_555 1_555
O6B Cu1 1_555 1_555
O6C Cu1 1_555 1_555
N2A Cu2 1_555 1_555
C19A N2 1_555 1_555
H12A C19A 1_555 1_555
N3A C22A 1_555 1_555
C20A C19 1_555 1_555
H13A C20A 1_555 1_555
C21A N2 1_555 1_555
H14A C21A 1_555 1_555
C22A C20 1_555 1_555
C23A H15A 1_555 1_555
H15A C22 1_555 1_555
C24A C22A 1_555 1_555
H16A C24A 1_555 1_555
C25A C24A 1_555 1_555
H17A C25A 1_555 1_555
N2B Cu2 1_555 1_555
C19B N2 1_555 1_555
H12B C19B 1_555 1_555
N3B C22 1_555 1_555
C20B C19 1_555 1_555
H13B C20B 1_555 1_555
C21B N2 1_555 1_555
H14B C21B 1_555 1_555
C22B C22 1_555 1_555
C23B H15 1_555 1_555
H15B C23A 1_555 1_555
C24B C22B 1_555 1_555
H16B C24B 1_555 1_555
C25B C24B 1_555 1_555
H17B C25B 1_555 1_555
N2C Cu2 1_555 1_555
C19C N2 1_555 1_555
H12C C19C 1_555 1_555
N3C C22A 1_555 1_555
C20C C20 1_555 1_555
H13C C20C 1_555 1_555
C21C N2 1_555 1_555
H14C C21C 1_555 1_555
C22C N3 1_555 1_555
C23C H15A 1_555 1_555
H15C C23 1_555 1_555
C24C C22C 1_555 1_555
H16C C24C 1_555 1_555
C25C C24C 1_555 1_555
H17C C25C 1_555 1_555
N2H C19H 1_555 1_555
C19H H12H 1_555 1_555
N3H C22H 1_555 1_555
C20H H13H 1_555 1_555
C21H N2H 1_555 1_555
H14H C21H 1_555 1_555
C22H H15 1_555 1_555
C24H C25A 1_555 1_555
H16H C24H 1_555 1_555
N2I C19H 1_555 1_555
C19I N2H 1_555 1_555
H12I C19I 1_555 1_555
N3I C22I 1_555 1_555
C20I C19H 1_555 1_555
H13I C20I 1_555 1_555
C21I N2H 1_555 1_555
H14I C21I 1_555 1_555
C22I H15A 1_555 1_555
C24I C25 1_555 1_555
H16I C24I 1_555 1_555
N2J C19H 1_555 1_555
C19J N2H 1_555 1_555
H12J C19J 1_555 1_555
N3J C22H 1_555 1_555
C20J C19H 1_555 1_555
H13J C20J 1_555 1_555
C21J N2H 1_555 1_555
H14J C21J 1_555 1_555
C22J H15B 1_555 1_555
C24J C25C 1_555 1_555
H16J C24J 1_555 1_555
N2K C19H 1_555 1_555
C19K N2H 1_555 1_555
H12K C19K 1_555 1_555
N3K C22I 1_555 1_555
C20K C20H 1_555 1_555
H13K C20K 1_555 1_555
C21K N2H 1_555 1_555
H14K C21K 1_555 1_555
C22K H15C 1_555 1_555
C24K C25B 1_555 1_555
H16K C24K 1_555 1_555
Cu3A O4 1_555 1_555
N1A C5A 1_555 1_555
O1A C1A 1_555 1_555
O2A C1A 1_555 1_555
O3A Cu3A 1_555 1_555
O4A Cu3 1_555 1_555
O5A Cu3A 1_555 1_555
C1A C2A 1_555 1_555
C2A C3A 1_555 1_555
C3A H1A 1_555 1_555
C4A C3A 1_555 1_555
H2A C4A 1_555 1_555
C5A C4A 1_555 1_555
C6A C5A 1_555 1_555
H3A C6A 1_555 1_555
C7A C2A 1_555 1_555
H4A C7A 1_555 1_555
C8A N1A 1_555 1_555
C9A C8A 1_555 1_555
H5A C9A 1_555 1_555
C10A C9A 1_555 1_555
H6A C10A 1_555 1_555
C11A C10A 1_555 1_555
C12A C11A 1_555 1_555
H7A C12A 1_555 1_555
C13A C8A 1_555 1_555
H8A C13A 1_555 1_555
C14A O3A 1_555 1_555
C15A N1A 1_555 1_555
C16A C15A 1_555 1_555
H9A C16A 1_555 1_555
C17A C15A 1_555 1_555
H10A C17A 1_555 1_555
C18A C16A 1_555 1_555
H11A C18A 1_555 1_555
N1F C5F 1_555 1_555
O1F C1F 1_555 1_555
O2F C1F 1_555 1_555
O3F C14F 1_555 1_555
O4F C14F 1_555 1_555
C1F C2F 1_555 1_555
C2F C3F 1_555 1_555
C3F H1F 1_555 1_555
C4F C3F 1_555 1_555
H2F C4F 1_555 1_555
C5F C4F 1_555 1_555
C6F C5F 1_555 1_555
H3F C6F 1_555 1_555
C7F C2F 1_555 1_555
H4F C7F 1_555 1_555
C8F N1F 1_555 1_555
C9F C8F 1_555 1_555
H5F C9F 1_555 1_555
C10F C9F 1_555 1_555
H6F C10F 1_555 1_555
C11F C10F 1_555 1_555
C12F C11F 1_555 1_555
H7F C12F 1_555 1_555
C13F C8F 1_555 1_555
H8F C13F 1_555 1_555
C14F C11F 1_555 1_555
C15F C17A 1_555 1_555
C16F C18A 1_555 1_555
H9F C16F 1_555 1_555
Cu3C O3C 1_555 1_555
N1C C5C 1_555 1_555
O1C Cu2 1_555 1_555
O2C Cu1 1_555 1_555
O3C C14C 1_555 1_555
O4C C14C 1_555 1_555
O5C Cu3C 1_555 1_555
C1C O1C 1_555 1_555
C2C C1C 1_555 1_555
C3C C2C 1_555 1_555
H1C C3C 1_555 1_555
C4C C3C 1_555 1_555
H2C C4C 1_555 1_555
C5C C4C 1_555 1_555
C6C C5C 1_555 1_555
H3C C6C 1_555 1_555
C7C C2C 1_555 1_555
H4C C7C 1_555 1_555
C8C N1C 1_555 1_555
C9C C8C 1_555 1_555
H5C C9C 1_555 1_555
C10C C9C 1_555 1_555
H6C C10C 1_555 1_555
C11C C10C 1_555 1_555
C12C C11C 1_555 1_555
H7C C12C 1_555 1_555
C13C C8C 1_555 1_555
H8C C13C 1_555 1_555
C14C C11C 1_555 1_555
C15C N1C 1_555 1_555
C16C C15C 1_555 1_555
H9C C16C 1_555 1_555
C17C C15C 1_555 1_555
H10C C17C 1_555 1_555
C18C C16C 1_555 1_555
H11C C18C 1_555 1_555
N1D C5D 1_555 1_555
O1D C1D 1_555 1_555
O2D C1D 1_555 1_555
O3D C14D 1_555 1_555
O4D C14D 1_555 1_555
C1D C2D 1_555 1_555
C2D C3D 1_555 1_555
C3D H1D 1_555 1_555
C4D C3D 1_555 1_555
H2D C4D 1_555 1_555
C5D C4D 1_555 1_555
C6D C5D 1_555 1_555
H3D C6D 1_555 1_555
C7D C2D 1_555 1_555
H4D C7D 1_555 1_555
C8D N1D 1_555 1_555
C9D C8D 1_555 1_555
H5D C9D 1_555 1_555
C10D C9D 1_555 1_555
H6D C10D 1_555 1_555
C11D C10D 1_555 1_555
C12D C11D 1_555 1_555
H7D C12D 1_555 1_555
C13D C8D 1_555 1_555
H8D C13D 1_555 1_555
C14D C11D 1_555 1_555
C15D C17C 1_555 1_555
C16D C18C 1_555 1_555
H9D C16D 1_555 1_555
Cu3B O3B 1_555 1_555
N1B C5B 1_555 1_555
O1B Cu2 1_555 1_555
O2B Cu1 1_555 1_555
O3B C14B 1_555 1_555
O4B C14B 1_555 1_555
O5B Cu3B 1_555 1_555
C1B O1B 1_555 1_555
C2B C1B 1_555 1_555
C3B C2B 1_555 1_555
H1B C3B 1_555 1_555
C4B C3B 1_555 1_555
H2B C4B 1_555 1_555
C5B C4B 1_555 1_555
C6B C5B 1_555 1_555
H3B C6B 1_555 1_555
C7B C2B 1_555 1_555
H4B C7B 1_555 1_555
C8B N1B 1_555 1_555
C9B C8B 1_555 1_555
H5B C9B 1_555 1_555
C10B C9B 1_555 1_555
H6B C10B 1_555 1_555
C11B C10B 1_555 1_555
C12B C11B 1_555 1_555
H7B C12B 1_555 1_555
C13B C8B 1_555 1_555
H8B C13B 1_555 1_555
C14B C11B 1_555 1_555
C15B N1B 1_555 1_555
C16B C15B 1_555 1_555
H9B C16B 1_555 1_555
C17B C15B 1_555 1_555
H10B C17B 1_555 1_555
C18B C16B 1_555 1_555
H11B C18B 1_555 1_555
N1E C5E 1_555 1_555
O1E C1E 1_555 1_555
O2E C1E 1_555 1_555
O3E C14E 1_555 1_555
O4E C14E 1_555 1_555
C1E C2E 1_555 1_555
C2E C3E 1_555 1_555
C3E H1E 1_555 1_555
C4E C3E 1_555 1_555
H2E C4E 1_555 1_555
C5E C4E 1_555 1_555
C6E C5E 1_555 1_555
H3E C6E 1_555 1_555
C7E C2E 1_555 1_555
H4E C7E 1_555 1_555
C8E N1E 1_555 1_555
C9E C8E 1_555 1_555
H5E C9E 1_555 1_555
C10E C9E 1_555 1_555
H6E C10E 1_555 1_555
C11E C10E 1_555 1_555
C12E C11E 1_555 1_555
H7E C12E 1_555 1_555
C13E C8E 1_555 1_555
H8E C13E 1_555 1_555
C14E C11E 1_555 1_555
C15E C17B 1_555 1_555
C16E C18B 1_555 1_555
H9E C16E 1_555 1_555
Cu1D O2G 1_555 1_555
O6E Cu1D 1_555 1_555
O6D Cu1D 1_555 1_555
O6G Cu1D 1_555 1_555
O6F Cu1D 1_555 1_555
Cu2D O1G 1_555 1_555
Cu1_2 O2A 1_555 1_555
Cu1D_2 O2F 1_555 1_555
Cu1D_3 O2E 1_555 1_555
Cu2_2 O1A 1_555 1_555
Cu2D_2 O1F 1_555 1_555
Cu2D_3 O1E 1_555 1_555
Cu2H N2H 1_555 1_555
Cu3B_2 O4C 1_555 1_555
Cu3C_2 O4B 1_555 1_555
Cu3D O4E 1_555 1_555
Cu3D_2 O3D 1_555 1_555
Cu3E O3E 1_555 1_555
Cu3E_2 O4D 1_555 1_555
Cu3F O4G 1_555 1_555
Cu3G O3G 1_555 1_555
O1A_2 Cu2 1_555 1_555
O1D_2 Cu2D 1_555 1_555
O1E_2 Cu2D 1_555 1_555
O1F_2 Cu2D 1_555 1_555
O2A_2 Cu1 1_555 1_555
O2D_2 Cu1D 1_555 1_555
O2E_2 Cu1D 1_555 1_555
O2F_2 Cu1D 1_555 1_555
O3H Cu3A 1_555 1_555
O3I Cu3 1_555 1_555
O3J Cu3C 1_555 1_555
O3K Cu3B 1_555 1_555
O4B_2 Cu3C 1_555 1_555
O4C_2 Cu3B 1_555 1_555
O4H Cu3 1_555 1_555
O4I Cu3A 1_555 1_555
O4J Cu3B 1_555 1_555
O4K Cu3C 1_555 1_555
N2D Cu2D 1_555 1_555
N2E Cu2D 1_555 1_555
N2F Cu2D 1_555 1_555
N2G Cu2D 1_555 1_555
C6 C7 1_555 1_555
C12 C13 1_555 1_555
C19 N2A 1_555 1_555
C19 C21A 1_555 1_555
C19 N2B 1_555 1_555
C19 C21B 1_555 1_555
C19 N2C 1_555 1_555
C20 C21 1_555 1_555
C20 C19A 1_555 1_555
C20 C20B 1_555 1_555
C20 C19C 1_555 1_555
C20 C22C 1_555 1_555
C21 N2A 1_555 1_555
C21 C19A 1_555 1_555
C21 N2B 1_555 1_555
C21 N2C 1_555 1_555
C21 C19C 1_555 1_555
C22 C20A 1_555 1_555
C22 C20B 1_555 1_555
C22 C22C 1_555 1_555
N1G C15G 1_555 1_555
C6G C7G 1_555 1_555
C12G C13G 1_555 1_555
C15G C16G 1_555 1_555
N2A C19A 1_555 1_555
N2A C21A 1_555 1_555
N2A C19B 1_555 1_555
N2A C21B 1_555 1_555
N2A C19C 1_555 1_555
N2A C21C 1_555 1_555
C19A N2B 1_555 1_555
C19A N2C 1_555 1_555
C19A C20C 1_555 1_555
C19A C21C 1_555 1_555
N3A C22B 1_555 1_555
C20A C21A 1_555 1_555
C20A C19B 1_555 1_555
C20A C20B 1_555 1_555
C20A C22B 1_555 1_555
C20A C20C 1_555 1_555
C21A N2B 1_555 1_555
C21A C19B 1_555 1_555
C21A N2C 1_555 1_555
C22A C22B 1_555 1_555
C22A C20C 1_555 1_555
C22A C22C 1_555 1_555
N2B C19B 1_555 1_555
N2B C21B 1_555 1_555
N2B C19C 1_555 1_555
N2B C21C 1_555 1_555
C19B N2C 1_555 1_555
C19B C20C 1_555 1_555
C19B C21C 1_555 1_555
N3B C22B 1_555 1_555
C20B C21B 1_555 1_555
C20B C19C 1_555 1_555
C20B C22C 1_555 1_555
C21B N2C 1_555 1_555
C21B C19C 1_555 1_555
C22B C20C 1_555 1_555
C22B H15C 1_555 1_555
C23B H15B 1_555 1_555
H15B C22C 1_555 1_555
N2C C19C 1_555 1_555
N2C C21C 1_555 1_555
N3C C22C 1_555 1_555
C20C C21C 1_555 1_555
C23C H15C 1_555 1_555
C19H C21I 1_555 1_555
C19H C21J 1_555 1_555
N3H C22K 1_555 1_555
C20H C21H 1_555 1_555
C20H C19I 1_555 1_555
C20H C22I 1_555 1_555
C20H C20J 1_555 1_555
C20H C19K 1_555 1_555
C20H C22K 1_555 1_555
C21H N2I 1_555 1_555
C21H C19I 1_555 1_555
C21H N2J 1_555 1_555
C21H N2K 1_555 1_555
C21H C19K 1_555 1_555
C22H C24H 1_555 1_555
C22H C20I 1_555 1_555
C22H C20J 1_555 1_555
C22H C22J 1_555 1_555
C22H C22K 1_555 1_555
N2I C19I 1_555 1_555
N2I C21I 1_555 1_555
N2I C19J 1_555 1_555
N2I C21J 1_555 1_555
N2I C19K 1_555 1_555
N2I C21K 1_555 1_555
N2I Cu2H 1_555 1_555
C19I N2J 1_555 1_555
C19I N2K 1_555 1_555
C19I C20K 1_555 1_555
C19I C21K 1_555 1_555
N3I C22J 1_555 1_555
C20I C21I 1_555 1_555
C20I C19J 1_555 1_555
C20I C20J 1_555 1_555
C20I C22J 1_555 1_555
C20I C20K 1_555 1_555
C21I N2J 1_555 1_555
C21I C19J 1_555 1_555
C21I N2K 1_555 1_555
C22I C24I 1_555 1_555
C22I C22J 1_555 1_555
C22I C20K 1_555 1_555
C22I C22K 1_555 1_555
N2J C19J 1_555 1_555
N2J C21J 1_555 1_555
N2J C19K 1_555 1_555
N2J C21K 1_555 1_555
N2J Cu2H 1_555 1_555
C19J N2K 1_555 1_555
C19J C20K 1_555 1_555
C19J C21K 1_555 1_555
N3J C22J 1_555 1_555
C20J C21J 1_555 1_555
C20J C19K 1_555 1_555
C20J C22K 1_555 1_555
C21J N2K 1_555 1_555
C21J C19K 1_555 1_555
C22J C24J 1_555 1_555
C22J C20K 1_555 1_555
N2K C19K 1_555 1_555
N2K C21K 1_555 1_555
N2K Cu2H 1_555 1_555
N3K C22K 1_555 1_555
C20K C21K 1_555 1_555
C22K C24K 1_555 1_555
O4A C14A 1_555 1_555
C6A C7A 1_555 1_555
C11A C14A 1_555 1_555
C12A C13A 1_555 1_555
N1F C15F 1_555 1_555
O3F Cu3F 1_555 1_555
O4F Cu3G 1_555 1_555
C6F C7F 1_555 1_555
C12F C13F 1_555 1_555
C15F C16F 1_555 1_555
O2C C1C 1_555 1_555
C6C C7C 1_555 1_555
C12C C13C 1_555 1_555
N1D C15D 1_555 1_555
O1D Cu2D_2 1_555 1_555
O2D Cu1D_2 1_555 1_555
C6D C7D 1_555 1_555
C12D C13D 1_555 1_555
C15D C16D 1_555 1_555
O2B C1B 1_555 1_555
C6B C7B 1_555 1_555
C12B C13B 1_555 1_555
N1E C15E 1_555 1_555
C6E C7E 1_555 1_555
C12E C13E 1_555 1_555
C15E C16E 1_555 1_555

#END
