
#######################################################################
#
#                 Cambridge Crystallographic Data Centre
#                                CCDC 
#
#######################################################################
#
# If this CIF has been generated from an entry in the Cambridge 
# Structural Database, then it will include bibliographic, chemical, 
# crystal, experimental, refinement or atomic coordinate data resulting 
# from the CCDC's data processing and validation procedures.
#
#######################################################################

data_XUDPOD
_chemical_name_common            DUT-74
_chemical_formula_moiety         '(C148 H100 Cu8 N14 O38)n'
_chemical_name_systematic        
"catena-[tetrakis(\m-4,4',4'',4'''-(1,3-phenylenedinitrilo)tetrabenzoato)-(\m-3,6-di(4-pyridyl)-1,2,4,5-tetrazine)-hexa-aqua-hepta-copper unknown solvate]"
_symmetry_cell_setting           tetragonal
_symmetry_space_group_name_H-M   'P 4/m n c'
_symmetry_Int_Tables_number      128
_space_group_name_Hall           '-P 4 2n'
loop_
_symmetry_equiv_pos_site_id
_symmetry_equiv_pos_as_xyz
1 x,y,z
2 -y,x,z
3 -x,-y,z
4 y,-x,z
5 1/2+x,1/2-y,1/2-z
6 1/2+y,1/2+x,1/2-z
7 1/2-x,1/2+y,1/2-z
8 1/2-y,1/2-x,1/2-z
9 -x,-y,-z
10 y,-x,-z
11 x,y,-z
12 -y,x,-z
13 1/2-x,1/2+y,1/2+z
14 1/2-y,1/2-x,1/2+z
15 1/2+x,1/2-y,1/2+z
16 1/2+y,1/2+x,1/2+z
_cell_length_a                   26.450(4)
_cell_length_b                   26.450(4)
_cell_length_c                   27.880(6)
_cell_angle_alpha                90
_cell_angle_beta                 90
_cell_angle_gamma                90
_cell_volume                     19504.9
_exptl_crystal_colour            green
_exptl_crystal_description       stick
_cell_formula_units_Z            2
_chemical_properties_physical    Moisture-sensitive
loop_
_atom_site_label
_atom_site_type_symbol
_atom_site_fract_x
_atom_site_fract_y
_atom_site_fract_z
Cu1 Cu 0.47759(2) -0.04429(3) 0.5000
Cu2 Cu 0.0000 0.0000 0.35610(2)
Cu3 Cu 0.0000 0.0000 0.26145(2)
O1 O 0.43497(12) -0.01437(15) 0.45033(11)
O2 O 0.47194(12) 0.06239(15) 0.45085(11)
O3 O 0.07114(8) 0.02089(9) 0.34907(9)
O4 O 0.0000 0.0000 0.4316(3)
O5 O 0.07018(9) 0.02304(10) 0.26909(9)
O6 O 0.4399(2) -0.1176(2) 0.5000
N1 N 0.29298(12) 0.10452(14) 0.30367(12)
N2 N 0.0000 0.0000 0.1861(2)
C1 C 0.43913(15) 0.0309(2) 0.43764(17)
C2 C 0.40195(14) 0.05006(18) 0.39972(15)
C3 C 0.36769(14) 0.01773(18) 0.37873(16)
H1 H 0.3686 -0.0165 0.3862
C4 C 0.33290(15) 0.03486(17) 0.34755(16)
H2 H 0.3101 0.0123 0.3339
C5 C 0.33061(13) 0.08545(18) 0.33548(15)
C6 C 0.36587(16) 0.11957(19) 0.35551(17)
H3 H 0.3656 0.1537 0.3474
C7 C 0.40109(15) 0.1003(2) 0.38775(17)
H4 H 0.4246 0.1221 0.4015
C8 C 0.24304(14) 0.08352(16) 0.30571(15)
C9 C 0.21991(15) 0.07291(19) 0.34870(15)
H5 H 0.2374 0.0781 0.3772
C10 C 0.17094(14) 0.05459(18) 0.35002(14)
H6 H 0.1557 0.0477 0.3794
C11 C 0.14467(13) 0.04651(13) 0.30816(13)
C12 C 0.09163(12) 0.02878(12) 0.30879(13)
C13 C 0.16826(15) 0.05673(17) 0.26563(15)
H7 H 0.1507 0.0513 0.2372
C14 C 0.21739(15) 0.0749(2) 0.26316(15)
H8 H 0.2327 0.0811 0.2337
C15 C 0.30019(15) 0.14951(16) 0.27594(16)
C16 C 0.34377(16) 0.15623(16) 0.2500
H9 H 0.3686 0.1314 0.2500
C17 C 0.26338(18) 0.1863(2) 0.2758(2)
H10 H 0.2338 0.1817 0.2933
C18 C 0.2704(2) 0.2296(2) 0.2500
H11 H 0.2455 0.2545 0.2500
C19 C 0.0188(11) 0.0398(6) 0.1605(4)
H12 H 0.0319 0.0671 0.1774
C20 C 0.0194(12) 0.0415(6) 0.1170(4)
H13 H 0.0322 0.0692 0.1005
N3 N 0.008(2) 0.0370(9) 0.0189(3)
C21 C 0.0000 0.0000 0.0939(3)
C22 C 0.0000 0.0000 0.0449(4)
O1G O 0.51437(15) 0.06503(12) 0.04967(11)
O2G O 0.43761(15) 0.02806(12) 0.04915(11)
O3G O 0.47911(9) 0.42886(8) 0.15093(9)
O5G O 0.47696(10) 0.42982(9) 0.23091(9)
N1G N 0.39548(14) 0.20702(12) 0.19633(12)
C1G C 0.4691(2) 0.06087(15) 0.06236(17)
C2G C 0.44994(18) 0.09805(14) 0.10028(15)
C3G C 0.48227(18) 0.13231(14) 0.12127(16)
H1G H 0.5165 0.1314 0.1138
C4G C 0.46514(17) 0.16710(15) 0.15245(16)
H2G H 0.4877 0.1899 0.1661
C5G C 0.41455(18) 0.16939(13) 0.16452(15)
C6G C 0.38043(19) 0.13413(16) 0.14449(17)
H3G H 0.3463 0.1344 0.1526
C7G C 0.3997(2) 0.09891(15) 0.11225(17)
H4G H 0.3779 0.0754 0.0985
C8G C 0.41648(16) 0.25696(14) 0.19429(15)
C9G C 0.42709(19) 0.28009(15) 0.15130(15)
H5G H 0.4219 0.2626 0.1228
C10G C 0.44541(18) 0.32906(14) 0.14998(14)
H6G H 0.4523 0.3443 0.1206
C11G C 0.45349(13) 0.35533(13) 0.19184(13)
C12G C 0.47122(12) 0.40837(12) 0.19121(13)
C13G C 0.44327(17) 0.33174(15) 0.23437(15)
H7G H 0.4487 0.3493 0.2628
C14G C 0.4251(2) 0.28261(15) 0.23684(15)
H8G H 0.4189 0.2673 0.2663
C15G C 0.35049(16) 0.19981(15) 0.22406(16)
C17G C 0.3137(2) 0.23662(18) 0.2242(2)
H10G H 0.3183 0.2662 0.2067
C19A C -0.0398(6) 0.0188(11) 0.1605(4)
H12A H -0.0671 0.0319 0.1774
C20A C -0.0415(6) 0.0194(12) 0.1170(4)
H13A H -0.0692 0.0322 0.1005
N3A N -0.0370(9) 0.008(2) 0.0189(3)
C19B C -0.0188(11) -0.0398(6) 0.1605(4)
H12B H -0.0319 -0.0671 0.1774
C20B C -0.0194(12) -0.0415(6) 0.1170(4)
H13B H -0.0322 -0.0692 0.1005
N3B N -0.008(2) -0.0370(9) 0.0189(3)
C19C C 0.0398(6) -0.0188(11) 0.1605(4)
H12C H 0.0671 -0.0319 0.1774
C20C C 0.0415(6) -0.0194(12) 0.1170(4)
H13C H 0.0692 -0.0322 0.1005
N3C N 0.0370(9) -0.008(2) 0.0189(3)
Cu1A Cu 0.04429(3) 0.47759(2) 0.5000
O1A O 0.01437(15) 0.43497(12) 0.45033(11)
O2A O -0.06239(15) 0.47194(12) 0.45085(11)
O3A O -0.02089(9) 0.07114(8) 0.34907(9)
O5A O -0.02304(10) 0.07018(9) 0.26909(9)
O6A O 0.1176(2) 0.4399(2) 0.5000
N1A N -0.10452(14) 0.29298(12) 0.30367(12)
C1A C -0.0309(2) 0.43913(15) 0.43764(17)
C2A C -0.05006(18) 0.40195(14) 0.39972(15)
C3A C -0.01773(18) 0.36769(14) 0.37873(16)
H1A H 0.0165 0.3686 0.3862
C4A C -0.03486(17) 0.33290(15) 0.34755(16)
H2A H -0.0123 0.3101 0.3339
C5A C -0.08545(18) 0.33061(13) 0.33548(15)
C6A C -0.11957(19) 0.36587(16) 0.35551(17)
H3A H -0.1537 0.3656 0.3474
C7A C -0.1003(2) 0.40109(15) 0.38775(17)
H4A H -0.1221 0.4246 0.4015
C8A C -0.08352(16) 0.24304(14) 0.30571(15)
C9A C -0.07291(19) 0.21991(15) 0.34870(15)
H5A H -0.0781 0.2374 0.3772
C10A C -0.05459(18) 0.17094(14) 0.35002(14)
H6A H -0.0477 0.1557 0.3794
C11A C -0.04651(13) 0.14467(13) 0.30816(13)
C12A C -0.02878(12) 0.09163(12) 0.30879(13)
C13A C -0.05673(17) 0.16826(15) 0.26563(15)
H7A H -0.0513 0.1507 0.2372
C14A C -0.0749(2) 0.21739(15) 0.26316(15)
H8A H -0.0811 0.2327 0.2337
C15A C -0.14951(16) 0.30019(15) 0.27594(16)
C16A C -0.15623(16) 0.34377(16) 0.2500
H9A H -0.1314 0.3686 0.2500
C17A C -0.1863(2) 0.26338(18) 0.2758(2)
H10A H -0.1817 0.2338 0.2933
C18A C -0.2296(2) 0.2704(2) 0.2500
H11A H -0.2545 0.2455 0.2500
O1D O -0.06503(12) 0.51437(15) 0.04967(11)
O2D O -0.02806(12) 0.43761(15) 0.04915(11)
O3D O -0.42886(8) 0.47911(9) 0.15093(9)
O5D O -0.42982(9) 0.47696(10) 0.23091(9)
N1D N -0.20702(12) 0.39548(14) 0.19633(12)
C1D C -0.06087(15) 0.4691(2) 0.06236(17)
C2D C -0.09805(14) 0.44994(18) 0.10028(15)
C3D C -0.13231(14) 0.48227(18) 0.12127(16)
H1D H -0.1314 0.5165 0.1138
C4D C -0.16710(15) 0.46514(17) 0.15245(16)
H2D H -0.1899 0.4877 0.1661
C5D C -0.16939(13) 0.41455(18) 0.16452(15)
C6D C -0.13413(16) 0.38043(19) 0.14449(17)
H3D H -0.1344 0.3463 0.1526
C7D C -0.09891(15) 0.3997(2) 0.11225(17)
H4D H -0.0754 0.3779 0.0985
C8D C -0.25696(14) 0.41648(16) 0.19429(15)
C9D C -0.28009(15) 0.42709(19) 0.15130(15)
H5D H -0.2626 0.4219 0.1228
C10D C -0.32906(14) 0.44541(18) 0.14998(14)
H6D H -0.3443 0.4523 0.1206
C11D C -0.35533(13) 0.45349(13) 0.19184(13)
C12D C -0.40837(12) 0.47122(12) 0.19121(13)
C13D C -0.33174(15) 0.44327(17) 0.23437(15)
H7D H -0.3493 0.4487 0.2628
C14D C -0.28261(15) 0.4251(2) 0.23684(15)
H8D H -0.2673 0.4189 0.2663
C15D C -0.19981(15) 0.35049(16) 0.22406(16)
C17D C -0.23662(18) 0.3137(2) 0.2242(2)
H10D H -0.2662 0.3183 0.2067
Cu1B Cu -0.47759(2) 0.04429(3) 0.5000
O1B O -0.43497(12) 0.01437(15) 0.45033(11)
O2B O -0.47194(12) -0.06239(15) 0.45085(11)
O3B O -0.07114(8) -0.02089(9) 0.34907(9)
O5B O -0.07018(9) -0.02304(10) 0.26909(9)
O6B O -0.4399(2) 0.1176(2) 0.5000
N1B N -0.29298(12) -0.10452(14) 0.30367(12)
C1B C -0.43913(15) -0.0309(2) 0.43764(17)
C2B C -0.40195(14) -0.05006(18) 0.39972(15)
C3B C -0.36769(14) -0.01773(18) 0.37873(16)
H1B H -0.3686 0.0165 0.3862
C4B C -0.33290(15) -0.03486(17) 0.34755(16)
H2B H -0.3101 -0.0123 0.3339
C5B C -0.33061(13) -0.08545(18) 0.33548(15)
C6B C -0.36587(16) -0.11957(19) 0.35551(17)
H3B H -0.3656 -0.1537 0.3474
C7B C -0.40109(15) -0.1003(2) 0.38775(17)
H4B H -0.4246 -0.1221 0.4015
C8B C -0.24304(14) -0.08352(16) 0.30571(15)
C9B C -0.21991(15) -0.07291(19) 0.34870(15)
H5B H -0.2374 -0.0781 0.3772
C10B C -0.17094(14) -0.05459(18) 0.35002(14)
H6B H -0.1557 -0.0477 0.3794
C11B C -0.14467(13) -0.04651(13) 0.30816(13)
C12B C -0.09163(12) -0.02878(12) 0.30879(13)
C13B C -0.16826(15) -0.05673(17) 0.26563(15)
H7B H -0.1507 -0.0513 0.2372
C14B C -0.21739(15) -0.0749(2) 0.26316(15)
H8B H -0.2327 -0.0811 0.2337
C15B C -0.30019(15) -0.14951(16) 0.27594(16)
C16B C -0.34377(16) -0.15623(16) 0.2500
H9B H -0.3686 -0.1314 0.2500
C17B C -0.26338(18) -0.1863(2) 0.2758(2)
H10B H -0.2338 -0.1817 0.2933
C18B C -0.2704(2) -0.2296(2) 0.2500
H11B H -0.2455 -0.2545 0.2500
O1E O -0.51437(15) -0.06503(12) 0.04967(11)
O2E O -0.43761(15) -0.02806(12) 0.04915(11)
O3E O -0.47911(9) -0.42886(8) 0.15093(9)
O5E O -0.47696(10) -0.42982(9) 0.23091(9)
N1E N -0.39548(14) -0.20702(12) 0.19633(12)
C1E C -0.4691(2) -0.06087(15) 0.06236(17)
C2E C -0.44994(18) -0.09805(14) 0.10028(15)
C3E C -0.48227(18) -0.13231(14) 0.12127(16)
H1E H -0.5165 -0.1314 0.1138
C4E C -0.46514(17) -0.16710(15) 0.15245(16)
H2E H -0.4877 -0.1899 0.1661
C5E C -0.41455(18) -0.16939(13) 0.16452(15)
C6E C -0.38043(19) -0.13413(16) 0.14449(17)
H3E H -0.3463 -0.1344 0.1526
C7E C -0.3997(2) -0.09891(15) 0.11225(17)
H4E H -0.3779 -0.0754 0.0985
C8E C -0.41648(16) -0.25696(14) 0.19429(15)
C9E C -0.42709(19) -0.28009(15) 0.15130(15)
H5E H -0.4219 -0.2626 0.1228
C10E C -0.44541(18) -0.32906(14) 0.14998(14)
H6E H -0.4523 -0.3443 0.1206
C11E C -0.45349(13) -0.35533(13) 0.19184(13)
C12E C -0.47122(12) -0.40837(12) 0.19121(13)
C13E C -0.44327(17) -0.33174(15) 0.23437(15)
H7E H -0.4487 -0.3493 0.2628
C14E C -0.4251(2) -0.28261(15) 0.23684(15)
H8E H -0.4189 -0.2673 0.2663
C15E C -0.35049(16) -0.19981(15) 0.22406(16)
C17E C -0.3137(2) -0.23662(18) 0.2242(2)
H10E H -0.3183 -0.2662 0.2067
Cu1C Cu -0.04429(3) -0.47759(2) 0.5000
O1C O -0.01437(15) -0.43497(12) 0.45033(11)
O2C O 0.06239(15) -0.47194(12) 0.45085(11)
O3C O 0.02089(9) -0.07114(8) 0.34907(9)
O5C O 0.02304(10) -0.07018(9) 0.26909(9)
O6C O -0.1176(2) -0.4399(2) 0.5000
N1C N 0.10452(14) -0.29298(12) 0.30367(12)
C1C C 0.0309(2) -0.43913(15) 0.43764(17)
C2C C 0.05006(18) -0.40195(14) 0.39972(15)
C3C C 0.01773(18) -0.36769(14) 0.37873(16)
H1C H -0.0165 -0.3686 0.3862
C4C C 0.03486(17) -0.33290(15) 0.34755(16)
H2C H 0.0123 -0.3101 0.3339
C5C C 0.08545(18) -0.33061(13) 0.33548(15)
C6C C 0.11957(19) -0.36587(16) 0.35551(17)
H3C H 0.1537 -0.3656 0.3474
C7C C 0.1003(2) -0.40109(15) 0.38775(17)
H4C H 0.1221 -0.4246 0.4015
C8C C 0.08352(16) -0.24304(14) 0.30571(15)
C9C C 0.07291(19) -0.21991(15) 0.34870(15)
H5C H 0.0781 -0.2374 0.3772
C10C C 0.05459(18) -0.17094(14) 0.35002(14)
H6C H 0.0477 -0.1557 0.3794
C11C C 0.04651(13) -0.14467(13) 0.30816(13)
C12C C 0.02878(12) -0.09163(12) 0.30879(13)
C13C C 0.05673(17) -0.16826(15) 0.26563(15)
H7C H 0.0513 -0.1507 0.2372
C14C C 0.0749(2) -0.21739(15) 0.26316(15)
H8C H 0.0811 -0.2327 0.2337
C15C C 0.14951(16) -0.30019(15) 0.27594(16)
C16C C 0.15623(16) -0.34377(16) 0.2500
H9C H 0.1314 -0.3686 0.2500
C17C C 0.1863(2) -0.26338(18) 0.2758(2)
H10C H 0.1817 -0.2338 0.2933
C18C C 0.2296(2) -0.2704(2) 0.2500
H11C H 0.2545 -0.2455 0.2500
O1F O 0.06503(12) -0.51437(15) 0.04967(11)
O2F O 0.02806(12) -0.43761(15) 0.04915(11)
O3F O 0.42886(8) -0.47911(9) 0.15093(9)
O5F O 0.42982(9) -0.47696(10) 0.23091(9)
N1F N 0.20702(12) -0.39548(14) 0.19633(12)
C1F C 0.06087(15) -0.4691(2) 0.06236(17)
C2F C 0.09805(14) -0.44994(18) 0.10028(15)
C3F C 0.13231(14) -0.48227(18) 0.12127(16)
H1F H 0.1314 -0.5165 0.1138
C4F C 0.16710(15) -0.46514(17) 0.15245(16)
H2F H 0.1899 -0.4877 0.1661
C5F C 0.16939(13) -0.41455(18) 0.16452(15)
C6F C 0.13413(16) -0.38043(19) 0.14449(17)
H3F H 0.1344 -0.3463 0.1526
C7F C 0.09891(15) -0.3997(2) 0.11225(17)
H4F H 0.0754 -0.3779 0.0985
C8F C 0.25696(14) -0.41648(16) 0.19429(15)
C9F C 0.28009(15) -0.42709(19) 0.15130(15)
H5F H 0.2626 -0.4219 0.1228
C10F C 0.32906(14) -0.44541(18) 0.14998(14)
H6F H 0.3443 -0.4523 0.1206
C11F C 0.35533(13) -0.45349(13) 0.19184(13)
C12F C 0.40837(12) -0.47122(12) 0.19121(13)
C13F C 0.33174(15) -0.44327(17) 0.23437(15)
H7F H 0.3493 -0.4487 0.2628
C14F C 0.28261(15) -0.4251(2) 0.23684(15)
H8F H 0.2673 -0.4189 0.2663
C15F C 0.19981(15) -0.35049(16) 0.22406(16)
C17F C 0.23662(18) -0.3137(2) 0.2242(2)
H10F H 0.2662 -0.3183 0.2067
Cu2D Cu 0.5000 0.5000 0.14390(2)
O4D O 0.5000 0.5000 0.0684(3)
Cu1_2 Cu -0.52241(2) -0.04429(3) 0.5000
Cu1A_2 Cu 0.04429(3) -0.52241(2) 0.5000
Cu1B_2 Cu 0.52241(2) 0.04429(3) 0.5000
Cu1C_2 Cu -0.04429(3) 0.52241(2) 0.5000
Cu1D Cu -0.02241(2) -0.45571(3) 0.0000
Cu1D_2 Cu -0.02241(2) 0.54429(3) 0.0000
Cu1E Cu -0.54429(3) -0.02241(2) 0.0000
Cu1E_2 Cu 0.45571(3) -0.02241(2) 0.0000
Cu1F Cu 0.02241(2) -0.54429(3) 0.0000
Cu1F_2 Cu 0.02241(2) 0.45571(3) 0.0000
Cu1G Cu -0.45571(3) 0.02241(2) 0.0000
Cu1G_2 Cu 0.54429(3) 0.02241(2) 0.0000
Cu2D_2 Cu -0.5000 -0.5000 0.14390(2)
Cu2D_3 Cu -0.5000 0.5000 0.14390(2)
Cu2D_4 Cu 0.5000 -0.5000 0.14390(2)
Cu3D Cu -0.5000 -0.5000 0.23855(2)
Cu3D_2 Cu -0.5000 0.5000 0.23855(2)
Cu3D_3 Cu 0.5000 -0.5000 0.23855(2)
Cu3D_4 Cu 0.5000 0.5000 0.23855(2)
O1H O -0.43497(12) 0.01437(15) 0.54967(11)
O1I O -0.01437(15) -0.43497(12) 0.54967(11)
O1J O 0.43497(12) -0.01437(15) 0.54967(11)
O1K O 0.01437(15) 0.43497(12) 0.54967(11)
O2_2 O -0.52806(12) 0.06239(15) 0.45085(11)
O2A_2 O -0.06239(15) -0.52806(12) 0.45085(11)
O2B_2 O 0.52806(12) -0.06239(15) 0.45085(11)
O2C_2 O 0.06239(15) 0.52806(12) 0.45085(11)
O2H O 0.52806(12) -0.06239(15) 0.54915(11)
O2I O 0.06239(15) 0.52806(12) 0.54915(11)
O2J O -0.52806(12) 0.06239(15) 0.54915(11)
O2K O -0.06239(15) -0.52806(12) 0.54915(11)
O3D_2 O 0.57114(8) 0.47911(9) 0.15093(9)
O3E_2 O 0.52089(9) 0.57114(8) 0.15093(9)
O3F_2 O 0.42886(8) 0.52089(9) 0.15093(9)
N2H N 0.0000 0.0000 -0.1861(2)
C19H C -0.0188(11) -0.0398(6) -0.1605(4)
H12H H -0.0319 -0.0671 -0.1774
C20H C -0.0194(12) -0.0415(6) -0.1170(4)
H13H H -0.0322 -0.0692 -0.1005
N3H N -0.008(2) -0.0370(9) -0.0189(3)
C21H C 0.0000 0.0000 -0.0939(3)
C22H C 0.0000 0.0000 -0.0449(4)
C19I C 0.0398(6) -0.0188(11) -0.1605(4)
H12I H 0.0671 -0.0319 -0.1774
C20I C 0.0415(6) -0.0194(12) -0.1170(4)
H13I H 0.0692 -0.0322 -0.1005
N3I N 0.0370(9) -0.008(2) -0.0189(3)
C19J C 0.0188(11) 0.0398(6) -0.1605(4)
H12J H 0.0319 0.0671 -0.1774
C20J C 0.0194(12) 0.0415(6) -0.1170(4)
H13J H 0.0322 0.0692 -0.1005
N3J N 0.008(2) 0.0370(9) -0.0189(3)
C19K C -0.0398(6) 0.0188(11) -0.1605(4)
H12K H -0.0671 0.0319 -0.1774
C20K C -0.0415(6) 0.0194(12) -0.1170(4)
H13K H -0.0692 0.0322 -0.1005
N3K N -0.0370(9) 0.008(2) -0.0189(3)
Cu3H Cu 0.0000 0.0000 -0.26145(2)
O5H O -0.07018(9) -0.02304(10) -0.26909(9)
O5I O 0.02304(10) -0.07018(9) -0.26909(9)
O5J O 0.07018(9) 0.02304(10) -0.26909(9)
O5K O -0.02304(10) 0.07018(9) -0.26909(9)
loop_
_geom_bond_atom_site_label_1
_geom_bond_atom_site_label_2
_geom_bond_site_symmetry_1
_geom_bond_site_symmetry_2
Cu1 O1 1_555 1_555
Cu2 O3 1_555 1_555
Cu3 O5 1_555 1_555
O1 C1 1_555 1_555
O2 C1 1_555 1_555
O3 C12 1_555 1_555
O4 Cu2 1_555 1_555
O5 C12 1_555 1_555
O6 Cu1 1_555 1_555
N1 C5 1_555 1_555
N2 Cu3 1_555 1_555
C1 C2 1_555 1_555
C2 C3 1_555 1_555
C3 H1 1_555 1_555
C4 C3 1_555 1_555
H2 C4 1_555 1_555
C5 C4 1_555 1_555
C6 C5 1_555 1_555
H3 C6 1_555 1_555
C7 C2 1_555 1_555
H4 C7 1_555 1_555
C8 N1 1_555 1_555
C9 C8 1_555 1_555
H5 C9 1_555 1_555
C10 C9 1_555 1_555
H6 C10 1_555 1_555
C11 C10 1_555 1_555
C12 C11 1_555 1_555
C13 C11 1_555 1_555
H7 C13 1_555 1_555
C14 C8 1_555 1_555
H8 C14 1_555 1_555
C15 N1 1_555 1_555
C16 C15 1_555 1_555
H9 C16 1_555 1_555
C17 C15 1_555 1_555
H10 C17 1_555 1_555
C18 C17 1_555 1_555
H11 C18 1_555 1_555
C19 N2 1_555 1_555
H12 C19 1_555 1_555
C20 C19 1_555 1_555
H13 C20 1_555 1_555
N3 C22 1_555 1_555
C21 C20 1_555 1_555
C22 C21 1_555 1_555
O1G C1G 1_555 1_555
O2G C1G 1_555 1_555
O3G C12G 1_555 1_555
O5G C12G 1_555 1_555
N1G C5G 1_555 1_555
C1G C2G 1_555 1_555
C2G C3G 1_555 1_555
C3G H1G 1_555 1_555
C4G C3G 1_555 1_555
H2G C4G 1_555 1_555
C5G C4G 1_555 1_555
C6G C5G 1_555 1_555
H3G C6G 1_555 1_555
C7G C2G 1_555 1_555
H4G C7G 1_555 1_555
C8G N1G 1_555 1_555
C9G C8G 1_555 1_555
H5G C9G 1_555 1_555
C10G C9G 1_555 1_555
H6G C10G 1_555 1_555
C11G C10G 1_555 1_555
C12G C11G 1_555 1_555
C13G C11G 1_555 1_555
H7G C13G 1_555 1_555
C14G C8G 1_555 1_555
H8G C14G 1_555 1_555
C15G C16 1_555 1_555
C17G C18 1_555 1_555
H10G C17G 1_555 1_555
C19A N2 1_555 1_555
H12A C19A 1_555 1_555
C20A C20 1_555 1_555
H13A C20A 1_555 1_555
N3A C22 1_555 1_555
C19B N2 1_555 1_555
H12B C19B 1_555 1_555
C20B C21 1_555 1_555
H13B C20B 1_555 1_555
N3B C22 1_555 1_555
C19C N2 1_555 1_555
H12C C19C 1_555 1_555
C20C C20 1_555 1_555
H13C C20C 1_555 1_555
N3C C22 1_555 1_555
Cu1A O1A 1_555 1_555
O1A C1A 1_555 1_555
O2A C1A 1_555 1_555
O3A Cu2 1_555 1_555
O5A Cu3 1_555 1_555
O6A Cu1A 1_555 1_555
N1A C5A 1_555 1_555
C1A C2A 1_555 1_555
C2A C3A 1_555 1_555
C3A H1A 1_555 1_555
C4A C3A 1_555 1_555
H2A C4A 1_555 1_555
C5A C4A 1_555 1_555
C6A C5A 1_555 1_555
H3A C6A 1_555 1_555
C7A C2A 1_555 1_555
H4A C7A 1_555 1_555
C8A N1A 1_555 1_555
C9A C8A 1_555 1_555
H5A C9A 1_555 1_555
C10A C9A 1_555 1_555
H6A C10A 1_555 1_555
C11A C10A 1_555 1_555
C12A O3A 1_555 1_555
C13A C11A 1_555 1_555
H7A C13A 1_555 1_555
C14A C8A 1_555 1_555
H8A C14A 1_555 1_555
C15A N1A 1_555 1_555
C16A C15A 1_555 1_555
H9A C16A 1_555 1_555
C17A C15A 1_555 1_555
H10A C17A 1_555 1_555
C18A C17A 1_555 1_555
H11A C18A 1_555 1_555
O1D C1D 1_555 1_555
O2D C1D 1_555 1_555
O3D C12D 1_555 1_555
O5D C12D 1_555 1_555
N1D C5D 1_555 1_555
C1D C2D 1_555 1_555
C2D C3D 1_555 1_555
C3D H1D 1_555 1_555
C4D C3D 1_555 1_555
H2D C4D 1_555 1_555
C5D C4D 1_555 1_555
C6D C5D 1_555 1_555
H3D C6D 1_555 1_555
C7D C2D 1_555 1_555
H4D C7D 1_555 1_555
C8D N1D 1_555 1_555
C9D C8D 1_555 1_555
H5D C9D 1_555 1_555
C10D C9D 1_555 1_555
H6D C10D 1_555 1_555
C11D C10D 1_555 1_555
C12D C11D 1_555 1_555
C13D C11D 1_555 1_555
H7D C13D 1_555 1_555
C14D C8D 1_555 1_555
H8D C14D 1_555 1_555
C15D C16A 1_555 1_555
C17D C18A 1_555 1_555
H10D C17D 1_555 1_555
Cu1B O1B 1_555 1_555
O1B C1B 1_555 1_555
O2B C1B 1_555 1_555
O3B Cu2 1_555 1_555
O5B Cu3 1_555 1_555
O6B Cu1B 1_555 1_555
N1B C5B 1_555 1_555
C1B C2B 1_555 1_555
C2B C3B 1_555 1_555
C3B H1B 1_555 1_555
C4B C3B 1_555 1_555
H2B C4B 1_555 1_555
C5B C4B 1_555 1_555
C6B C5B 1_555 1_555
H3B C6B 1_555 1_555
C7B C2B 1_555 1_555
H4B C7B 1_555 1_555
C8B N1B 1_555 1_555
C9B C8B 1_555 1_555
H5B C9B 1_555 1_555
C10B C9B 1_555 1_555
H6B C10B 1_555 1_555
C11B C10B 1_555 1_555
C12B O3B 1_555 1_555
C13B C11B 1_555 1_555
H7B C13B 1_555 1_555
C14B C8B 1_555 1_555
H8B C14B 1_555 1_555
C15B N1B 1_555 1_555
C16B C15B 1_555 1_555
H9B C16B 1_555 1_555
C17B C15B 1_555 1_555
H10B C17B 1_555 1_555
C18B C17B 1_555 1_555
H11B C18B 1_555 1_555
O1E C1E 1_555 1_555
O2E C1E 1_555 1_555
O3E C12E 1_555 1_555
O5E C12E 1_555 1_555
N1E C5E 1_555 1_555
C1E C2E 1_555 1_555
C2E C3E 1_555 1_555
C3E H1E 1_555 1_555
C4E C3E 1_555 1_555
H2E C4E 1_555 1_555
C5E C4E 1_555 1_555
C6E C5E 1_555 1_555
H3E C6E 1_555 1_555
C7E C2E 1_555 1_555
H4E C7E 1_555 1_555
C8E N1E 1_555 1_555
C9E C8E 1_555 1_555
H5E C9E 1_555 1_555
C10E C9E 1_555 1_555
H6E C10E 1_555 1_555
C11E C10E 1_555 1_555
C12E C11E 1_555 1_555
C13E C11E 1_555 1_555
H7E C13E 1_555 1_555
C14E C8E 1_555 1_555
H8E C14E 1_555 1_555
C15E C16B 1_555 1_555
C17E C18B 1_555 1_555
H10E C17E 1_555 1_555
Cu1C O1C 1_555 1_555
O1C C1C 1_555 1_555
O2C C1C 1_555 1_555
O3C Cu2 1_555 1_555
O5C Cu3 1_555 1_555
O6C Cu1C 1_555 1_555
N1C C5C 1_555 1_555
C1C C2C 1_555 1_555
C2C C3C 1_555 1_555
C3C H1C 1_555 1_555
C4C C3C 1_555 1_555
H2C C4C 1_555 1_555
C5C C4C 1_555 1_555
C6C C5C 1_555 1_555
H3C C6C 1_555 1_555
C7C C2C 1_555 1_555
H4C C7C 1_555 1_555
C8C N1C 1_555 1_555
C9C C8C 1_555 1_555
H5C C9C 1_555 1_555
C10C C9C 1_555 1_555
H6C C10C 1_555 1_555
C11C C10C 1_555 1_555
C12C O3C 1_555 1_555
C13C C11C 1_555 1_555
H7C C13C 1_555 1_555
C14C C8C 1_555 1_555
H8C C14C 1_555 1_555
C15C N1C 1_555 1_555
C16C C15C 1_555 1_555
H9C C16C 1_555 1_555
C17C C15C 1_555 1_555
H10C C17C 1_555 1_555
C18C C17C 1_555 1_555
H11C C18C 1_555 1_555
O1F C1F 1_555 1_555
O2F C1F 1_555 1_555
O3F C12F 1_555 1_555
O5F C12F 1_555 1_555
N1F C5F 1_555 1_555
C1F C2F 1_555 1_555
C2F C3F 1_555 1_555
C3F H1F 1_555 1_555
C4F C3F 1_555 1_555
H2F C4F 1_555 1_555
C5F C4F 1_555 1_555
C6F C5F 1_555 1_555
H3F C6F 1_555 1_555
C7F C2F 1_555 1_555
H4F C7F 1_555 1_555
C8F N1F 1_555 1_555
C9F C8F 1_555 1_555
H5F C9F 1_555 1_555
C10F C9F 1_555 1_555
H6F C10F 1_555 1_555
C11F C10F 1_555 1_555
C12F C11F 1_555 1_555
C13F C11F 1_555 1_555
H7F C13F 1_555 1_555
C14F C8F 1_555 1_555
H8F C14F 1_555 1_555
C15F C16C 1_555 1_555
C17F C18C 1_555 1_555
H10F C17F 1_555 1_555
Cu2D O3G 1_555 1_555
O4D Cu2D 1_555 1_555
Cu1_2 O2B 1_555 1_555
Cu1A_2 O2C 1_555 1_555
Cu1B_2 O2 1_555 1_555
Cu1C_2 O2A 1_555 1_555
Cu1D O2F 1_555 1_555
Cu1D_2 O1D 1_555 1_555
Cu1E O1E 1_555 1_555
Cu1E_2 O2G 1_555 1_555
Cu1F O1F 1_555 1_555
Cu1F_2 O2D 1_555 1_555
Cu1G O2E 1_555 1_555
Cu1G_2 O1G 1_555 1_555
Cu2D_2 O3E 1_555 1_555
Cu2D_3 O3D 1_555 1_555
Cu2D_4 O3F 1_555 1_555
Cu3D O5E 1_555 1_555
Cu3D_2 O5D 1_555 1_555
Cu3D_3 O5F 1_555 1_555
Cu3D_4 O5G 1_555 1_555
O1H Cu1B 1_555 1_555
O1I Cu1C 1_555 1_555
O1J Cu1 1_555 1_555
O1K Cu1A 1_555 1_555
O2_2 Cu1B 1_555 1_555
O2A_2 Cu1C 1_555 1_555
O2B_2 Cu1 1_555 1_555
O2C_2 Cu1A 1_555 1_555
O2H Cu1 1_555 1_555
O2I Cu1A 1_555 1_555
O2J Cu1B 1_555 1_555
O2K Cu1C 1_555 1_555
O3D_2 Cu2D 1_555 1_555
O3E_2 Cu2D 1_555 1_555
O3F_2 Cu2D 1_555 1_555
N2H C19H 1_555 1_555
C19H H12H 1_555 1_555
C20H C19H 1_555 1_555
H13H C20H 1_555 1_555
N3H C22H 1_555 1_555
C21H C20H 1_555 1_555
C22H C21H 1_555 1_555
C19I N2H 1_555 1_555
H12I C19I 1_555 1_555
C20I C20H 1_555 1_555
H13I C20I 1_555 1_555
N3I C22H 1_555 1_555
C19J N2H 1_555 1_555
H12J C19J 1_555 1_555
C20J C21H 1_555 1_555
H13J C20J 1_555 1_555
N3J C22H 1_555 1_555
C19K N2H 1_555 1_555
H12K C19K 1_555 1_555
C20K C20H 1_555 1_555
H13K C20K 1_555 1_555
N3K C22H 1_555 1_555
Cu3H N2H 1_555 1_555
O5H Cu3H 1_555 1_555
O5I Cu3H 1_555 1_555
O5J Cu3H 1_555 1_555
O5K Cu3H 1_555 1_555
C6 C7 1_555 1_555
C13 C14 1_555 1_555
C19 C19A 1_555 1_555
C19 C19C 1_555 1_555
C21 C20A 1_555 1_555
C21 C20C 1_555 1_555
N1G C15G 1_555 1_555
C6G C7G 1_555 1_555
C13G C14G 1_555 1_555
C15G C17G 1_555 1_555
C19A C20A 1_555 1_555
C19A C19B 1_555 1_555
C20A C20B 1_555 1_555
C19B C20B 1_555 1_555
C19B C19C 1_555 1_555
C20B C20C 1_555 1_555
C19C C20C 1_555 1_555
O5A C12A 1_555 1_555
C6A C7A 1_555 1_555
C11A C12A 1_555 1_555
C13A C14A 1_555 1_555
N1D C15D 1_555 1_555
C6D C7D 1_555 1_555
C13D C14D 1_555 1_555
C15D C17D 1_555 1_555
O5B C12B 1_555 1_555
C6B C7B 1_555 1_555
C11B C12B 1_555 1_555
C13B C14B 1_555 1_555
N1E C15E 1_555 1_555
C6E C7E 1_555 1_555
C13E C14E 1_555 1_555
C15E C17E 1_555 1_555
O5C C12C 1_555 1_555
C6C C7C 1_555 1_555
C11C C12C 1_555 1_555
C13C C14C 1_555 1_555
N1F C15F 1_555 1_555
C6F C7F 1_555 1_555
C13F C14F 1_555 1_555
C15F C17F 1_555 1_555
C19H C19I 1_555 1_555
C19H C19K 1_555 1_555
C21H C20I 1_555 1_555
C21H C20K 1_555 1_555
C19I C20I 1_555 1_555
C19I C19J 1_555 1_555
C20I C20J 1_555 1_555
C19J C20J 1_555 1_555
C19J C19K 1_555 1_555
C20J C20K 1_555 1_555
C19K C20K 1_555 1_555

#END
