
#######################################################################
#
#                 Cambridge Crystallographic Data Centre
#                                CCDC 
#
#######################################################################
#
# If this CIF has been generated from an entry in the Cambridge 
# Structural Database, then it will include bibliographic, chemical, 
# crystal, experimental, refinement or atomic coordinate data resulting 
# from the CCDC's data processing and validation procedures.
#
#######################################################################

data_XUDPAP
_chemical_name_common            DUT-72
_chemical_formula_moiety         '(C178 H164 Cu8 N22 O32)n'
_chemical_name_systematic        
catena-[tetrakis(\m-4,4',4'',4'''-(1,3-phenylenedinitrilo)tetrabenzoato)-(\m-1,4-diazabicyclo[2.2.2]octane)-hexakis(1,4-diazabicyclo[2.2.2]octane)-octa-copper]
_symmetry_cell_setting           tetragonal
_symmetry_space_group_name_H-M   'P 4/m n c'
_symmetry_Int_Tables_number      128
_space_group_name_Hall           '-P 4 2n'
loop_
_symmetry_equiv_pos_site_id
_symmetry_equiv_pos_as_xyz
1 x,y,z
2 -x,-y,z
3 -y,x,z
4 y,-x,z
5 1/2-x,1/2+y,1/2-z
6 1/2+x,1/2-y,1/2-z
7 1/2+y,1/2+x,1/2-z
8 1/2-y,1/2-x,1/2-z
9 -x,-y,-z
10 x,y,-z
11 y,-x,-z
12 -y,x,-z
13 1/2+x,1/2-y,1/2+z
14 1/2-x,1/2+y,1/2+z
15 1/2-y,1/2-x,1/2+z
16 1/2+y,1/2+x,1/2+z
_cell_length_a                   26.540(4)
_cell_length_b                   26.540(4)
_cell_length_c                   27.010(5)
_cell_angle_alpha                90
_cell_angle_beta                 90
_cell_angle_gamma                90
_cell_volume                     19025.1
_exptl_crystal_colour            blue
_exptl_crystal_description       stick
_cell_formula_units_Z            2
_chemical_properties_physical    Moisture-sensitive
_exptl_crystal_recrystallization_method 'Solvothermal synthesis'
loop_
_atom_site_label
_atom_site_type_symbol
_atom_site_fract_x
_atom_site_fract_y
_atom_site_fract_z
Cu1 Cu 0.5000 0.5000 0.130034(10)
Cu2 Cu 0.5000 0.5000 0.228809(12)
Cu3 Cu -0.024286(10) 0.455966(13) 0.0000
O1 O 0.43232(5) 0.47283(6) 0.22101(4)
O2 O 0.42991(4) 0.47559(4) 0.13851(4)
O3 O 0.02516(6) 0.43583(8) 0.05068(6)
O4 O 0.06483(7) 0.51048(8) 0.05130(7)
C1 C 0.41073(5) 0.46671(5) 0.18012(5)
C2 C 0.35835(5) 0.44646(6) 0.18196(5)
C3 C 0.33091(6) 0.43785(8) 0.13949(6)
H1 H 0.3450 0.4452 0.1088
C4 C 0.28272(7) 0.41841(9) 0.14194(6)
H2 H 0.2647 0.4126 0.1130
C5 C 0.26091(6) 0.40753(8) 0.18760(7)
C6 C 0.28820(7) 0.41644(10) 0.22998(6)
H3 H 0.2740 0.4095 0.2607
C7 C 0.33644(7) 0.43557(9) 0.22746(6)
H4 H 0.3545 0.4412 0.2565
C8 C 0.05972(7) 0.46531(9) 0.06448(8)
C9 C 0.09782(7) 0.44468(9) 0.09970(8)
C10 C 0.09875(8) 0.39419(9) 0.11147(8)
H5 H 0.0740 0.3730 0.0987
C11 C 0.13548(8) 0.37432(9) 0.14177(9)
H6 H 0.1355 0.3401 0.1492
C12 C 0.17283(6) 0.40593(8) 0.16137(7)
C13 C 0.17103(7) 0.45667(9) 0.15044(8)
H7 H 0.1950 0.4781 0.1641
C14 C 0.13458(7) 0.47611(9) 0.11979(8)
H8 H 0.1344 0.5103 0.1124
C15 C 0.20545(6) 0.34265(7) 0.22060(7)
C16 C 0.16310(7) 0.33690(7) 0.2500
H9 H 0.1383 0.3617 0.2500
C17 C 0.24188(9) 0.30545(11) 0.22068(11)
H10 H 0.2703 0.3087 0.2008
C18 C 0.23611(10) 0.26389(10) 0.2500
H11 H 0.2609 0.2391 0.2500
C19 C 0.4753(14) 0.5421(9) 0.3322(4)
H12 H 0.4408 0.5428 0.3203
H13 H 0.4916 0.5725 0.3205
C20 C 0.4807(12) 0.4511(5) 0.3272(3)
H14 H 0.5017 0.4243 0.3141
H15 H 0.4468 0.4463 0.3149
C21 C 0.4805(11) 0.4485(7) 0.3837(3)
H16 H 0.5022 0.4213 0.3948
H17 H 0.4467 0.4420 0.3955
C22 C 0.5010(10) 0.4496(2) 0.02891(14)
H18 H 0.4718 0.4313 0.0409
H19 H 0.5309 0.4325 0.0409
C23 C 0.5338(6) 0.5370(6) 0.0278(2)
C24 C 0.4741(18) 0.5437(10) 0.3879(4)
H20 H 0.4907 0.5740 0.3999
H21 H 0.4396 0.5437 0.3997
C25 C -0.1220(2) 0.3979(3) 0.0000
H22 H -0.1300 0.4178 -0.0291
C26 C -0.0646(4) 0.3628(4) -0.0462(4)
H23 H -0.0296 0.3554 -0.0537
H24 H -0.0776 0.3850 -0.0717
C27 C -0.1539(4) 0.3495(5) 0.0000
H25 H -0.1753 0.3490 0.0291
C28 C -0.0962(5) 0.3124(4) -0.0449(5)
H26 H -0.1200 0.3125 -0.0721
H27 H -0.0737 0.2840 -0.0494
N1 N 0.21179(6) 0.38649(7) 0.19085(6)
N2 N 0.5000 0.5000 0.31033(12)
N3 N 0.5000 0.5000 0.04795(7)
N4 N -0.06829(11) 0.38600(13) 0.0000
N5 N 0.5000 0.5000 0.4048(2)
N6 N -0.1227(4) 0.3064(3) 0.0000
O1G O 0.02717(6) 0.06768(5) 0.27899(4)
O2G O 0.02441(4) 0.07009(4) 0.36149(4)
O3G O 0.06417(8) 0.47484(6) 0.44932(6)
O4G O -0.01048(8) 0.43517(7) 0.44870(7)
C1G C 0.03329(5) 0.08927(5) 0.31988(5)
C2G C 0.05354(6) 0.14165(5) 0.31804(5)
C3G C 0.06215(8) 0.16909(6) 0.36051(6)
H1G H 0.0548 0.1550 0.3912
C4G C 0.08159(9) 0.21728(7) 0.35806(6)
H2G H 0.0874 0.2353 0.3870
C5G C 0.09247(8) 0.23909(6) 0.31240(7)
C6G C 0.08356(10) 0.21180(7) 0.27002(6)
H3G H 0.0905 0.2260 0.2393
C7G C 0.06443(9) 0.16356(7) 0.27254(6)
H4G H 0.0588 0.1455 0.2435
C8G C 0.03469(9) 0.44028(7) 0.43552(8)
C9G C 0.05532(9) 0.40218(7) 0.40030(8)
C10G C 0.10581(9) 0.40125(8) 0.38853(8)
H5G H 0.1270 0.4260 0.4013
C11G C 0.12568(9) 0.36452(8) 0.35823(9)
H6G H 0.1599 0.3645 0.3508
C12G C 0.09407(8) 0.32717(6) 0.33863(7)
C13G C 0.04333(9) 0.32897(7) 0.34956(8)
H7G H 0.0219 0.3050 0.3359
C14G C 0.02389(9) 0.36542(7) 0.38021(8)
H8G H -0.0103 0.3656 0.3876
C15G C 0.15735(7) 0.29455(6) 0.27940(7)
C17G C 0.19455(11) 0.25812(9) 0.27932(11)
H10G H 0.1913 0.2297 0.2992
N1G N 0.11351(7) 0.28821(6) 0.30915(6)
C19A C 0.5247(14) 0.4579(9) 0.3322(4)
H12A H 0.5592 0.4572 0.3203
H13A H 0.5084 0.4275 0.3205
C20A C 0.5193(12) 0.5489(5) 0.3272(3)
H14A H 0.4983 0.5757 0.3141
H15A H 0.5532 0.5537 0.3149
C21A C 0.5195(11) 0.5515(7) 0.3837(3)
H16A H 0.4978 0.5787 0.3948
H17A H 0.5533 0.5580 0.3955
C24A C 0.5259(18) 0.4563(10) 0.3879(4)
H20A H 0.5093 0.4260 0.3999
H21A H 0.5604 0.4563 0.3997
C19B C 0.4579(9) 0.4753(14) 0.3322(4)
H12B H 0.4572 0.4408 0.3203
H13B H 0.4275 0.4916 0.3205
C20B C 0.5489(5) 0.4807(12) 0.3272(3)
H14B H 0.5757 0.5017 0.3141
H15B H 0.5537 0.4468 0.3149
C21B C 0.5515(7) 0.4805(11) 0.3837(3)
H16B H 0.5787 0.5022 0.3948
H17B H 0.5580 0.4467 0.3955
C24B C 0.4563(10) 0.4741(18) 0.3879(4)
H20B H 0.4260 0.4907 0.3999
H21B H 0.4563 0.4396 0.3997
C19C C 0.5421(9) 0.5247(14) 0.3322(4)
H12C H 0.5428 0.5592 0.3203
H13C H 0.5725 0.5084 0.3205
C20C C 0.4511(5) 0.5193(12) 0.3272(3)
H14C H 0.4243 0.4983 0.3141
H15C H 0.4463 0.5532 0.3149
C21C C 0.4485(7) 0.5195(11) 0.3837(3)
H16C H 0.4213 0.4978 0.3948
H17C H 0.4420 0.5533 0.3955
C24C C 0.5437(10) 0.5259(18) 0.3879(4)
H20C H 0.5740 0.5093 0.3999
H21C H 0.5437 0.5604 0.3997
C22A C 0.4990(10) 0.5504(2) 0.02891(14)
H18A H 0.5282 0.5687 0.0409
H19A H 0.4691 0.5675 0.0409
C23A C 0.4662(6) 0.4630(6) 0.0278(2)
C22B C 0.5504(2) 0.5010(10) 0.02891(14)
H18B H 0.5687 0.4718 0.0409
H19B H 0.5675 0.5309 0.0409
C23B C 0.4630(6) 0.5338(6) 0.0278(2)
C22C C 0.4496(2) 0.4990(10) 0.02891(14)
H18C H 0.4313 0.5282 0.0409
H19C H 0.4325 0.4691 0.0409
C23C C 0.5370(6) 0.4662(6) 0.0278(2)
C22H C 0.4990(10) 0.5504(2) -0.02891(14)
H18H H 0.5282 0.5687 -0.0409
H19H H 0.4691 0.5675 -0.0409
C23H C 0.4662(6) 0.4630(6) -0.0278(2)
N3H N 0.5000 0.5000 -0.04795(7)
C22I C 0.5010(10) 0.4496(2) -0.02891(14)
H18I H 0.4718 0.4313 -0.0409
H19I H 0.5309 0.4325 -0.0409
C23I C 0.5338(6) 0.5370(6) -0.0278(2)
C22J C 0.4496(2) 0.4990(10) -0.02891(14)
H18J H 0.4313 0.5282 -0.0409
H19J H 0.4325 0.4691 -0.0409
C23J C 0.5370(6) 0.4662(6) -0.0278(2)
C22K C 0.5504(2) 0.5010(10) -0.02891(14)
H18K H 0.5687 0.4718 -0.0409
H19K H 0.5675 0.5309 -0.0409
C23K C 0.4630(6) 0.5338(6) -0.0278(2)
H22I H -0.1300 0.4178 0.0291
C26I C -0.0646(4) 0.3628(4) 0.0462(4)
H23I H -0.0296 0.3554 0.0537
H24I H -0.0776 0.3850 0.0717
H25I H -0.1753 0.3490 -0.0291
C28I C -0.0962(5) 0.3124(4) 0.0449(5)
H26I H -0.1200 0.3125 0.0721
H27I H -0.0737 0.2840 0.0494
Cu3A Cu 0.024286(10) 0.544034(13) 0.0000
O1A O -0.43232(5) 0.52717(6) 0.22101(4)
O2A O -0.42991(4) 0.52441(4) 0.13851(4)
O3A O -0.02516(6) 0.56417(8) 0.05068(6)
O4A O -0.06483(7) 0.48952(8) 0.05130(7)
C1A C -0.41073(5) 0.53329(5) 0.18012(5)
C2A C -0.35835(5) 0.55354(6) 0.18196(5)
C3A C -0.33091(6) 0.56215(8) 0.13949(6)
H1A H -0.3450 0.5548 0.1088
C4A C -0.28272(7) 0.58159(9) 0.14194(6)
H2A H -0.2647 0.5874 0.1130
C5A C -0.26091(6) 0.59247(8) 0.18760(7)
C6A C -0.28820(7) 0.58356(10) 0.22998(6)
H3A H -0.2740 0.5905 0.2607
C7A C -0.33644(7) 0.56443(9) 0.22746(6)
H4A H -0.3545 0.5588 0.2565
C8A C -0.05972(7) 0.53469(9) 0.06448(8)
C9A C -0.09782(7) 0.55532(9) 0.09970(8)
C10A C -0.09875(8) 0.60581(9) 0.11147(8)
H5A H -0.0740 0.6270 0.0987
C11A C -0.13548(8) 0.62568(9) 0.14177(9)
H6A H -0.1355 0.6599 0.1492
C12A C -0.17283(6) 0.59407(8) 0.16137(7)
C13A C -0.17103(7) 0.54333(9) 0.15044(8)
H7A H -0.1950 0.5219 0.1641
C14A C -0.13458(7) 0.52389(9) 0.11979(8)
H8A H -0.1344 0.4897 0.1124
C15A C -0.20545(6) 0.65735(7) 0.22060(7)
C16A C -0.16310(7) 0.66310(7) 0.2500
H9A H -0.1383 0.6383 0.2500
C17A C -0.24188(9) 0.69455(11) 0.22068(11)
H10A H -0.2703 0.6913 0.2008
C18A C -0.23611(10) 0.73611(10) 0.2500
H11A H -0.2609 0.7609 0.2500
C25A C 0.1220(2) 0.6021(3) 0.0000
H22A H 0.1300 0.5822 -0.0291
C26A C 0.0646(4) 0.6372(4) -0.0462(4)
H23A H 0.0296 0.6446 -0.0537
H24A H 0.0776 0.6150 -0.0717
C27A C 0.1539(4) 0.6505(5) 0.0000
H25A H 0.1753 0.6510 0.0291
C28A C 0.0962(5) 0.6876(4) -0.0449(5)
H26A H 0.1200 0.6875 -0.0721
H27A H 0.0737 0.7160 -0.0494
N1A N -0.21179(6) 0.61351(7) 0.19085(6)
N4A N 0.06829(11) 0.61400(13) 0.0000
N6A N 0.1227(4) 0.6936(3) 0.0000
O1F O -0.02717(6) 0.93232(5) 0.27899(4)
O2F O -0.02441(4) 0.92991(4) 0.36149(4)
O3F O -0.06417(8) 0.52516(6) 0.44932(6)
O4F O 0.01048(8) 0.56483(7) 0.44870(7)
C1F C -0.03329(5) 0.91073(5) 0.31988(5)
C2F C -0.05354(6) 0.85835(5) 0.31804(5)
C3F C -0.06215(8) 0.83091(6) 0.36051(6)
H1F H -0.0548 0.8450 0.3912
C4F C -0.08159(9) 0.78272(7) 0.35806(6)
H2F H -0.0874 0.7647 0.3870
C5F C -0.09247(8) 0.76091(6) 0.31240(7)
C6F C -0.08356(10) 0.78820(7) 0.27002(6)
H3F H -0.0905 0.7740 0.2393
C7F C -0.06443(9) 0.83644(7) 0.27254(6)
H4F H -0.0588 0.8545 0.2435
C8F C -0.03469(9) 0.55972(7) 0.43552(8)
C9F C -0.05532(9) 0.59782(7) 0.40030(8)
C10F C -0.10581(9) 0.59875(8) 0.38853(8)
H5F H -0.1270 0.5740 0.4013
C11F C -0.12568(9) 0.63548(8) 0.35823(9)
H6F H -0.1599 0.6355 0.3508
C12F C -0.09407(8) 0.67283(6) 0.33863(7)
C13F C -0.04333(9) 0.67103(7) 0.34956(8)
H7F H -0.0219 0.6950 0.3359
C14F C -0.02389(9) 0.63458(7) 0.38021(8)
H8F H 0.0103 0.6344 0.3876
C15F C -0.15735(7) 0.70545(6) 0.27940(7)
C17F C -0.19455(11) 0.74188(9) 0.27932(11)
H10F H -0.1913 0.7703 0.2992
N1F N -0.11351(7) 0.71179(6) 0.30915(6)
H22H H 0.1300 0.5822 0.0291
C26H C 0.0646(4) 0.6372(4) 0.0462(4)
H23H H 0.0296 0.6446 0.0537
H24H H 0.0776 0.6150 0.0717
H25H H 0.1753 0.6510 -0.0291
C28H C 0.0962(5) 0.6876(4) 0.0449(5)
H26H H 0.1200 0.6875 0.0721
H27H H 0.0737 0.7160 0.0494
Cu3C Cu 0.455966(13) 1.024286(10) 0.0000
O1C O 0.47283(6) 0.56768(5) 0.22101(4)
O2C O 0.47559(4) 0.57009(4) 0.13851(4)
O3C O 0.43583(8) 0.97484(6) 0.05068(6)
O4C O 0.51048(8) 0.93517(7) 0.05130(7)
C1C C 0.46671(5) 0.58927(5) 0.18012(5)
C2C C 0.44646(6) 0.64165(5) 0.18196(5)
C3C C 0.43785(8) 0.66909(6) 0.13949(6)
H1C H 0.4452 0.6550 0.1088
C4C C 0.41841(9) 0.71728(7) 0.14194(6)
H2C H 0.4126 0.7353 0.1130
C5C C 0.40753(8) 0.73909(6) 0.18760(7)
C6C C 0.41644(10) 0.71180(7) 0.22998(6)
H3C H 0.4095 0.7260 0.2607
C7C C 0.43557(9) 0.66356(7) 0.22746(6)
H4C H 0.4412 0.6455 0.2565
C8C C 0.46531(9) 0.94028(7) 0.06448(8)
C9C C 0.44468(9) 0.90218(7) 0.09970(8)
C10C C 0.39419(9) 0.90125(8) 0.11147(8)
H5C H 0.3730 0.9260 0.0987
C11C C 0.37432(9) 0.86452(8) 0.14177(9)
H6C H 0.3401 0.8645 0.1492
C12C C 0.40593(8) 0.82717(6) 0.16137(7)
C13C C 0.45667(9) 0.82897(7) 0.15044(8)
H7C H 0.4781 0.8050 0.1641
C14C C 0.47611(9) 0.86542(7) 0.11979(8)
H8C H 0.5103 0.8656 0.1124
C15C C 0.34265(7) 0.79455(6) 0.22060(7)
C16C C 0.33690(7) 0.83690(7) 0.2500
H9C H 0.3617 0.8617 0.2500
C17C C 0.30545(11) 0.75812(9) 0.22068(11)
H10C H 0.3087 0.7297 0.2008
C18C C 0.26389(10) 0.76389(10) 0.2500
H11C H 0.2391 0.7391 0.2500
C25C C 0.3979(3) 1.1220(2) 0.0000
H22C H 0.4178 1.1300 -0.0291
C26C C 0.3628(4) 1.0646(4) -0.0462(4)
H23C H 0.3554 1.0296 -0.0537
H24C H 0.3850 1.0776 -0.0717
C27C C 0.3495(5) 1.1539(4) 0.0000
H25C H 0.3490 1.1753 0.0291
C28C C 0.3124(4) 1.0962(5) -0.0449(5)
H26C H 0.3125 1.1200 -0.0721
H27C H 0.2840 1.0737 -0.0494
N1C N 0.38649(7) 0.78821(6) 0.19085(6)
N4C N 0.38600(13) 1.06829(11) 0.0000
N6C N 0.3064(3) 1.1227(4) 0.0000
O1D O 0.06768(5) 0.97283(6) 0.27899(4)
O2D O 0.07009(4) 0.97559(4) 0.36149(4)
O3D O 0.47484(6) 0.93583(8) 0.44932(6)
O4D O 0.43517(7) 1.01048(8) 0.44870(7)
C1D C 0.08927(5) 0.96671(5) 0.31988(5)
C2D C 0.14165(5) 0.94646(6) 0.31804(5)
C3D C 0.16909(6) 0.93785(8) 0.36051(6)
H1D H 0.1550 0.9452 0.3912
C4D C 0.21728(7) 0.91841(9) 0.35806(6)
H2D H 0.2353 0.9126 0.3870
C5D C 0.23909(6) 0.90753(8) 0.31240(7)
C6D C 0.21180(7) 0.91644(10) 0.27002(6)
H3D H 0.2260 0.9095 0.2393
C7D C 0.16356(7) 0.93557(9) 0.27254(6)
H4D H 0.1455 0.9412 0.2435
C8D C 0.44028(7) 0.96531(9) 0.43552(8)
C9D C 0.40218(7) 0.94468(9) 0.40030(8)
C10D C 0.40125(8) 0.89419(9) 0.38853(8)
H5D H 0.4260 0.8730 0.4013
C11D C 0.36452(8) 0.87432(9) 0.35823(9)
H6D H 0.3645 0.8401 0.3508
C12D C 0.32717(6) 0.90593(8) 0.33863(7)
C13D C 0.32897(7) 0.95667(9) 0.34956(8)
H7D H 0.3050 0.9781 0.3359
C14D C 0.36542(7) 0.97611(9) 0.38021(8)
H8D H 0.3656 1.0103 0.3876
C15D C 0.29455(6) 0.84265(7) 0.27940(7)
C17D C 0.25812(9) 0.80545(11) 0.27932(11)
H10D H 0.2297 0.8087 0.2992
N1D N 0.28821(6) 0.88649(7) 0.30915(6)
H22J H 0.4178 1.1300 0.0291
C26J C 0.3628(4) 1.0646(4) 0.0462(4)
H23J H 0.3554 1.0296 0.0537
H24J H 0.3850 1.0776 0.0717
H25J H 0.3490 1.1753 -0.0291
C28J C 0.3124(4) 1.0962(5) 0.0449(5)
H26J H 0.3125 1.1200 0.0721
H27J H 0.2840 1.0737 0.0494
Cu1H Cu 0.5000 0.5000 -0.130034(10)
Cu3B Cu 0.544034(13) -0.024286(10) 0.0000
O1B O 0.52717(6) 0.43232(5) 0.22101(4)
O2B O 0.52441(4) 0.42991(4) 0.13851(4)
O3B O 0.56417(8) 0.02516(6) 0.05068(6)
O4B O 0.48952(8) 0.06483(7) 0.05130(7)
C1B C 0.53329(5) 0.41073(5) 0.18012(5)
C2B C 0.55354(6) 0.35835(5) 0.18196(5)
C3B C 0.56215(8) 0.33091(6) 0.13949(6)
H1B H 0.5548 0.3450 0.1088
C4B C 0.58159(9) 0.28272(7) 0.14194(6)
H2B H 0.5874 0.2647 0.1130
C5B C 0.59247(8) 0.26091(6) 0.18760(7)
C6B C 0.58356(10) 0.28820(7) 0.22998(6)
H3B H 0.5905 0.2740 0.2607
C7B C 0.56443(9) 0.33644(7) 0.22746(6)
H4B H 0.5588 0.3545 0.2565
C8B C 0.53469(9) 0.05972(7) 0.06448(8)
C9B C 0.55532(9) 0.09782(7) 0.09970(8)
C10B C 0.60581(9) 0.09875(8) 0.11147(8)
H5B H 0.6270 0.0740 0.0987
C11B C 0.62568(9) 0.13548(8) 0.14177(9)
H6B H 0.6599 0.1355 0.1492
C12B C 0.59407(8) 0.17283(6) 0.16137(7)
C13B C 0.54333(9) 0.17103(7) 0.15044(8)
H7B H 0.5219 0.1950 0.1641
C14B C 0.52389(9) 0.13458(7) 0.11979(8)
H8B H 0.4897 0.1344 0.1124
C15B C 0.65735(7) 0.20545(6) 0.22060(7)
C16B C 0.66310(7) 0.16310(7) 0.2500
H9B H 0.6383 0.1383 0.2500
C17B C 0.69455(11) 0.24188(9) 0.22068(11)
H10B H 0.6913 0.2703 0.2008
C18B C 0.73611(10) 0.23611(10) 0.2500
H11B H 0.7609 0.2609 0.2500
C25B C 0.6021(3) -0.1220(2) 0.0000
H22B H 0.5822 -0.1300 -0.0291
C26B C 0.6372(4) -0.0646(4) -0.0462(4)
H23B H 0.6446 -0.0296 -0.0537
H24B H 0.6150 -0.0776 -0.0717
C27B C 0.6505(5) -0.1539(4) 0.0000
H25B H 0.6510 -0.1753 0.0291
C28B C 0.6876(4) -0.0962(5) -0.0449(5)
H26B H 0.6875 -0.1200 -0.0721
H27B H 0.7160 -0.0737 -0.0494
N1B N 0.61351(7) 0.21179(6) 0.19085(6)
N4B N 0.61400(13) -0.06829(11) 0.0000
N6B N 0.6936(3) -0.1227(4) 0.0000
O1E O 0.93232(5) 0.02717(6) 0.27899(4)
O2E O 0.92991(4) 0.02441(4) 0.36149(4)
O3E O 0.52516(6) 0.06417(8) 0.44932(6)
O4E O 0.56483(7) -0.01048(8) 0.44870(7)
C1E C 0.91073(5) 0.03329(5) 0.31988(5)
C2E C 0.85835(5) 0.05354(6) 0.31804(5)
C3E C 0.83091(6) 0.06215(8) 0.36051(6)
H1E H 0.8450 0.0548 0.3912
C4E C 0.78272(7) 0.08159(9) 0.35806(6)
H2E H 0.7647 0.0874 0.3870
C5E C 0.76091(6) 0.09247(8) 0.31240(7)
C6E C 0.78820(7) 0.08356(10) 0.27002(6)
H3E H 0.7740 0.0905 0.2393
C7E C 0.83644(7) 0.06443(9) 0.27254(6)
H4E H 0.8545 0.0588 0.2435
C8E C 0.55972(7) 0.03469(9) 0.43552(8)
C9E C 0.59782(7) 0.05532(9) 0.40030(8)
C10E C 0.59875(8) 0.10581(9) 0.38853(8)
H5E H 0.5740 0.1270 0.4013
C11E C 0.63548(8) 0.12568(9) 0.35823(9)
H6E H 0.6355 0.1599 0.3508
C12E C 0.67283(6) 0.09407(8) 0.33863(7)
C13E C 0.67103(7) 0.04333(9) 0.34956(8)
H7E H 0.6950 0.0219 0.3359
C14E C 0.63458(7) 0.02389(9) 0.38021(8)
H8E H 0.6344 -0.0103 0.3876
C15E C 0.70545(6) 0.15735(7) 0.27940(7)
C17E C 0.74188(9) 0.19455(11) 0.27932(11)
H10E H 0.7703 0.1913 0.2992
N1E N 0.71179(6) 0.11351(7) 0.30915(6)
H22K H 0.5822 -0.1300 0.0291
C26K C 0.6372(4) -0.0646(4) 0.0462(4)
H23K H 0.6446 -0.0296 0.0537
H24K H 0.6150 -0.0776 0.0717
H25K H 0.6510 -0.1753 -0.0291
C28K C 0.6876(4) -0.0962(5) 0.0449(5)
H26K H 0.6875 -0.1200 0.0721
H27K H 0.7160 -0.0737 0.0494
Cu2D Cu 0.0000 0.0000 0.271191(12)
C19E C -0.0247(14) -0.0421(9) 0.1678(4)
H12E H -0.0592 -0.0428 0.1797
H13E H -0.0084 -0.0725 0.1795
C20E C -0.0193(12) 0.0489(5) 0.1728(3)
H14E H 0.0017 0.0757 0.1859
H15E H -0.0532 0.0537 0.1851
C21E C -0.0195(11) 0.0515(7) 0.1163(3)
H16E H 0.0022 0.0787 0.1052
H17E H -0.0533 0.0580 0.1045
C24E C -0.0259(18) -0.0437(10) 0.1121(4)
H20E H -0.0093 -0.0740 0.1001
H21E H -0.0604 -0.0437 0.1003
N2D N 0.0000 0.0000 0.18967(12)
N5D N 0.0000 0.0000 0.0952(2)
C19D C 0.0247(14) 0.0421(9) 0.1678(4)
H12D H 0.0592 0.0428 0.1797
H13D H 0.0084 0.0725 0.1795
C20D C 0.0193(12) -0.0489(5) 0.1728(3)
H14D H -0.0017 -0.0757 0.1859
H15D H 0.0532 -0.0537 0.1851
C21D C 0.0195(11) -0.0515(7) 0.1163(3)
H16D H -0.0022 -0.0787 0.1052
H17D H 0.0533 -0.0580 0.1045
C24D C 0.0259(18) 0.0437(10) 0.1121(4)
H20D H 0.0093 0.0740 0.1001
H21D H 0.0604 0.0437 0.1003
C19G C -0.0421(9) 0.0247(14) 0.1678(4)
H12G H -0.0428 0.0592 0.1797
H13G H -0.0725 0.0084 0.1795
C20G C 0.0489(5) 0.0193(12) 0.1728(3)
H14G H 0.0757 -0.0017 0.1859
H15G H 0.0537 0.0532 0.1851
C21G C 0.0515(7) 0.0195(11) 0.1163(3)
H16G H 0.0787 -0.0022 0.1052
H17G H 0.0580 0.0533 0.1045
C24G C -0.0437(10) 0.0259(18) 0.1121(4)
H20G H -0.0740 0.0093 0.1001
H21G H -0.0437 0.0604 0.1003
C19F C 0.0421(9) -0.0247(14) 0.1678(4)
H12F H 0.0428 -0.0592 0.1797
H13F H 0.0725 -0.0084 0.1795
C20F C -0.0489(5) -0.0193(12) 0.1728(3)
H14F H -0.0757 0.0017 0.1859
H15F H -0.0537 -0.0532 0.1851
C21F C -0.0515(7) -0.0195(11) 0.1163(3)
H16F H -0.0787 0.0022 0.1052
H17F H -0.0580 -0.0533 0.1045
C24F C 0.0437(10) -0.0259(18) 0.1121(4)
H20F H 0.0740 -0.0093 0.1001
H21F H 0.0437 -0.0604 0.1003
Cu1_2 Cu -0.5000 0.5000 0.130034(10)
Cu1D Cu 0.0000 0.0000 0.369966(10)
Cu1D_2 Cu 0.0000 1.0000 0.369966(10)
Cu1D_3 Cu 1.0000 0.0000 0.369966(10)
Cu2_2 Cu -0.5000 0.5000 0.228809(12)
Cu2D_2 Cu 0.0000 1.0000 0.271191(12)
Cu2D_3 Cu 1.0000 0.0000 0.271191(12)
Cu3B_2 Cu 0.544034(13) 0.975714(10) 0.0000
Cu3C_2 Cu 0.455966(13) 0.024286(10) 0.0000
Cu3D Cu 0.524286(10) -0.044034(13) 0.5000
Cu3D_2 Cu 0.524286(10) 0.955966(13) 0.5000
Cu3E Cu 0.475714(10) 0.044034(13) 0.5000
Cu3E_2 Cu 0.475714(10) 1.044034(13) 0.5000
Cu3F Cu -0.044034(13) 0.475714(10) 0.5000
Cu3G Cu 0.044034(13) 0.524286(10) 0.5000
O1A_2 O 0.56768(5) 0.52717(6) 0.22101(4)
O1D_2 O 0.06768(5) -0.02717(6) 0.27899(4)
O1E_2 O -0.06768(5) 0.02717(6) 0.27899(4)
O1F_2 O -0.02717(6) -0.06768(5) 0.27899(4)
O2A_2 O 0.57009(4) 0.52441(4) 0.13851(4)
O2H O 0.57009(4) 0.52441(4) -0.13851(4)
O2I O 0.42991(4) 0.47559(4) -0.13851(4)
O2J O 0.47559(4) 0.57009(4) -0.13851(4)
O2K O 0.52441(4) 0.42991(4) -0.13851(4)
O3H O -0.02516(6) 0.56417(8) -0.05068(6)
O3I O 0.02516(6) 0.43583(8) -0.05068(6)
O3J O 0.43583(8) 0.97484(6) -0.05068(6)
O3K O 0.56417(8) 0.02516(6) -0.05068(6)
O4B_2 O 0.48952(8) 1.06483(7) 0.05130(7)
O4C_2 O 0.51048(8) -0.06483(7) 0.05130(7)
O4H O -0.06483(7) 0.48952(8) -0.05130(7)
O4I O 0.06483(7) 0.51048(8) -0.05130(7)
O4J O 0.51048(8) -0.06483(7) -0.05130(7)
O4K O 0.48952(8) 1.06483(7) -0.05130(7)
loop_
_geom_bond_atom_site_label_1
_geom_bond_atom_site_label_2
_geom_bond_site_symmetry_1
_geom_bond_site_symmetry_2
Cu1 O2 1_555 1_555
Cu2 O1 1_555 1_555
Cu3 O3 1_555 1_555
O1 C1 1_555 1_555
O2 C1 1_555 1_555
O3 C8 1_555 1_555
O4 C8 1_555 1_555
C1 C2 1_555 1_555
C2 C3 1_555 1_555
C3 H1 1_555 1_555
C4 C3 1_555 1_555
H2 C4 1_555 1_555
C5 C4 1_555 1_555
C6 C5 1_555 1_555
H3 C6 1_555 1_555
C7 C2 1_555 1_555
H4 C7 1_555 1_555
C8 C9 1_555 1_555
C9 C10 1_555 1_555
C10 H5 1_555 1_555
C11 C10 1_555 1_555
H6 C11 1_555 1_555
C12 C11 1_555 1_555
C13 C12 1_555 1_555
H7 C13 1_555 1_555
C14 C9 1_555 1_555
H8 C14 1_555 1_555
C15 C16 1_555 1_555
C16 H9 1_555 1_555
C17 C15 1_555 1_555
H10 C17 1_555 1_555
C18 C17 1_555 1_555
H11 C18 1_555 1_555
C19 H12 1_555 1_555
H12 C20C 1_555 1_555
H13 C19 1_555 1_555
C20 H14 1_555 1_555
H14 C19A 1_555 1_555
H15 C20 1_555 1_555
C21 C20 1_555 1_555
H16 C21 1_555 1_555
H17 C21 1_555 1_555
C22 H18 1_555 1_555
H18 C23A 1_555 1_555
H19 C22 1_555 1_555
C23 N3 1_555 1_555
C24 C19 1_555 1_555
H20 C24 1_555 1_555
H21 C24 1_555 1_555
C25 H22 1_555 1_555
C26 H23 1_555 1_555
H24 C26 1_555 1_555
C27 C25 1_555 1_555
H25 C27 1_555 1_555
C28 C26 1_555 1_555
H26 C28 1_555 1_555
H27 C28 1_555 1_555
N1 C5 1_555 1_555
N2 Cu2 1_555 1_555
N3 Cu1 1_555 1_555
N4 Cu3 1_555 1_555
N5 C21 1_555 1_555
N6 C27 1_555 1_555
O1G C1G 1_555 1_555
O2G C1G 1_555 1_555
O3G C8G 1_555 1_555
O4G C8G 1_555 1_555
C1G C2G 1_555 1_555
C2G C3G 1_555 1_555
C3G H1G 1_555 1_555
C4G C3G 1_555 1_555
H2G C4G 1_555 1_555
C5G C4G 1_555 1_555
C6G C5G 1_555 1_555
H3G C6G 1_555 1_555
C7G C2G 1_555 1_555
H4G C7G 1_555 1_555
C8G C9G 1_555 1_555
C9G C10G 1_555 1_555
C10G H5G 1_555 1_555
C11G C10G 1_555 1_555
H6G C11G 1_555 1_555
C12G C11G 1_555 1_555
C13G C12G 1_555 1_555
H7G C13G 1_555 1_555
C14G C9G 1_555 1_555
H8G C14G 1_555 1_555
C15G C16 1_555 1_555
C17G C18 1_555 1_555
H10G C17G 1_555 1_555
N1G C5G 1_555 1_555
C19A C20 1_555 1_555
H12A C19A 1_555 1_555
H13A C20 1_555 1_555
C20A C19 1_555 1_555
H14A C19 1_555 1_555
H15A C20A 1_555 1_555
C21A C24 1_555 1_555
H16A C24 1_555 1_555
H17A C21A 1_555 1_555
C24A C21 1_555 1_555
H20A C21 1_555 1_555
H21A C24A 1_555 1_555
C19B C20 1_555 1_555
H12B C20 1_555 1_555
H13B C19B 1_555 1_555
C20B N2 1_555 1_555
H14B C20B 1_555 1_555
H15B C19A 1_555 1_555
C21B N5 1_555 1_555
H16B C21B 1_555 1_555
H17B C24A 1_555 1_555
C24B C21 1_555 1_555
H20B C24B 1_555 1_555
H21B C21 1_555 1_555
C19C N2 1_555 1_555
H12C C20A 1_555 1_555
H13C C20B 1_555 1_555
C20C C19 1_555 1_555
H14C C19B 1_555 1_555
H15C C19 1_555 1_555
C21C C24 1_555 1_555
H16C C24B 1_555 1_555
H17C C24 1_555 1_555
C24C N5 1_555 1_555
H20C C21B 1_555 1_555
H21C C21A 1_555 1_555
C22A C23 1_555 1_555
H18A C23 1_555 1_555
H19A C22A 1_555 1_555
C23A C22 1_555 1_555
C22B C23 1_555 1_555
H18B C22B 1_555 1_555
H19B C23 1_555 1_555
C23B N3 1_555 1_555
C22C N3 1_555 1_555
H18C C23B 1_555 1_555
H19C C23A 1_555 1_555
C23C C22 1_555 1_555
C22H C22A 1_555 1_555
H18H C22H 1_555 1_555
H19H C22H 1_555 1_555
C23H C23A 1_555 1_555
N3H C22H 1_555 1_555
C22I C22 1_555 1_555
H18I C23H 1_555 1_555
H19I C22I 1_555 1_555
C23I C23 1_555 1_555
C22J C22C 1_555 1_555
H18J C22J 1_555 1_555
H19J C23H 1_555 1_555
C23J C23C 1_555 1_555
C22K C22B 1_555 1_555
H18K C23J 1_555 1_555
H19K C23I 1_555 1_555
C23K C23B 1_555 1_555
H22I C25 1_555 1_555
C26I N4 1_555 1_555
H23I C26I 1_555 1_555
H24I C26I 1_555 1_555
H25I C27 1_555 1_555
C28I N6 1_555 1_555
H26I C28I 1_555 1_555
H27I C28I 1_555 1_555
Cu3A O4 1_555 1_555
O1A C1A 1_555 1_555
O2A C1A 1_555 1_555
O3A Cu3A 1_555 1_555
O4A Cu3 1_555 1_555
C1A C2A 1_555 1_555
C2A C3A 1_555 1_555
C3A H1A 1_555 1_555
C4A C3A 1_555 1_555
H2A C4A 1_555 1_555
C5A C4A 1_555 1_555
C6A C5A 1_555 1_555
H3A C6A 1_555 1_555
C7A C2A 1_555 1_555
H4A C7A 1_555 1_555
C8A O3A 1_555 1_555
C9A C8A 1_555 1_555
C10A C9A 1_555 1_555
H5A C10A 1_555 1_555
C11A C10A 1_555 1_555
H6A C11A 1_555 1_555
C12A C11A 1_555 1_555
C13A C12A 1_555 1_555
H7A C13A 1_555 1_555
C14A C9A 1_555 1_555
H8A C14A 1_555 1_555
C15A C16A 1_555 1_555
C16A H9A 1_555 1_555
C17A C15A 1_555 1_555
H10A C17A 1_555 1_555
C18A C17A 1_555 1_555
H11A C18A 1_555 1_555
C25A H22A 1_555 1_555
C26A H23A 1_555 1_555
H24A C26A 1_555 1_555
C27A C25A 1_555 1_555
H25A C27A 1_555 1_555
C28A C26A 1_555 1_555
H26A C28A 1_555 1_555
H27A C28A 1_555 1_555
N1A C5A 1_555 1_555
N4A Cu3A 1_555 1_555
N6A C27A 1_555 1_555
O1F C1F 1_555 1_555
O2F C1F 1_555 1_555
O3F C8F 1_555 1_555
O4F C8F 1_555 1_555
C1F C2F 1_555 1_555
C2F C3F 1_555 1_555
C3F H1F 1_555 1_555
C4F C3F 1_555 1_555
H2F C4F 1_555 1_555
C5F C4F 1_555 1_555
C6F C5F 1_555 1_555
H3F C6F 1_555 1_555
C7F C2F 1_555 1_555
H4F C7F 1_555 1_555
C8F C9F 1_555 1_555
C9F C10F 1_555 1_555
C10F H5F 1_555 1_555
C11F C10F 1_555 1_555
H6F C11F 1_555 1_555
C12F C11F 1_555 1_555
C13F C12F 1_555 1_555
H7F C13F 1_555 1_555
C14F C9F 1_555 1_555
H8F C14F 1_555 1_555
C15F C16A 1_555 1_555
C17F C18A 1_555 1_555
H10F C17F 1_555 1_555
N1F C5F 1_555 1_555
H22H C25A 1_555 1_555
C26H N4A 1_555 1_555
H23H C26H 1_555 1_555
H24H C26H 1_555 1_555
H25H C27A 1_555 1_555
C28H N6A 1_555 1_555
H26H C28H 1_555 1_555
H27H C28H 1_555 1_555
Cu3C O3C 1_555 1_555
O1C Cu2 1_555 1_555
O2C Cu1 1_555 1_555
O3C C8C 1_555 1_555
O4C C8C 1_555 1_555
C1C O1C 1_555 1_555
C2C C1C 1_555 1_555
C3C C2C 1_555 1_555
H1C C3C 1_555 1_555
C4C C3C 1_555 1_555
H2C C4C 1_555 1_555
C5C C4C 1_555 1_555
C6C C5C 1_555 1_555
H3C C6C 1_555 1_555
C7C C2C 1_555 1_555
H4C C7C 1_555 1_555
C8C C9C 1_555 1_555
C9C C10C 1_555 1_555
C10C H5C 1_555 1_555
C11C C10C 1_555 1_555
H6C C11C 1_555 1_555
C12C C11C 1_555 1_555
C13C C12C 1_555 1_555
H7C C13C 1_555 1_555
C14C C9C 1_555 1_555
H8C C14C 1_555 1_555
C15C C16C 1_555 1_555
C16C H9C 1_555 1_555
C17C C15C 1_555 1_555
H10C C17C 1_555 1_555
C18C C17C 1_555 1_555
H11C C18C 1_555 1_555
C25C H22C 1_555 1_555
C26C H23C 1_555 1_555
H24C C26C 1_555 1_555
C27C C25C 1_555 1_555
H25C C27C 1_555 1_555
C28C C26C 1_555 1_555
H26C C28C 1_555 1_555
H27C C28C 1_555 1_555
N1C C5C 1_555 1_555
N4C Cu3C 1_555 1_555
N6C C27C 1_555 1_555
O1D C1D 1_555 1_555
O2D C1D 1_555 1_555
O3D C8D 1_555 1_555
O4D C8D 1_555 1_555
C1D C2D 1_555 1_555
C2D C3D 1_555 1_555
C3D H1D 1_555 1_555
C4D C3D 1_555 1_555
H2D C4D 1_555 1_555
C5D C4D 1_555 1_555
C6D C5D 1_555 1_555
H3D C6D 1_555 1_555
C7D C2D 1_555 1_555
H4D C7D 1_555 1_555
C8D C9D 1_555 1_555
C9D C10D 1_555 1_555
C10D H5D 1_555 1_555
C11D C10D 1_555 1_555
H6D C11D 1_555 1_555
C12D C11D 1_555 1_555
C13D C12D 1_555 1_555
H7D C13D 1_555 1_555
C14D C9D 1_555 1_555
H8D C14D 1_555 1_555
C15D C16C 1_555 1_555
C17D C18C 1_555 1_555
H10D C17D 1_555 1_555
N1D C5D 1_555 1_555
H22J C25C 1_555 1_555
C26J N4C 1_555 1_555
H23J C26J 1_555 1_555
H24J C26J 1_555 1_555
H25J C27C 1_555 1_555
C28J N6C 1_555 1_555
H26J C28J 1_555 1_555
H27J C28J 1_555 1_555
Cu1H N3H 1_555 1_555
Cu3B O3B 1_555 1_555
O1B Cu2 1_555 1_555
O2B Cu1 1_555 1_555
O3B C8B 1_555 1_555
O4B C8B 1_555 1_555
C1B O1B 1_555 1_555
C2B C1B 1_555 1_555
C3B C2B 1_555 1_555
H1B C3B 1_555 1_555
C4B C3B 1_555 1_555
H2B C4B 1_555 1_555
C5B C4B 1_555 1_555
C6B C5B 1_555 1_555
H3B C6B 1_555 1_555
C7B C2B 1_555 1_555
H4B C7B 1_555 1_555
C8B C9B 1_555 1_555
C9B C10B 1_555 1_555
C10B H5B 1_555 1_555
C11B C10B 1_555 1_555
H6B C11B 1_555 1_555
C12B C11B 1_555 1_555
C13B C12B 1_555 1_555
H7B C13B 1_555 1_555
C14B C9B 1_555 1_555
H8B C14B 1_555 1_555
C15B C16B 1_555 1_555
C16B H9B 1_555 1_555
C17B C15B 1_555 1_555
H10B C17B 1_555 1_555
C18B C17B 1_555 1_555
H11B C18B 1_555 1_555
C25B H22B 1_555 1_555
C26B H23B 1_555 1_555
H24B C26B 1_555 1_555
C27B C25B 1_555 1_555
H25B C27B 1_555 1_555
C28B C26B 1_555 1_555
H26B C28B 1_555 1_555
H27B C28B 1_555 1_555
N1B C5B 1_555 1_555
N4B Cu3B 1_555 1_555
N6B C27B 1_555 1_555
O1E C1E 1_555 1_555
O2E C1E 1_555 1_555
O3E C8E 1_555 1_555
O4E C8E 1_555 1_555
C1E C2E 1_555 1_555
C2E C3E 1_555 1_555
C3E H1E 1_555 1_555
C4E C3E 1_555 1_555
H2E C4E 1_555 1_555
C5E C4E 1_555 1_555
C6E C5E 1_555 1_555
H3E C6E 1_555 1_555
C7E C2E 1_555 1_555
H4E C7E 1_555 1_555
C8E C9E 1_555 1_555
C9E C10E 1_555 1_555
C10E H5E 1_555 1_555
C11E C10E 1_555 1_555
H6E C11E 1_555 1_555
C12E C11E 1_555 1_555
C13E C12E 1_555 1_555
H7E C13E 1_555 1_555
C14E C9E 1_555 1_555
H8E C14E 1_555 1_555
C15E C16B 1_555 1_555
C17E C18B 1_555 1_555
H10E C17E 1_555 1_555
N1E C5E 1_555 1_555
H22K C25B 1_555 1_555
C26K N4B 1_555 1_555
H23K C26K 1_555 1_555
H24K C26K 1_555 1_555
H25K C27B 1_555 1_555
C28K N6B 1_555 1_555
H26K C28K 1_555 1_555
H27K C28K 1_555 1_555
Cu2D O1G 1_555 1_555
C19E H12E 1_555 1_555
H12E C20F 1_555 1_555
H13E C19E 1_555 1_555
C20E H14E 1_555 1_555
H14E C19D 1_555 1_555
H15E C20E 1_555 1_555
C21E C20E 1_555 1_555
H16E C21E 1_555 1_555
H17E C21E 1_555 1_555
C24E C19E 1_555 1_555
H20E C24E 1_555 1_555
H21E C24E 1_555 1_555
N2D Cu2D 1_555 1_555
N5D C21E 1_555 1_555
C19D C20E 1_555 1_555
H12D C19D 1_555 1_555
H13D C20E 1_555 1_555
C20D C19E 1_555 1_555
H14D C19E 1_555 1_555
H15D C20D 1_555 1_555
C21D C24E 1_555 1_555
H16D C24E 1_555 1_555
H17D C21D 1_555 1_555
C24D C21E 1_555 1_555
H20D C21E 1_555 1_555
H21D C24D 1_555 1_555
C19G C20E 1_555 1_555
H12G C20E 1_555 1_555
H13G C19G 1_555 1_555
C20G N2D 1_555 1_555
H14G C20G 1_555 1_555
H15G C19D 1_555 1_555
C21G N5D 1_555 1_555
H16G C21G 1_555 1_555
H17G C24D 1_555 1_555
C24G C21E 1_555 1_555
H20G C24G 1_555 1_555
H21G C21E 1_555 1_555
C19F N2D 1_555 1_555
H12F C20D 1_555 1_555
H13F C20G 1_555 1_555
C20F C19E 1_555 1_555
H14F C19G 1_555 1_555
H15F C19E 1_555 1_555
C21F C24E 1_555 1_555
H16F C24G 1_555 1_555
H17F C24E 1_555 1_555
C24F N5D 1_555 1_555
H20F C21G 1_555 1_555
H21F C21D 1_555 1_555
Cu1_2 O2A 1_555 1_555
Cu1D O2G 1_555 1_555
Cu1D_2 O2F 1_555 1_555
Cu1D_3 O2E 1_555 1_555
Cu2_2 O1A 1_555 1_555
Cu2D_2 O1F 1_555 1_555
Cu2D_3 O1E 1_555 1_555
Cu3B_2 O4C 1_555 1_555
Cu3C_2 O4B 1_555 1_555
Cu3D O4E 1_555 1_555
Cu3D_2 O3D 1_555 1_555
Cu3E O3E 1_555 1_555
Cu3E_2 O4D 1_555 1_555
Cu3F O4G 1_555 1_555
Cu3G O3G 1_555 1_555
O1A_2 Cu2 1_555 1_555
O1D_2 Cu2D 1_555 1_555
O1E_2 Cu2D 1_555 1_555
O1F_2 Cu2D 1_555 1_555
O2A_2 Cu1 1_555 1_555
O2H Cu1H 1_555 1_555
O2I Cu1H 1_555 1_555
O2J Cu1H 1_555 1_555
O2K Cu1H 1_555 1_555
O3H Cu3A 1_555 1_555
O3I Cu3 1_555 1_555
O3J Cu3C 1_555 1_555
O3K Cu3B 1_555 1_555
O4B_2 Cu3C 1_555 1_555
O4C_2 Cu3B 1_555 1_555
O4H Cu3 1_555 1_555
O4I Cu3A 1_555 1_555
O4J Cu3B 1_555 1_555
O4K Cu3C 1_555 1_555
C6 C7 1_555 1_555
C12 N1 1_555 1_555
C13 C14 1_555 1_555
C15 N1 1_555 1_555
C19 N2 1_555 1_555
H13 C20A 1_555 1_555
C20 N2 1_555 1_555
H15 C19B 1_555 1_555
H16 C24A 1_555 1_555
H17 C24B 1_555 1_555
C22 N3 1_555 1_555
H19 C23C 1_555 1_555
C24 N5 1_555 1_555
H20 C21A 1_555 1_555
H21 C21C 1_555 1_555
C25 N4 1_555 1_555
C26 N4 1_555 1_555
C28 N6 1_555 1_555
N2 C19A 1_555 1_555
N2 C20A 1_555 1_555
N2 C19B 1_555 1_555
N2 C20C 1_555 1_555
N3 C22A 1_555 1_555
N3 C23A 1_555 1_555
N3 C22B 1_555 1_555
N3 C23C 1_555 1_555
N5 C21A 1_555 1_555
N5 C24A 1_555 1_555
N5 C24B 1_555 1_555
N5 C21C 1_555 1_555
C6G C7G 1_555 1_555
C12G N1G 1_555 1_555
C13G C14G 1_555 1_555
C15G C17G 1_555 1_555
C15G N1G 1_555 1_555
C19A H13A 1_555 1_555
C19A C24A 1_555 1_555
C19A C20B 1_555 1_555
H12A C20B 1_555 1_555
C20A H14A 1_555 1_555
C20A C21A 1_555 1_555
C20A C19C 1_555 1_555
H15A C19C 1_555 1_555
C21A H16A 1_555 1_555
C21A C24C 1_555 1_555
H17A C24C 1_555 1_555
C24A H20A 1_555 1_555
C24A C21B 1_555 1_555
H21A C21B 1_555 1_555
C19B H12B 1_555 1_555
C19B C24B 1_555 1_555
C19B C20C 1_555 1_555
H13B C20C 1_555 1_555
C20B H15B 1_555 1_555
C20B C21B 1_555 1_555
C20B C19C 1_555 1_555
H14B C19C 1_555 1_555
C21B H17B 1_555 1_555
C21B C24C 1_555 1_555
H16B C24C 1_555 1_555
C24B H21B 1_555 1_555
C24B C21C 1_555 1_555
H20B C21C 1_555 1_555
C19C H12C 1_555 1_555
C19C H13C 1_555 1_555
C19C C24C 1_555 1_555
C20C H14C 1_555 1_555
C20C H15C 1_555 1_555
C20C C21C 1_555 1_555
C21C H16C 1_555 1_555
C21C H17C 1_555 1_555
C24C H20C 1_555 1_555
C24C H21C 1_555 1_555
C22A H18A 1_555 1_555
C22A C23B 1_555 1_555
H19A C23B 1_555 1_555
C23A C22C 1_555 1_555
C22B H19B 1_555 1_555
C22B C23C 1_555 1_555
H18B C23C 1_555 1_555
C23B C22C 1_555 1_555
C22C H18C 1_555 1_555
C22C H19C 1_555 1_555
C22H C23I 1_555 1_555
C22H C23K 1_555 1_555
H18H C23I 1_555 1_555
H19H C23K 1_555 1_555
C23H N3H 1_555 1_555
C23H C22I 1_555 1_555
C23H C22J 1_555 1_555
N3H C22I 1_555 1_555
N3H C23I 1_555 1_555
N3H C22J 1_555 1_555
N3H C23J 1_555 1_555
N3H C22K 1_555 1_555
N3H C23K 1_555 1_555
C22I H18I 1_555 1_555
C22I C23J 1_555 1_555
H19I C23J 1_555 1_555
C23I C22K 1_555 1_555
C22J H19J 1_555 1_555
C22J C23K 1_555 1_555
H18J C23K 1_555 1_555
C23J C22K 1_555 1_555
C22K H18K 1_555 1_555
C22K H19K 1_555 1_555
C26I C28I 1_555 1_555
O4A C8A 1_555 1_555
C6A C7A 1_555 1_555
C12A N1A 1_555 1_555
C13A C14A 1_555 1_555
C15A N1A 1_555 1_555
C25A N4A 1_555 1_555
C26A N4A 1_555 1_555
C28A N6A 1_555 1_555
O3F Cu3F 1_555 1_555
O4F Cu3G 1_555 1_555
C6F C7F 1_555 1_555
C12F N1F 1_555 1_555
C13F C14F 1_555 1_555
C15F C17F 1_555 1_555
C15F N1F 1_555 1_555
C26H C28H 1_555 1_555
O2C C1C 1_555 1_555
C6C C7C 1_555 1_555
C12C N1C 1_555 1_555
C13C C14C 1_555 1_555
C15C N1C 1_555 1_555
C25C N4C 1_555 1_555
C26C N4C 1_555 1_555
C28C N6C 1_555 1_555
O1D Cu2D_2 1_555 1_555
O2D Cu1D_2 1_555 1_555
C6D C7D 1_555 1_555
C12D N1D 1_555 1_555
C13D C14D 1_555 1_555
C15D C17D 1_555 1_555
C15D N1D 1_555 1_555
C26J C28J 1_555 1_555
O2B C1B 1_555 1_555
C6B C7B 1_555 1_555
C12B N1B 1_555 1_555
C13B C14B 1_555 1_555
C15B N1B 1_555 1_555
C25B N4B 1_555 1_555
C26B N4B 1_555 1_555
C28B N6B 1_555 1_555
C6E C7E 1_555 1_555
C12E N1E 1_555 1_555
C13E C14E 1_555 1_555
C15E C17E 1_555 1_555
C15E N1E 1_555 1_555
C26K C28K 1_555 1_555
C19E N2D 1_555 1_555
H13E C20D 1_555 1_555
C20E N2D 1_555 1_555
H15E C19G 1_555 1_555
H16E C24D 1_555 1_555
H17E C24G 1_555 1_555
C24E N5D 1_555 1_555
H20E C21D 1_555 1_555
H21E C21F 1_555 1_555
N2D C19D 1_555 1_555
N2D C20D 1_555 1_555
N2D C19G 1_555 1_555
N2D C20F 1_555 1_555
N5D C21D 1_555 1_555
N5D C24D 1_555 1_555
N5D C24G 1_555 1_555
N5D C21F 1_555 1_555
C19D H13D 1_555 1_555
C19D C24D 1_555 1_555
C19D C20G 1_555 1_555
H12D C20G 1_555 1_555
C20D H14D 1_555 1_555
C20D C21D 1_555 1_555
C20D C19F 1_555 1_555
H15D C19F 1_555 1_555
C21D H16D 1_555 1_555
C21D C24F 1_555 1_555
H17D C24F 1_555 1_555
C24D H20D 1_555 1_555
C24D C21G 1_555 1_555
H21D C21G 1_555 1_555
C19G H12G 1_555 1_555
C19G C24G 1_555 1_555
C19G C20F 1_555 1_555
H13G C20F 1_555 1_555
C20G H15G 1_555 1_555
C20G C21G 1_555 1_555
C20G C19F 1_555 1_555
H14G C19F 1_555 1_555
C21G H17G 1_555 1_555
C21G C24F 1_555 1_555
H16G C24F 1_555 1_555
C24G H21G 1_555 1_555
C24G C21F 1_555 1_555
H20G C21F 1_555 1_555
C19F H12F 1_555 1_555
C19F H13F 1_555 1_555
C19F C24F 1_555 1_555
C20F H14F 1_555 1_555
C20F H15F 1_555 1_555
C20F C21F 1_555 1_555
C21F H16F 1_555 1_555
C21F H17F 1_555 1_555
C24F H20F 1_555 1_555
C24F H21F 1_555 1_555

#END
