
#######################################################################
#
#                 Cambridge Crystallographic Data Centre
#                                CCDC 
#
#######################################################################
#
# If this CIF has been generated from an entry in the Cambridge 
# Structural Database, then it will include bibliographic, chemical, 
# crystal, experimental, refinement or atomic coordinate data resulting 
# from the CCDC's data processing and validation procedures.
#
#######################################################################

data_XUDQAQ
_chemical_name_common            DUT-91
_chemical_formula_moiety         '(C178 H150 Cu8 N22 O32)n'
_chemical_name_systematic        
"catena-[tetrakis(\m-4,4',4'',4'''-(1,3-phenylenedinitrilo)tetrabenzoato)-(\m-1,4-bis(1H-imidazol-1-yl)benzene)-(\m-1,4-diazabicyclo[2.2.2]octane)-tetrakis(1,4-diazabicyclo[2.2.2]octane)-octa-copper unknown solvate]"
_symmetry_cell_setting           tetragonal
_symmetry_space_group_name_H-M   'P 4/m n c'
_symmetry_Int_Tables_number      128
_space_group_name_Hall           '-P 4 2n'
loop_
_symmetry_equiv_pos_site_id
_symmetry_equiv_pos_as_xyz
1 x,y,z
2 -x,-y,z
3 -y,x,z
4 y,-x,z
5 1/2-x,1/2+y,1/2-z
6 1/2+x,1/2-y,1/2-z
7 1/2+y,1/2+x,1/2-z
8 1/2-y,1/2-x,1/2-z
9 -x,-y,-z
10 x,y,-z
11 y,-x,-z
12 -y,x,-z
13 1/2+x,1/2-y,1/2+z
14 1/2-x,1/2+y,1/2+z
15 1/2-y,1/2-x,1/2+z
16 1/2+y,1/2+x,1/2+z
_cell_length_a                   26.690(4)
_cell_length_b                   26.690(4)
_cell_length_c                   26.380(5)
_cell_angle_alpha                90
_cell_angle_beta                 90
_cell_angle_gamma                90
_cell_volume                     18792
_exptl_crystal_colour            green
_exptl_crystal_description       block
_cell_formula_units_Z            2
_chemical_properties_physical    Moisture-sensitive
loop_
_atom_site_label
_atom_site_type_symbol
_atom_site_fract_x
_atom_site_fract_y
_atom_site_fract_z
Cu1 Cu 1.0000 1.0000 0.13324(2)
Cu2 Cu 1.0000 1.0000 0.23476(2)
Cu3 Cu 0.52359(2) 1.04379(3) 0.0000
N1 N 0.71329(10) 0.88605(14) 0.19129(14)
O1 O 0.93249(8) 0.97246(10) 0.22647(9)
O2 O 0.93000(7) 0.97682(8) 0.14201(8)
O3 O 0.56517(12) 1.01214(13) 0.05223(14)
O4 O 0.52587(11) 0.93712(13) 0.05185(13)
C1 C 0.91126(10) 0.96717(10) 0.18445(11)
C2 C 0.85886(11) 0.94677(12) 0.18544(12)
C3 C 0.83226(12) 0.93929(15) 0.14161(15)
H1 H 0.8466 0.9474 0.1106
C4 C 0.78413(13) 0.91968(16) 0.14318(15)
H2 H 0.7664 0.9145 0.1133
C5 C 0.76258(12) 0.90791(15) 0.18940(16)
C6 C 0.78867(14) 0.91557(18) 0.23337(16)
H3 H 0.7740 0.9081 0.2644
C7 C 0.83729(13) 0.93455(17) 0.23158(15)
H4 H 0.8553 0.9390 0.2614
C8 C 0.67474(12) 0.90635(16) 0.16201(17)
C9 C 0.67243(14) 0.95683(16) 0.15168(19)
H5 H 0.6965 0.9780 0.1655
C10 C 0.63577(14) 0.97662(17) 0.1217(2)
H6 H 0.6351 1.0109 0.1154
C11 C 0.59952(13) 0.94569(17) 0.10046(18)
C12 C 0.60062(15) 0.89511(18) 0.11109(19)
H7 H 0.5760 0.8743 0.0978
C13 C 0.63785(14) 0.87508(18) 0.14113(19)
H8 H 0.6385 0.8408 0.1476
C14 C 0.56018(15) 0.96659(19) 0.0652(2)
C15 C 0.70695(13) 0.84220(15) 0.22073(18)
C16 C 0.74352(17) 0.8058(2) 0.2212(3)
H9 H 0.7725 0.8099 0.2021
C17 C 0.66412(14) 0.83588(14) 0.2500
H10 H 0.6395 0.8605 0.2500
C18 C 0.7369(2) 0.7631(2) 0.2500
H11 H 0.7615 0.7385 0.2500
N2 N 1.0000 1.0000 0.04907(15)
C19 C 0.9686(5) 0.9585(7) 0.0288(4)
H12 H 0.9345 0.9622 0.0410
H13 H 0.9814 0.9267 0.0410
N3 N 0.5645(2) 1.1142(2) 0.0000
N4 N 0.6180(7) 1.2007(6) 0.0000
C20 C 0.5354(7) 1.1588(6) 0.0000
H14 H 0.5138 1.1581 0.0296
C21 C 0.5620(9) 1.2069(7) 0.0000
H15 H 0.5521 1.2259 0.0297
C22 C 0.6189(5) 1.1079(6) 0.0000
H16 H 0.6285 1.0887 0.0297
C23 C 0.6460(7) 1.1541(7) 0.0000
H17 H 0.6676 1.1542 -0.0296
C24 C 0.5753(5) 1.1301(5) 0.0516(5)
H18 H 0.5943 1.1046 0.0693
H19 H 0.5445 1.1363 0.0700
C25 C 0.6054(6) 1.1776(6) 0.0469(6)
H20 H 0.5878 1.2027 0.0666
H21 H 0.6368 1.1714 0.0643
C26 C 1.0000 1.0000 0.4508(5)
C27 C 1.0461(9) 1.001(7) 0.4737(4)
H22 H 1.0736 0.9814 0.4832
C28 C 1.032(5) 1.034(4) 0.4737(4)
H23 H 1.0364 1.0670 0.4831
N5 N 1.0071(12) 1.0142(9) 0.3139(3)
C29 C 0.9998(13) 0.9875(7) 0.3599(4)
H24 H 0.9881 0.9548 0.3629
N6 N 1.0134(9) 1.0196(8) 0.4006(3)
C30 C 1.0291(10) 1.0661(7) 0.3798(5)
H25 H 1.0400 1.0938 0.3980
C31 C 1.0252(9) 1.0627(7) 0.3262(5)
H26 H 1.0332 1.0879 0.3032
N1G N 0.61395(14) 0.78671(10) 0.30871(14)
O1G O 0.52754(10) 0.56751(8) 0.27353(9)
O2G O 0.52318(8) 0.57000(7) 0.35799(8)
O3G O 0.48786(13) 0.93483(12) 0.44777(14)
O4G O 0.56288(13) 0.97413(11) 0.44815(13)
C1G C 0.53283(10) 0.58874(10) 0.31555(11)
C2G C 0.55323(12) 0.64114(11) 0.31456(12)
C3G C 0.56071(15) 0.66774(12) 0.35839(15)
H1G H 0.5526 0.6534 0.3894
C4G C 0.58032(16) 0.71587(13) 0.35682(15)
H2G H 0.5855 0.7336 0.3867
C5G C 0.59209(15) 0.73742(12) 0.31060(16)
C6G C 0.58443(18) 0.71133(14) 0.26663(16)
H3G H 0.5919 0.7260 0.2356
C7G C 0.56545(17) 0.66271(13) 0.26842(15)
H4G H 0.5610 0.6447 0.2386
C8G C 0.59365(16) 0.82526(12) 0.33799(17)
C9G C 0.54317(16) 0.82757(14) 0.34832(19)
H5G H 0.5220 0.8035 0.3345
C10G C 0.52338(17) 0.86423(14) 0.3783(2)
H6G H 0.4891 0.8649 0.3846
C11G C 0.55431(17) 0.90048(13) 0.39954(18)
C12G C 0.60489(18) 0.89938(15) 0.38891(19)
H7G H 0.6257 0.9240 0.4022
C13G C 0.62492(18) 0.86215(14) 0.35887(19)
H8G H 0.6592 0.8615 0.3524
C14G C 0.53341(19) 0.93982(15) 0.4348(2)
C15G C 0.65780(15) 0.79305(13) 0.27927(18)
C16G C 0.6942(2) 0.75648(17) 0.2788(3)
H9G H 0.6901 0.7275 0.2979
C19A C 1.0314(5) 1.0415(7) 0.0288(4)
H12A H 1.0655 1.0378 0.0410
H13A H 1.0186 1.0733 0.0410
C19B C 1.0415(7) 0.9686(5) 0.0288(4)
H12B H 1.0378 0.9345 0.0410
H13B H 1.0733 0.9814 0.0410
C19C C 0.9585(7) 1.0314(5) 0.0288(4)
H12C H 0.9622 1.0655 0.0410
H13C H 0.9267 1.0186 0.0410
N2H N 1.0000 1.0000 -0.04907(15)
C19H C 1.0314(5) 1.0415(7) -0.0288(4)
H12H H 1.0655 1.0378 -0.0410
H13H H 1.0186 1.0733 -0.0410
C19I C 0.9686(5) 0.9585(7) -0.0288(4)
H12I H 0.9345 0.9622 -0.0410
H13I H 0.9814 0.9267 -0.0410
C19J C 0.9585(7) 1.0314(5) -0.0288(4)
H12J H 0.9622 1.0655 -0.0410
H13J H 0.9267 1.0186 -0.0410
C19K C 1.0415(7) 0.9686(5) -0.0288(4)
H12K H 1.0378 0.9345 -0.0410
H13K H 1.0733 0.9814 -0.0410
H14I H 0.5138 1.1581 -0.0296
H15I H 0.5521 1.2259 -0.0297
H16I H 0.6285 1.0887 -0.0297
H17I H 0.6676 1.1542 0.0296
C24I C 0.5753(5) 1.1301(5) -0.0516(5)
H18I H 0.5943 1.1046 -0.0693
H19I H 0.5445 1.1363 -0.0700
C25I C 0.6054(6) 1.1776(6) -0.0469(6)
H20I H 0.5878 1.2027 -0.0666
H21I H 0.6368 1.1714 -0.0643
C27A C 0.9539(9) 0.999(7) 0.4737(4)
H22A H 0.9264 1.0186 0.4832
C28A C 0.968(5) 0.966(4) 0.4737(4)
H23A H 0.9636 0.9330 0.4831
N5A N 0.9929(12) 0.9858(9) 0.3139(3)
C29A C 1.0002(13) 1.0125(7) 0.3599(4)
H24A H 1.0119 1.0452 0.3629
N6A N 0.9866(9) 0.9804(8) 0.4006(3)
C30A C 0.9709(10) 0.9339(7) 0.3798(5)
H25A H 0.9600 0.9062 0.3980
C31A C 0.9748(9) 0.9373(7) 0.3262(5)
H26A H 0.9668 0.9121 0.3032
C27B C 0.999(7) 1.0461(9) 0.4737(4)
H22B H 1.0186 1.0736 0.4832
C28B C 0.966(4) 1.032(5) 0.4737(4)
H23B H 0.9330 1.0364 0.4831
N5B N 0.9858(9) 1.0071(12) 0.3139(3)
C29B C 1.0125(7) 0.9998(13) 0.3599(4)
H24B H 1.0452 0.9881 0.3629
N6B N 0.9804(8) 1.0134(9) 0.4006(3)
C30B C 0.9339(7) 1.0291(10) 0.3798(5)
H25B H 0.9062 1.0400 0.3980
C31B C 0.9373(7) 1.0252(9) 0.3262(5)
H26B H 0.9121 1.0332 0.3032
C27C C 1.001(7) 0.9539(9) 0.4737(4)
H22C H 0.9814 0.9264 0.4832
C28C C 1.034(4) 0.968(5) 0.4737(4)
H23C H 1.0670 0.9636 0.4831
N5C N 1.0142(9) 0.9929(12) 0.3139(3)
C29C C 0.9875(7) 1.0002(13) 0.3599(4)
H24C H 0.9548 1.0119 0.3629
N6C N 1.0196(8) 0.9866(9) 0.4006(3)
C30C C 1.0661(7) 0.9709(10) 0.3798(5)
H25C H 1.0938 0.9600 0.3980
C31C C 1.0627(7) 0.9748(9) 0.3262(5)
H26C H 1.0879 0.9668 0.3032
C26H C 1.0000 1.0000 0.5492(5)
C27H C 0.9539(9) 0.999(7) 0.5263(4)
H22H H 0.9264 1.0186 0.5168
C28H C 0.968(5) 0.966(4) 0.5263(4)
H23H H 0.9636 0.9330 0.5169
N5H N 0.9929(12) 0.9858(9) 0.6861(3)
C29H C 1.0002(13) 1.0125(7) 0.6401(4)
H24H H 1.0119 1.0452 0.6371
N6H N 0.9866(9) 0.9804(8) 0.5994(3)
C30H C 0.9709(10) 0.9339(7) 0.6202(5)
H25H H 0.9600 0.9062 0.6020
C31H C 0.9748(9) 0.9373(7) 0.6738(5)
H26H H 0.9668 0.9121 0.6968
C27I C 1.0461(9) 1.001(7) 0.5263(4)
H22I H 1.0736 0.9814 0.5168
C28I C 1.032(5) 1.034(4) 0.5263(4)
H23I H 1.0364 1.0670 0.5169
N5I N 1.0071(12) 1.0142(9) 0.6861(3)
C29I C 0.9998(13) 0.9875(7) 0.6401(4)
H24I H 0.9881 0.9548 0.6371
N6I N 1.0134(9) 1.0196(8) 0.5994(3)
C30I C 1.0291(10) 1.0661(7) 0.6202(5)
H25I H 1.0400 1.0938 0.6020
C31I C 1.0252(9) 1.0627(7) 0.6738(5)
H26I H 1.0332 1.0879 0.6968
C27J C 1.001(7) 0.9539(9) 0.5263(4)
H22J H 0.9814 0.9264 0.5168
C28J C 1.034(4) 0.968(5) 0.5263(4)
H23J H 1.0670 0.9636 0.5169
N5J N 1.0142(9) 0.9929(12) 0.6861(3)
C29J C 0.9875(7) 1.0002(13) 0.6401(4)
H24J H 0.9548 1.0119 0.6371
N6J N 1.0196(8) 0.9866(9) 0.5994(3)
C30J C 1.0661(7) 0.9709(10) 0.6202(5)
H25J H 1.0938 0.9600 0.6020
C31J C 1.0627(7) 0.9748(9) 0.6738(5)
H26J H 1.0879 0.9668 0.6968
C27K C 0.999(7) 1.0461(9) 0.5263(4)
H22K H 1.0186 1.0736 0.5168
C28K C 0.966(4) 1.032(5) 0.5263(4)
H23K H 0.9330 1.0364 0.5169
N5K N 0.9858(9) 1.0071(12) 0.6861(3)
C29K C 1.0125(7) 0.9998(13) 0.6401(4)
H24K H 1.0452 0.9881 0.6371
N6K N 0.9804(8) 1.0134(9) 0.5994(3)
C30K C 0.9339(7) 1.0291(10) 0.6202(5)
H25K H 0.9062 1.0400 0.6020
C31K C 0.9373(7) 1.0252(9) 0.6738(5)
H26K H 0.9121 1.0332 0.6968
Cu3A Cu 0.47641(2) 0.95621(3) 0.0000
N1A N 0.28671(10) 1.11395(14) 0.19129(14)
O1A O 0.06751(8) 1.02754(10) 0.22647(9)
O2A O 0.07000(7) 1.02318(8) 0.14201(8)
O3A O 0.43483(12) 0.98786(13) 0.05223(14)
O4A O 0.47413(11) 1.06288(13) 0.05185(13)
C1A C 0.08874(10) 1.03283(10) 0.18445(11)
C2A C 0.14114(11) 1.05323(12) 0.18544(12)
C3A C 0.16774(12) 1.06071(15) 0.14161(15)
H1A H 0.1534 1.0526 0.1106
C4A C 0.21587(13) 1.08032(16) 0.14318(15)
H2A H 0.2336 1.0855 0.1133
C5A C 0.23742(12) 1.09209(15) 0.18940(16)
C6A C 0.21133(14) 1.08443(18) 0.23337(16)
H3A H 0.2260 1.0919 0.2644
C7A C 0.16271(13) 1.06545(17) 0.23158(15)
H4A H 0.1447 1.0610 0.2614
C8A C 0.32526(12) 1.09365(16) 0.16201(17)
C9A C 0.32757(14) 1.04317(16) 0.15168(19)
H5A H 0.3035 1.0220 0.1655
C10A C 0.36423(14) 1.02338(17) 0.1217(2)
H6A H 0.3649 0.9891 0.1154
C11A C 0.40048(13) 1.05431(17) 0.10046(18)
C12A C 0.39938(15) 1.10489(18) 0.11109(19)
H7A H 0.4240 1.1257 0.0978
C13A C 0.36215(14) 1.12492(18) 0.14113(19)
H8A H 0.3615 1.1592 0.1476
C14A C 0.43982(15) 1.03341(19) 0.0652(2)
C15A C 0.29305(13) 1.15780(15) 0.22073(18)
C16A C 0.25648(17) 1.1942(2) 0.2212(3)
H9A H 0.2275 1.1901 0.2021
C17A C 0.33588(14) 1.16412(14) 0.2500
H10A H 0.3605 1.1395 0.2500
C18A C 0.2631(2) 1.2369(2) 0.2500
H11A H 0.2385 1.2615 0.2500
N3A N 0.4355(2) 0.8858(2) 0.0000
N4A N 0.3820(7) 0.7993(6) 0.0000
C20A C 0.4646(7) 0.8412(6) 0.0000
H14A H 0.4862 0.8419 0.0296
C21A C 0.4380(9) 0.7931(7) 0.0000
H15A H 0.4479 0.7741 0.0297
C22A C 0.3811(5) 0.8921(6) 0.0000
H16A H 0.3715 0.9113 0.0297
C23A C 0.3540(7) 0.8459(7) 0.0000
H17A H 0.3324 0.8458 -0.0296
C24A C 0.4247(5) 0.8699(5) 0.0516(5)
H18A H 0.4057 0.8954 0.0693
H19A H 0.4555 0.8637 0.0700
C25A C 0.3946(6) 0.8224(6) 0.0469(6)
H20A H 0.4122 0.7973 0.0666
H21A H 0.3632 0.8286 0.0643
N1F N 0.38605(14) 1.21329(10) 0.30871(14)
O1F O 0.47246(10) 1.43249(8) 0.27353(9)
O2F O 0.47682(8) 1.43000(7) 0.35799(8)
O3F O 0.51214(13) 1.06517(12) 0.44777(14)
O4F O 0.43712(13) 1.02587(11) 0.44815(13)
C1F C 0.46717(10) 1.41126(10) 0.31555(11)
C2F C 0.44677(12) 1.35886(11) 0.31456(12)
C3F C 0.43929(15) 1.33226(12) 0.35839(15)
H1F H 0.4474 1.3466 0.3894
C4F C 0.41968(16) 1.28413(13) 0.35682(15)
H2F H 0.4145 1.2664 0.3867
C5F C 0.40791(15) 1.26258(12) 0.31060(16)
C6F C 0.41557(18) 1.28867(14) 0.26663(16)
H3F H 0.4081 1.2740 0.2356
C7F C 0.43455(17) 1.33729(13) 0.26842(15)
H4F H 0.4390 1.3553 0.2386
C8F C 0.40635(16) 1.17474(12) 0.33799(17)
C9F C 0.45683(16) 1.17243(14) 0.34832(19)
H5F H 0.4780 1.1965 0.3345
C10F C 0.47662(17) 1.13577(14) 0.3783(2)
H6F H 0.5109 1.1351 0.3846
C11F C 0.44569(17) 1.09952(13) 0.39954(18)
C12F C 0.39511(18) 1.10062(15) 0.38891(19)
H7F H 0.3743 1.0760 0.4022
C13F C 0.37508(18) 1.13785(14) 0.35887(19)
H8F H 0.3408 1.1385 0.3524
C14F C 0.46659(19) 1.06018(15) 0.4348(2)
C15F C 0.34220(15) 1.20695(13) 0.27927(18)
C16F C 0.3058(2) 1.24352(17) 0.2788(3)
H9F H 0.3099 1.2725 0.2979
H14H H 0.4862 0.8419 -0.0296
H15H H 0.4479 0.7741 -0.0297
H16H H 0.3715 0.9113 -0.0297
H17H H 0.3324 0.8458 0.0296
C24H C 0.4247(5) 0.8699(5) -0.0516(5)
H18H H 0.4057 0.8954 -0.0693
H19H H 0.4555 0.8637 -0.0700
C25H C 0.3946(6) 0.8224(6) -0.0469(6)
H20H H 0.4122 0.7973 -0.0666
H21H H 0.3632 0.8286 -0.0643
Cu3C Cu 1.04379(3) 1.47641(2) 0.0000
N1C N 0.88605(14) 1.28671(10) 0.19129(14)
O1C O 0.97246(10) 1.06751(8) 0.22647(9)
O2C O 0.97682(8) 1.07000(7) 0.14201(8)
O3C O 1.01214(13) 1.43483(12) 0.05223(14)
O4C O 0.93712(13) 1.47413(11) 0.05185(13)
C1C C 0.96717(10) 1.08874(10) 0.18445(11)
C2C C 0.94677(12) 1.14114(11) 0.18544(12)
C3C C 0.93929(15) 1.16774(12) 0.14161(15)
H1C H 0.9474 1.1534 0.1106
C4C C 0.91968(16) 1.21587(13) 0.14318(15)
H2C H 0.9145 1.2336 0.1133
C5C C 0.90791(15) 1.23742(12) 0.18940(16)
C6C C 0.91557(18) 1.21133(14) 0.23337(16)
H3C H 0.9081 1.2260 0.2644
C7C C 0.93455(17) 1.16271(13) 0.23158(15)
H4C H 0.9390 1.1447 0.2614
C8C C 0.90635(16) 1.32526(12) 0.16201(17)
C9C C 0.95683(16) 1.32757(14) 0.15168(19)
H5C H 0.9780 1.3035 0.1655
C10C C 0.97662(17) 1.36423(14) 0.1217(2)
H6C H 1.0109 1.3649 0.1154
C11C C 0.94569(17) 1.40048(13) 0.10046(18)
C12C C 0.89511(18) 1.39938(15) 0.11109(19)
H7C H 0.8743 1.4240 0.0978
C13C C 0.87508(18) 1.36215(14) 0.14113(19)
H8C H 0.8408 1.3615 0.1476
C14C C 0.96659(19) 1.43982(15) 0.0652(2)
C15C C 0.84220(15) 1.29305(13) 0.22073(18)
C16C C 0.8058(2) 1.25648(17) 0.2212(3)
H9C H 0.8099 1.2275 0.2021
C17C C 0.83588(14) 1.33588(14) 0.2500
H10C H 0.8605 1.3605 0.2500
C18C C 0.7631(2) 1.2631(2) 0.2500
H11C H 0.7385 1.2385 0.2500
N3C N 1.1142(2) 1.4355(2) 0.0000
N4C N 1.2007(6) 1.3820(7) 0.0000
C20C C 1.1588(6) 1.4646(7) 0.0000
H14C H 1.1581 1.4862 0.0296
C21C C 1.2069(7) 1.4380(9) 0.0000
H15C H 1.2259 1.4479 0.0297
C22C C 1.1079(6) 1.3811(5) 0.0000
H16C H 1.0887 1.3715 0.0297
C23C C 1.1541(7) 1.3540(7) 0.0000
H17C H 1.1542 1.3324 -0.0296
C24C C 1.1301(5) 1.4247(5) 0.0516(5)
H18C H 1.1046 1.4057 0.0693
H19C H 1.1363 1.4555 0.0700
C25C C 1.1776(6) 1.3946(6) 0.0469(6)
H20C H 1.2027 1.4122 0.0666
H21C H 1.1714 1.3632 0.0643
N1D N 0.78671(10) 1.38605(14) 0.30871(14)
O1D O 0.56751(8) 1.47246(10) 0.27353(9)
O2D O 0.57000(7) 1.47682(8) 0.35799(8)
O3D O 0.93483(12) 1.51214(13) 0.44777(14)
O4D O 0.97413(11) 1.43712(13) 0.44815(13)
C1D C 0.58874(10) 1.46717(10) 0.31555(11)
C2D C 0.64114(11) 1.44677(12) 0.31456(12)
C3D C 0.66774(12) 1.43929(15) 0.35839(15)
H1D H 0.6534 1.4474 0.3894
C4D C 0.71587(13) 1.41968(16) 0.35682(15)
H2D H 0.7336 1.4145 0.3867
C5D C 0.73742(12) 1.40791(15) 0.31060(16)
C6D C 0.71133(14) 1.41557(18) 0.26663(16)
H3D H 0.7260 1.4081 0.2356
C7D C 0.66271(13) 1.43455(17) 0.26842(15)
H4D H 0.6447 1.4390 0.2386
C8D C 0.82526(12) 1.40635(16) 0.33799(17)
C9D C 0.82757(14) 1.45683(16) 0.34832(19)
H5D H 0.8035 1.4780 0.3345
C10D C 0.86423(14) 1.47662(17) 0.3783(2)
H6D H 0.8649 1.5109 0.3846
C11D C 0.90048(13) 1.44569(17) 0.39954(18)
C12D C 0.89938(15) 1.39511(18) 0.38891(19)
H7D H 0.9240 1.3743 0.4022
C13D C 0.86215(14) 1.37508(18) 0.35887(19)
H8D H 0.8615 1.3408 0.3524
C14D C 0.93982(15) 1.46659(19) 0.4348(2)
C15D C 0.79305(13) 1.34220(15) 0.27927(18)
C16D C 0.75648(17) 1.3058(2) 0.2788(3)
H9D H 0.7275 1.3099 0.2979
H14J H 1.1581 1.4862 -0.0296
H15J H 1.2259 1.4479 -0.0297
H16J H 1.0887 1.3715 -0.0297
H17J H 1.1542 1.3324 0.0296
C24J C 1.1301(5) 1.4247(5) -0.0516(5)
H18J H 1.1046 1.4057 -0.0693
H19J H 1.1363 1.4555 -0.0700
C25J C 1.1776(6) 1.3946(6) -0.0469(6)
H20J H 1.2027 1.4122 -0.0666
H21J H 1.1714 1.3632 -0.0643
Cu1H Cu 1.0000 1.0000 -0.13324(2)
Cu3B Cu 0.95621(3) 0.52359(2) 0.0000
N1B N 1.11395(14) 0.71329(10) 0.19129(14)
O1B O 1.02754(10) 0.93249(8) 0.22647(9)
O2B O 1.02318(8) 0.93000(7) 0.14201(8)
O3B O 0.98786(13) 0.56517(12) 0.05223(14)
O4B O 1.06288(13) 0.52587(11) 0.05185(13)
C1B C 1.03283(10) 0.91126(10) 0.18445(11)
C2B C 1.05323(12) 0.85886(11) 0.18544(12)
C3B C 1.06071(15) 0.83226(12) 0.14161(15)
H1B H 1.0526 0.8466 0.1106
C4B C 1.08032(16) 0.78413(13) 0.14318(15)
H2B H 1.0855 0.7664 0.1133
C5B C 1.09209(15) 0.76258(12) 0.18940(16)
C6B C 1.08443(18) 0.78867(14) 0.23337(16)
H3B H 1.0919 0.7740 0.2644
C7B C 1.06545(17) 0.83729(13) 0.23158(15)
H4B H 1.0610 0.8553 0.2614
C8B C 1.09365(16) 0.67474(12) 0.16201(17)
C9B C 1.04317(16) 0.67243(14) 0.15168(19)
H5B H 1.0220 0.6965 0.1655
C10B C 1.02338(17) 0.63577(14) 0.1217(2)
H6B H 0.9891 0.6351 0.1154
C11B C 1.05431(17) 0.59952(13) 0.10046(18)
C12B C 1.10489(18) 0.60062(15) 0.11109(19)
H7B H 1.1257 0.5760 0.0978
C13B C 1.12492(18) 0.63785(14) 0.14113(19)
H8B H 1.1592 0.6385 0.1476
C14B C 1.03341(19) 0.56018(15) 0.0652(2)
C15B C 1.15780(15) 0.70695(13) 0.22073(18)
C16B C 1.1942(2) 0.74352(17) 0.2212(3)
H9B H 1.1901 0.7725 0.2021
C17B C 1.16412(14) 0.66412(14) 0.2500
H10B H 1.1395 0.6395 0.2500
C18B C 1.2369(2) 0.7369(2) 0.2500
H11B H 1.2615 0.7615 0.2500
N3B N 0.8858(2) 0.5645(2) 0.0000
N4B N 0.7993(6) 0.6180(7) 0.0000
C20B C 0.8412(6) 0.5354(7) 0.0000
H14B H 0.8419 0.5138 0.0296
C21B C 0.7931(7) 0.5620(9) 0.0000
H15B H 0.7741 0.5521 0.0297
C22B C 0.8921(6) 0.6189(5) 0.0000
H16B H 0.9113 0.6285 0.0297
C23B C 0.8459(7) 0.6460(7) 0.0000
H17B H 0.8458 0.6676 -0.0296
C24B C 0.8699(5) 0.5753(5) 0.0516(5)
H18B H 0.8954 0.5943 0.0693
H19B H 0.8637 0.5445 0.0700
C25B C 0.8224(6) 0.6054(6) 0.0469(6)
H20B H 0.7973 0.5878 0.0666
H21B H 0.8286 0.6368 0.0643
N1E N 1.21329(10) 0.61395(14) 0.30871(14)
O1E O 1.43249(8) 0.52754(10) 0.27353(9)
O2E O 1.43000(7) 0.52318(8) 0.35799(8)
O3E O 1.06517(12) 0.48786(13) 0.44777(14)
O4E O 1.02587(11) 0.56288(13) 0.44815(13)
C1E C 1.41126(10) 0.53283(10) 0.31555(11)
C2E C 1.35886(11) 0.55323(12) 0.31456(12)
C3E C 1.33226(12) 0.56071(15) 0.35839(15)
H1E H 1.3466 0.5526 0.3894
C4E C 1.28413(13) 0.58032(16) 0.35682(15)
H2E H 1.2664 0.5855 0.3867
C5E C 1.26258(12) 0.59209(15) 0.31060(16)
C6E C 1.28867(14) 0.58443(18) 0.26663(16)
H3E H 1.2740 0.5919 0.2356
C7E C 1.33729(13) 0.56545(17) 0.26842(15)
H4E H 1.3553 0.5610 0.2386
C8E C 1.17474(12) 0.59365(16) 0.33799(17)
C9E C 1.17243(14) 0.54317(16) 0.34832(19)
H5E H 1.1965 0.5220 0.3345
C10E C 1.13577(14) 0.52338(17) 0.3783(2)
H6E H 1.1351 0.4891 0.3846
C11E C 1.09952(13) 0.55431(17) 0.39954(18)
C12E C 1.10062(15) 0.60489(18) 0.38891(19)
H7E H 1.0760 0.6257 0.4022
C13E C 1.13785(14) 0.62492(18) 0.35887(19)
H8E H 1.1385 0.6592 0.3524
C14E C 1.06018(15) 0.53341(19) 0.4348(2)
C15E C 1.20695(13) 0.65780(15) 0.27927(18)
C16E C 1.24352(17) 0.6942(2) 0.2788(3)
H9E H 1.2725 0.6901 0.2979
H14K H 0.8419 0.5138 -0.0296
H15K H 0.7741 0.5521 -0.0297
H16K H 0.9113 0.6285 -0.0297
H17K H 0.8458 0.6676 0.0296
C24K C 0.8699(5) 0.5753(5) -0.0516(5)
H18K H 0.8954 0.5943 -0.0693
H19K H 0.8637 0.5445 -0.0700
C25K C 0.8224(6) 0.6054(6) -0.0469(6)
H20K H 0.7973 0.5878 -0.0666
H21K H 0.8286 0.6368 -0.0643
Cu2D Cu 0.5000 0.5000 0.26524(2)
Cu1_2 Cu 0.0000 1.0000 0.13324(2)
Cu1D Cu 0.5000 0.5000 0.36676(2)
Cu1D_2 Cu 0.5000 1.5000 0.36676(2)
Cu1D_3 Cu 1.5000 0.5000 0.36676(2)
Cu2_2 Cu 0.0000 1.0000 0.23476(2)
Cu2D_2 Cu 0.5000 1.5000 0.26524(2)
Cu2D_3 Cu 1.5000 0.5000 0.26524(2)
Cu2H Cu 1.0000 1.0000 0.76524(2)
Cu3B_2 Cu 0.95621(3) 1.52359(2) 0.0000
Cu3C_2 Cu 1.04379(3) 0.47641(2) 0.0000
Cu3D Cu 0.97641(2) 0.54379(3) 0.5000
Cu3D_2 Cu 0.97641(2) 1.54379(3) 0.5000
Cu3E Cu 1.02359(2) 0.45621(3) 0.5000
Cu3E_2 Cu 1.02359(2) 1.45621(3) 0.5000
Cu3F Cu 0.54379(3) 1.02359(2) 0.5000
Cu3G Cu 0.45621(3) 0.97641(2) 0.5000
O1A_2 O 1.06751(8) 1.02754(10) 0.22647(9)
O1D_2 O 0.56751(8) 0.47246(10) 0.27353(9)
O1E_2 O 0.43249(8) 0.52754(10) 0.27353(9)
O1F_2 O 0.47246(10) 0.43249(8) 0.27353(9)
O2A_2 O 1.07000(7) 1.02318(8) 0.14201(8)
O2H O 1.07000(7) 1.02318(8) -0.14201(8)
O2I O 0.93000(7) 0.97682(8) -0.14201(8)
O2J O 0.97682(8) 1.07000(7) -0.14201(8)
O2K O 1.02318(8) 0.93000(7) -0.14201(8)
O3H O 0.43483(12) 0.98786(13) -0.05223(14)
O3I O 0.56517(12) 1.01214(13) -0.05223(14)
O3J O 1.01214(13) 1.43483(12) -0.05223(14)
O3K O 0.98786(13) 0.56517(12) -0.05223(14)
O4B_2 O 1.06288(13) 1.52587(11) 0.05185(13)
O4C_2 O 0.93712(13) 0.47413(11) 0.05185(13)
O4H O 0.47413(11) 1.06288(13) -0.05185(13)
O4I O 0.52587(11) 0.93712(13) -0.05185(13)
O4J O 0.93712(13) 0.47413(11) -0.05185(13)
O4K O 1.06288(13) 1.52587(11) -0.05185(13)
N5D N 0.4929(12) 0.5142(9) 0.1861(3)
N5E N 0.5071(12) 0.4858(9) 0.1861(3)
N5F N 0.5142(9) 0.5071(12) 0.1861(3)
N5G N 0.4858(9) 0.4929(12) 0.1861(3)
C32? C 0.9490(4) 0.9936(7) 0.0290(4)
H27? H 0.9279 1.0206 0.0413
H28? H 0.9352 0.9623 0.0413
loop_
_geom_bond_atom_site_label_1
_geom_bond_atom_site_label_2
_geom_bond_site_symmetry_1
_geom_bond_site_symmetry_2
Cu1 O2 1_555 1_555
Cu2 O1 1_555 1_555
Cu3 O3 1_555 1_555
N1 C5 1_555 1_555
O1 C1 1_555 1_555
O2 C1 1_555 1_555
O3 C14 1_555 1_555
O4 C14 1_555 1_555
C1 C2 1_555 1_555
C2 C3 1_555 1_555
C3 H1 1_555 1_555
C4 C3 1_555 1_555
H2 C4 1_555 1_555
C5 C4 1_555 1_555
C6 C5 1_555 1_555
H3 C6 1_555 1_555
C7 C2 1_555 1_555
H4 C7 1_555 1_555
C8 N1 1_555 1_555
C9 C8 1_555 1_555
H5 C9 1_555 1_555
C10 C9 1_555 1_555
H6 C10 1_555 1_555
C11 C10 1_555 1_555
C12 C11 1_555 1_555
H7 C12 1_555 1_555
C13 C8 1_555 1_555
H8 C13 1_555 1_555
C14 C11 1_555 1_555
C15 N1 1_555 1_555
C16 C15 1_555 1_555
H9 C16 1_555 1_555
C17 C15 1_555 1_555
H10 C17 1_555 1_555
C18 C16 1_555 1_555
H11 C18 1_555 1_555
N2 Cu1 1_555 1_555
C19 N2 1_555 1_555
H12 C19 1_555 1_555
H13 C19 1_555 1_555
N3 Cu3 1_555 1_555
N4 C21 1_555 1_555
C20 N3 1_555 1_555
H14 C20 1_555 1_555
C21 C20 1_555 1_555
H15 C21 1_555 1_555
C22 N3 1_555 1_555
H16 C22 1_555 1_555
C23 N4 1_555 1_555
H17 C23 1_555 1_555
C24 N3 1_555 1_555
H18 C24 1_555 1_555
H19 C24 1_555 1_555
C25 N4 1_555 1_555
H20 C25 1_555 1_555
H21 C25 1_555 1_555
C26 C27 1_555 1_555
C27 H22 1_555 1_555
H22 C28C 1_555 1_555
C28 C26 1_555 1_555
H23 C28 1_555 1_555
N5 Cu2 1_555 1_555
C29 H24 1_555 1_555
H24 N6A 1_555 1_555
N6 C26 1_555 1_555
C30 N6 1_555 1_555
H25 C30 1_555 1_555
C31 N5 1_555 1_555
H26 C31 1_555 1_555
N1G C5G 1_555 1_555
O1G C1G 1_555 1_555
O2G C1G 1_555 1_555
O3G C14G 1_555 1_555
O4G C14G 1_555 1_555
C1G C2G 1_555 1_555
C2G C3G 1_555 1_555
C3G H1G 1_555 1_555
C4G C3G 1_555 1_555
H2G C4G 1_555 1_555
C5G C4G 1_555 1_555
C6G C5G 1_555 1_555
H3G C6G 1_555 1_555
C7G C2G 1_555 1_555
H4G C7G 1_555 1_555
C8G N1G 1_555 1_555
C9G C8G 1_555 1_555
H5G C9G 1_555 1_555
C10G C9G 1_555 1_555
H6G C10G 1_555 1_555
C11G C10G 1_555 1_555
C12G C11G 1_555 1_555
H7G C12G 1_555 1_555
C13G C8G 1_555 1_555
H8G C13G 1_555 1_555
C14G C11G 1_555 1_555
C15G C17 1_555 1_555
C16G C18 1_555 1_555
H9G C16G 1_555 1_555
C19A N2 1_555 1_555
H12A C19A 1_555 1_555
H13A C19A 1_555 1_555
C19B N2 1_555 1_555
H12B C19B 1_555 1_555
H13B C19B 1_555 1_555
C19C N2 1_555 1_555
H12C C19C 1_555 1_555
H13C C19C 1_555 1_555
N2H C19H 1_555 1_555
C19H C19A 1_555 1_555
H12H C19H 1_555 1_555
H13H C19H 1_555 1_555
C19I C19 1_555 1_555
H12I C19I 1_555 1_555
H13I C19I 1_555 1_555
C19J C19C 1_555 1_555
H12J C19J 1_555 1_555
H13J C19J 1_555 1_555
C19K C19B 1_555 1_555
H12K C19K 1_555 1_555
H13K C19K 1_555 1_555
H14I C20 1_555 1_555
H15I C21 1_555 1_555
H16I C22 1_555 1_555
H17I C23 1_555 1_555
C24I N3 1_555 1_555
H18I C24I 1_555 1_555
H19I C24I 1_555 1_555
C25I N4 1_555 1_555
H20I C25I 1_555 1_555
H21I C25I 1_555 1_555
C27A C26 1_555 1_555
H22A C27A 1_555 1_555
C28A C26 1_555 1_555
H23A C28A 1_555 1_555
N5A Cu2 1_555 1_555
C29A C29 1_555 1_555
H24A N6 1_555 1_555
N6A C26 1_555 1_555
C30A C29 1_555 1_555
H25A C30A 1_555 1_555
C31A C29 1_555 1_555
H26A C31A 1_555 1_555
C27B C26 1_555 1_555
H22B C28 1_555 1_555
C28B C26 1_555 1_555
H23B C27A 1_555 1_555
N5B Cu2 1_555 1_555
C29B H24A 1_555 1_555
H24B C29 1_555 1_555
N6B C26 1_555 1_555
C30B N6B 1_555 1_555
H25B C30B 1_555 1_555
C31B N5B 1_555 1_555
H26B C31B 1_555 1_555
C27C C26 1_555 1_555
H22C C28A 1_555 1_555
C28C C26 1_555 1_555
H23C C27 1_555 1_555
N5C Cu2 1_555 1_555
C29C H24 1_555 1_555
H24C C29A 1_555 1_555
N6C C26 1_555 1_555
C30C C29B 1_555 1_555
H25C C30C 1_555 1_555
C31C C29B 1_555 1_555
H26C C31C 1_555 1_555
C26H C27H 1_555 1_555
C27H C27A 1_555 1_555
H22H C27H 1_555 1_555
C28H C28A 1_555 1_555
H23H C28H 1_555 1_555
N5H C31H 1_555 1_555
C29H H24H 1_555 1_555
H24H N6I 1_555 1_555
N6H C26H 1_555 1_555
C30H N6H 1_555 1_555
H25H C30H 1_555 1_555
C31H C30H 1_555 1_555
H26H C31H 1_555 1_555
C27I C27 1_555 1_555
H22I C27I 1_555 1_555
C28I C28 1_555 1_555
H23I C28I 1_555 1_555
N5I C31I 1_555 1_555
C29I C29H 1_555 1_555
H24I N6H 1_555 1_555
N6I C26H 1_555 1_555
C30I C29H 1_555 1_555
H25I C30I 1_555 1_555
C31I C29H 1_555 1_555
H26I C31I 1_555 1_555
C27J C27C 1_555 1_555
H22J C28H 1_555 1_555
C28J C28C 1_555 1_555
H23J C27I 1_555 1_555
N5J C31J 1_555 1_555
C29J H24I 1_555 1_555
H24J C29H 1_555 1_555
N6J C26H 1_555 1_555
C30J N6J 1_555 1_555
H25J C30J 1_555 1_555
C31J C30J 1_555 1_555
H26J C31J 1_555 1_555
C27K C27B 1_555 1_555
H22K C28I 1_555 1_555
C28K C28B 1_555 1_555
H23K C27H 1_555 1_555
N5K C31K 1_555 1_555
C29K H24H 1_555 1_555
H24K C29I 1_555 1_555
N6K C26H 1_555 1_555
C30K C29J 1_555 1_555
H25K C30K 1_555 1_555
C31K C29J 1_555 1_555
H26K C31K 1_555 1_555
Cu3A O4 1_555 1_555
N1A C5A 1_555 1_555
O1A C1A 1_555 1_555
O2A C1A 1_555 1_555
O3A Cu3A 1_555 1_555
O4A Cu3 1_555 1_555
C1A C2A 1_555 1_555
C2A C3A 1_555 1_555
C3A H1A 1_555 1_555
C4A C3A 1_555 1_555
H2A C4A 1_555 1_555
C5A C4A 1_555 1_555
C6A C5A 1_555 1_555
H3A C6A 1_555 1_555
C7A C2A 1_555 1_555
H4A C7A 1_555 1_555
C8A N1A 1_555 1_555
C9A C8A 1_555 1_555
H5A C9A 1_555 1_555
C10A C9A 1_555 1_555
H6A C10A 1_555 1_555
C11A C10A 1_555 1_555
C12A C11A 1_555 1_555
H7A C12A 1_555 1_555
C13A C8A 1_555 1_555
H8A C13A 1_555 1_555
C14A O3A 1_555 1_555
C15A N1A 1_555 1_555
C16A C15A 1_555 1_555
H9A C16A 1_555 1_555
C17A C15A 1_555 1_555
H10A C17A 1_555 1_555
C18A C16A 1_555 1_555
H11A C18A 1_555 1_555
N3A Cu3A 1_555 1_555
N4A C21A 1_555 1_555
C20A N3A 1_555 1_555
H14A C20A 1_555 1_555
C21A C20A 1_555 1_555
H15A C21A 1_555 1_555
C22A N3A 1_555 1_555
H16A C22A 1_555 1_555
C23A N4A 1_555 1_555
H17A C23A 1_555 1_555
C24A N3A 1_555 1_555
H18A C24A 1_555 1_555
H19A C24A 1_555 1_555
C25A N4A 1_555 1_555
H20A C25A 1_555 1_555
H21A C25A 1_555 1_555
N1F C5F 1_555 1_555
O1F C1F 1_555 1_555
O2F C1F 1_555 1_555
O3F C14F 1_555 1_555
O4F C14F 1_555 1_555
C1F C2F 1_555 1_555
C2F C3F 1_555 1_555
C3F H1F 1_555 1_555
C4F C3F 1_555 1_555
H2F C4F 1_555 1_555
C5F C4F 1_555 1_555
C6F C5F 1_555 1_555
H3F C6F 1_555 1_555
C7F C2F 1_555 1_555
H4F C7F 1_555 1_555
C8F N1F 1_555 1_555
C9F C8F 1_555 1_555
H5F C9F 1_555 1_555
C10F C9F 1_555 1_555
H6F C10F 1_555 1_555
C11F C10F 1_555 1_555
C12F C11F 1_555 1_555
H7F C12F 1_555 1_555
C13F C8F 1_555 1_555
H8F C13F 1_555 1_555
C14F C11F 1_555 1_555
C15F C17A 1_555 1_555
C16F C18A 1_555 1_555
H9F C16F 1_555 1_555
H14H C20A 1_555 1_555
H15H C21A 1_555 1_555
H16H C22A 1_555 1_555
H17H C23A 1_555 1_555
C24H N3A 1_555 1_555
H18H C24H 1_555 1_555
H19H C24H 1_555 1_555
C25H N4A 1_555 1_555
H20H C25H 1_555 1_555
H21H C25H 1_555 1_555
Cu3C O3C 1_555 1_555
N1C C5C 1_555 1_555
O1C Cu2 1_555 1_555
O2C Cu1 1_555 1_555
O3C C14C 1_555 1_555
O4C C14C 1_555 1_555
C1C O1C 1_555 1_555
C2C C1C 1_555 1_555
C3C C2C 1_555 1_555
H1C C3C 1_555 1_555
C4C C3C 1_555 1_555
H2C C4C 1_555 1_555
C5C C4C 1_555 1_555
C6C C5C 1_555 1_555
H3C C6C 1_555 1_555
C7C C2C 1_555 1_555
H4C C7C 1_555 1_555
C8C N1C 1_555 1_555
C9C C8C 1_555 1_555
H5C C9C 1_555 1_555
C10C C9C 1_555 1_555
H6C C10C 1_555 1_555
C11C C10C 1_555 1_555
C12C C11C 1_555 1_555
H7C C12C 1_555 1_555
C13C C8C 1_555 1_555
H8C C13C 1_555 1_555
C14C C11C 1_555 1_555
C15C N1C 1_555 1_555
C16C C15C 1_555 1_555
H9C C16C 1_555 1_555
C17C C15C 1_555 1_555
H10C C17C 1_555 1_555
C18C C16C 1_555 1_555
H11C C18C 1_555 1_555
N3C Cu3C 1_555 1_555
N4C C21C 1_555 1_555
C20C N3C 1_555 1_555
H14C C20C 1_555 1_555
C21C C20C 1_555 1_555
H15C C21C 1_555 1_555
C22C N3C 1_555 1_555
H16C C22C 1_555 1_555
C23C N4C 1_555 1_555
H17C C23C 1_555 1_555
C24C N3C 1_555 1_555
H18C C24C 1_555 1_555
H19C C24C 1_555 1_555
C25C N4C 1_555 1_555
H20C C25C 1_555 1_555
H21C C25C 1_555 1_555
N1D C5D 1_555 1_555
O1D C1D 1_555 1_555
O2D C1D 1_555 1_555
O3D C14D 1_555 1_555
O4D C14D 1_555 1_555
C1D C2D 1_555 1_555
C2D C3D 1_555 1_555
C3D H1D 1_555 1_555
C4D C3D 1_555 1_555
H2D C4D 1_555 1_555
C5D C4D 1_555 1_555
C6D C5D 1_555 1_555
H3D C6D 1_555 1_555
C7D C2D 1_555 1_555
H4D C7D 1_555 1_555
C8D N1D 1_555 1_555
C9D C8D 1_555 1_555
H5D C9D 1_555 1_555
C10D C9D 1_555 1_555
H6D C10D 1_555 1_555
C11D C10D 1_555 1_555
C12D C11D 1_555 1_555
H7D C12D 1_555 1_555
C13D C8D 1_555 1_555
H8D C13D 1_555 1_555
C14D C11D 1_555 1_555
C15D C17C 1_555 1_555
C16D C18C 1_555 1_555
H9D C16D 1_555 1_555
H14J C20C 1_555 1_555
H15J C21C 1_555 1_555
H16J C22C 1_555 1_555
H17J C23C 1_555 1_555
C24J N3C 1_555 1_555
H18J C24J 1_555 1_555
H19J C24J 1_555 1_555
C25J N4C 1_555 1_555
H20J C25J 1_555 1_555
H21J C25J 1_555 1_555
Cu1H N2H 1_555 1_555
Cu3B O3B 1_555 1_555
N1B C5B 1_555 1_555
O1B Cu2 1_555 1_555
O2B Cu1 1_555 1_555
O3B C14B 1_555 1_555
O4B C14B 1_555 1_555
C1B O1B 1_555 1_555
C2B C1B 1_555 1_555
C3B C2B 1_555 1_555
H1B C3B 1_555 1_555
C4B C3B 1_555 1_555
H2B C4B 1_555 1_555
C5B C4B 1_555 1_555
C6B C5B 1_555 1_555
H3B C6B 1_555 1_555
C7B C2B 1_555 1_555
H4B C7B 1_555 1_555
C8B N1B 1_555 1_555
C9B C8B 1_555 1_555
H5B C9B 1_555 1_555
C10B C9B 1_555 1_555
H6B C10B 1_555 1_555
C11B C10B 1_555 1_555
C12B C11B 1_555 1_555
H7B C12B 1_555 1_555
C13B C8B 1_555 1_555
H8B C13B 1_555 1_555
C14B C11B 1_555 1_555
C15B N1B 1_555 1_555
C16B C15B 1_555 1_555
H9B C16B 1_555 1_555
C17B C15B 1_555 1_555
H10B C17B 1_555 1_555
C18B C16B 1_555 1_555
H11B C18B 1_555 1_555
N3B Cu3B 1_555 1_555
N4B C21B 1_555 1_555
C20B N3B 1_555 1_555
H14B C20B 1_555 1_555
C21B C20B 1_555 1_555
H15B C21B 1_555 1_555
C22B N3B 1_555 1_555
H16B C22B 1_555 1_555
C23B N4B 1_555 1_555
H17B C23B 1_555 1_555
C24B N3B 1_555 1_555
H18B C24B 1_555 1_555
H19B C24B 1_555 1_555
C25B N4B 1_555 1_555
H20B C25B 1_555 1_555
H21B C25B 1_555 1_555
N1E C5E 1_555 1_555
O1E C1E 1_555 1_555
O2E C1E 1_555 1_555
O3E C14E 1_555 1_555
O4E C14E 1_555 1_555
C1E C2E 1_555 1_555
C2E C3E 1_555 1_555
C3E H1E 1_555 1_555
C4E C3E 1_555 1_555
H2E C4E 1_555 1_555
C5E C4E 1_555 1_555
C6E C5E 1_555 1_555
H3E C6E 1_555 1_555
C7E C2E 1_555 1_555
H4E C7E 1_555 1_555
C8E N1E 1_555 1_555
C9E C8E 1_555 1_555
H5E C9E 1_555 1_555
C10E C9E 1_555 1_555
H6E C10E 1_555 1_555
C11E C10E 1_555 1_555
C12E C11E 1_555 1_555
H7E C12E 1_555 1_555
C13E C8E 1_555 1_555
H8E C13E 1_555 1_555
C14E C11E 1_555 1_555
C15E C17B 1_555 1_555
C16E C18B 1_555 1_555
H9E C16E 1_555 1_555
H14K C20B 1_555 1_555
H15K C21B 1_555 1_555
H16K C22B 1_555 1_555
H17K C23B 1_555 1_555
C24K N3B 1_555 1_555
H18K C24K 1_555 1_555
H19K C24K 1_555 1_555
C25K N4B 1_555 1_555
H20K C25K 1_555 1_555
H21K C25K 1_555 1_555
Cu2D O1G 1_555 1_555
Cu1_2 O2A 1_555 1_555
Cu1D O2G 1_555 1_555
Cu1D_2 O2F 1_555 1_555
Cu1D_3 O2E 1_555 1_555
Cu2_2 O1A 1_555 1_555
Cu2D_2 O1F 1_555 1_555
Cu2D_3 O1E 1_555 1_555
Cu2H N5H 1_555 1_555
Cu3B_2 O4C 1_555 1_555
Cu3C_2 O4B 1_555 1_555
Cu3D O4E 1_555 1_555
Cu3D_2 O3D 1_555 1_555
Cu3E O3E 1_555 1_555
Cu3E_2 O4D 1_555 1_555
Cu3F O4G 1_555 1_555
Cu3G O3G 1_555 1_555
O1A_2 Cu2 1_555 1_555
O1D_2 Cu2D 1_555 1_555
O1E_2 Cu2D 1_555 1_555
O1F_2 Cu2D 1_555 1_555
O2A_2 Cu1 1_555 1_555
O2H Cu1H 1_555 1_555
O2I Cu1H 1_555 1_555
O2J Cu1H 1_555 1_555
O2K Cu1H 1_555 1_555
O3H Cu3A 1_555 1_555
O3I Cu3 1_555 1_555
O3J Cu3C 1_555 1_555
O3K Cu3B 1_555 1_555
O4B_2 Cu3C 1_555 1_555
O4C_2 Cu3B 1_555 1_555
O4H Cu3 1_555 1_555
O4I Cu3A 1_555 1_555
O4J Cu3B 1_555 1_555
O4K Cu3C 1_555 1_555
N5D Cu2D 1_555 1_555
N5E Cu2D 1_555 1_555
N5F Cu2D 1_555 1_555
N5G Cu2D 1_555 1_555
C6 C7 1_555 1_555
C12 C13 1_555 1_555
C22 C23 1_555 1_555
C23 C25 1_555 1_555
C23 C25I 1_555 1_555
C24 C25 1_555 1_555
C27 C27B 1_555 1_555
C27 C27C 1_555 1_555
C28 C28B 1_555 1_555
C28 C28C 1_555 1_555
H23 C27B 1_555 1_555
H24 C30A 1_555 1_555
H24 C31A 1_555 1_555
C30 C31 1_555 1_555
C30 C29A 1_555 1_555
C30 H24A 1_555 1_555
C31 C29A 1_555 1_555
C31 H24A 1_555 1_555
N1G C15G 1_555 1_555
C6G C7G 1_555 1_555
C12G C13G 1_555 1_555
C15G C16G 1_555 1_555
N2H C19I 1_555 1_555
N2H C19J 1_555 1_555
N2H C19K 1_555 1_555
C24I C25I 1_555 1_555
C27A C27B 1_555 1_555
C27A C27C 1_555 1_555
H22A C28B 1_555 1_555
C28A C28B 1_555 1_555
C28A C28C 1_555 1_555
H23A C27C 1_555 1_555
N5A C31A 1_555 1_555
C29A H24A 1_555 1_555
N6A C30A 1_555 1_555
C30A C31A 1_555 1_555
C27B H22B 1_555 1_555
C28B H23B 1_555 1_555
C29B H24B 1_555 1_555
C29B C29C 1_555 1_555
H24B N6C 1_555 1_555
H24B C30C 1_555 1_555
H24B C31C 1_555 1_555
N6B H24C 1_555 1_555
C30B C31B 1_555 1_555
C30B C29C 1_555 1_555
C30B H24C 1_555 1_555
C31B C29C 1_555 1_555
C31B H24C 1_555 1_555
C27C H22C 1_555 1_555
C28C H23C 1_555 1_555
N5C C31C 1_555 1_555
C29C H24C 1_555 1_555
N6C C30C 1_555 1_555
C30C C31C 1_555 1_555
C26H C28H 1_555 1_555
C26H C27I 1_555 1_555
C26H C28I 1_555 1_555
C26H C27J 1_555 1_555
C26H C28J 1_555 1_555
C26H C27K 1_555 1_555
C26H C28K 1_555 1_555
C27H C27J 1_555 1_555
C27H C27K 1_555 1_555
H22H C28K 1_555 1_555
C28H C28J 1_555 1_555
C28H C28K 1_555 1_555
H23H C27J 1_555 1_555
H24H C30I 1_555 1_555
H24H C31I 1_555 1_555
C30H C29I 1_555 1_555
C30H H24I 1_555 1_555
C31H C29I 1_555 1_555
C31H H24I 1_555 1_555
C27I C27J 1_555 1_555
C27I C27K 1_555 1_555
H22I C28J 1_555 1_555
C28I C28J 1_555 1_555
C28I C28K 1_555 1_555
H23I C27K 1_555 1_555
N5I Cu2H 1_555 1_555
C29I H24I 1_555 1_555
N6I C30I 1_555 1_555
C30I C31I 1_555 1_555
C27J H22J 1_555 1_555
C28J H23J 1_555 1_555
N5J Cu2H 1_555 1_555
C29J H24J 1_555 1_555
C29J C29K 1_555 1_555
H24J N6K 1_555 1_555
H24J C30K 1_555 1_555
H24J C31K 1_555 1_555
N6J H24K 1_555 1_555
C30J C29K 1_555 1_555
C30J H24K 1_555 1_555
C31J C29K 1_555 1_555
C31J H24K 1_555 1_555
C27K H22K 1_555 1_555
C28K H23K 1_555 1_555
N5K Cu2H 1_555 1_555
C29K H24K 1_555 1_555
N6K C30K 1_555 1_555
C30K C31K 1_555 1_555
O4A C14A 1_555 1_555
C6A C7A 1_555 1_555
C11A C14A 1_555 1_555
C12A C13A 1_555 1_555
C22A C23A 1_555 1_555
C23A C25A 1_555 1_555
C23A C25H 1_555 1_555
C24A C25A 1_555 1_555
N1F C15F 1_555 1_555
O3F Cu3F 1_555 1_555
O4F Cu3G 1_555 1_555
C6F C7F 1_555 1_555
C12F C13F 1_555 1_555
C15F C16F 1_555 1_555
C24H C25H 1_555 1_555
O2C C1C 1_555 1_555
C6C C7C 1_555 1_555
C12C C13C 1_555 1_555
C22C C23C 1_555 1_555
C23C C25C 1_555 1_555
C23C C25J 1_555 1_555
C24C C25C 1_555 1_555
N1D C15D 1_555 1_555
O1D Cu2D_2 1_555 1_555
O2D Cu1D_2 1_555 1_555
C6D C7D 1_555 1_555
C12D C13D 1_555 1_555
C15D C16D 1_555 1_555
C24J C25J 1_555 1_555
O2B C1B 1_555 1_555
C6B C7B 1_555 1_555
C12B C13B 1_555 1_555
C22B C23B 1_555 1_555
C23B C25B 1_555 1_555
C23B C25K 1_555 1_555
C24B C25B 1_555 1_555
N1E C15E 1_555 1_555
C6E C7E 1_555 1_555
C12E C13E 1_555 1_555
C15E C16E 1_555 1_555
C24K C25K 1_555 1_555

#END
