
#######################################################################
#
#                 Cambridge Crystallographic Data Centre
#                                CCDC 
#
#######################################################################
#
# If this CIF has been generated from an entry in the Cambridge 
# Structural Database, then it will include bibliographic, chemical, 
# crystal, experimental, refinement or atomic coordinate data resulting 
# from the CCDC's data processing and validation procedures.
#
#######################################################################

data_PODGEW
_chemical_formula_moiety         '(C54 H33 In3 O21)n'
_chemical_name_systematic        
"catena-(bis(\m~6~-4,4',4''-(Benzene-1,3,5-triyltris(oxy))tribenzoato)-tris(\m~2~-hydroxo)-tri-indium unknown solvate)"
_symmetry_cell_setting           hexagonal
_symmetry_space_group_name_H-M   'P 63/m c m'
_symmetry_Int_Tables_number      193
_space_group_name_Hall           '-P 6c 2'
loop_
_symmetry_equiv_pos_site_id
_symmetry_equiv_pos_as_xyz
1 x,y,z
2 -y,x-y,z
3 -x+y,-x,z
4 -x,-y,1/2+z
5 y,-x+y,1/2+z
6 x-y,x,1/2+z
7 y,x,1/2-z
8 x-y,-y,1/2-z
9 -x,-x+y,1/2-z
10 -y,-x,-z
11 -x+y,y,-z
12 x,x-y,-z
13 -x,-y,-z
14 y,-x+y,-z
15 x-y,x,-z
16 x,y,1/2-z
17 -y,x-y,1/2-z
18 -x+y,-x,1/2-z
19 -y,-x,1/2+z
20 -x+y,y,1/2+z
21 x,x-y,1/2+z
22 y,x,z
23 x-y,-y,z
24 -x,-x+y,z
_cell_length_a                   32.3006(7)
_cell_length_b                   32.3006(7)
_cell_length_c                   7.2707(2)
_cell_angle_alpha                90
_cell_angle_beta                 90
_cell_angle_gamma                120
_cell_volume                     6569.44
_exptl_crystal_colour            colorless
_exptl_crystal_description       prism
_cell_formula_units_Z            2
loop_
_atom_site_label
_atom_site_type_symbol
_atom_site_fract_x
_atom_site_fract_y
_atom_site_fract_z
In1 In 0.5000 1.0000 0.0000
O1 O 0.5115(2) 0.94304(18) 0.0961(7)
O2 O 0.4690(4) 1.0000 0.2500
H1 H 0.4428 1.0000 0.2500
O3 O 0.4316(2) 0.7245(2) 0.2500
C1 C 0.5042(5) 0.9231(4) 0.2500
C2 C 0.4889(4) 0.8705(4) 0.2500
C3 C 0.4801(3) 0.8465(2) 0.0853(12)
H2 H 0.4868 0.8631 -0.0253
C4 C 0.4608(3) 0.7968(2) 0.0856(12)
H3 H 0.4552 0.7799 -0.0239
C5 C 0.4506(4) 0.7740(3) 0.2500
C6 C 0.3817(3) 0.6976(3) 0.2500
C7 C 0.3646(3) 0.6481(3) 0.2500
H4 H 0.3854 0.6361 0.2500
O1A O 0.05696(18) 0.56846(27) 0.0961(7)
O3A O 0.2755(2) 0.7071(3) 0.2500
C1A C 0.0769(4) 0.5811(6) 0.2500
C2A C 0.1295(4) 0.6184(6) 0.2500
C3A C 0.1535(2) 0.6336(4) 0.0853(12)
H2A H 0.1369 0.6237 -0.0253
C4A C 0.2032(2) 0.6640(4) 0.0856(12)
H3A H 0.2201 0.6753 -0.0239
C5A C 0.2260(3) 0.6766(5) 0.2500
C6A C 0.3024(3) 0.6841(4) 0.2500
C7A C 0.3519(3) 0.7165(4) 0.2500
H4A H 0.3639 0.7493 0.2500
O1B O 0.43154(27) 0.4885(2) 0.0961(7)
O3B O 0.2929(3) 0.5684(2) 0.2500
C1B C 0.4189(6) 0.4958(5) 0.2500
C2B C 0.3816(6) 0.5111(4) 0.2500
C3B C 0.3664(4) 0.5199(3) 0.0853(12)
H2B H 0.3763 0.5132 -0.0253
C4B C 0.3360(4) 0.5392(3) 0.0856(12)
H3B H 0.3247 0.5448 -0.0239
C5B C 0.3234(5) 0.5494(4) 0.2500
C6B C 0.3159(4) 0.6183(3) 0.2500
C7B C 0.2835(4) 0.6354(3) 0.2500
H4B H 0.2507 0.6146 0.2500
O1O O 0.5115(2) 0.94304(18) 0.4039(7)
C3O C 0.4801(3) 0.8465(2) 0.4147(12)
H2O H 0.4868 0.8631 0.5253
C4O C 0.4608(3) 0.7968(2) 0.4144(12)
H3O H 0.4552 0.7799 0.5239
O1P O 0.05696(18) 0.56846(27) 0.4039(7)
C3P C 0.1535(2) 0.6336(4) 0.4147(12)
H2P H 0.1369 0.6237 0.5253
C4P C 0.2032(2) 0.6640(4) 0.4144(12)
H3P H 0.2201 0.6753 0.5239
O1Q O 0.43154(27) 0.4885(2) 0.4039(7)
C3Q C 0.3664(4) 0.5199(3) 0.4147(12)
H2Q H 0.3763 0.5132 0.5253
C4Q C 0.3360(4) 0.5392(3) 0.4144(12)
H3Q H 0.3247 0.5448 0.5239
In1A In 0.0000 0.5000 0.0000
O2A O 0.0000 0.4690(4) 0.2500
H1A H 0.0000 0.4428 0.2500
In1B In 0.5000 0.5000 0.0000
O2B O 0.5310(4) 0.5310(4) 0.2500
H1B H 0.5572 0.5572 0.2500
O1I O 0.05696(18) 0.4885(2) -0.0961(7)
O3I O 0.2755(2) 0.5684(2) -0.2500
C1I C 0.0769(4) 0.4958(5) -0.2500
C2I C 0.1295(4) 0.5111(4) -0.2500
C3I C 0.1535(2) 0.5199(3) -0.0853(12)
H2I H 0.1369 0.5132 0.0253
C4I C 0.2032(2) 0.5392(3) -0.0856(12)
H3I H 0.2201 0.5448 0.0239
C5I C 0.2260(3) 0.5494(4) -0.2500
C6I C 0.3024(3) 0.6183(3) -0.2500
C7I C 0.3519(3) 0.6354(3) -0.2500
H4I H 0.3639 0.6146 -0.2500
O1J O 0.43154(27) 0.94304(18) -0.0961(7)
O3J O 0.2929(3) 0.7245(2) -0.2500
C1J C 0.4189(6) 0.9231(4) -0.2500
C2J C 0.3816(6) 0.8705(4) -0.2500
C3J C 0.3664(4) 0.8465(2) -0.0853(12)
H2J H 0.3763 0.8631 0.0253
C4J C 0.3360(4) 0.7968(2) -0.0856(12)
H3J H 0.3247 0.7799 0.0239
C5J C 0.3234(5) 0.7740(3) -0.2500
C6J C 0.3159(4) 0.6976(3) -0.2500
C7J C 0.2835(4) 0.6481(3) -0.2500
H4J H 0.2507 0.6361 -0.2500
O1K O 0.5115(2) 0.56846(27) -0.0961(7)
O3K O 0.4316(2) 0.7071(3) -0.2500
C1K C 0.5042(5) 0.5811(6) -0.2500
C2K C 0.4889(4) 0.6184(6) -0.2500
C3K C 0.4801(3) 0.6336(4) -0.0853(12)
H2K H 0.4868 0.6237 0.0253
C4K C 0.4608(3) 0.6640(4) -0.0856(12)
H3K H 0.4552 0.6753 0.0239
C5K C 0.4506(4) 0.6766(5) -0.2500
C6K C 0.3817(3) 0.6841(4) -0.2500
C7K C 0.3646(3) 0.7165(4) -0.2500
H4K H 0.3854 0.7493 -0.2500
O1R O 0.05696(18) 0.4885(2) -0.4039(7)
C3R C 0.1535(2) 0.5199(3) -0.4147(12)
H2R H 0.1369 0.5132 -0.5253
C4R C 0.2032(2) 0.5392(3) -0.4144(12)
H3R H 0.2201 0.5448 -0.5239
O1S O 0.43154(27) 0.94304(18) -0.4039(7)
C3S C 0.3664(4) 0.8465(2) -0.4147(12)
H2S H 0.3763 0.8631 -0.5253
C4S C 0.3360(4) 0.7968(2) -0.4144(12)
H3S H 0.3247 0.7799 -0.5239
O1T O 0.5115(2) 0.56846(27) -0.4039(7)
C3T C 0.4801(3) 0.6336(4) -0.4147(12)
H2T H 0.4868 0.6237 -0.5253
C4T C 0.4608(3) 0.6640(4) -0.4144(12)
H3T H 0.4552 0.6753 -0.5239
In1C In 0.5000 1.0000 -0.5000
In1C_2 In 0.5000 1.0000 0.5000
In1D In 0.0000 0.5000 -0.5000
In1D_2 In 0.0000 0.5000 0.5000
In1E In 0.5000 0.5000 -0.5000
In1E_2 In 0.5000 0.5000 0.5000
O1L O 0.4885(2) 1.05696(18) -0.0961(7)
O1M O -0.05696(18) 0.43154(27) -0.0961(7)
O1N O 0.56846(27) 0.5115(2) -0.0961(7)
O1U O -0.05696(18) 0.5115(2) 0.0961(7)
O1V O 0.56846(27) 1.05696(18) 0.0961(7)
O1W O 0.4885(2) 0.43154(27) 0.0961(7)
O2C O 0.5310(4) 1.0000 -0.2500
O2D O 0.0000 0.5310(4) -0.2500
O2E O 0.4690(4) 0.4690(4) -0.2500
loop_
_geom_bond_atom_site_label_1
_geom_bond_atom_site_label_2
_geom_bond_site_symmetry_1
_geom_bond_site_symmetry_2
In1 O1 1_555 1_555
O1 C1 1_555 1_555
O2 In1 1_555 1_555
H1 O2 1_555 1_555
O3 C5 1_555 1_555
C1 C2 1_555 1_555
C2 C3 1_555 1_555
C3 H2 1_555 1_555
C4 C3 1_555 1_555
H3 C4 1_555 1_555
C5 C4 1_555 1_555
C6 O3 1_555 1_555
C7 C6 1_555 1_555
H4 C7 1_555 1_555
O1A C1A 1_555 1_555
O3A C5A 1_555 1_555
C1A C2A 1_555 1_555
C2A C3A 1_555 1_555
C3A H2A 1_555 1_555
C4A C3A 1_555 1_555
H3A C4A 1_555 1_555
C5A C4A 1_555 1_555
C6A O3A 1_555 1_555
C7A C6 1_555 1_555
H4A C7A 1_555 1_555
O1B C1B 1_555 1_555
O3B C5B 1_555 1_555
C1B C2B 1_555 1_555
C2B C3B 1_555 1_555
C3B H2B 1_555 1_555
C4B C3B 1_555 1_555
H3B C4B 1_555 1_555
C5B C4B 1_555 1_555
C6B C7 1_555 1_555
C7B C6A 1_555 1_555
H4B C7B 1_555 1_555
O1O C1 1_555 1_555
C3O C2 1_555 1_555
H2O C3O 1_555 1_555
C4O C5 1_555 1_555
H3O C4O 1_555 1_555
O1P C1A 1_555 1_555
C3P C2A 1_555 1_555
H2P C3P 1_555 1_555
C4P C5A 1_555 1_555
H3P C4P 1_555 1_555
O1Q C1B 1_555 1_555
C3Q C2B 1_555 1_555
H2Q C3Q 1_555 1_555
C4Q C5B 1_555 1_555
H3Q C4Q 1_555 1_555
In1A O1A 1_555 1_555
O2A In1A 1_555 1_555
H1A O2A 1_555 1_555
In1B O1B 1_555 1_555
O2B In1B 1_555 1_555
H1B O2B 1_555 1_555
O1I In1A 1_555 1_555
O3I C5I 1_555 1_555
C1I O1I 1_555 1_555
C2I C1I 1_555 1_555
C3I C2I 1_555 1_555
H2I C3I 1_555 1_555
C4I C3I 1_555 1_555
H3I C4I 1_555 1_555
C5I C4I 1_555 1_555
C6I O3I 1_555 1_555
C7I C6I 1_555 1_555
H4I C7I 1_555 1_555
O1J In1 1_555 1_555
O3J C5J 1_555 1_555
C1J O1J 1_555 1_555
C2J C1J 1_555 1_555
C3J C2J 1_555 1_555
H2J C3J 1_555 1_555
C4J C3J 1_555 1_555
H3J C4J 1_555 1_555
C5J C4J 1_555 1_555
C6J O3J 1_555 1_555
C7J C6I 1_555 1_555
H4J C7J 1_555 1_555
O1K In1B 1_555 1_555
O3K C5K 1_555 1_555
C1K O1K 1_555 1_555
C2K C1K 1_555 1_555
C3K C2K 1_555 1_555
H2K C3K 1_555 1_555
C4K C3K 1_555 1_555
H3K C4K 1_555 1_555
C5K C4K 1_555 1_555
C6K C7I 1_555 1_555
C7K C6J 1_555 1_555
H4K C7K 1_555 1_555
O1R C1I 1_555 1_555
C3R C2I 1_555 1_555
H2R C3R 1_555 1_555
C4R C5I 1_555 1_555
H3R C4R 1_555 1_555
O1S C1J 1_555 1_555
C3S C2J 1_555 1_555
H2S C3S 1_555 1_555
C4S C5J 1_555 1_555
H3S C4S 1_555 1_555
O1T C1K 1_555 1_555
C3T C2K 1_555 1_555
H2T C3T 1_555 1_555
C4T C5K 1_555 1_555
H3T C4T 1_555 1_555
In1C O1S 1_555 1_555
In1C_2 O2 1_555 1_555
In1D O1R 1_555 1_555
In1D_2 O1P 1_555 1_555
In1E O1T 1_555 1_555
In1E_2 O1Q 1_555 1_555
O1L In1 1_555 1_555
O1M In1A 1_555 1_555
O1N In1B 1_555 1_555
O1U In1A 1_555 1_555
O1V In1 1_555 1_555
O1W In1B 1_555 1_555
O2C In1 1_555 1_555
O2D In1A 1_555 1_555
O2E In1B 1_555 1_555
C6A C7A 1_555 1_555
O3B C6B 1_555 1_555
C6B C7B 1_555 1_555
O1O In1C_2 1_555 1_555
C3O C4O 1_555 1_555
C3P C4P 1_555 1_555
C3Q C4Q 1_555 1_555
O2A In1D_2 1_555 1_555
O2B In1E_2 1_555 1_555
C6J C7J 1_555 1_555
O3K C6K 1_555 1_555
C6K C7K 1_555 1_555
C3R C4R 1_555 1_555
C3S C4S 1_555 1_555
C3T C4T 1_555 1_555
In1C O2C 1_555 1_555
In1D O2D 1_555 1_555
In1E O2E 1_555 1_555

#END
