
#######################################################################
#
#                 Cambridge Crystallographic Data Centre
#                                CCDC 
#
#######################################################################
#
# If this CIF has been generated from an entry in the Cambridge 
# Structural Database, then it will include bibliographic, chemical, 
# crystal, experimental, refinement or atomic coordinate data resulting 
# from the CCDC's data processing and validation procedures.
#
#######################################################################

data_RAXYEV
_chemical_formula_moiety         
'(C15 H8 Co1 N4 O6 2-)n,n(C18 H18 Co1 N12 2+),2n(H2 O1)'
_chemical_name_systematic        
"catena-(tris(2,2'-Bi-imidazole-N,N')-cobalt(ii) (\m~2~-2,2'-bi-imidazolato-N,N',N'')-(\m~2~-benzene-1,3,5-tricarboxylato-O,O')-cobalt(ii) dihydrate)"
_symmetry_cell_setting           orthorhombic
_symmetry_space_group_name_H-M   'C c c 2'
_symmetry_Int_Tables_number      37
_space_group_name_Hall           'C 2 -2c'
loop_
_symmetry_equiv_pos_site_id
_symmetry_equiv_pos_as_xyz
1 x,y,z
2 -x,-y,z
3 x,-y,1/2+z
4 -x,y,1/2+z
5 1/2+x,1/2+y,z
6 1/2-x,1/2-y,z
7 1/2+x,1/2-y,1/2+z
8 1/2-x,1/2+y,1/2+z
_cell_length_a                   18.1339(15)
_cell_length_b                   39.318(3)
_cell_length_c                   11.6914(10)
_cell_angle_alpha                90
_cell_angle_beta                 90
_cell_angle_gamma                90
_cell_volume                     8335.84
_exptl_crystal_colour            orange
_exptl_crystal_description       block
_cell_formula_units_Z            8
loop_
_atom_site_label
_atom_site_type_symbol
_atom_site_fract_x
_atom_site_fract_y
_atom_site_fract_z
_atom_site_U_iso_or_equiv
_atom_site_thermal_displace_type
Co1 Co 0.26169(3) 0.103124(12) 0.77096(6) 0.0422 Uani
C1 C 0.1822(3) 0.05409(14) 0.9660(5) 0.0770 Uani
H1 H 0.1618 0.0701 1.0154 0.0930 Uiso
C2 C 0.1749(4) 0.01967(15) 0.9761(7) 0.0960 Uani
H2 H 0.1481 0.0080 1.0313 0.1150 Uiso
C3 C 0.2435(2) 0.03183(11) 0.8276(6) 0.0550 Uani
C4 C 0.2881(2) 0.03133(10) 0.7281(5) 0.0535 Uani
C5 C 0.3478(3) 0.05222(13) 0.5867(5) 0.0720 Uani
H3 H 0.3676 0.0677 0.5348 0.0860 Uiso
C6 C 0.3573(4) 0.01832(14) 0.5821(6) 0.0907 Uani
H4 H 0.3844 0.0063 0.5279 0.1080 Uiso
C7 C 0.1395(3) 0.09443(15) 0.5635(5) 0.0723 Uani
H5 H 0.1647 0.0804 0.5127 0.0870 Uiso
C8 C 0.0677(4) 0.10659(19) 0.5496(7) 0.1023 Uani
H6 H 0.0362 0.1024 0.4884 0.1230 Uiso
C9 C 0.1142(2) 0.12514(11) 0.7090(4) 0.0481 Uani
C10 C 0.1282(2) 0.14224(10) 0.8141(4) 0.0440 Uani
C11 C 0.1240(3) 0.17446(14) 0.9664(5) 0.0700 Uani
H7 H 0.1083 0.1895 1.0227 0.0840 Uiso
C12 C 0.1918(3) 0.15896(12) 0.9598(5) 0.0600 Uani
H8 H 0.2302 0.1615 1.0119 0.0720 Uiso
C13 C 0.3863(3) 0.10153(13) 0.9782(5) 0.0650 Uani
H9 H 0.3636 0.0874 1.0313 0.0780 Uiso
C14 C 0.4549(3) 0.11527(15) 0.9901(5) 0.0710 Uani
H10 H 0.4878 0.1120 1.0502 0.0850 Uiso
C15 C 0.4045(2) 0.13160(10) 0.8290(4) 0.0425 Uani
C16 C 0.3881(2) 0.14646(9) 0.7195(4) 0.0384 Uani
C17 C 0.3879(3) 0.17416(11) 0.5577(4) 0.0530 Uani
H11 H 0.4015 0.1881 0.4971 0.0630 Uiso
C18 C 0.3234(2) 0.15582(11) 0.5671(4) 0.0500 Uani
H12 H 0.2857 0.1551 0.5131 0.0600 Uiso
N1 N 0.2238(2) 0.06143(9) 0.8726(4) 0.0556 Uani
N2 N 0.2154(3) 0.00579(10) 0.8880(5) 0.0733 Uani
H20 H 0.2215 -0.0155 0.8742 0.0880 Uiso
N3 N 0.3055(2) 0.06067(9) 0.6776(4) 0.0539 Uani
N4 N 0.3190(3) 0.00489(10) 0.6737(5) 0.0757 Uani
H21 H 0.3157 -0.0162 0.6921 0.0910 Uiso
N5 N 0.1660(2) 0.10652(9) 0.6633(4) 0.0513 Uani
N6 N 0.0532(2) 0.12563(14) 0.6422(5) 0.0813 Uani
H22 H 0.0127 0.1362 0.6565 0.0970 Uiso
N7 N 0.19336(19) 0.13909(9) 0.8632(4) 0.0477 Uani
N8 N 0.0840(2) 0.16347(10) 0.8743(4) 0.0600 Uani
H23 H 0.0394 0.1690 0.8578 0.0720 Uiso
N9 N 0.35585(19) 0.11146(9) 0.8781(3) 0.0463 Uani
N10 N 0.4652(2) 0.13523(11) 0.8934(4) 0.0617 Uani
H24 H 0.5031 0.1475 0.8778 0.0740 Uiso
N11 N 0.32418(17) 0.13855(8) 0.6709(3) 0.0418 Uani
N12 N 0.42783(18) 0.16787(8) 0.6546(3) 0.0429 Uani
H25 H 0.4705 0.1761 0.6709 0.0520 Uiso
Co2 Co 0.03333(2) -0.249999(11) 0.74005(7) 0.0345 Uani
C19 C -0.1755(2) -0.22020(13) 0.5795(4) 0.0563 Uani
H13 H -0.2237 -0.2127 0.5696 0.0680 Uiso
C20 C -0.1381(2) -0.22143(12) 0.6766(4) 0.0497 Uani
H14 H -0.1568 -0.2153 0.7477 0.0600 Uiso
C21 C -0.0638(2) -0.23927(9) 0.5469(4) 0.0364 Uani
C22 C 0.0024(2) -0.25372(8) 0.4983(4) 0.0353 Uani
C23 C 0.1110(2) -0.27478(12) 0.5096(4) 0.0473 Uani
H15 H 0.1560 -0.2826 0.5372 0.0570 Uiso
C24 C 0.0905(2) -0.27325(11) 0.3976(4) 0.0467 Uani
H16 H 0.1189 -0.2804 0.3360 0.0700 Uiso
C25 C 0.17852(19) -0.16331(9) 0.7700(4) 0.0372 Uani
C26 C 0.1842(2) -0.12798(9) 0.7722(4) 0.0473 Uani
H17 H 0.1420 -0.1146 0.7759 0.0570 Uiso
C27 C 0.2536(2) -0.11286(10) 0.7689(5) 0.0471 Uani
C28 C 0.3164(2) -0.13270(9) 0.7649(4) 0.0428 Uani
H18 H 0.3625 -0.1224 0.7593 0.0520 Uiso
C29 C 0.31126(18) -0.16790(9) 0.7694(3) 0.0344 Uani
C30 C 0.24232(17) -0.18325(9) 0.7705(4) 0.0340 Uani
H19 H 0.2386 -0.2068 0.7716 0.0410 Uiso
C31 C 0.10417(18) -0.17969(9) 0.7681(4) 0.0393 Uani
C32 C 0.2603(3) -0.07410(10) 0.7684(6) 0.0611 Uani
C33 C 0.37956(18) -0.18955(8) 0.7725(3) 0.0342 Uani
N13 N -0.06698(17) -0.23314(9) 0.6570(3) 0.0429 Uani
N14 N -0.12909(18) -0.23205(10) 0.4968(3) 0.0505 Uani
H26 H -0.1395 -0.2345 0.4256 0.0610 Uiso
N15 N 0.05355(18) -0.26280(9) 0.5746(3) 0.0410 Uani
N16 N 0.02062(17) -0.25938(8) 0.3900(3) 0.0369 Uani
O1 O 0.10388(13) -0.21169(6) 0.7671(3) 0.0450 Uani
O2 O 0.04836(15) -0.16200(8) 0.7668(5) 0.0765 Uani
O3 O 0.31877(19) -0.06144(8) 0.7365(4) 0.0805 Uani
O4 O 0.2051(2) -0.05797(8) 0.8037(4) 0.0793 Uani
O5 O 0.37237(13) -0.22078(6) 0.7865(3) 0.0393 Uani
O6 O 0.44116(14) -0.17490(7) 0.7613(3) 0.0502 Uani
Co2C Co -0.03333(2) -0.249999(11) 0.24005(7) 0.0345 Uani
Co2E Co 0.46667(2) -0.250001(11) 0.74005(7) 0.0345 Uani
N16C N -0.02062(17) -0.25938(8) 0.8900(3) 0.0369 Uani
O5E O 0.12763(13) -0.27922(6) 0.7865(3) 0.0393 Uani
O7 O 0.4751(5) -0.0656(3) 0.7287(15) 0.1357 Uani
H27 H 0.4701 -0.0869 0.7359 0.1630 Uiso
H28 H 0.5128 -0.0575 0.6949 0.1630 Uiso
O8 O 0.0543(7) -0.0515(4) 0.763(2) 0.2653 Uani
H29 H 0.0599 -0.0714 0.7899 0.3190 Uiso
H30 H 0.0284 -0.0484 0.7034 0.3190 Uiso
loop_
_atom_site_aniso_label
_atom_site_aniso_U_11
_atom_site_aniso_U_22
_atom_site_aniso_U_33
_atom_site_aniso_U_23
_atom_site_aniso_U_13
_atom_site_aniso_U_12
Co1 0.0308(2) 0.0301(2) 0.0658(4) -0.0003(2) 0.0007(3) -0.00154(17)
C1 0.089(4) 0.053(3) 0.089(4) -0.011(3) 0.031(4) 0.001(3)
C2 0.119(5) 0.055(3) 0.114(5) 0.008(3) 0.047(5) -0.021(3)
C3 0.054(3) 0.032(2) 0.079(4) 0.005(2) 0.009(2) -0.0004(17)
C4 0.046(2) 0.0326(19) 0.082(3) -0.003(2) 0.009(2) 0.0018(16)
C5 0.069(3) 0.053(3) 0.094(4) 0.005(3) 0.030(3) -0.001(2)
C6 0.092(4) 0.056(3) 0.124(6) -0.016(3) 0.058(4) -0.011(3)
C7 0.063(3) 0.080(4) 0.074(4) -0.023(3) -0.005(3) 0.004(3)
C8 0.071(4) 0.135(6) 0.101(5) -0.050(5) -0.040(4) 0.025(4)
C9 0.0343(19) 0.043(2) 0.067(3) -0.0027(19) -0.0036(19) 0.0005(16)
C10 0.038(2) 0.0361(19) 0.058(3) 0.0002(17) 0.0003(18) 0.0035(15)
C11 0.075(3) 0.075(3) 0.060(3) -0.016(3) 0.007(3) 0.017(3)
C12 0.059(3) 0.060(3) 0.061(3) -0.012(2) -0.006(2) 0.009(2)
C13 0.070(3) 0.063(3) 0.062(3) 0.019(2) -0.003(3) -0.021(2)
C14 0.064(3) 0.085(4) 0.064(3) 0.029(3) -0.020(3) -0.020(3)
C15 0.0358(19) 0.0386(19) 0.053(2) 0.0013(17) -0.0032(18) -0.0009(15)
C16 0.0355(17) 0.0287(17) 0.051(2) -0.0007(15) -0.0004(17) 0.0004(13)
C17 0.058(3) 0.045(2) 0.056(3) 0.0068(19) -0.001(2) -0.0086(19)
C18 0.047(2) 0.050(2) 0.053(3) 0.007(2) -0.007(2) -0.0010(18)
N1 0.049(2) 0.0377(18) 0.080(3) -0.0036(18) 0.012(2) -0.0074(16)
N2 0.085(3) 0.0330(19) 0.102(4) 0.005(2) 0.034(3) -0.002(2)
N3 0.047(2) 0.0348(17) 0.080(3) 0.0017(17) 0.0122(19) 0.0004(15)
N4 0.086(3) 0.0351(19) 0.106(4) -0.008(2) 0.031(3) -0.003(2)
N5 0.0390(19) 0.0460(19) 0.069(3) -0.0132(17) 0.0020(18) 0.0000(14)
N6 0.043(2) 0.105(4) 0.096(4) -0.031(3) -0.019(2) 0.018(2)
N7 0.0403(18) 0.0408(18) 0.062(2) -0.0047(16) -0.0014(17) 0.0020(14)
N8 0.049(2) 0.056(2) 0.075(3) -0.004(2) 0.005(2) 0.0178(17)
N9 0.0391(17) 0.0428(18) 0.057(2) 0.0090(16) -0.0014(17) -0.0047(14)
N10 0.047(2) 0.075(3) 0.063(3) 0.020(2) -0.0149(19) -0.0217(19)
N11 0.0340(16) 0.0335(15) 0.058(2) 0.0001(14) -0.0021(15) -0.0010(12)
N12 0.0343(16) 0.0425(17) 0.052(2) 0.0009(15) -0.0010(16) -0.0092(13)
Co2 0.0276(2) 0.0379(3) 0.0380(3) -0.00060(19) 0.0016(2) -0.00287(17)
C19 0.033(2) 0.068(3) 0.068(3) 0.009(2) 0.006(2) 0.0114(19)
C20 0.036(2) 0.059(3) 0.054(3) -0.005(2) 0.0100(19) 0.0042(18)
C21 0.0306(18) 0.0356(17) 0.043(2) 0.0043(15) -0.0025(16) -0.0003(15)
C22 0.0245(15) 0.0355(17) 0.046(2) 0.0047(15) -0.0018(15) -0.0017(15)
C23 0.039(2) 0.061(3) 0.042(2) -0.0031(19) -0.0033(19) 0.0192(18)
C24 0.046(2) 0.048(2) 0.046(2) -0.0015(18) 0.0052(19) 0.0119(18)
C25 0.0322(15) 0.0344(17) 0.045(2) -0.0011(15) 0.0046(16) 0.0012(13)
C26 0.0420(19) 0.0308(17) 0.069(3) 0.0026(19) 0.008(2) 0.0056(14)
C27 0.049(2) 0.0242(16) 0.068(3) -0.0006(19) 0.012(2) -0.0016(13)
C28 0.0368(17) 0.0347(18) 0.057(3) 0.0003(17) 0.0091(19) -0.0058(13)
C29 0.0326(16) 0.0338(16) 0.0369(19) -0.0029(15) 0.0048(16) -0.0030(12)
C30 0.0331(16) 0.0278(15) 0.041(2) 0.0001(14) -0.0001(16) 0.0004(11)
C31 0.0311(16) 0.0378(18) 0.049(2) 0.0042(16) 0.0037(17) 0.0027(13)
C32 0.063(3) 0.0254(18) 0.095(4) 0.000(2) 0.009(3) -0.0018(17)
C33 0.0309(15) 0.0333(17) 0.0385(19) -0.0060(15) -0.0016(16) -0.0008(12)
N13 0.0277(16) 0.055(2) 0.046(2) -0.0040(16) 0.0047(14) 0.0020(13)
N14 0.0314(17) 0.072(3) 0.048(2) 0.0066(18) -0.0001(16) 0.0137(16)
N15 0.0379(16) 0.0467(17) 0.0384(18) 0.0030(15) -0.0005(15) 0.0091(14)
N16 0.0282(15) 0.0440(16) 0.0384(19) -0.0007(14) -0.0017(14) 0.0043(12)
O1 0.0327(12) 0.0384(14) 0.064(2) 0.0037(13) -0.0013(14) -0.0063(9)
O2 0.0330(14) 0.0525(18) 0.144(4) 0.007(2) 0.005(2) 0.0099(12)
O3 0.069(2) 0.0306(15) 0.142(4) 0.001(2) 0.029(3) -0.0116(14)
O4 0.069(2) 0.0310(14) 0.138(4) -0.0036(19) 0.034(3) 0.0041(15)
O5 0.0334(12) 0.0354(12) 0.0491(15) 0.0000(12) 0.0005(12) 0.0040(9)
O6 0.0297(12) 0.0519(16) 0.069(2) -0.0042(15) 0.0064(15) -0.0071(11)
Co2C 0.0276 0.0379 0.038 -0.0006 -0.0016 0.00287
Co2E 0.0276 0.0379 0.038 0.0006 -0.0016 -0.00287
N16C 0.0282 0.044 0.0384 -0.0007 0.0017 -0.0043
O5E 0.0334 0.0354 0.0491 0 -0.0005 0.004
O7 0.064(5) 0.127(8) 0.216(14) -0.004(10) 0.005(8) -0.014(5)
O8 0.102(9) 0.204(17) 0.49(4) -0.03(2) -0.117(19) 0.065(10)
loop_
_geom_bond_atom_site_label_1
_geom_bond_atom_site_label_2
_geom_bond_site_symmetry_1
_geom_bond_site_symmetry_2
Co1 N1 1_555 1_555
Co2 N13 1_555 1_555
C1 H1 1_555 1_555
C2 C1 1_555 1_555
H2 C2 1_555 1_555
C3 C4 1_555 1_555
C4 N3 1_555 1_555
C5 H3 1_555 1_555
C6 C5 1_555 1_555
H4 C6 1_555 1_555
C7 H5 1_555 1_555
C8 C7 1_555 1_555
H6 C8 1_555 1_555
C9 C10 1_555 1_555
C10 N7 1_555 1_555
C11 H7 1_555 1_555
C12 C11 1_555 1_555
H8 C12 1_555 1_555
C13 H9 1_555 1_555
C14 C13 1_555 1_555
H10 C14 1_555 1_555
C15 C16 1_555 1_555
C16 N11 1_555 1_555
C17 H11 1_555 1_555
C18 C17 1_555 1_555
H12 C18 1_555 1_555
C19 H13 1_555 1_555
C20 C19 1_555 1_555
H14 C20 1_555 1_555
C21 C22 1_555 1_555
C22 N15 1_555 1_555
C23 H15 1_555 1_555
C24 C23 1_555 1_555
H16 C24 1_555 1_555
C25 C26 1_555 1_555
C26 H17 1_555 1_555
C27 C26 1_555 1_555
C28 C27 1_555 1_555
H18 C28 1_555 1_555
C29 C28 1_555 1_555
C30 C25 1_555 1_555
H19 C30 1_555 1_555
C31 C25 1_555 1_555
C32 C27 1_555 1_555
C33 C29 1_555 1_555
N1 C1 1_555 1_555
N2 C2 1_555 1_555
H20 N2 1_555 1_555
N3 Co1 1_555 1_555
N4 C4 1_555 1_555
H21 N4 1_555 1_555
N5 Co1 1_555 1_555
N6 C8 1_555 1_555
H22 N6 1_555 1_555
N7 Co1 1_555 1_555
N8 C10 1_555 1_555
H23 N8 1_555 1_555
N9 Co1 1_555 1_555
N10 C14 1_555 1_555
H24 N10 1_555 1_555
N11 Co1 1_555 1_555
N12 C16 1_555 1_555
H25 N12 1_555 1_555
N13 C20 1_555 1_555
N14 C19 1_555 1_555
H26 N14 1_555 1_555
N15 Co2 1_555 1_555
N16 C22 1_555 1_555
O1 Co2 1_555 1_555
O2 C31 1_555 1_555
O3 C32 1_555 1_555
O4 C32 1_555 1_555
O5 C33 1_555 1_555
O6 C33 1_555 1_555
O7 H27 1_555 1_555
H28 O7 1_555 1_555
O8 H29 1_555 1_555
H30 O8 1_555 1_555
Co2C N16 1_555 1_555
Co2E O5 1_555 1_555
N16C Co2 1_555 1_555
O5E Co2 1_555 1_555
C3 N1 1_555 1_555
C3 N2 1_555 1_555
C5 N3 1_555 1_555
C6 N4 1_555 1_555
C7 N5 1_555 1_555
C9 N5 1_555 1_555
C9 N6 1_555 1_555
C11 N8 1_555 1_555
C12 N7 1_555 1_555
C13 N9 1_555 1_555
C15 N9 1_555 1_555
C15 N10 1_555 1_555
C17 N12 1_555 1_555
C18 N11 1_555 1_555
C21 N13 1_555 1_555
C21 N14 1_555 1_555
C23 N15 1_555 1_555
C24 N16 1_555 1_555
C29 C30 1_555 1_555
C31 O1 1_555 1_555

#END
