
#######################################################################
#
#                 Cambridge Crystallographic Data Centre
#                                CCDC 
#
#######################################################################
#
# If this CIF has been generated from an entry in the Cambridge 
# Structural Database, then it will include bibliographic, chemical, 
# crystal, experimental, refinement or atomic coordinate data resulting 
# from the CCDC's data processing and validation procedures.
#
#######################################################################

data_HAZGOF07
_chemical_name_common            
catena-[tris(mu!4$-Terephthalato)-di-scandium(iii)]
_chemical_formula_moiety         '(C24 H12 O12 Sc2)n'
_chemical_name_systematic        
catena-[tris(\m~4~-Benzene-1,4-dicarboxylato)-di-scandium(iii)]
_symmetry_cell_setting           orthorhombic
_symmetry_space_group_name_H-M   'F d d d'
_symmetry_Int_Tables_number      70
_space_group_name_Hall           '-F 2uv 2vw'
loop_
_symmetry_equiv_pos_site_id
_symmetry_equiv_pos_as_xyz
1 x,y,z
2 3/4-x,1/4-y,1/2+z
3 x,3/4-y,3/4-z
4 3/4-x,y,3/4-z
5 x,1/2+y,1/2+z
6 3/4-x,3/4-y,z
7 x,1/4-y,1/4-z
8 3/4-x,1/2+y,1/4-z
9 1/2+x,y,1/2+z
10 1/4-x,1/4-y,z
11 1/2+x,3/4-y,1/4-z
12 1/4-x,y,1/4-z
13 1/2+x,1/2+y,z
14 1/4-x,3/4-y,1/2+z
15 1/2+x,1/4-y,3/4-z
16 1/4-x,1/2+y,3/4-z
17 -x,-y,-z
18 1/4+x,3/4+y,1/2-z
19 -x,1/4+y,1/4+z
20 1/4+x,-y,1/4+z
21 -x,1/2-y,1/2-z
22 1/4+x,1/4+y,-z
23 -x,3/4+y,3/4+z
24 1/4+x,1/2-y,3/4+z
25 1/2-x,-y,1/2-z
26 3/4+x,3/4+y,-z
27 1/2-x,1/4+y,3/4+z
28 3/4+x,-y,3/4+z
29 1/2-x,1/2-y,-z
30 3/4+x,1/4+y,1/2-z
31 1/2-x,3/4+y,1/4+z
32 3/4+x,1/2-y,1/4+z
_cell_length_a                   8.715763(22)
_cell_length_b                   20.722986(26)
_cell_length_c                   34.36496(4)
_cell_angle_alpha                90
_cell_angle_beta                 90
_cell_angle_gamma                90
_cell_volume                     6206.88
_cell_formula_units_Z            8
_exptl_crystal_preparation       
'The void space in the structure contains no guest molecules as the sample was heated to 623 K under vacuum prior to data collection'
loop_
_atom_site_label
_atom_site_type_symbol
_atom_site_fract_x
_atom_site_fract_y
_atom_site_fract_z
_atom_site_U_iso_or_equiv
_atom_site_thermal_displace_type
Sc1 Sc 0.125 0.125 0.364451(33) 0.0178 Uiso
O1 O -0.00820(29) 0.20872(10) 0.36458(7) 0.0464 Uiso
O2 O 0.26376(30) 0.16536(12) 0.32074(7) 0.0401 Uiso
O3 O 0.49512(34) 0.16569(13) 0.34228(7) 0.0578 Uiso
C1 C -0.125 0.23950(19) 0.375 0.0818 Uiso
C2 C -0.125 0.30964(16) 0.375 0.0506 Uiso
C3 C -0.26474(30) 0.34143(9) 0.37512(13) 0.0673 Uiso
C4 C 0.4003(4) 0.18038(19) 0.31622(10) 0.0862 Uiso
C5 C 0.4521(4) 0.21855(18) 0.28199(9) 0.0457 Uiso
C6 C 0.3421(4) 0.23472(19) 0.25424(12) 0.0696 Uiso
C7 C 0.6063(5) 0.23040(19) 0.27796(10) 0.0713 Uiso
Sc1C Sc -0.375 0.125 0.385549(33) 0.0178 Uiso
Sc1C_2 Sc 0.625 0.125 0.385549(33) 0.0178 Uiso
Sc1B Sc 0.125 0.625 0.385549(33) 0.0178 Uiso
Sc1E Sc -0.375 0.625 0.364451(33) 0.0178 Uiso
Sc1T Sc 0.875 0.375 0.135549(33) 0.0178 Uiso
Sc1W Sc 0.375 0.375 0.114451(33) 0.0178 Uiso
Sc1Q Sc -0.625 -0.125 0.135549(33) 0.0178 Uiso
Sc1V Sc -0.125 -0.125 0.114451(33) 0.0178 Uiso
O1C O -0.24180(29) 0.20872(10) 0.38542(7) 0.0464 Uiso
O1B O -0.00820(29) 0.54128(10) 0.38542(7) 0.0464 Uiso
O1E O -0.24180(29) 0.54128(10) 0.36458(7) 0.0464 Uiso
O1I O 0.25820(29) 0.04128(10) 0.36458(7) 0.0464 Uiso
O1N O -0.50820(29) 0.04128(10) 0.38542(7) 0.0464 Uiso
O2T O 0.73624(30) 0.33464(12) 0.17926(7) 0.0401 Uiso
O2I O -0.01376(30) 0.08464(12) 0.32074(7) 0.0401 Uiso
O2Q O -0.48624(30) -0.08464(12) 0.17926(7) 0.0401 Uiso
O2C O -0.51376(30) 0.16536(12) 0.42926(7) 0.0401 Uiso
O2N O -0.23624(30) 0.08464(12) 0.42926(7) 0.0401 Uiso
O3T O 0.50488(34) 0.33431(13) 0.15772(7) 0.0578 Uiso
O3I O -0.24512(34) 0.08431(13) 0.34228(7) 0.0578 Uiso
O3Q O -0.25488(34) -0.08431(13) 0.15772(7) 0.0578 Uiso
O3C O 0.25488(34) 0.16569(13) 0.40772(7) 0.0578 Uiso
O3N O -0.00488(34) 0.08431(13) 0.40772(7) 0.0578 Uiso
O3_2 O -0.50488(34) 0.16569(13) 0.34228(7) 0.0578 Uiso
C1B C -0.125 0.51050(19) 0.375 0.0818 Uiso
C2B C -0.125 0.44036(16) 0.375 0.0506 Uiso
C3B C -0.26474(30) 0.40857(9) 0.37488(13) 0.0673 Uiso
C3E C 0.01474(30) 0.40857(9) 0.37512(13) 0.0673 Uiso
C3C C 0.01474(30) 0.34143(9) 0.37488(13) 0.0673 Uiso
C4T C 0.5997(4) 0.31962(19) 0.18378(10) 0.0862 Uiso
C4I C -0.1503(4) 0.06962(19) 0.31622(10) 0.0862 Uiso
C4Q C -0.3497(4) -0.06962(19) 0.18378(10) 0.0862 Uiso
C5T C 0.5479(4) 0.28145(18) 0.21801(9) 0.0457 Uiso
C5I C -0.2021(4) 0.03145(18) 0.28199(9) 0.0457 Uiso
C5Q C -0.2979(4) -0.03145(18) 0.21801(9) 0.0457 Uiso
C6T C 0.6579(4) 0.26528(19) 0.24576(12) 0.0696 Uiso
C6I C -0.0921(4) 0.01528(19) 0.25424(12) 0.0696 Uiso
C6Q C -0.4079(4) -0.01528(19) 0.24576(12) 0.0696 Uiso
C7T C 0.3937(5) 0.26960(19) 0.22204(10) 0.0713 Uiso
C7I C -0.3563(5) 0.01960(19) 0.27796(10) 0.0713 Uiso
C7Q C -0.1437(5) -0.01960(19) 0.22204(10) 0.0713 Uiso
loop_
_geom_bond_atom_site_label_1
_geom_bond_atom_site_label_2
_geom_bond_site_symmetry_1
_geom_bond_site_symmetry_2
Sc1 O1 1_555 1_555
O1 C1 1_555 1_555
O2 Sc1 1_555 1_555
O3 C4 1_555 1_555
C1 C2 1_555 1_555
C2 C3 1_555 1_555
C3 C3B 1_555 1_555
C4 O2 1_555 1_555
C5 C4 1_555 1_555
C6 C5 1_555 1_555
C7 C5 1_555 1_555
Sc1C O1C 1_555 1_555
Sc1C_2 O3 1_555 1_555
Sc1B O1B 1_555 1_555
Sc1E O1E 1_555 1_555
Sc1T O2T 1_555 1_555
Sc1W O3T 1_555 1_555
Sc1Q O2Q 1_555 1_555
Sc1V O3Q 1_555 1_555
O1C C1 1_555 1_555
O1B C1B 1_555 1_555
O1E C1B 1_555 1_555
O1I Sc1 1_555 1_555
O1N Sc1C 1_555 1_555
O2T C4T 1_555 1_555
O2I Sc1 1_555 1_555
O2Q C4Q 1_555 1_555
O2C Sc1C 1_555 1_555
O2N Sc1C 1_555 1_555
O3T C4T 1_555 1_555
O3I Sc1C 1_555 1_555
O3Q C4Q 1_555 1_555
O3C Sc1 1_555 1_555
O3N Sc1 1_555 1_555
O3_2 Sc1C 1_555 1_555
C1B C2B 1_555 1_555
C2B C3B 1_555 1_555
C3E C2B 1_555 1_555
C3C C2 1_555 1_555
C4T C5T 1_555 1_555
C4I O2I 1_555 1_555
C4Q C5Q 1_555 1_555
C5T C6T 1_555 1_555
C5I C4I 1_555 1_555
C5Q C6Q 1_555 1_555
C6T C7 1_555 1_555
C6I C5I 1_555 1_555
C6Q C7I 1_555 1_555
C7T C6 1_555 1_555
C7I C5I 1_555 1_555
C7Q C5Q 1_555 1_555
O3I C4I 1_555 1_555
C3E C3C 1_555 1_555
C5T C7T 1_555 1_555
C6I C7Q 1_555 1_555

#END
