
#######################################################################
#
#                 Cambridge Crystallographic Data Centre
#                                CCDC 
#
#######################################################################
#
# If this CIF has been generated from an entry in the Cambridge 
# Structural Database, then it will include bibliographic, chemical, 
# crystal, experimental, refinement or atomic coordinate data resulting 
# from the CCDC's data processing and validation procedures.
#
#######################################################################

data_PIBNUK01
_chemical_formula_moiety         
'(C48 H28 N6 O14 Zn3)n,4n(C3 H7 N1 O1),6n(H2 O1)'
_chemical_name_systematic        
'catena-(bis(\m~6~-2,4,6-tris(4-Carboxyphenyl)-s-triazine)-diaqua-tri-zinc dimethylformamide solvate hexahydrate)'
_symmetry_cell_setting           cubic
_symmetry_space_group_name_H-M   'P 43 3 2'
_symmetry_Int_Tables_number      212
_space_group_name_Hall           'P 4acd 2ab 3'
loop_
_symmetry_equiv_pos_site_id
_symmetry_equiv_pos_as_xyz
1 x,y,z
2 1/2-x,-y,1/2+z
3 -x,1/2+y,1/2-z
4 1/2+x,1/2-y,-z
5 z,x,y
6 1/2+z,1/2-x,-y
7 1/2-z,-x,1/2+y
8 -z,1/2+x,1/2-y
9 y,z,x
10 -y,1/2+z,1/2-x
11 1/2+y,1/2-z,-x
12 1/2-y,-z,1/2+x
13 1/4+y,3/4+x,3/4-z
14 1/4-y,1/4-x,1/4-z
15 3/4+y,3/4-x,1/4+z
16 3/4-y,1/4+x,3/4+z
17 1/4+x,3/4+z,3/4-y
18 3/4-x,1/4+z,3/4+y
19 1/4-x,1/4-z,1/4-y
20 3/4+x,3/4-z,1/4+y
21 1/4+z,3/4+y,3/4-x
22 3/4+z,3/4-y,1/4+x
23 3/4-z,1/4+y,3/4+x
24 1/4-z,1/4-y,1/4-x
_cell_length_a                   25.6349(2)
_cell_length_b                   25.6349(2)
_cell_length_c                   25.6349(2)
_cell_angle_alpha                90
_cell_angle_beta                 90
_cell_angle_gamma                90
_cell_volume                     16845.9
_exptl_crystal_colour            colorless
_exptl_crystal_description       block
_cell_formula_units_Z            4
_exptl_crystal_preparation       photoluminescent
loop_
_atom_site_label
_atom_site_type_symbol
_atom_site_fract_x
_atom_site_fract_y
_atom_site_fract_z
Zn1 Zn 0.8750 0.3750 0.1250
Zn2 Zn 0.955234(9) 0.455234(9) 0.044766(9)
O1 O 0.87737(5) 0.37083(5) 0.04429(6)
O2 O 0.89887(6) 0.43904(6) -0.00337(6)
O3 O 1.00057(6) 0.50057(6) -0.00057(6)
N1 N 0.67461(9) 0.30554(8) -0.12166(7)
C1 C 0.70339(10) 0.34808(12) -0.13352(12)
C2 C 0.87182(10) 0.39940(11) 0.00623(10)
C3 C 0.82889(9) 0.38532(11) -0.03224(9)
C4 C 0.80241(10) 0.33962(10) -0.02631(9)
H1 H 0.8117 0.3172 0.0007
C5 C 0.76198(10) 0.32554(9) -0.05929(10)
H2 H 0.7447 0.2939 -0.0551
C6 C 0.74797(10) 0.35993(11) -0.09872(9)
C7 C 0.77536(11) 0.40642(10) -0.10630(9)
H3 H 0.7668 0.4285 -0.1338
C8 C 0.81531(9) 0.41930(9) -0.07239(10)
H4 H 0.8331 0.4507 -0.0764
Zn1A Zn 0.6250 0.6250 -0.3750
Zn1C Zn 0.3750 0.1250 -0.1250
Zn1C_2 Zn 1.3750 0.1250 -0.1250
Zn1B Zn 1.1250 -0.1250 0.3750
Zn2A Zn 0.544766(9) 0.544766(9) -0.455234(9)
Zn2C Zn 0.455234(9) 0.044766(9) -0.044766(9)
Zn2C_2 Zn 1.455234(9) 0.044766(9) -0.044766(9)
Zn2B Zn 1.044766(9) -0.044766(9) 0.455234(9)
O1I O 0.62917(5) 0.54429(6) -0.37737(5)
O1F O 0.45571(6) 0.12263(5) -0.12917(5)
O1G O 0.95571(6) 0.37737(5) 0.12917(5)
O1C O 1.37737(5) 0.12917(5) -0.04429(6)
O1K O 1.12917(5) -0.04429(6) 0.37737(5)
O1J O 0.87083(5) 0.45571(6) 0.12263(5)
O1M O 0.87917(5) 0.37263(5) 0.20571(6)
O1Q O 0.87263(5) 0.29429(6) 0.12083(5)
O1U O 0.79429(6) 0.37917(5) 0.12737(5)
O2I O 0.56096(6) 0.49663(6) -0.39887(6)
O2F O 0.50337(6) 0.10113(6) -0.06096(6)
O2G O 1.00337(6) 0.39887(6) 0.06096(6)
O2C O 1.39887(6) 0.06096(6) 0.00337(6)
O2K O 1.06096(6) 0.00337(6) 0.39887(6)
O2J O 0.93904(6) 0.50337(6) 0.10113(6)
O2C_2 O 0.39887(6) 0.06096(6) 0.00337(6)
O2H O 0.43904(6) -0.00337(6) -0.10113(6)
O3C O 0.50057(6) -0.00057(6) 0.00057(6)
N1F N 0.62166(7) 0.32539(9) -0.19446(8)
N1I N 0.69446(8) 0.37834(7) -0.17461(9)
N1G N 1.12166(7) 0.17461(9) 0.19446(8)
N1K N 1.19446(8) 0.12166(7) 0.17461(9)
N1C N 1.17461(9) 0.19446(8) 0.12166(7)
C1F C 0.63352(12) 0.29661(10) -0.15192(12)
C1I C 0.65192(12) 0.36648(12) -0.20339(10)
C1G C 1.13352(12) 0.20339(10) 0.15192(12)
C1K C 1.15192(12) 0.13352(12) 0.20339(10)
C1C C 1.20339(10) 0.15192(12) 0.13352(12)
C2I C 0.60060(11) 0.50623(10) -0.37182(10)
C2F C 0.49377(10) 0.12818(10) -0.10060(11)
C2G C 0.99377(10) 0.37182(10) 0.10060(11)
C2C C 1.37182(10) 0.10060(11) -0.00623(10)
C2K C 1.10060(11) -0.00623(10) 0.37182(10)
C3I C 0.61468(11) 0.46776(9) -0.32889(9)
C3F C 0.53224(9) 0.17111(9) -0.11468(11)
C3G C 1.03224(9) 0.32889(9) 0.11468(11)
C3C C 1.32889(9) 0.11468(11) 0.03224(9)
C3K C 1.11468(11) 0.03224(9) 0.32889(9)
C4I C 0.66038(10) 0.47369(9) -0.30241(10)
C4F C 0.52631(9) 0.19759(10) -0.16038(10)
C4G C 1.02631(9) 0.30241(10) 0.16038(10)
C4C C 1.30241(10) 0.16038(10) 0.02631(9)
C4K C 1.16038(10) 0.02631(9) 0.30241(10)
H1I H 0.6828 0.5007 -0.3117
H1F H 0.4993 0.1883 -0.1828
H1G H 0.9993 0.3117 0.1828
H1C H 1.3117 0.1828 -0.0007
H1K H 1.1828 -0.0007 0.3117
C5I C 0.67446(9) 0.44071(10) -0.26198(10)
C5F C 0.55929(10) 0.23802(10) -0.17446(9)
C5G C 1.05929(10) 0.26198(10) 0.17446(9)
C5C C 1.26198(10) 0.17446(9) 0.05929(10)
C5K C 1.17446(9) 0.05929(10) 0.26198(10)
H2I H 0.7061 0.4449 -0.2447
H2F H 0.5551 0.2553 -0.2061
H2G H 1.0551 0.2447 0.2061
H2C H 1.2447 0.2061 0.0551
H2K H 1.2061 0.0551 0.2447
C6I C 0.64007(11) 0.40128(9) -0.24797(10)
C6F C 0.59872(9) 0.25203(10) -0.14007(11)
C6G C 1.09872(9) 0.24797(10) 0.14007(11)
C6C C 1.24797(10) 0.14007(11) 0.09872(9)
C6K C 1.14007(11) 0.09872(9) 0.24797(10)
C7I C 0.59358(10) 0.39370(9) -0.27536(11)
C7F C 0.60630(9) 0.22464(11) -0.09358(10)
C7G C 1.10630(9) 0.27536(11) 0.09358(10)
C7C C 1.27536(11) 0.09358(10) 0.10630(9)
C7K C 1.09358(10) 0.10630(9) 0.27536(11)
H3I H 0.5715 0.3662 -0.2668
H3F H 0.6338 0.2332 -0.0715
H3G H 1.1338 0.2668 0.0715
H3C H 1.2668 0.0715 0.1338
H3K H 1.0715 0.1338 0.2668
C8I C 0.58070(9) 0.42761(10) -0.31531(9)
C8F C 0.57239(10) 0.18469(9) -0.08070(9)
C8G C 1.07239(10) 0.31531(9) 0.08070(9)
C8C C 1.31531(9) 0.08070(9) 0.07239(10)
C8K C 1.08070(9) 0.07239(10) 0.31531(9)
H4I H 0.5493 0.4236 -0.3331
H4F H 0.5764 0.1669 -0.0493
H4G H 1.0764 0.3331 0.0493
H4C H 1.3331 0.0493 0.0764
H4K H 1.0493 0.0764 0.3331
loop_
_geom_bond_atom_site_label_1
_geom_bond_atom_site_label_2
_geom_bond_site_symmetry_1
_geom_bond_site_symmetry_2
Zn1 O1 1_555 1_555
Zn2 O2 1_555 1_555
O1 C2 1_555 1_555
O2 C2 1_555 1_555
O3 Zn2 1_555 1_555
N1 C1 1_555 1_555
C1 C6 1_555 1_555
C2 C3 1_555 1_555
C3 C4 1_555 1_555
C4 H1 1_555 1_555
C5 C4 1_555 1_555
H2 C5 1_555 1_555
C6 C5 1_555 1_555
C7 C6 1_555 1_555
H3 C7 1_555 1_555
C8 C3 1_555 1_555
H4 C8 1_555 1_555
Zn1A O1I 1_555 1_555
Zn1C O1F 1_555 1_555
Zn1C_2 O1C 1_555 1_555
Zn1B O1K 1_555 1_555
Zn2A O2I 1_555 1_555
Zn2C O2F 1_555 1_555
Zn2C_2 O2C 1_555 1_555
Zn2B O2K 1_555 1_555
O1I C2I 1_555 1_555
O1F C2F 1_555 1_555
O1G Zn1 1_555 1_555
O1C C2C 1_555 1_555
O1K C2K 1_555 1_555
O1J Zn1 1_555 1_555
O1M Zn1 1_555 1_555
O1Q Zn1 1_555 1_555
O1U Zn1 1_555 1_555
O2I C2I 1_555 1_555
O2F C2F 1_555 1_555
O2G Zn2 1_555 1_555
O2C C2C 1_555 1_555
O2K C2K 1_555 1_555
O2J Zn2 1_555 1_555
O2C_2 Zn2C 1_555 1_555
O2H Zn2C 1_555 1_555
O3C Zn2C 1_555 1_555
N1F C1F 1_555 1_555
N1I C1 1_555 1_555
N1G C1G 1_555 1_555
N1K C1K 1_555 1_555
N1C C1G 1_555 1_555
C1F N1 1_555 1_555
C1I N1F 1_555 1_555
C1G C6G 1_555 1_555
C1K N1G 1_555 1_555
C1C N1K 1_555 1_555
C2I C3I 1_555 1_555
C2F C3F 1_555 1_555
C2G O1G 1_555 1_555
C2C C3C 1_555 1_555
C2K C3K 1_555 1_555
C3I C4I 1_555 1_555
C3F C4F 1_555 1_555
C3G C2G 1_555 1_555
C3C C4C 1_555 1_555
C3K C4K 1_555 1_555
C4I H1I 1_555 1_555
C4F H1F 1_555 1_555
C4G C3G 1_555 1_555
C4C H1C 1_555 1_555
C4K H1K 1_555 1_555
H1G C4G 1_555 1_555
C5I C4I 1_555 1_555
C5F C4F 1_555 1_555
C5G C4G 1_555 1_555
C5C C4C 1_555 1_555
C5K C4K 1_555 1_555
H2I C5I 1_555 1_555
H2F C5F 1_555 1_555
H2G C5G 1_555 1_555
H2C C5C 1_555 1_555
H2K C5K 1_555 1_555
C6I C1I 1_555 1_555
C6F C1F 1_555 1_555
C6G C5G 1_555 1_555
C6C C1C 1_555 1_555
C6K C1K 1_555 1_555
C7I C6I 1_555 1_555
C7F C6F 1_555 1_555
C7G C6G 1_555 1_555
C7C C6C 1_555 1_555
C7K C6K 1_555 1_555
H3I C7I 1_555 1_555
H3F C7F 1_555 1_555
H3G C7G 1_555 1_555
H3C C7C 1_555 1_555
H3K C7K 1_555 1_555
C8I C3I 1_555 1_555
C8F C3F 1_555 1_555
C8G C3G 1_555 1_555
C8C C3C 1_555 1_555
C8K C3K 1_555 1_555
H4I C8I 1_555 1_555
H4F C8F 1_555 1_555
H4G C8G 1_555 1_555
H4C C8C 1_555 1_555
H4K C8K 1_555 1_555
C7 C8 1_555 1_555
O2G C2G 1_555 1_555
N1I C1I 1_555 1_555
N1C C1C 1_555 1_555
C5I C6I 1_555 1_555
C5F C6F 1_555 1_555
C5C C6C 1_555 1_555
C5K C6K 1_555 1_555
C7I C8I 1_555 1_555
C7F C8F 1_555 1_555
C7G C8G 1_555 1_555
C7C C8C 1_555 1_555
C7K C8K 1_555 1_555

#END
