
#######################################################################
#
#                 Cambridge Crystallographic Data Centre
#                                CCDC 
#
#######################################################################
#
# If this CIF has been generated from an entry in the Cambridge 
# Structural Database, then it will include bibliographic, chemical, 
# crystal, experimental, refinement or atomic coordinate data resulting 
# from the CCDC's data processing and validation procedures.
#
#######################################################################

data_UXUPEJ
_chemical_formula_moiety         '(C22 H16 Cu1 F6 N4 O6 S2)n'
_chemical_name_systematic        
"catena-(bis(\m~2~-4,4'-Bipyridine)-bis(trifluoromethanesulfonato)-copper unknown solvate)"
_symmetry_cell_setting           tetragonal
_symmetry_space_group_name_H-M   'I 41/a c d'
_symmetry_Int_Tables_number      142
_space_group_name_Hall           '-I 4bd 2c'
loop_
_symmetry_equiv_pos_site_id
_symmetry_equiv_pos_as_xyz
1 x,y,z
2 1/4-y,3/4+x,1/4+z
3 1/2-x,-y,1/2+z
4 1/4+y,1/4-x,3/4+z
5 x,-y,1/2-z
6 1/4+y,3/4+x,3/4-z
7 1/2-x,y,-z
8 1/4-y,1/4-x,1/4-z
9 1/2+x,1/2+y,1/2+z
10 3/4-y,1/4+x,3/4+z
11 -x,1/2-y,z
12 3/4+y,3/4-x,1/4+z
13 1/2+x,1/2-y,-z
14 3/4+y,1/4+x,1/4-z
15 -x,1/2+y,1/2-z
16 3/4-y,3/4-x,3/4-z
17 -x,-y,-z
18 3/4+y,1/4-x,3/4-z
19 1/2+x,y,1/2-z
20 3/4-y,3/4+x,1/4-z
21 -x,y,1/2+z
22 3/4-y,1/4-x,1/4+z
23 1/2+x,-y,z
24 3/4+y,3/4+x,3/4+z
25 1/2-x,1/2-y,1/2-z
26 1/4+y,3/4-x,1/4-z
27 x,1/2+y,-z
28 1/4-y,1/4+x,3/4-z
29 1/2-x,1/2+y,z
30 1/4-y,3/4-x,3/4+z
31 x,1/2-y,1/2+z
32 1/4+y,1/4+x,1/4+z
_cell_length_a                   28.5955(13)
_cell_length_b                   28.5955(13)
_cell_length_c                   18.0782(8)
_cell_angle_alpha                90
_cell_angle_beta                 90
_cell_angle_gamma                90
_cell_volume                     14782.6
_exptl_crystal_colour            blue
_exptl_crystal_description       plate
_cell_formula_units_Z            16
loop_
_atom_site_label
_atom_site_type_symbol
_atom_site_fract_x
_atom_site_fract_y
_atom_site_fract_z
_atom_site_U_iso_or_equiv
_atom_site_thermal_displace_type
Cu1 Cu 0.2500 0.23992(2) 0.5000 0.0282 Uani
S1 S 0.18170(9) 0.22488(9) 0.67892(10) 0.0900 Uani
F1 F 0.1219(6) 0.2873(4) 0.6752(7) 0.2900 Uani
F2 F 0.1016(3) 0.2219(4) 0.6137(8) 0.2073 Uani
F3 F 0.1006(4) 0.2189(4) 0.7347(7) 0.2773 Uani
O1 O 0.19986(12) 0.24018(13) 0.60943(19) 0.0476 Uani
O2 O 0.1973(5) 0.2467(4) 0.7434(4) 0.2113 Uani
O3 O 0.1866(4) 0.1735(2) 0.6857(4) 0.1437 Uani
N1 N 0.29142(12) 0.19094(11) 0.5467(2) 0.0309 Uani
N2 N 0.45957(12) 0.04120(12) 0.7058(2) 0.0310 Uani
C1 C 0.30308(18) 0.19409(16) 0.6182(3) 0.0420 Uani
H1 H 0.2887 0.2167 0.6472 0.0510 Uiso
C2 C 0.33557(18) 0.16507(17) 0.6504(3) 0.0433 Uani
H2 H 0.3435 0.1690 0.6999 0.0520 Uiso
C3 C 0.35623(15) 0.13039(14) 0.6097(3) 0.0330 Uani
C4 C 0.34340(18) 0.12570(16) 0.5356(3) 0.0423 Uani
H3 H 0.3563 0.1022 0.5065 0.0500 Uiso
C5 C 0.31101(18) 0.15683(16) 0.5062(3) 0.0410 Uani
H4 H 0.3026 0.1539 0.4567 0.0490 Uiso
C6 C 0.42862(15) 0.02461(16) 0.6558(3) 0.0430 Uani
H5 H 0.4301 -0.0068 0.6427 0.0520 Uiso
C7 C 0.39517(16) 0.05231(18) 0.6238(3) 0.0487 Uani
H6 H 0.3746 0.0396 0.5894 0.0590 Uiso
C8 C 0.39202(15) 0.09891(15) 0.6424(3) 0.0347 Uani
C9 C 0.42418(16) 0.11587(16) 0.6934(3) 0.0410 Uani
H7 H 0.4233 0.1471 0.7074 0.0490 Uiso
C10 C 0.45714(16) 0.08681(17) 0.7230(3) 0.0420 Uani
H8 H 0.4787 0.0991 0.7563 0.0500 Uiso
C11 C 0.1198(5) 0.2400(6) 0.6760(8) 0.3387 Uani
Cu1S Cu 0.51008(2) 0.0000 0.7500 0.0282 Uani
Cu1Q Cu -0.01008(2) 0.0000 0.2500 0.0282 Uani
S1F S 0.31830(9) 0.22488(9) 0.32108(10) 0.0900 Uani
F1F F 0.3781(6) 0.2873(4) 0.3248(7) 0.2900 Uani
F2F F 0.3984(3) 0.2219(4) 0.3863(8) 0.2073 Uani
F3F F 0.3994(4) 0.2189(4) 0.2653(7) 0.2773 Uani
O1F O 0.30014(12) 0.24018(13) 0.39057(19) 0.0476 Uani
O2F O 0.3027(5) 0.2467(4) 0.2566(4) 0.2113 Uani
O3F O 0.3134(4) 0.1735(2) 0.3143(4) 0.1437 Uani
N1F N 0.20858(12) 0.19094(11) 0.4533(2) 0.0309 Uani
N2F N 0.04043(12) 0.04120(12) 0.2942(2) 0.0310 Uani
N2Y N 0.29120(12) 0.29043(12) 0.5442(2) 0.0310 Uani
N2CA N 0.20880(12) 0.29043(12) 0.4558(2) 0.0310 Uani
C1F C 0.19692(18) 0.19409(16) 0.3818(3) 0.0420 Uani
H1F H 0.2113 0.2167 0.3528 0.0510 Uiso
C2F C 0.16443(18) 0.16507(17) 0.3496(3) 0.0433 Uani
H2F H 0.1565 0.1690 0.3001 0.0520 Uiso
C3F C 0.14377(15) 0.13039(14) 0.3903(3) 0.0330 Uani
C4F C 0.15660(18) 0.12570(16) 0.4644(3) 0.0423 Uani
H3F H 0.1437 0.1022 0.4935 0.0500 Uiso
C5F C 0.18899(18) 0.15683(16) 0.4938(3) 0.0410 Uani
H4F H 0.1974 0.1539 0.5433 0.0490 Uiso
C6F C 0.07138(15) 0.02461(16) 0.3442(3) 0.0430 Uani
H5F H 0.0699 -0.0068 0.3573 0.0520 Uiso
C7F C 0.10483(16) 0.05231(18) 0.3762(3) 0.0487 Uani
H6F H 0.1254 0.0396 0.4106 0.0590 Uiso
C8F C 0.10798(15) 0.09891(15) 0.3576(3) 0.0347 Uani
C9F C 0.07582(16) 0.11587(16) 0.3066(3) 0.0410 Uani
H7F H 0.0767 0.1471 0.2926 0.0490 Uiso
C10F C 0.04286(16) 0.08681(17) 0.2770(3) 0.0420 Uani
H8F H 0.0213 0.0991 0.2437 0.0500 Uiso
C11F C 0.3802(5) 0.2400(6) 0.3240(8) 0.3387 Uani
loop_
_atom_site_aniso_label
_atom_site_aniso_U_11
_atom_site_aniso_U_22
_atom_site_aniso_U_33
_atom_site_aniso_U_23
_atom_site_aniso_U_13
_atom_site_aniso_U_12
Cu1 0.0275(4) 0.0142(3) 0.0430(5) 0.000 -0.0227(3) 0.000
S1 0.1137(18) 0.1054(16) 0.0510(10) -0.0053(10) 0.0080(10) -0.0027(13)
F1 0.48(2) 0.205(11) 0.185(10) -0.025(8) 0.019(12) 0.183(14)
F2 0.093(5) 0.253(11) 0.276(12) 0.033(9) -0.006(6) -0.032(6)
F3 0.260(12) 0.265(11) 0.307(13) 0.094(10) 0.214(11) 0.047(9)
O1 0.0447(19) 0.054(2) 0.044(2) 0.0071(16) -0.0058(15) -0.0045(16)
O2 0.345(17) 0.223(11) 0.066(4) -0.052(6) -0.066(7) 0.074(11)
O3 0.233(10) 0.082(4) 0.116(6) 0.027(4) 0.054(6) 0.023(5)
N1 0.0336(18) 0.0209(16) 0.0381(19) -0.0044(13) -0.0185(15) 0.0048(13)
N2 0.0241 0.0248 0.044 0.0164 -0.0092 -0.0005
C1 0.054(3) 0.033(2) 0.039(2) -0.0041(18) -0.020(2) 0.016(2)
C2 0.049(3) 0.040(2) 0.041(3) 0.002(2) -0.022(2) 0.011(2)
C3 0.030(2) 0.0240(18) 0.045(2) 0.0055(17) -0.0168(18) 0.0029(15)
C4 0.051(3) 0.030(2) 0.046(3) -0.0073(19) -0.020(2) 0.0161(19)
C5 0.052(3) 0.030(2) 0.041(2) -0.0086(18) -0.029(2) 0.0099(19)
C6 0.036 0.0211 0.072 0.007 -0.024 0.0054
C7 0.043 0.03 0.073 0.004 -0.036 0.0056
C8 0.033 0.027 0.044 0.007 -0.0148 0.0039
C9 0.04 0.027 0.056 0.0035 -0.02 0.0048
C10 0.038 0.032 0.056 0.011 -0.02 0.0013
C11 0.073(9) 0.79(7) 0.153(16) 0.17(3) 0.028(10) -0.07(2)
Cu1S 0.0142 0.0275 0.043 0.0227 0 0
Cu1Q 0.0142 0.0275 0.043 -0.0227 0 0
S1F 0.1137 0.1054 0.051 0.0053 0.008 0.0027
F1F 0.48 0.205 0.185 0.025 0.019 -0.183
F2F 0.093 0.253 0.276 -0.033 -0.006 0.032
F3F 0.26 0.265 0.307 -0.094 0.214 -0.047
O1F 0.0447 0.054 0.044 -0.0071 -0.0058 0.0045
O2F 0.345 0.223 0.066 0.052 -0.066 -0.074
O3F 0.233 0.082 0.116 -0.027 0.054 -0.023
N1F 0.0336 0.0209 0.0381 0.0044 -0.0185 -0.0048
N2F 0.0241 0.0248 0.044 -0.0164 -0.0092 0.0005
N2Y 0.0248 0.0241 0.044 -0.0092 -0.0164 0.0005
N2CA 0.0248 0.0241 0.044 0.0092 -0.0164 -0.0005
C1F 0.054 0.033 0.039 0.0041 -0.02 -0.016
C2F 0.049 0.04 0.041 -0.002 -0.022 -0.011
C3F 0.03 0.024 0.045 -0.0055 -0.0168 -0.0029
C4F 0.051 0.03 0.046 0.0073 -0.02 -0.0161
C5F 0.052 0.03 0.041 0.0086 -0.029 -0.0099
C6F 0.036 0.0211 0.072 -0.007 -0.024 -0.0054
C7F 0.043 0.03 0.073 -0.004 -0.036 -0.0056
C8F 0.033 0.027 0.044 -0.007 -0.0148 -0.0039
C9F 0.04 0.027 0.056 -0.0035 -0.02 -0.0048
C10F 0.038 0.032 0.056 -0.011 -0.02 -0.0013
C11F 0.073 0.79 0.153 -0.17 0.028 0.07
loop_
_geom_bond_atom_site_label_1
_geom_bond_atom_site_label_2
_geom_bond_site_symmetry_1
_geom_bond_site_symmetry_2
Cu1 O1 1_555 1_555
S1 O1 1_555 1_555
F1 C11 1_555 1_555
F2 C11 1_555 1_555
F3 C11 1_555 1_555
O2 S1 1_555 1_555
O3 S1 1_555 1_555
N1 Cu1 1_555 1_555
N2 C6 1_555 1_555
C1 N1 1_555 1_555
H1 C1 1_555 1_555
C2 C1 1_555 1_555
H2 C2 1_555 1_555
C3 C2 1_555 1_555
C4 C3 1_555 1_555
H3 C4 1_555 1_555
C5 N1 1_555 1_555
H4 C5 1_555 1_555
C6 H5 1_555 1_555
C7 C6 1_555 1_555
H6 C7 1_555 1_555
C8 C3 1_555 1_555
C9 C8 1_555 1_555
H7 C9 1_555 1_555
C10 N2 1_555 1_555
H8 C10 1_555 1_555
C11 S1 1_555 1_555
Cu1S N2 1_555 1_555
Cu1Q N2F 1_555 1_555
S1F O1F 1_555 1_555
F1F C11F 1_555 1_555
F2F C11F 1_555 1_555
F3F C11F 1_555 1_555
O1F Cu1 1_555 1_555
O2F S1F 1_555 1_555
O3F S1F 1_555 1_555
N1F Cu1 1_555 1_555
N2F C6F 1_555 1_555
N2Y Cu1 1_555 1_555
N2CA Cu1 1_555 1_555
C1F N1F 1_555 1_555
H1F C1F 1_555 1_555
C2F C1F 1_555 1_555
H2F C2F 1_555 1_555
C3F C2F 1_555 1_555
C4F C3F 1_555 1_555
H3F C4F 1_555 1_555
C5F N1F 1_555 1_555
H4F C5F 1_555 1_555
C6F H5F 1_555 1_555
C7F C6F 1_555 1_555
H6F C7F 1_555 1_555
C8F C3F 1_555 1_555
C9F C8F 1_555 1_555
H7F C9F 1_555 1_555
C10F N2F 1_555 1_555
H8F C10F 1_555 1_555
C11F S1F 1_555 1_555
C4 C5 1_555 1_555
C7 C8 1_555 1_555
C9 C10 1_555 1_555
C4F C5F 1_555 1_555
C7F C8F 1_555 1_555
C9F C10F 1_555 1_555

#END
