
#######################################################################
#
#                 Cambridge Crystallographic Data Centre
#                                CCDC 
#
#######################################################################
#
# If this CIF has been generated from an entry in the Cambridge 
# Structural Database, then it will include bibliographic, chemical, 
# crystal, experimental, refinement or atomic coordinate data resulting 
# from the CCDC's data processing and validation procedures.
#
#######################################################################

data_LOVVAV
_chemical_formula_moiety         '(C26 H16 Co2 N2 O10)n'
_chemical_name_systematic        
catena-[(\m-2,2'-dipyrifyl-N,N'-dioxido)-bis(\m-terephthalato)-di-cobalt]
_symmetry_cell_setting           monoclinic
_symmetry_space_group_name_H-M   'P 2/c'
_symmetry_Int_Tables_number      13
_space_group_name_Hall           '-P 2yc'
loop_
_symmetry_equiv_pos_site_id
_symmetry_equiv_pos_as_xyz
1 x,y,z
2 -x,y,1/2-z
3 -x,-y,-z
4 x,-y,1/2+z
_cell_length_a                   11.3517(12)
_cell_length_b                   11.3956(10)
_cell_length_c                   13.2806(12)
_cell_angle_alpha                90
_cell_angle_beta                 110.274(11)
_cell_angle_gamma                90
_cell_volume                     1611.54
_exptl_crystal_colour            pink
_exptl_crystal_description       block
_cell_formula_units_Z            2
loop_
_atom_site_label
_atom_site_type_symbol
_atom_site_fract_x
_atom_site_fract_y
_atom_site_fract_z
Co1 Co 0.0000 0.11810(7) 0.7500
O1 O -0.0475(3) -0.0219(3) 0.8319(2)
Co2 Co 0.0000 0.0000 1.0000
N1 N -0.1202(4) -0.1075(4) 0.7777(3)
C1 C -0.2437(5) -0.1058(5) 0.7619(4)
H1 H -0.2772 -0.0452 0.7905
C2 C -0.3199(5) -0.1925(5) 0.7042(4)
H2 H -0.4053 -0.1912 0.6933
C3 C -0.2706(6) -0.2813(5) 0.6621(4)
H3 H -0.3223 -0.3409 0.6229
C4 C -0.1454(6) -0.2825(5) 0.6779(4)
H4 H -0.1119 -0.3425 0.6486
C5 C -0.0683(4) -0.1948(4) 0.7370(4)
O2 O 0.1844(3) -0.0019(3) 1.0119(2)
C6 C 0.2333(4) 0.0458(4) 0.9499(3)
O3 O 0.1811(3) 0.1047(3) 0.8680(2)
C7 C 0.3731(4) 0.0240(4) 0.9787(3)
C8 C 0.4353(4) -0.0570(5) 1.0549(3)
H5 H 0.3918 -0.0966 1.0923
C9 C 0.4396(4) 0.0812(4) 0.9228(3)
H6 H 0.3993 0.1358 0.8701
O4 O 0.0629(3) 0.2393(3) 0.6701(2)
C10 C 0.0231(4) 0.2569(4) 0.5714(4)
O5 O -0.0085(3) 0.1814(2) 0.4980(2)
C11 C 0.0111(4) 0.3839(4) 0.5349(3)
C12 C 0.0849(5) 0.4694(4) 0.5974(4)
H7 H 0.1426 0.4502 0.6645
C13 C -0.0747(5) 0.4151(4) 0.4380(4)
H8 H -0.1271 0.3581 0.3950
O1A O 0.0475(3) -0.0219(3) 0.6681(2)
N1A N 0.1202(4) -0.1075(4) 0.7223(3)
C1A C 0.2437(5) -0.1058(5) 0.7381(4)
H1A H 0.2772 -0.0452 0.7095
C2A C 0.3199(5) -0.1925(5) 0.7958(4)
H2A H 0.4053 -0.1912 0.8067
C3A C 0.2706(6) -0.2813(5) 0.8379(4)
H3A H 0.3223 -0.3409 0.8771
C4A C 0.1454(6) -0.2825(5) 0.8221(4)
H4A H 0.1119 -0.3425 0.8514
C5A C 0.0683(4) -0.1948(4) 0.7630(4)
O2B O 0.8156(3) 0.0019(3) 0.9881(2)
C6B C 0.7667(4) -0.0458(4) 1.0501(3)
O3B O 0.8189(3) -0.1047(3) 1.1320(2)
C7B C 0.6269(4) -0.0240(4) 1.0213(3)
C8B C 0.5647(4) 0.0570(5) 0.9451(3)
H5B H 0.6082 0.0966 0.9077
C9B C 0.5604(4) -0.0812(4) 1.0772(3)
H6B H 0.6007 -0.1358 1.1299
O4B O -0.0629(3) 0.7607(3) 0.3299(2)
C10B C -0.0231(4) 0.7431(4) 0.4286(4)
O5B O 0.0085(3) 0.8186(2) 0.5020(2)
C11B C -0.0111(4) 0.6161(4) 0.4651(3)
C12B C -0.0849(5) 0.5306(4) 0.4026(4)
H7B H -0.1426 0.5498 0.3355
C13B C 0.0747(5) 0.5849(4) 0.5620(4)
H8B H 0.1271 0.6419 0.6050
Co1B Co 0.0000 0.88190(7) 0.2500
Co1B_2 Co 1.0000 -0.11810(7) 1.2500
O1B O 0.0475(3) 0.0219(3) 1.1681(2)
Co2_2 Co 1.0000 0.0000 1.0000
Co2A Co 0.0000 0.0000 0.5000
Co2A_2 Co 0.0000 1.0000 0.5000
O2B_2 O -0.1844(3) 0.0019(3) 0.9881(2)
O3A O -0.1811(3) 0.1047(3) 0.6320(2)
O4A O -0.0629(3) 0.2393(3) 0.8299(2)
O5A O 0.0085(3) 0.1814(2) 1.0020(2)
O5C O -0.0085(3) -0.1814(2) 0.9980(2)
loop_
_geom_bond_atom_site_label_1
_geom_bond_atom_site_label_2
_geom_bond_site_symmetry_1
_geom_bond_site_symmetry_2
Co1 O1 1_555 1_555
O1 Co2 1_555 1_555
Co2 O2 1_555 1_555
N1 O1 1_555 1_555
C1 N1 1_555 1_555
H1 C1 1_555 1_555
C2 C1 1_555 1_555
H2 C2 1_555 1_555
C3 C2 1_555 1_555
H3 C3 1_555 1_555
C4 C3 1_555 1_555
H4 C4 1_555 1_555
C5 N1 1_555 1_555
O2 C6 1_555 1_555
C6 O3 1_555 1_555
O3 Co1 1_555 1_555
C7 C6 1_555 1_555
C8 C7 1_555 1_555
H5 C8 1_555 1_555
C9 C7 1_555 1_555
H6 C9 1_555 1_555
O4 Co1 1_555 1_555
C10 O4 1_555 1_555
O5 C10 1_555 1_555
C11 C10 1_555 1_555
C12 C11 1_555 1_555
H7 C12 1_555 1_555
C13 C11 1_555 1_555
H8 C13 1_555 1_555
O1A Co1 1_555 1_555
N1A O1A 1_555 1_555
C1A N1A 1_555 1_555
H1A C1A 1_555 1_555
C2A C1A 1_555 1_555
H2A C2A 1_555 1_555
C3A C2A 1_555 1_555
H3A C3A 1_555 1_555
C4A C3A 1_555 1_555
H4A C4A 1_555 1_555
C5A C5 1_555 1_555
O2B C6B 1_555 1_555
C6B O3B 1_555 1_555
O3B Co1B_2 1_555 1_555
C7B C6B 1_555 1_555
C8B C9 1_555 1_555
H5B C8B 1_555 1_555
C9B C8 1_555 1_555
H6B C9B 1_555 1_555
O4B C10B 1_555 1_555
C10B O5B 1_555 1_555
O5B Co2A_2 1_555 1_555
C11B C10B 1_555 1_555
C12B C13 1_555 1_555
H7B C12B 1_555 1_555
C13B C12 1_555 1_555
H8B C13B 1_555 1_555
Co1B O4B 1_555 1_555
O1B Co2 1_555 1_555
Co2_2 O2B 1_555 1_555
Co2A O5 1_555 1_555
O2B_2 Co2 1_555 1_555
O3A Co1 1_555 1_555
O4A Co1 1_555 1_555
O5A Co2 1_555 1_555
O5C Co2 1_555 1_555
C4 C5 1_555 1_555
O1A Co2A 1_555 1_555
N1A C5A 1_555 1_555
C4A C5A 1_555 1_555
C7B C8B 1_555 1_555
C7B C9B 1_555 1_555
C11B C12B 1_555 1_555
C11B C13B 1_555 1_555

#END
