
#######################################################################
#
#                 Cambridge Crystallographic Data Centre
#                                CCDC 
#
#######################################################################
#
# If this CIF has been generated from an entry in the Cambridge 
# Structural Database, then it will include bibliographic, chemical, 
# crystal, experimental, refinement or atomic coordinate data resulting 
# from the CCDC's data processing and validation procedures.
#
#######################################################################

data_LOVVEZ
_chemical_formula_moiety         
'(C88 H56 Co6 N8 O28)n,4n(C3 H7 N1 O1),5n(H2 O1)'
_chemical_name_systematic        
"catena-[tetrakis(\m-2,2'-dipyridyl-N-oxido)-hexakis(\m-terephthalato)-hexa-cobalt N,N-dimethylformamide solvate pentahydrate]"
_symmetry_cell_setting           triclinic
_symmetry_space_group_name_H-M   'P -1'
_symmetry_Int_Tables_number      2
_space_group_name_Hall           '-P 1'
loop_
_symmetry_equiv_pos_site_id
_symmetry_equiv_pos_as_xyz
1 x,y,z
2 -x,-y,-z
_cell_length_a                   9.650(6)
_cell_length_b                   17.270(12)
_cell_length_c                   18.274(12)
_cell_angle_alpha                99.057(11)
_cell_angle_beta                 90.485(9)
_cell_angle_gamma                106.122(10)
_cell_volume                     2884.84
_exptl_crystal_colour            pink
_exptl_crystal_description       platelet
_cell_formula_units_Z            1
loop_
_atom_site_label
_atom_site_type_symbol
_atom_site_fract_x
_atom_site_fract_y
_atom_site_fract_z
Co1 Co 0.5000 0.0000 0.5000
Co2 Co 0.0000 0.0000 1.0000
Co3 Co -0.16403(10) -0.21059(5) 0.95073(5)
Co4 Co 0.45115(10) -0.21070(5) 0.45201(5)
O1 O 0.0200(5) -0.1793(3) 0.8947(2)
O2 O 0.0704(5) -0.0434(3) 0.8997(2)
C1 C 0.0725(7) -0.1134(4) 0.8697(4)
C2 C 0.1437(7) -0.1201(4) 0.7962(4)
C3 C 0.1972(7) -0.0494(4) 0.7647(4)
H1 H 0.1903 0.0018 0.7899
C4 C 0.2603(7) -0.0541(4) 0.6964(4)
H2 H 0.2965 -0.0061 0.6751
C5 C 0.2704(7) -0.1296(4) 0.6593(4)
C6 C 0.2243(7) -0.1984(4) 0.6921(3)
H3 H 0.2374 -0.2488 0.6687
C7 C 0.1587(7) -0.1940(4) 0.7595(4)
H4 H 0.1238 -0.2421 0.7808
O3 O 0.3454(5) -0.0707(3) 0.5531(2)
C8 C 0.3356(7) -0.1328(4) 0.5864(4)
O4 O 0.3734(5) -0.1944(3) 0.5578(3)
O5 O 0.2981(5) -0.1789(3) 0.3961(2)
O6 O 0.3817(5) -0.0424(3) 0.4002(3)
C9 C 0.3094(7) -0.1136(4) 0.3709(3)
C10 C 0.2320(7) -0.1204(4) 0.2968(4)
C11 C 0.1528(8) -0.1968(4) 0.2560(4)
H5 H 0.1472 -0.2451 0.2759
C12 C 0.0847(8) -0.2028(4) 0.1895(4)
H6 H 0.0288 -0.2545 0.1639
C13 C 0.0974(7) -0.1325(4) 0.1591(4)
C14 C 0.1765(8) -0.0551(4) 0.1975(3)
H7 H 0.1848 -0.0073 0.1763
C15 C 0.2420(8) -0.0497(4) 0.2668(4)
H8 H 0.2937 0.0022 0.2938
O7 O 0.0833(5) -0.0732(3) 0.0520(3)
C16 C 0.0313(8) -0.1356(4) 0.0829(4)
O8 O -0.0715(5) -0.1978(3) 0.0558(3)
O9 O -0.2077(5) -0.3385(3) 0.9364(3)
O10 O -0.3661(5) -0.2795(3) 0.9924(3)
C17 C -0.3248(9) -0.3421(5) 0.9723(4)
C18 C -0.4166(9) -0.4248(4) 0.9886(4)
C19 C -0.3663(9) -0.4942(5) 0.9677(5)
H9 H -0.2769 -0.4896 0.9449
C20 C -0.5481(9) -0.4296(5) 1.0185(5)
H10 H -0.5808 -0.3822 1.0298
O11 O 0.6011(5) -0.0975(3) 0.4705(2)
N1 N 0.7361(6) -0.1035(3) 0.4769(3)
C21 C 0.8120(8) -0.0735(5) 0.5429(4)
H11 H 0.7703 -0.0468 0.5825
C22 C 0.9491(8) -0.0812(5) 0.5531(5)
H12 H 1.0017 -0.0605 0.5996
C23 C 1.0082(9) -0.1194(5) 0.4946(5)
H13 H 1.1032 -0.1244 0.5001
C24 C 0.9305(8) -0.1498(5) 0.4293(5)
H14 H 0.9718 -0.1766 0.3895
C25 C 0.7925(8) -0.1430(4) 0.4188(4)
C26 C 0.7054(8) -0.1779(4) 0.3472(4)
C27 C 0.7737(9) -0.1711(5) 0.2798(4)
H15 H 0.8724 -0.1409 0.2802
C28 C 0.6992(10) -0.2073(5) 0.2143(4)
H16 H 0.7449 -0.2036 0.1686
C29 C 0.5540(9) -0.2502(5) 0.2158(4)
H17 H 0.4992 -0.2763 0.1708
C30 C 0.4894(9) -0.2547(4) 0.2834(4)
H18 H 0.3909 -0.2850 0.2840
N2 N 0.5640(6) -0.2167(3) 0.3488(3)
O12 O -0.1983(5) -0.0971(3) 0.9740(3)
N3 N -0.3390(7) -0.1015(4) 0.9804(4)
C31 C -0.3812(10) -0.0750(7) 1.0497(5)
H19 H -0.3124 -0.0511 1.0903
C32 C -0.5278(11) -0.0846(8) 1.0581(6)
H20 H -0.5601 -0.0671 1.1052
C33 C -0.6260(11) -0.1188(8) 0.9994(6)
H21 H -0.7260 -0.1254 1.0056
C34 C -0.5782(9) -0.1438(8) 0.9310(5)
H22 H -0.6466 -0.1661 0.8900
C35 C -0.4347(8) -0.1374(5) 0.9203(4)
C36 C -0.3831(8) -0.1691(5) 0.8486(4)
C37 C -0.4443(8) -0.1577(5) 0.7827(4)
H23 H -0.5134 -0.1276 0.7843
C38 C -0.4034(8) -0.1905(5) 0.7159(4)
H24 H -0.4452 -0.1852 0.6704
C39 C -0.2993(9) -0.2315(5) 0.7170(4)
H25 H -0.2668 -0.2534 0.6716
C40 C -0.2433(8) -0.2408(4) 0.7820(4)
H26 H -0.1747 -0.2711 0.7806
N4 N -0.2804(6) -0.2089(3) 0.8492(3)
O13 O 0.3645(5) -0.3386(3) 0.4413(3)
O14 O 0.5839(5) -0.2792(3) 0.4949(3)
C41 C 0.4792(8) -0.3419(4) 0.4734(4)
C42 C 0.4912(8) -0.4236(4) 0.4870(4)
C43 C 0.3886(9) -0.4969(4) 0.4489(4)
H27 H 0.3159 -0.4937 0.4151
C44 C 0.6020(9) -0.4271(5) 0.5375(4)
H28 H 0.6691 -0.3782 0.5617
O9A O -0.7923(5) -0.6615(3) 1.0636(3)
O10A O -0.6339(5) -0.7205(3) 1.0076(3)
C17A C -0.6752(9) -0.6579(5) 1.0277(4)
C18A C -0.5834(9) -0.5752(4) 1.0114(4)
C19A C -0.6337(9) -0.5058(5) 1.0323(5)
H9A H -0.7231 -0.5104 1.0551
C20A C -0.4519(9) -0.5704(5) 0.9815(5)
H10A H -0.4192 -0.6178 0.9702
O13A O 0.6355(5) -0.6614(3) 0.5587(3)
O14A O 0.4161(5) -0.7208(3) 0.5051(3)
C41A C 0.5208(8) -0.6581(4) 0.5266(4)
C42A C 0.5088(8) -0.5764(4) 0.5130(4)
C43A C 0.6114(9) -0.5031(4) 0.5511(4)
H27A H 0.6841 -0.5063 0.5849
C44A C 0.3980(9) -0.5729(5) 0.4625(4)
H28A H 0.3309 -0.6218 0.4383
Co3A Co -0.83597(10) -0.78941(5) 1.04927(5)
Co4A Co -1.45115(10) -0.78930(5) 1.54799(5)
O1A O -1.0200(5) -0.8207(3) 1.1053(2)
O2A O -1.0704(5) -0.9566(3) 1.1003(2)
C1A C -1.0725(7) -0.8866(4) 1.1303(4)
C2A C -1.1437(7) -0.8799(4) 1.2038(4)
C3A C -1.1972(7) -0.9506(4) 1.2353(4)
H1A H -1.1903 -1.0018 1.2101
C4A C -1.2603(7) -0.9459(4) 1.3036(4)
H2A H -1.2965 -0.9939 1.3249
C5A C -1.2704(7) -0.8704(4) 1.3407(4)
C6A C -1.2243(7) -0.8016(4) 1.3079(3)
H3A H -1.2374 -0.7512 1.3313
C7A C -1.1587(7) -0.8060(4) 1.2405(4)
H4A H -1.1238 -0.7579 1.2192
O3A O -1.3454(5) -0.9293(3) 1.4469(2)
C8A C -1.3356(7) -0.8672(4) 1.4136(4)
O4A O -1.3734(5) -0.8056(3) 1.4422(3)
O5A O -1.2981(5) -0.8211(3) 1.6039(2)
O6A O -1.3817(5) -0.9576(3) 1.5998(3)
C9A C -1.3094(7) -0.8864(4) 1.6291(3)
C10A C -1.2320(7) -0.8796(4) 1.7032(4)
C11A C -1.1528(8) -0.8032(4) 1.7440(4)
H5A H -1.1472 -0.7549 1.7241
C12A C -1.0847(8) -0.7972(4) 1.8105(4)
H6A H -1.0288 -0.7455 1.8361
C13A C -1.0974(7) -0.8675(4) 1.8409(4)
C14A C -1.1765(8) -0.9449(4) 1.8025(3)
H7A H -1.1848 -0.9927 1.8237
C15A C -1.2420(8) -0.9503(4) 1.7332(4)
H8A H -1.2937 -1.0022 1.7062
O7A O -1.0833(5) -0.9268(3) 1.9480(3)
C16A C -1.0313(8) -0.8644(4) 1.9171(4)
O8A O -0.9285(5) -0.8022(3) 1.9442(3)
O11A O -1.6011(5) -0.9025(3) 1.5295(2)
N1A N -1.7361(6) -0.8965(3) 1.5231(3)
C21A C -1.8120(8) -0.9265(5) 1.4571(4)
H11A H -1.7703 -0.9532 1.4175
C22A C -1.9491(8) -0.9188(5) 1.4469(5)
H12A H -2.0017 -0.9395 1.4004
C23A C -2.0082(9) -0.8806(5) 1.5054(5)
H13A H -2.1032 -0.8756 1.4999
C24A C -1.9305(8) -0.8502(5) 1.5707(5)
H14A H -1.9718 -0.8234 1.6105
C25A C -1.7925(8) -0.8570(4) 1.5812(4)
C26A C -1.7054(8) -0.8221(4) 1.6528(4)
C27A C -1.7737(9) -0.8289(5) 1.7202(4)
H15A H -1.8724 -0.8591 1.7198
C28A C -1.6992(10) -0.7927(5) 1.7857(4)
H16A H -1.7449 -0.7964 1.8314
C29A C -1.5540(9) -0.7498(5) 1.7842(4)
H17A H -1.4992 -0.7237 1.8292
C30A C -1.4894(9) -0.7453(4) 1.7166(4)
H18A H -1.3909 -0.7150 1.7160
N2A N -1.5640(6) -0.7833(3) 1.6512(3)
O12A O -0.8017(5) -0.9029(3) 1.0260(3)
N3A N -0.6610(7) -0.8985(4) 1.0196(4)
C31A C -0.6188(10) -0.9250(7) 0.9503(5)
H19A H -0.6876 -0.9489 0.9097
C32A C -0.4722(11) -0.9154(8) 0.9419(6)
H20A H -0.4399 -0.9329 0.8948
C33A C -0.3740(11) -0.8812(8) 1.0006(6)
H21A H -0.2740 -0.8746 0.9944
C34A C -0.4218(9) -0.8562(8) 1.0690(5)
H22A H -0.3534 -0.8339 1.1100
C35A C -0.5653(8) -0.8626(5) 1.0797(4)
C36A C -0.6169(8) -0.8309(5) 1.1514(4)
C37A C -0.5557(8) -0.8423(5) 1.2173(4)
H23A H -0.4866 -0.8724 1.2157
C38A C -0.5966(8) -0.8095(5) 1.2841(4)
H24A H -0.5548 -0.8148 1.3296
C39A C -0.7007(9) -0.7685(5) 1.2830(4)
H25A H -0.7332 -0.7466 1.3284
C40A C -0.7567(8) -0.7592(4) 1.2180(4)
H26A H -0.8253 -0.7289 1.2194
N4A N -0.7196(6) -0.7911(3) 1.1508(3)
Co1_2 Co -1.5000 -1.0000 1.5000
Co2_2 Co -1.0000 -1.0000 1.0000
Co2_3 Co -1.0000 -1.0000 2.0000
Co2_4 Co 0.0000 0.0000 0.0000
Co3_2 Co -0.16403(10) -0.21059(5) -0.04927(5)
Co3A_2 Co -0.83597(10) -0.78941(5) 2.04927(5)
Co4A_2 Co 0.54885(10) -0.78930(5) 0.54799(5)
O2A_2 O -0.0704(5) 0.0434(3) 1.1003(2)
O3A_2 O 0.6546(5) 0.0707(3) 0.4469(2)
O6A_2 O 0.6183(5) 0.0424(3) 0.5998(3)
O7_2 O 0.0833(5) -0.0732(3) 1.0520(3)
O7A_2 O -0.0833(5) 0.0732(3) 0.9480(3)
O8_2 O -0.0715(5) -0.1978(3) 1.0558(3)
O8A_2 O -0.9285(5) -0.8022(3) 0.9442(3)
O11A_2 O 0.3989(5) 0.0975(3) 0.5295(2)
O12A_2 O 0.1983(5) 0.0971(3) 1.0260(3)
O13A_2 O -1.3645(5) -0.6614(3) 1.5587(3)
O14A_2 O -1.5839(5) -0.7208(3) 1.5051(3)
loop_
_geom_bond_atom_site_label_1
_geom_bond_atom_site_label_2
_geom_bond_site_symmetry_1
_geom_bond_site_symmetry_2
Co1 O3 1_555 1_555
Co2 O2 1_555 1_555
Co3 O1 1_555 1_555
Co4 O4 1_555 1_555
O1 C1 1_555 1_555
O2 C1 1_555 1_555
C1 C2 1_555 1_555
C2 C3 1_555 1_555
C3 H1 1_555 1_555
C4 C3 1_555 1_555
H2 C4 1_555 1_555
C5 C4 1_555 1_555
C6 C5 1_555 1_555
H3 C6 1_555 1_555
C7 C2 1_555 1_555
H4 C7 1_555 1_555
O3 C8 1_555 1_555
C8 C5 1_555 1_555
O4 C8 1_555 1_555
O5 Co4 1_555 1_555
O6 Co1 1_555 1_555
C9 O5 1_555 1_555
C10 C9 1_555 1_555
C11 C10 1_555 1_555
H5 C11 1_555 1_555
C12 C11 1_555 1_555
H6 C12 1_555 1_555
C13 C12 1_555 1_555
C14 C13 1_555 1_555
H7 C14 1_555 1_555
C15 C10 1_555 1_555
H8 C15 1_555 1_555
O7 C16 1_555 1_555
C16 C13 1_555 1_555
O8 C16 1_555 1_555
O9 Co3 1_555 1_555
O10 Co3 1_555 1_555
C17 O9 1_555 1_555
C18 C17 1_555 1_555
C19 C18 1_555 1_555
H9 C19 1_555 1_555
C20 C18 1_555 1_555
H10 C20 1_555 1_555
O11 Co1 1_555 1_555
N1 O11 1_555 1_555
C21 N1 1_555 1_555
H11 C21 1_555 1_555
C22 C21 1_555 1_555
H12 C22 1_555 1_555
C23 C22 1_555 1_555
H13 C23 1_555 1_555
C24 C23 1_555 1_555
H14 C24 1_555 1_555
C25 N1 1_555 1_555
C26 C25 1_555 1_555
C27 C26 1_555 1_555
H15 C27 1_555 1_555
C28 C27 1_555 1_555
H16 C28 1_555 1_555
C29 C28 1_555 1_555
H17 C29 1_555 1_555
C30 C29 1_555 1_555
H18 C30 1_555 1_555
N2 Co4 1_555 1_555
O12 Co2 1_555 1_555
N3 O12 1_555 1_555
C31 N3 1_555 1_555
H19 C31 1_555 1_555
C32 C31 1_555 1_555
H20 C32 1_555 1_555
C33 C32 1_555 1_555
H21 C33 1_555 1_555
C34 C33 1_555 1_555
H22 C34 1_555 1_555
C35 N3 1_555 1_555
C36 C35 1_555 1_555
C37 C36 1_555 1_555
H23 C37 1_555 1_555
C38 C37 1_555 1_555
H24 C38 1_555 1_555
C39 C38 1_555 1_555
H25 C39 1_555 1_555
C40 C39 1_555 1_555
H26 C40 1_555 1_555
N4 Co3 1_555 1_555
O13 Co4 1_555 1_555
O14 Co4 1_555 1_555
C41 O13 1_555 1_555
C42 C41 1_555 1_555
C43 C42 1_555 1_555
H27 C43 1_555 1_555
C44 C42 1_555 1_555
H28 C44 1_555 1_555
O9A C17A 1_555 1_555
O10A C17A 1_555 1_555
C17A C18A 1_555 1_555
C18A C19A 1_555 1_555
C19A C20 1_555 1_555
H9A C19A 1_555 1_555
C20A C19 1_555 1_555
H10A C20A 1_555 1_555
O13A C41A 1_555 1_555
O14A C41A 1_555 1_555
C41A C42A 1_555 1_555
C42A C43A 1_555 1_555
C43A C44 1_555 1_555
H27A C43A 1_555 1_555
C44A C43 1_555 1_555
H28A C44A 1_555 1_555
Co3A O9A 1_555 1_555
Co4A O4A 1_555 1_555
O1A Co3A 1_555 1_555
O2A C1A 1_555 1_555
C1A O1A 1_555 1_555
C2A C1A 1_555 1_555
C3A C2A 1_555 1_555
H1A C3A 1_555 1_555
C4A C3A 1_555 1_555
H2A C4A 1_555 1_555
C5A C4A 1_555 1_555
C6A C5A 1_555 1_555
H3A C6A 1_555 1_555
C7A C2A 1_555 1_555
H4A C7A 1_555 1_555
O3A C8A 1_555 1_555
C8A C5A 1_555 1_555
O4A C8A 1_555 1_555
O5A Co4A 1_555 1_555
O6A C9A 1_555 1_555
C9A O5A 1_555 1_555
C10A C9A 1_555 1_555
C11A C10A 1_555 1_555
H5A C11A 1_555 1_555
C12A C11A 1_555 1_555
H6A C12A 1_555 1_555
C13A C12A 1_555 1_555
C14A C13A 1_555 1_555
H7A C14A 1_555 1_555
C15A C10A 1_555 1_555
H8A C15A 1_555 1_555
O7A C16A 1_555 1_555
C16A C13A 1_555 1_555
O8A C16A 1_555 1_555
O11A Co4A 1_555 1_555
N1A O11A 1_555 1_555
C21A N1A 1_555 1_555
H11A C21A 1_555 1_555
C22A C21A 1_555 1_555
H12A C22A 1_555 1_555
C23A C22A 1_555 1_555
H13A C23A 1_555 1_555
C24A C23A 1_555 1_555
H14A C24A 1_555 1_555
C25A N1A 1_555 1_555
C26A C25A 1_555 1_555
C27A C26A 1_555 1_555
H15A C27A 1_555 1_555
C28A C27A 1_555 1_555
H16A C28A 1_555 1_555
C29A C28A 1_555 1_555
H17A C29A 1_555 1_555
C30A C29A 1_555 1_555
H18A C30A 1_555 1_555
N2A Co4A 1_555 1_555
O12A Co3A 1_555 1_555
N3A O12A 1_555 1_555
C31A N3A 1_555 1_555
H19A C31A 1_555 1_555
C32A C31A 1_555 1_555
H20A C32A 1_555 1_555
C33A C32A 1_555 1_555
H21A C33A 1_555 1_555
C34A C33A 1_555 1_555
H22A C34A 1_555 1_555
C35A N3A 1_555 1_555
C36A C35A 1_555 1_555
C37A C36A 1_555 1_555
H23A C37A 1_555 1_555
C38A C37A 1_555 1_555
H24A C38A 1_555 1_555
C39A C38A 1_555 1_555
H25A C39A 1_555 1_555
C40A C39A 1_555 1_555
H26A C40A 1_555 1_555
N4A Co3A 1_555 1_555
Co1_2 O3A 1_555 1_555
Co2_2 O2A 1_555 1_555
Co2_3 O7A 1_555 1_555
Co2_4 O7 1_555 1_555
Co3_2 O8 1_555 1_555
Co3A_2 O8A 1_555 1_555
Co4A_2 O13A 1_555 1_555
O2A_2 Co2 1_555 1_555
O3A_2 Co1 1_555 1_555
O6A_2 Co1 1_555 1_555
O7_2 Co2 1_555 1_555
O7A_2 Co2 1_555 1_555
O8_2 Co3 1_555 1_555
O8A_2 Co3A 1_555 1_555
O11A_2 Co1 1_555 1_555
O12A_2 Co2 1_555 1_555
O13A_2 Co4A 1_555 1_555
O14A_2 Co4A 1_555 1_555
Co3 O12 1_555 1_555
Co4 O11 1_555 1_555
C6 C7 1_555 1_555
O6 C9 1_555 1_555
C14 C15 1_555 1_555
O10 C17 1_555 1_555
C24 C25 1_555 1_555
C26 N2 1_555 1_555
C30 N2 1_555 1_555
C34 C35 1_555 1_555
C36 N4 1_555 1_555
C40 N4 1_555 1_555
O14 C41 1_555 1_555
O10A Co3A 1_555 1_555
C18A C20A 1_555 1_555
O14A Co4A_2 1_555 1_555
C42A C44A 1_555 1_555
C6A C7A 1_555 1_555
O6A Co1_2 1_555 1_555
C14A C15A 1_555 1_555
O11A Co1_2 1_555 1_555
C24A C25A 1_555 1_555
C26A N2A 1_555 1_555
C30A N2A 1_555 1_555
O12A Co2_2 1_555 1_555
C34A C35A 1_555 1_555
C36A N4A 1_555 1_555
C40A N4A 1_555 1_555

#END
