
#######################################################################
#
#                 Cambridge Crystallographic Data Centre
#                                CCDC 
#
#######################################################################
#
# If this CIF has been generated from an entry in the Cambridge 
# Structural Database, then it will include bibliographic, chemical, 
# crystal, experimental, refinement or atomic coordinate data resulting 
# from the CCDC's data processing and validation procedures.
#
#######################################################################

data_RUFTET
_chemical_formula_moiety         
'(C52 H32 Co4 N4 O20)n,2.5n(C1 H4 O1),1.5n(H2 O1)'
_chemical_name_systematic        
"catena-(tetrakis(\m~4~-Terephthalato)-bis(\m~3~-2,2'-bipyridine-N,N'-dioxide)-tetra-cobalt methanol solvate sesquihydrate)"
_symmetry_cell_setting           triclinic
_symmetry_space_group_name_H-M   'P -1'
_symmetry_Int_Tables_number      2
_space_group_name_Hall           '-P 1'
loop_
_symmetry_equiv_pos_site_id
_symmetry_equiv_pos_as_xyz
1 x,y,z
2 -x,-y,-z
_cell_length_a                   11.3407(5)
_cell_length_b                   11.3847(9)
_cell_length_c                   13.1908(7)
_cell_angle_alpha                88.868(6)
_cell_angle_beta                 69.339(5)
_cell_angle_gamma                85.726(5)
_cell_volume                     1589.07
_exptl_crystal_colour            pink
_exptl_crystal_description       block
_cell_formula_units_Z            1
loop_
_atom_site_label
_atom_site_type_symbol
_atom_site_fract_x
_atom_site_fract_y
_atom_site_fract_z
Co1 Co 0.99062(10) 1.11658(7) 0.25175(7)
O1 O 1.0455(5) 0.9768(4) 0.3330(4)
Co2 Co 1.0000 1.0000 0.5000
N1 N 1.1231(6) 0.8869(6) 0.2770(4)
C1 C 1.2478(8) 0.8865(8) 0.2612(6)
H1 H 1.2803 0.9469 0.2902
Co3 Co 1.0000 1.0000 0.0000
C2 C 1.3260(8) 0.7937(8) 0.2007(6)
H2 H 1.4140 0.7916 0.1879
C3 C 1.2817(9) 0.7067(8) 0.1597(6)
H3 H 1.3375 0.6442 0.1191
C4 C 1.1529(8) 0.7095(8) 0.1774(6)
H4 H 1.1204 0.6485 0.1492
C5 C 1.0716(8) 0.8018(7) 0.2366(6)
C6 C 0.9319(8) 0.8065(6) 0.2641(6)
C7 C 0.8627(9) 0.7197(8) 0.3227(6)
H5 H 0.9010 0.6580 0.3527
C8 C 0.7346(10) 0.7228(8) 0.3381(7)
H6 H 0.6843 0.6624 0.3775
C9 C 0.6829(7) 0.8134(8) 0.2960(6)
H7 H 0.5953 0.8179 0.3066
C10 C 0.7584(8) 0.8999(8) 0.2372(6)
H8 H 0.7227 0.9628 0.2064
N2 N 0.8784(6) 0.8951(6) 0.2242(5)
O2 O 0.9485(5) 0.9800(4) 0.1678(3)
O3 O 0.9987(5) 0.8178(4) 0.0011(4)
C11 C 1.0333(7) 0.7412(6) -0.0720(5)
O4 O 1.0846(5) 0.7593(5) -0.1723(4)
C12 C 1.0178(7) 0.6155(6) -0.0357(6)
C13 C 1.0849(8) 0.5226(7) -0.1025(6)
H9 H 1.1434 0.5372 -0.1728
C14 C 0.9342(8) 0.5923(7) 0.0656(5)
H10 H 0.8884 0.6560 0.1115
O5 O 0.8165(5) 1.0070(5) 0.0096(4)
C15 C 0.7713(7) 0.9578(7) -0.0507(5)
O6 O 0.8286(5) 0.8934(5) -0.1316(4)
C16 C 0.6306(7) 0.9770(7) -0.0227(5)
C17 C 0.5587(7) 1.0562(7) 0.0597(6)
H11 H 0.5988 1.0949 0.1005
C18 C 0.5690(7) 0.9210(8) -0.0825(6)
H12 H 0.6161 0.8672 -0.1389
O7 O 1.0510(5) 1.2413(5) 0.3255(4)
C19 C 1.0139(7) 1.2594(7) 0.4281(6)
O8 O 0.9849(5) 1.1831(4) 0.4995(4)
C20 C 1.0065(7) 1.3854(6) 0.4639(5)
C21 C 1.0847(8) 1.4650(7) 0.3985(6)
H13 H 1.1416 1.4420 0.3284
C22 C 1.0797(9) 1.5798(7) 0.4361(6)
H14 H 1.1357 1.6341 0.3927
O9 O 0.8141(5) 1.0033(5) 0.5151(4)
C23 C 0.7588(7) 1.0506(7) 0.4541(6)
O10 O 0.8121(4) 1.1110(5) 0.3705(4)
C24 C 0.6231(8) 1.0273(7) 0.4803(6)
C25 C 0.5549(7) 1.0844(7) 0.4246(6)
H15 H 0.5923 1.1425 0.3730
C26 C 0.5693(8) 0.9417(7) 0.5570(6)
H16 H 0.6165 0.9021 0.5960
O3A O 1.0013(5) 0.1822(4) -0.0011(4)
C11A C 0.9667(7) 0.2588(6) 0.0720(5)
C12A C 0.9822(7) 0.3845(6) 0.0357(6)
C13A C 0.9151(8) 0.4774(7) 0.1025(6)
H9A H 0.8566 0.4628 0.1728
C14A C 1.0658(8) 0.4077(7) -0.0656(5)
H10A H 1.1116 0.3440 -0.1115
O4A O 0.9154(5) 0.2407(5) 0.1723(4)
O5A O 0.1835(5) 0.9930(5) -0.0096(4)
C15A C 0.2287(7) 1.0422(7) 0.0507(5)
C16A C 0.3694(7) 1.0230(7) 0.0227(5)
C17A C 0.4413(7) 0.9438(7) -0.0597(6)
H11A H 0.4012 0.9051 -0.1005
C18A C 0.4310(7) 1.0790(8) 0.0825(6)
H12A H 0.3839 1.1328 0.1389
O6A O 0.1714(5) 1.1066(5) 0.1316(4)
O7A O 0.9490(5) 1.7587(5) 0.6745(4)
C19A C 0.9861(7) 1.7406(7) 0.5719(6)
O8A O 1.0151(5) 1.8169(4) 0.5005(4)
C20A C 0.9935(7) 1.6146(6) 0.5361(5)
C21A C 0.9153(8) 1.5350(7) 0.6015(6)
H13A H 0.8584 1.5580 0.6716
C22A C 0.9203(9) 1.4202(7) 0.5639(6)
H14A H 0.8643 1.3659 0.6073
O9A O 0.1859(5) 0.9967(5) 0.4849(4)
C23A C 0.2412(7) 0.9494(7) 0.5459(6)
O10A O 0.1879(4) 0.8890(5) 0.6295(4)
C24A C 0.3769(8) 0.9727(7) 0.5197(6)
C25A C 0.4451(7) 0.9156(7) 0.5754(6)
H15A H 0.4077 0.8575 0.6270
C26A C 0.4307(8) 1.0583(7) 0.4430(6)
H16A H 0.3835 1.0979 0.4040
Co1A Co 1.00938(10) 0.88342(7) 0.74825(7)
O1A O 0.9545(5) 1.0232(4) 0.6670(4)
N1A N 0.8769(6) 1.1131(6) 0.7230(4)
C1A C 0.7522(8) 1.1135(8) 0.7388(6)
H1A H 0.7197 1.0531 0.7098
C2A C 0.6740(8) 1.2063(8) 0.7993(6)
H2A H 0.5860 1.2084 0.8121
C3A C 0.7183(9) 1.2933(8) 0.8403(6)
H3A H 0.6625 1.3558 0.8809
C4A C 0.8471(8) 1.2905(8) 0.8226(6)
H4A H 0.8796 1.3515 0.8508
C5A C 0.9284(8) 1.1982(7) 0.7634(6)
C6A C 1.0681(8) 1.1935(6) 0.7359(6)
C7A C 1.1373(9) 1.2803(8) 0.6773(6)
H5A H 1.0990 1.3420 0.6473
C8A C 1.2654(10) 1.2772(8) 0.6619(7)
H6A H 1.3157 1.3376 0.6225
C9A C 1.3171(7) 1.1866(8) 0.7040(6)
H7A H 1.4047 1.1821 0.6934
C10A C 1.2416(8) 1.1001(8) 0.7628(6)
H8A H 1.2773 1.0372 0.7936
N2A N 1.1216(6) 1.1049(6) 0.7758(5)
O2A O 1.0515(5) 1.0200(4) 0.8322(3)
Co1_2 Co -0.00938(10) 1.11658(7) 0.25175(7)
Co1_3 Co 0.99062(10) 0.11658(7) 0.25175(7)
Co1A_2 Co 0.00938(10) 0.88342(7) 0.74825(7)
Co1A_3 Co 1.00938(10) 0.88342(7) -0.25175(7)
Co1A_4 Co 1.00938(10) 1.88342(7) 0.74825(7)
Co2_2 Co 0.0000 1.0000 0.5000
Co2_3 Co 1.0000 2.0000 0.5000
Co3_2 Co 0.0000 1.0000 0.0000
Co3_3 Co 1.0000 0.0000 0.0000
Co3_4 Co 1.0000 1.0000 1.0000
O2A_2 O 1.0515(5) 1.0200(4) -0.1678(3)
O3A_2 O 1.0013(5) 1.1822(4) -0.0011(4)
O4_2 O 1.0846(5) 0.7593(5) 0.8277(4)
O4A_2 O 0.9154(5) 1.2407(5) 0.1723(4)
O5A_2 O 1.1835(5) 0.9930(5) -0.0096(4)
O6_2 O 0.8286(5) 0.8934(5) 0.8684(4)
O6A_2 O 1.1714(5) 1.1066(5) 0.1316(4)
O7A_2 O 0.9490(5) 0.7587(5) 0.6745(4)
O8A_2 O 1.0151(5) 0.8169(4) 0.5005(4)
O9A_2 O 1.1859(5) 0.9967(5) 0.4849(4)
O10A_2 O 1.1879(4) 0.8890(5) 0.6295(4)
O11 O 0.430(2) 0.460(3) 0.0013(19)
O13 O 0.6703(16) 0.3394(15) 0.2912(13)
C28 C 0.656(3) 0.278(3) 0.217(2)
O12? O 0.2700(19) 0.3487(19) 0.1630(15)
C27? C 0.303(3) 0.378(2) 0.052(2)
O14? O 0.690(3) 0.382(3) 0.398(2)
C29? C 0.555(3) 0.384(3) 0.485(3)
O15? O 0.492(3) 0.450(3) 0.209(3)
loop_
_geom_bond_atom_site_label_1
_geom_bond_atom_site_label_2
_geom_bond_site_symmetry_1
_geom_bond_site_symmetry_2
Co1 O1 1_555 1_555
O1 Co2 1_555 1_555
Co2 O8 1_555 1_555
N1 O1 1_555 1_555
C1 N1 1_555 1_555
H1 C1 1_555 1_555
Co3 O2 1_555 1_555
C2 C1 1_555 1_555
H2 C2 1_555 1_555
C3 C2 1_555 1_555
H3 C3 1_555 1_555
C4 C3 1_555 1_555
H4 C4 1_555 1_555
C5 N1 1_555 1_555
C6 C5 1_555 1_555
C7 C6 1_555 1_555
H5 C7 1_555 1_555
C8 C7 1_555 1_555
H6 C8 1_555 1_555
C9 C8 1_555 1_555
H7 C9 1_555 1_555
C10 C9 1_555 1_555
H8 C10 1_555 1_555
N2 C6 1_555 1_555
O2 Co1 1_555 1_555
O3 Co3 1_555 1_555
C11 O3 1_555 1_555
O4 C11 1_555 1_555
C12 C11 1_555 1_555
C13 C12 1_555 1_555
H9 C13 1_555 1_555
C14 C12 1_555 1_555
H10 C14 1_555 1_555
O5 Co3 1_555 1_555
C15 O5 1_555 1_555
O6 C15 1_555 1_555
C16 C15 1_555 1_555
C17 C16 1_555 1_555
H11 C17 1_555 1_555
C18 C16 1_555 1_555
H12 C18 1_555 1_555
O7 Co1 1_555 1_555
C19 O7 1_555 1_555
O8 C19 1_555 1_555
C20 C19 1_555 1_555
C21 C20 1_555 1_555
H13 C21 1_555 1_555
C22 C21 1_555 1_555
H14 C22 1_555 1_555
O9 Co2 1_555 1_555
C23 O9 1_555 1_555
O10 Co1 1_555 1_555
C24 C23 1_555 1_555
C25 C24 1_555 1_555
H15 C25 1_555 1_555
C26 C24 1_555 1_555
H16 C26 1_555 1_555
O13 C28 1_555 1_555
O3A C11A 1_555 1_555
C11A C12A 1_555 1_555
C12A C13A 1_555 1_555
C13A C14 1_555 1_555
H9A C13A 1_555 1_555
C14A C13 1_555 1_555
H10A C14A 1_555 1_555
O4A C11A 1_555 1_555
O5A C15A 1_555 1_555
C15A C16A 1_555 1_555
C16A C17A 1_555 1_555
C17A C18 1_555 1_555
H11A C17A 1_555 1_555
C18A C17 1_555 1_555
H12A C18A 1_555 1_555
O6A C15A 1_555 1_555
O7A C19A 1_555 1_555
C19A O8A 1_555 1_555
O8A Co2_3 1_555 1_555
C20A C22 1_555 1_555
C21A C20A 1_555 1_555
H13A C21A 1_555 1_555
C22A C20 1_555 1_555
H14A C22A 1_555 1_555
O9A C23A 1_555 1_555
C23A O10A 1_555 1_555
O10A Co1A_2 1_555 1_555
C24A C23A 1_555 1_555
C25A C26 1_555 1_555
H15A C25A 1_555 1_555
C26A C25 1_555 1_555
H16A C26A 1_555 1_555
Co1A O1A 1_555 1_555
O1A Co2 1_555 1_555
N1A O1A 1_555 1_555
C1A N1A 1_555 1_555
H1A C1A 1_555 1_555
C2A C1A 1_555 1_555
H2A C2A 1_555 1_555
C3A C2A 1_555 1_555
H3A C3A 1_555 1_555
C4A C3A 1_555 1_555
H4A C4A 1_555 1_555
C5A N1A 1_555 1_555
C6A C5A 1_555 1_555
C7A C6A 1_555 1_555
H5A C7A 1_555 1_555
C8A C7A 1_555 1_555
H6A C8A 1_555 1_555
C9A C8A 1_555 1_555
H7A C9A 1_555 1_555
C10A C9A 1_555 1_555
H8A C10A 1_555 1_555
N2A C6A 1_555 1_555
O2A Co1A 1_555 1_555
Co1_2 O6A 1_555 1_555
Co1_3 O4A 1_555 1_555
Co1A_3 O4 1_555 1_555
Co1A_4 O7A 1_555 1_555
Co2_2 O9A 1_555 1_555
Co3_2 O5A 1_555 1_555
Co3_3 O3A 1_555 1_555
Co3_4 O2A 1_555 1_555
O2A_2 Co3 1_555 1_555
O3A_2 Co3 1_555 1_555
O4_2 Co1A 1_555 1_555
O4A_2 Co1 1_555 1_555
O5A_2 Co3 1_555 1_555
O6_2 Co1A 1_555 1_555
O6A_2 Co1 1_555 1_555
O7A_2 Co1A 1_555 1_555
O8A_2 Co2 1_555 1_555
O9A_2 Co2 1_555 1_555
O10A_2 Co1A 1_555 1_555
C4 C5 1_555 1_555
C10 N2 1_555 1_555
N2 O2 1_555 1_555
O6 Co1A_3 1_555 1_555
C23 O10 1_555 1_555
C12A C14A 1_555 1_555
C16A C18A 1_555 1_555
C19A C20A 1_555 1_555
C21A C22A 1_555 1_555
C24A C25A 1_555 1_555
C24A C26A 1_555 1_555
C4A C5A 1_555 1_555
C10A N2A 1_555 1_555
N2A O2A 1_555 1_555
Co1A_3 O2A_2 1_555 1_555

#END
