
#######################################################################
#
#                 Cambridge Crystallographic Data Centre
#                                CCDC 
#
#######################################################################
#
# If this CIF has been generated from an entry in the Cambridge 
# Structural Database, then it will include bibliographic, chemical, 
# crystal, experimental, refinement or atomic coordinate data resulting 
# from the CCDC's data processing and validation procedures.
#
#######################################################################

data_HIHGIQ
_chemical_formula_moiety         '(C45 H34 Co2 N2 O12)n'
_chemical_name_systematic        
"catena-[(\m~8~-4-(3-(4-Carboxyatophenoxy)-2,2-bis((4-carboxyphenoxy)methyl)propoxy)benzoato)-(\m~2~-4,4'-ethene-1,2-diyldipyridine)-di-cobalt unknown solvate]"
_symmetry_cell_setting           monoclinic
_symmetry_space_group_name_H-M   'C 2/c'
_symmetry_Int_Tables_number      15
_space_group_name_Hall           '-C 2yc'
loop_
_symmetry_equiv_pos_site_id
_symmetry_equiv_pos_as_xyz
1 x,y,z
2 -x,y,1/2-z
3 1/2+x,1/2+y,z
4 1/2-x,1/2+y,1/2-z
5 -x,-y,-z
6 x,-y,1/2+z
7 1/2-x,1/2-y,-z
8 1/2+x,1/2-y,1/2+z
_cell_length_a                   23.763(3)
_cell_length_b                   21.535(2)
_cell_length_c                   26.471(3)
_cell_angle_alpha                90
_cell_angle_beta                 97.687(2)
_cell_angle_gamma                90
_cell_volume                     13424.4
_exptl_crystal_colour            purple
_exptl_crystal_description       cubic
_cell_formula_units_Z            8
loop_
_atom_site_label
_atom_site_type_symbol
_atom_site_fract_x
_atom_site_fract_y
_atom_site_fract_z
C1 C 0.37042(16) 0.17654(19) 0.42286(13)
C2 C 0.33090(14) 0.13431(17) 0.39045(13)
C3 C 0.34576(16) 0.07412(19) 0.38064(14)
H1 H 0.3814 0.0594 0.3941
C4 C 0.30823(17) 0.03509(18) 0.35093(15)
H2 H 0.3186 -0.0055 0.3446
C5 C 0.25581(16) 0.0569(2) 0.33100(14)
C6 C 0.24088(16) 0.1161(2) 0.34189(15)
H3 H 0.2048 0.1306 0.3294
C7 C 0.27797(16) 0.15448(19) 0.37088(15)
H4 H 0.2670 0.1949 0.3774
C8 C 0.23251(15) -0.02799(19) 0.27629(14)
H5 H 0.2396 -0.0628 0.2996
H6 H 0.2676 -0.0181 0.2630
C9 C 0.18691(14) -0.04531(16) 0.23269(13)
C10 C 0.20942(15) -0.09965(17) 0.20081(14)
H7 H 0.2164 -0.1368 0.2214
H8 H 0.1822 -0.1093 0.1712
C11 C 0.28896(18) -0.1131(2) 0.15637(15)
C12 C 0.33901(17) -0.08664(19) 0.14810(15)
H9 H 0.3504 -0.0489 0.1632
C13 C 0.37264(15) -0.11675(18) 0.11694(14)
H10 H 0.4070 -0.0990 0.1115
C14 C 0.35644(14) -0.17194(16) 0.09410(12)
C15 C 0.30645(15) -0.19791(17) 0.10366(14)
H11 H 0.2949 -0.2357 0.0887
C16 C 0.27232(15) -0.1685(2) 0.13563(14)
H12 H 0.2387 -0.1869 0.1425
C17 C 0.39046(14) -0.20073(18) 0.05660(12)
C18 C 0.13103(14) -0.06536(18) 0.25409(13)
H13 H 0.1177 -0.0317 0.2738
H14 H 0.1016 -0.0749 0.2261
C19 C 0.09893(18) -0.1345(2) 0.31207(15)
C20 C 0.11367(18) -0.1842(2) 0.34272(17)
H15 H 0.1494 -0.2023 0.3441
C21 C 0.07453(17) -0.2069(2) 0.37131(15)
H16 H 0.0835 -0.2421 0.3910
C22 C 0.02170(15) -0.17925(18) 0.37203(13)
C23 C 0.00907(15) -0.12745(19) 0.34266(13)
H17 H -0.0254 -0.1072 0.3433
C24 C 0.04822(17) -0.10473(18) 0.31135(13)
H18 H 0.0395 -0.0702 0.2907
C25 C -0.01747(16) -0.20284(19) 0.40752(13)
C26 C 0.17228(15) 0.01153(18) 0.19756(14)
H19 H 0.1587 0.0453 0.2170
H20 H 0.2061 0.0256 0.1841
C27 C 0.10324(18) 0.0425(2) 0.12921(14)
C28 C 0.12089(17) 0.1031(2) 0.13179(15)
H21 H 0.1532 0.1147 0.1535
C29 C 0.08878(17) 0.14761(19) 0.10070(15)
H22 H 0.1013 0.1885 0.1008
C30 C 0.04007(15) 0.13140(19) 0.07083(13)
C31 C 0.02379(16) 0.0707(2) 0.06977(15)
H23 H -0.0096 0.0591 0.0496
C32 C 0.05592(18) 0.02601(19) 0.09813(16)
H24 H 0.0448 -0.0154 0.0957
C33 C 0.00426(16) 0.1792(2) 0.04073(14)
C34 C 0.29277(15) 0.35327(18) 0.49730(14)
H25 H 0.2905 0.3163 0.5151
C35 C 0.25075(16) 0.3968(2) 0.49888(15)
H26 H 0.2210 0.3887 0.5175
C36 C 0.25216(15) 0.45235(18) 0.47328(14)
C37 C 0.29607(15) 0.45974(18) 0.44590(14)
H27 H 0.2984 0.4957 0.4268
C38 C 0.33787(14) 0.41381(17) 0.44609(13)
H28 H 0.3679 0.4206 0.4275
C39 C 0.20848(18) 0.49964(19) 0.47325(15)
H29 H 0.2141 0.5360 0.4557
C40 C 0.16430(18) 0.4972(2) 0.49395(16)
H30 H 0.1592 0.4612 0.5121
C41 C 0.1193(2) 0.5444(2) 0.4932(2)
C42 C 0.0648(4) 0.5304(4) 0.5020(4)
H31 H 0.0541 0.4892 0.5048
C43 C 0.0265(4) 0.5767(5) 0.5067(4)
H32 H -0.0079 0.5672 0.5181
C44 C 0.0902(3) 0.6496(3) 0.4912(3)
H33 H 0.1002 0.6914 0.4905
C45 C 0.1319(3) 0.6045(4) 0.4879(4)
H34 H 0.1682 0.6161 0.4821
N1 N 0.038(5) 0.635(6) 0.495(3)
Co1 Co 0.475783(17) 0.20300(2) 0.493489(16)
Co2 Co 0.398137(16) 0.29568(2) 0.470334(16)
N2 N 0.33639(10) 0.36152(13) 0.47147(10)
O1 O 0.41703(10) 0.15421(11) 0.44381(8)
O2 O 0.35435(9) 0.23146(12) 0.42720(9)
O3 O 0.21455(11) 0.02307(13) 0.30198(10)
O4 O 0.25945(11) -0.07703(13) 0.18638(10)
O5 O 0.43594(9) -0.17292(11) 0.05014(8)
O6 O 0.37246(9) -0.24867(11) 0.03368(8)
O7 O 0.14248(11) -0.11648(14) 0.28424(11)
O8 O -0.06218(10) -0.17298(12) 0.41167(9)
O9 O -0.00152(10) -0.25089(12) 0.43308(9)
O10 O 0.13072(10) -0.00475(12) 0.15770(9)
O11 O 0.02218(10) 0.23360(12) 0.03862(9)
O12 O -0.04276(10) 0.16008(11) 0.01799(9)
N1B N 0.538(5) 0.135(6) 0.495(3)
Co1B Co -0.024217(17) -0.29700(2) 0.493489(16)
Co1B_2 Co -0.024217(17) 0.70300(2) 0.493489(16)
Co1E Co 0.475783(17) -0.20300(2) -0.006511(16)
Co1G Co -0.024217(17) 0.29700(2) -0.006511(16)
Co2B Co -0.101863(16) -0.20432(2) 0.470334(16)
Co2E Co 0.398137(16) -0.29568(2) -0.029666(16)
Co2G Co -0.101863(16) 0.20432(2) -0.029666(16)
O5E O 0.43594(9) 0.17292(11) 0.55014(8)
O6E O 0.37246(9) 0.24867(11) 0.53368(8)
O8B O 0.43782(10) 0.32702(12) 0.41167(9)
O9B O 0.49848(10) 0.24911(12) 0.43308(9)
O11G O 0.52218(10) 0.26640(12) 0.53862(9)
O12G O 0.45724(10) 0.33992(11) 0.51799(9)
C46? C 0.0562(8) 0.6192(8) 0.4541(8)
H35? H 0.0418 0.6353 0.4224
C47? C 0.0977(8) 0.5619(9) 0.5350(8)
H36? H 0.1097 0.5418 0.5656
C48? C 0.1001(8) 0.5753(10) 0.4546(8)
H37? H 0.1158 0.5688 0.4247
C49? C 0.0576(8) 0.6094(11) 0.5342(9)
H38? H 0.0469 0.6205 0.5655
N3? N 0.033(12) 0.640(15) 0.494(9)
loop_
_geom_bond_atom_site_label_1
_geom_bond_atom_site_label_2
_geom_bond_site_symmetry_1
_geom_bond_site_symmetry_2
C1 C2 1_555 1_555
C2 C3 1_555 1_555
C3 H1 1_555 1_555
C4 C3 1_555 1_555
H2 C4 1_555 1_555
C5 C4 1_555 1_555
C6 C5 1_555 1_555
H3 C6 1_555 1_555
C7 C2 1_555 1_555
H4 C7 1_555 1_555
C8 H5 1_555 1_555
H6 C8 1_555 1_555
C9 C8 1_555 1_555
C10 C9 1_555 1_555
H7 C10 1_555 1_555
H8 C10 1_555 1_555
C11 C12 1_555 1_555
C12 H9 1_555 1_555
C13 C12 1_555 1_555
H10 C13 1_555 1_555
C14 C13 1_555 1_555
C15 C14 1_555 1_555
H11 C15 1_555 1_555
C16 C11 1_555 1_555
H12 C16 1_555 1_555
C17 C14 1_555 1_555
C18 C9 1_555 1_555
H13 C18 1_555 1_555
H14 C18 1_555 1_555
C19 C20 1_555 1_555
C20 H15 1_555 1_555
C21 C20 1_555 1_555
H16 C21 1_555 1_555
C22 C21 1_555 1_555
C23 C22 1_555 1_555
H17 C23 1_555 1_555
C24 C19 1_555 1_555
H18 C24 1_555 1_555
C25 C22 1_555 1_555
C26 C9 1_555 1_555
H19 C26 1_555 1_555
H20 C26 1_555 1_555
C27 C28 1_555 1_555
C28 H21 1_555 1_555
C29 C28 1_555 1_555
H22 C29 1_555 1_555
C30 C29 1_555 1_555
C31 C30 1_555 1_555
H23 C31 1_555 1_555
C32 C27 1_555 1_555
H24 C32 1_555 1_555
C33 C30 1_555 1_555
C34 H25 1_555 1_555
C35 C34 1_555 1_555
H26 C35 1_555 1_555
C36 C35 1_555 1_555
C37 C36 1_555 1_555
H27 C37 1_555 1_555
C38 C37 1_555 1_555
H28 C38 1_555 1_555
C39 C36 1_555 1_555
H29 C39 1_555 1_555
C40 C39 1_555 1_555
H30 C40 1_555 1_555
C41 C40 1_555 1_555
C42 C41 1_555 1_555
H31 C42 1_555 1_555
C43 C42 1_555 1_555
H32 C43 1_555 1_555
C44 H33 1_555 1_555
C45 C41 1_555 1_555
H34 C45 1_555 1_555
N1 C43 1_555 1_555
Co1 O1 1_555 1_555
Co2 N2 1_555 1_555
N2 C34 1_555 1_555
O1 C1 1_555 1_555
O2 C1 1_555 1_555
O3 C5 1_555 1_555
O4 C10 1_555 1_555
O5 C17 1_555 1_555
O6 C17 1_555 1_555
O7 C18 1_555 1_555
O8 C25 1_555 1_555
O9 C25 1_555 1_555
O10 C26 1_555 1_555
O11 C33 1_555 1_555
O12 C33 1_555 1_555
N1B Co1 1_555 1_555
Co1B O9 1_555 1_555
Co1B_2 N1 1_555 1_555
Co1E O5 1_555 1_555
Co1G O11 1_555 1_555
Co2B O8 1_555 1_555
Co2E O6 1_555 1_555
Co2G O12 1_555 1_555
O5E Co1 1_555 1_555
O6E Co2 1_555 1_555
O8B Co2 1_555 1_555
O9B Co1 1_555 1_555
O11G Co1 1_555 1_555
O12G Co2 1_555 1_555
C6 C7 1_555 1_555
C8 O3 1_555 1_555
C11 O4 1_555 1_555
C15 C16 1_555 1_555
C19 O7 1_555 1_555
C23 C24 1_555 1_555
C27 O10 1_555 1_555
C31 C32 1_555 1_555
C38 N2 1_555 1_555
C44 C45 1_555 1_555
C44 N1 1_555 1_555
Co2 O2 1_555 1_555

#END
