
#######################################################################
#
#                 Cambridge Crystallographic Data Centre
#                                CCDC 
#
#######################################################################
#
# If this CIF has been generated from an entry in the Cambridge 
# Structural Database, then it will include bibliographic, chemical, 
# crystal, experimental, refinement or atomic coordinate data resulting 
# from the CCDC's data processing and validation procedures.
#
#######################################################################

data_ROLZAV
_chemical_formula_moiety         '(C132 H108 B4 O39 Zn12)n,46.5n(C5 H11 N1 O1)'
_chemical_name_systematic        
"catena-[tetrakis(\m-4,4',4''-boranetriyltris(3,5-dimethylbenzoato))-tris(\m-oxo)-tris(\m-terephthalato)-dodeca-zinc N,N-diethylformamide solvate]"
_symmetry_cell_setting           cubic
_symmetry_space_group_name_H-M   'P m -3 n'
_symmetry_Int_Tables_number      223
_space_group_name_Hall           '-P 4n 2 3'
loop_
_symmetry_equiv_pos_site_id
_symmetry_equiv_pos_as_xyz
1 x,y,z
2 -x,-y,z
3 -x,y,-z
4 x,-y,-z
5 z,x,y
6 z,-x,-y
7 -z,-x,y
8 -z,x,-y
9 y,z,x
10 -y,z,-x
11 y,-z,-x
12 -y,-z,x
13 1/2+y,1/2+x,1/2-z
14 1/2-y,1/2-x,1/2-z
15 1/2+y,1/2-x,1/2+z
16 1/2-y,1/2+x,1/2+z
17 1/2+x,1/2+z,1/2-y
18 1/2-x,1/2+z,1/2+y
19 1/2-x,1/2-z,1/2-y
20 1/2+x,1/2-z,1/2+y
21 1/2+z,1/2+y,1/2-x
22 1/2+z,1/2-y,1/2+x
23 1/2-z,1/2+y,1/2+x
24 1/2-z,1/2-y,1/2-x
25 -x,-y,-z
26 x,y,-z
27 x,-y,z
28 -x,y,z
29 -z,-x,-y
30 -z,x,y
31 z,x,-y
32 z,-x,y
33 -y,-z,-x
34 y,-z,x
35 -y,z,x
36 y,z,-x
37 1/2-y,1/2-x,1/2+z
38 1/2+y,1/2+x,1/2+z
39 1/2-y,1/2+x,1/2-z
40 1/2+y,1/2-x,1/2-z
41 1/2-x,1/2-z,1/2+y
42 1/2+x,1/2-z,1/2-y
43 1/2+x,1/2+z,1/2+y
44 1/2-x,1/2+z,1/2-y
45 1/2-z,1/2-y,1/2+x
46 1/2-z,1/2+y,1/2-x
47 1/2+z,1/2-y,1/2-x
48 1/2+z,1/2+y,1/2+x
_cell_length_a                   26.510(3)
_cell_length_b                   26.510(3)
_cell_length_c                   26.510(3)
_cell_angle_alpha                90
_cell_angle_beta                 90
_cell_angle_gamma                90
_cell_volume                     18630.7
_exptl_crystal_colour            colorless
_exptl_crystal_description       cuboctahedral
_cell_formula_units_Z            2
_chemical_properties_physical    Moisture-sensitive
_exptl_crystal_recrystallization_method 'solvothermal synthesis'
loop_
_atom_site_label
_atom_site_type_symbol
_atom_site_fract_x
_atom_site_fract_y
_atom_site_fract_z
Zn1 Zn 0.0000 0.20408(12) 0.44130(6)
O1 O 0.0621(4) 0.2148(5) 0.4023(4)
O2 O 0.0000 0.1279(6) 0.4616(4)
O3 O 0.0000 0.2500 0.5000
B1 B 0.2500 0.2500 0.2500
C1 C 0.0942(7) 0.2500 0.4058(7)
C2 C 0.1347(4) 0.2500 0.3653(4)
C3 C 0.1634(6) 0.2930(4) 0.3579(6)
H1 H 0.1586 0.3212 0.3782
C4 C 0.1994(5) 0.2936(5) 0.3199(5)
C5 C 0.2087(4) 0.2500 0.2913(4)
C6 C 0.2263(6) 0.3441(6) 0.3114(7)
H2 H 0.2510 0.3404 0.2853
H3 H 0.2426 0.3544 0.3421
H4 H 0.2020 0.3692 0.3016
C7 C 0.0000 0.1042(8) 0.5000
C8 C 0.0000 0.0500(5) 0.5000
C9 C 0.0000 0.0257(4) 0.4570(4)
H5 H 0.0000 0.0434 0.4267
O1D O 0.4023(4) 0.0621(4) 0.2148(5)
C1D C 0.4058(7) 0.0942(7) 0.2500
C2D C 0.3653(4) 0.1347(4) 0.2500
C3D C 0.3579(6) 0.1634(6) 0.2930(4)
H1D H 0.3782 0.1586 0.3212
C4D C 0.3199(5) 0.1994(5) 0.2936(5)
C5D C 0.2913(4) 0.2087(4) 0.2500
C6D C 0.3114(7) 0.2263(6) 0.3441(6)
H2D H 0.2853 0.2510 0.3404
H3D H 0.3421 0.2426 0.3544
H4D H 0.3016 0.2020 0.3692
O1H O 0.2148(5) 0.4023(4) 0.0621(4)
C1H C 0.2500 0.4058(7) 0.0942(7)
C2H C 0.2500 0.3653(4) 0.1347(4)
C3H C 0.2930(4) 0.3579(6) 0.1634(6)
H1H H 0.3212 0.3782 0.1586
C4H C 0.2936(5) 0.3199(5) 0.1994(5)
C5H C 0.2500 0.2913(4) 0.2087(4)
C6H C 0.3441(6) 0.3114(7) 0.2263(6)
H2H H 0.3404 0.2853 0.2510
H3H H 0.3544 0.3421 0.2426
H4H H 0.3692 0.3016 0.2020
O1M O 0.2852(5) 0.4379(4) 0.0977(4)
C3M C 0.2070(4) 0.3366(6) 0.1421(6)
H1M H 0.1788 0.3414 0.1218
C4M C 0.2064(5) 0.3006(5) 0.1801(5)
C6M C 0.1559(6) 0.2737(6) 0.1886(7)
H2M H 0.1596 0.2490 0.2147
H3M H 0.1456 0.2574 0.1579
H4M H 0.1308 0.2980 0.1984
O1R O 0.4379(4) 0.0977(4) 0.2852(5)
C3R C 0.3366(6) 0.1421(6) 0.2070(4)
H1R H 0.3414 0.1218 0.1788
C4R C 0.3006(5) 0.1801(5) 0.2064(5)
C6R C 0.2737(6) 0.1886(7) 0.1559(6)
H2R H 0.2490 0.2147 0.1596
H3R H 0.2574 0.1579 0.1456
H4R H 0.2980 0.1984 0.1308
O1W O 0.0977(4) 0.2852(5) 0.4379(4)
C3W C 0.1421(6) 0.2070(4) 0.3366(6)
H1W H 0.1218 0.1788 0.3414
C4W C 0.1801(5) 0.2064(5) 0.3006(5)
C6W C 0.1886(7) 0.1559(6) 0.2737(6)
H2W H 0.2147 0.1596 0.2490
H3W H 0.1579 0.1456 0.2574
H4W H 0.1984 0.1308 0.2980
O2A O 0.0000 -0.1279(6) 0.4616(4)
C7A C 0.0000 -0.1042(8) 0.5000
C8A C 0.0000 -0.0500(5) 0.5000
C9A C 0.0000 -0.0257(4) 0.4570(4)
H5A H 0.0000 -0.0434 0.4267
O2B O 0.0000 0.1279(6) 0.5384(4)
C9B C 0.0000 0.0257(4) 0.5430(4)
H5B H 0.0000 0.0434 0.5733
O2C O 0.0000 -0.1279(6) 0.5384(4)
C9C C 0.0000 -0.0257(4) 0.5430(4)
H5C H 0.0000 -0.0434 0.5733
Zn1A Zn 0.0000 -0.20408(12) 0.44130(6)
O1A O -0.0621(4) -0.2148(5) 0.4023(4)
O3A O 0.0000 -0.2500 0.5000
B1A B -0.2500 -0.2500 0.2500
C1A C -0.0942(7) -0.2500 0.4058(7)
C2A C -0.1347(4) -0.2500 0.3653(4)
C3A C -0.1634(6) -0.2930(4) 0.3579(6)
H1A H -0.1586 -0.3212 0.3782
C4A C -0.1994(5) -0.2936(5) 0.3199(5)
C5A C -0.2087(4) -0.2500 0.2913(4)
C6A C -0.2263(6) -0.3441(6) 0.3114(7)
H2A H -0.2510 -0.3404 0.2853
H3A H -0.2426 -0.3544 0.3421
H4A H -0.2020 -0.3692 0.3016
O1F O -0.4023(4) -0.0621(4) 0.2148(5)
C1F C -0.4058(7) -0.0942(7) 0.2500
C2F C -0.3653(4) -0.1347(4) 0.2500
C3F C -0.3579(6) -0.1634(6) 0.2930(4)
H1F H -0.3782 -0.1586 0.3212
C4F C -0.3199(5) -0.1994(5) 0.2936(5)
C5F C -0.2913(4) -0.2087(4) 0.2500
C6F C -0.3114(7) -0.2263(6) 0.3441(6)
H2F H -0.2853 -0.2510 0.3404
H3F H -0.3421 -0.2426 0.3544
H4F H -0.3016 -0.2020 0.3692
O1K O -0.2148(5) -0.4023(4) 0.0621(4)
C1K C -0.2500 -0.4058(7) 0.0942(7)
C2K C -0.2500 -0.3653(4) 0.1347(4)
C3K C -0.2930(4) -0.3579(6) 0.1634(6)
H1K H -0.3212 -0.3782 0.1586
C4K C -0.2936(5) -0.3199(5) 0.1994(5)
C5K C -0.2500 -0.2913(4) 0.2087(4)
C6K C -0.3441(6) -0.3114(7) 0.2263(6)
H2K H -0.3404 -0.2853 0.2510
H3K H -0.3544 -0.3421 0.2426
H4K H -0.3692 -0.3016 0.2020
O1L O -0.2852(5) -0.4379(4) 0.0977(4)
C3L C -0.2070(4) -0.3366(6) 0.1421(6)
H1L H -0.1788 -0.3414 0.1218
C4L C -0.2064(5) -0.3006(5) 0.1801(5)
C6L C -0.1559(6) -0.2737(6) 0.1886(7)
H2L H -0.1596 -0.2490 0.2147
H3L H -0.1456 -0.2574 0.1579
H4L H -0.1308 -0.2980 0.1984
O1P O -0.4379(4) -0.0977(4) 0.2852(5)
C3P C -0.3366(6) -0.1421(6) 0.2070(4)
H1P H -0.3414 -0.1218 0.1788
C4P C -0.3006(5) -0.1801(5) 0.2064(5)
C6P C -0.2737(6) -0.1886(7) 0.1559(6)
H2P H -0.2490 -0.2147 0.1596
H3P H -0.2574 -0.1579 0.1456
H4P H -0.2980 -0.1984 0.1308
O1T O -0.0977(4) -0.2852(5) 0.4379(4)
C3T C -0.1421(6) -0.2070(4) 0.3366(6)
H1T H -0.1218 -0.1788 0.3414
C4T C -0.1801(5) -0.2064(5) 0.3006(5)
C6T C -0.1886(7) -0.1559(6) 0.2737(6)
H2T H -0.2147 -0.1596 0.2490
H3T H -0.1579 -0.1456 0.2574
H4T H -0.1984 -0.1308 0.2980
Zn1B Zn 0.0000 0.20408(12) 0.55870(6)
O1B O -0.0621(4) 0.2148(5) 0.5977(4)
B1B B -0.2500 0.2500 0.7500
C1B C -0.0942(7) 0.2500 0.5942(7)
C2B C -0.1347(4) 0.2500 0.6347(4)
C3B C -0.1634(6) 0.2930(4) 0.6421(6)
H1B H -0.1586 0.3212 0.6218
C4B C -0.1994(5) 0.2936(5) 0.6801(5)
C5B C -0.2087(4) 0.2500 0.7087(4)
C6B C -0.2263(6) 0.3441(6) 0.6886(7)
H2B H -0.2510 0.3404 0.7147
H3B H -0.2426 0.3544 0.6579
H4B H -0.2020 0.3692 0.6984
O1G O -0.4023(4) 0.0621(4) 0.7852(5)
C1G C -0.4058(7) 0.0942(7) 0.7500
C2G C -0.3653(4) 0.1347(4) 0.7500
C3G C -0.3579(6) 0.1634(6) 0.7070(4)
H1G H -0.3782 0.1586 0.6788
C4G C -0.3199(5) 0.1994(5) 0.7064(5)
C5G C -0.2913(4) 0.2087(4) 0.7500
C6G C -0.3114(7) 0.2263(6) 0.6559(6)
H2G H -0.2853 0.2510 0.6596
H3G H -0.3421 0.2426 0.6456
H4G H -0.3016 0.2020 0.6308
O1I O -0.2148(5) 0.4023(4) 0.9379(4)
C1I C -0.2500 0.4058(7) 0.9058(7)
C2I C -0.2500 0.3653(4) 0.8653(4)
C3I C -0.2930(4) 0.3579(6) 0.8366(6)
H1I H -0.3212 0.3782 0.8414
C4I C -0.2936(5) 0.3199(5) 0.8006(5)
C5I C -0.2500 0.2913(4) 0.7913(4)
C6I C -0.3441(6) 0.3114(7) 0.7737(6)
H2I H -0.3404 0.2853 0.7490
H3I H -0.3544 0.3421 0.7574
H4I H -0.3692 0.3016 0.7980
O1N O -0.2852(5) 0.4379(4) 0.9023(4)
C3N C -0.2070(4) 0.3366(6) 0.8579(6)
H1N H -0.1788 0.3414 0.8782
C4N C -0.2064(5) 0.3006(5) 0.8199(5)
C6N C -0.1559(6) 0.2737(6) 0.8114(7)
H2N H -0.1596 0.2490 0.7853
H3N H -0.1456 0.2574 0.8421
H4N H -0.1308 0.2980 0.8016
O1S O -0.4379(4) 0.0977(4) 0.7148(5)
C3S C -0.3366(6) 0.1421(6) 0.7930(4)
H1S H -0.3414 0.1218 0.8212
C4S C -0.3006(5) 0.1801(5) 0.7936(5)
C6S C -0.2737(6) 0.1886(7) 0.8441(6)
H2S H -0.2490 0.2147 0.8404
H3S H -0.2574 0.1579 0.8544
H4S H -0.2980 0.1984 0.8692
O1U O -0.0977(4) 0.2852(5) 0.5621(4)
C3U C -0.1421(6) 0.2070(4) 0.6634(6)
H1U H -0.1218 0.1788 0.6586
C4U C -0.1801(5) 0.2064(5) 0.6994(5)
C6U C -0.1886(7) 0.1559(6) 0.7263(6)
H2U H -0.2147 0.1596 0.7510
H3U H -0.1579 0.1456 0.7426
H4U H -0.1984 0.1308 0.7020
Zn1C Zn 0.0000 -0.20408(12) 0.55870(6)
O1C O 0.0621(4) -0.2148(5) 0.5977(4)
B1C B 0.2500 -0.2500 0.7500
C1C C 0.0942(7) -0.2500 0.5942(7)
C2C C 0.1347(4) -0.2500 0.6347(4)
C3C C 0.1634(6) -0.2930(4) 0.6421(6)
H1C H 0.1586 -0.3212 0.6218
C4C C 0.1994(5) -0.2936(5) 0.6801(5)
C5C C 0.2087(4) -0.2500 0.7087(4)
C6C C 0.2263(6) -0.3441(6) 0.6886(7)
H2C H 0.2510 -0.3404 0.7147
H3C H 0.2426 -0.3544 0.6579
H4C H 0.2020 -0.3692 0.6984
O1E O 0.4023(4) -0.0621(4) 0.7852(5)
C1E C 0.4058(7) -0.0942(7) 0.7500
C2E C 0.3653(4) -0.1347(4) 0.7500
C3E C 0.3579(6) -0.1634(6) 0.7070(4)
H1E H 0.3782 -0.1586 0.6788
C4E C 0.3199(5) -0.1994(5) 0.7064(5)
C5E C 0.2913(4) -0.2087(4) 0.7500
C6E C 0.3114(7) -0.2263(6) 0.6559(6)
H2E H 0.2853 -0.2510 0.6596
H3E H 0.3421 -0.2426 0.6456
H4E H 0.3016 -0.2020 0.6308
O1J O 0.2148(5) -0.4023(4) 0.9379(4)
C1J C 0.2500 -0.4058(7) 0.9058(7)
C2J C 0.2500 -0.3653(4) 0.8653(4)
C3J C 0.2930(4) -0.3579(6) 0.8366(6)
H1J H 0.3212 -0.3782 0.8414
C4J C 0.2936(5) -0.3199(5) 0.8006(5)
C5J C 0.2500 -0.2913(4) 0.7913(4)
C6J C 0.3441(6) -0.3114(7) 0.7737(6)
H2J H 0.3404 -0.2853 0.7490
H3J H 0.3544 -0.3421 0.7574
H4J H 0.3692 -0.3016 0.7980
O1O O 0.2852(5) -0.4379(4) 0.9023(4)
C3O C 0.2070(4) -0.3366(6) 0.8579(6)
H1O H 0.1788 -0.3414 0.8782
C4O C 0.2064(5) -0.3006(5) 0.8199(5)
C6O C 0.1559(6) -0.2737(6) 0.8114(7)
H2O H 0.1596 -0.2490 0.7853
H3O H 0.1456 -0.2574 0.8421
H4O H 0.1308 -0.2980 0.8016
O1Q O 0.4379(4) -0.0977(4) 0.7148(5)
C3Q C 0.3366(6) -0.1421(6) 0.7930(4)
H1Q H 0.3414 -0.1218 0.8212
C4Q C 0.3006(5) -0.1801(5) 0.7936(5)
C6Q C 0.2737(6) -0.1886(7) 0.8441(6)
H2Q H 0.2490 -0.2147 0.8404
H3Q H 0.2574 -0.1579 0.8544
H4Q H 0.2980 -0.1984 0.8692
O1V O 0.0977(4) -0.2852(5) 0.5621(4)
C3V C 0.1421(6) -0.2070(4) 0.6634(6)
H1V H 0.1218 -0.1788 0.6586
C4V C 0.1801(5) -0.2064(5) 0.6994(5)
C6V C 0.1886(7) -0.1559(6) 0.7263(6)
H2V H 0.2147 -0.1596 0.7510
H3V H 0.1579 -0.1456 0.7426
H4V H 0.1984 -0.1308 0.7020
Zn1D Zn 0.44130(6) 0.0000 0.20408(12)
O2D O 0.4616(4) 0.0000 0.1279(6)
O3D O 0.5000 0.0000 0.2500
C7D C 0.5000 0.0000 0.1042(8)
C8D C 0.5000 0.0000 0.0500(5)
C9D C 0.4570(4) 0.0000 0.0257(4)
H5D H 0.4267 0.0000 0.0434
O2E O 0.4616(4) 0.0000 -0.1279(6)
C7E C 0.5000 0.0000 -0.1042(8)
C8E C 0.5000 0.0000 -0.0500(5)
C9E C 0.4570(4) 0.0000 -0.0257(4)
H5E H 0.4267 0.0000 -0.0434
O2F O 0.5384(4) 0.0000 0.1279(6)
C9F C 0.5430(4) 0.0000 0.0257(4)
H5F H 0.5733 0.0000 0.0434
O2G O 0.5384(4) 0.0000 -0.1279(6)
C9G C 0.5430(4) 0.0000 -0.0257(4)
H5G H 0.5733 0.0000 -0.0434
Zn1E Zn 0.44130(6) 0.0000 -0.20408(12)
Zn1F Zn -0.44130(6) 0.0000 0.20408(12)
O2F_2 O -0.4616(4) 0.0000 0.1279(6)
C7D_2 C -0.5000 0.0000 0.1042(8)
C8D_2 C -0.5000 0.0000 0.0500(5)
C9F_2 C -0.4570(4) 0.0000 0.0257(4)
H5F_2 H -0.4267 0.0000 0.0434
O2G_2 O -0.4616(4) 0.0000 -0.1279(6)
C7E_2 C -0.5000 0.0000 -0.1042(8)
C8E_2 C -0.5000 0.0000 -0.0500(5)
C9G_2 C -0.4570(4) 0.0000 -0.0257(4)
H5G_2 H -0.4267 0.0000 -0.0434
O2D_2 O -0.5384(4) 0.0000 0.1279(6)
C9D_2 C -0.5430(4) 0.0000 0.0257(4)
H5D_2 H -0.5733 0.0000 0.0434
O2E_2 O -0.5384(4) 0.0000 -0.1279(6)
C9E_2 C -0.5430(4) 0.0000 -0.0257(4)
H5E_2 H -0.5733 0.0000 -0.0434
Zn1H Zn 0.20408(12) 0.44130(6) 0.0000
Zn1K Zn -0.20408(12) -0.44130(6) 0.0000
Zn1M Zn 0.29592(12) 0.5000 0.05870(6)
Zn1U Zn -0.05870(6) 0.29592(12) 0.5000
Zn1W Zn 0.05870(6) 0.29592(12) 0.5000
Zn1D_2 Zn -0.55870(6) 0.0000 0.20408(12)
Zn1E_2 Zn -0.55870(6) 0.0000 -0.20408(12)
Zn1E_3 Zn 0.44130(6) 0.0000 0.79592(12)
Zn1F_2 Zn 0.55870(6) 0.0000 0.20408(12)
Zn1G Zn -0.44130(6) 0.0000 -0.20408(12)
Zn1G_2 Zn -0.44130(6) 0.0000 0.79592(12)
Zn1G_3 Zn 0.55870(6) 0.0000 -0.20408(12)
Zn1I Zn -0.20408(12) 0.44130(6) 1.0000
Zn1J Zn 0.20408(12) -0.44130(6) 1.0000
Zn1L Zn -0.29592(12) -0.5000 0.05870(6)
Zn1N Zn -0.29592(12) 0.5000 0.94130(6)
Zn1O Zn 0.29592(12) -0.5000 0.94130(6)
Zn1P Zn -0.5000 -0.05870(6) 0.29592(12)
Zn1P_2 Zn 0.5000 -0.05870(6) 0.29592(12)
Zn1Q Zn 0.5000 -0.05870(6) 0.70408(12)
Zn1R Zn 0.5000 0.05870(6) 0.29592(12)
Zn1S Zn -0.5000 0.05870(6) 0.70408(12)
Zn1T Zn -0.05870(6) -0.29592(12) 0.5000
Zn1V Zn 0.05870(6) -0.29592(12) 0.5000
O1E_2 O 0.4023(4) -0.0621(4) -0.2148(5)
O1X O -0.0621(4) -0.2148(5) 0.5977(4)
O1Y O 0.0621(4) 0.2148(5) 0.5977(4)
O1Z O 0.0621(4) -0.2148(5) 0.4023(4)
O1AA O -0.0621(4) 0.2148(5) 0.4023(4)
O1CA O -0.4023(4) 0.0621(4) 0.2148(5)
O1DA O 0.4023(4) 0.0621(4) -0.2148(5)
O1EA O 0.4023(4) -0.0621(4) 0.2148(5)
O1FA O -0.2148(5) -0.4023(4) -0.0621(4)
O1IA O 0.2148(5) 0.4023(4) -0.0621(4)
O1LA O 0.2852(5) 0.5621(4) 0.0977(4)
O1RA O 0.0977(4) 0.2852(5) 0.5621(4)
O1TA O -0.0977(4) 0.2852(5) 0.4379(4)
O2H O 0.1279(6) 0.4616(4) 0.0000
O2K O -0.1279(6) -0.4616(4) 0.0000
O2M O 0.3721(6) 0.5000 0.0384(4)
O2U O -0.0384(4) 0.3721(6) 0.5000
O2W O 0.0384(4) 0.3721(6) 0.5000
O3D_2 O -0.5000 0.0000 0.2500
O3E O 0.5000 0.0000 -0.2500
O3H O 0.2500 0.5000 0.0000
O3I O -0.2500 -0.5000 0.0000
loop_
_geom_bond_atom_site_label_1
_geom_bond_atom_site_label_2
_geom_bond_site_symmetry_1
_geom_bond_site_symmetry_2
Zn1 O1 1_555 1_555
O1 C1 1_555 1_555
O2 Zn1 1_555 1_555
O3 Zn1 1_555 1_555
B1 C5 1_555 1_555
C1 C2 1_555 1_555
C2 C3 1_555 1_555
C3 H1 1_555 1_555
C4 C3 1_555 1_555
C5 C4 1_555 1_555
C6 C4 1_555 1_555
H2 C6 1_555 1_555
H3 C6 1_555 1_555
H4 C6 1_555 1_555
C7 O2 1_555 1_555
C8 C7 1_555 1_555
C9 C8 1_555 1_555
H5 C9 1_555 1_555
O1D C1D 1_555 1_555
C1D C2D 1_555 1_555
C2D C3D 1_555 1_555
C3D H1D 1_555 1_555
C4D C3D 1_555 1_555
C5D B1 1_555 1_555
C6D C4D 1_555 1_555
H2D C6D 1_555 1_555
H3D C6D 1_555 1_555
H4D C6D 1_555 1_555
O1H C1H 1_555 1_555
C1H C2H 1_555 1_555
C2H C3H 1_555 1_555
C3H H1H 1_555 1_555
C4H C3H 1_555 1_555
C5H B1 1_555 1_555
C6H C4H 1_555 1_555
H2H C6H 1_555 1_555
H3H C6H 1_555 1_555
H4H C6H 1_555 1_555
O1M C1H 1_555 1_555
C3M C2H 1_555 1_555
H1M C3M 1_555 1_555
C4M C5H 1_555 1_555
C6M C4M 1_555 1_555
H2M C6M 1_555 1_555
H3M C6M 1_555 1_555
H4M C6M 1_555 1_555
O1R C1D 1_555 1_555
C3R C2D 1_555 1_555
H1R C3R 1_555 1_555
C4R C5D 1_555 1_555
C6R C4R 1_555 1_555
H2R C6R 1_555 1_555
H3R C6R 1_555 1_555
H4R C6R 1_555 1_555
O1W C1 1_555 1_555
C3W C2 1_555 1_555
H1W C3W 1_555 1_555
C4W C5 1_555 1_555
C6W C4W 1_555 1_555
H2W C6W 1_555 1_555
H3W C6W 1_555 1_555
H4W C6W 1_555 1_555
O2A C7A 1_555 1_555
C7A C8A 1_555 1_555
C8A C9A 1_555 1_555
C9A C9 1_555 1_555
H5A C9A 1_555 1_555
O2B C7 1_555 1_555
C9B C8 1_555 1_555
H5B C9B 1_555 1_555
O2C C7A 1_555 1_555
C9C C8A 1_555 1_555
H5C C9C 1_555 1_555
Zn1A O2A 1_555 1_555
O1A Zn1A 1_555 1_555
O3A Zn1A 1_555 1_555
B1A C5A 1_555 1_555
C1A O1A 1_555 1_555
C2A C1A 1_555 1_555
C3A C2A 1_555 1_555
H1A C3A 1_555 1_555
C4A C3A 1_555 1_555
C5A C4A 1_555 1_555
C6A C4A 1_555 1_555
H2A C6A 1_555 1_555
H3A C6A 1_555 1_555
H4A C6A 1_555 1_555
O1F C1F 1_555 1_555
C1F C2F 1_555 1_555
C2F C3F 1_555 1_555
C3F H1F 1_555 1_555
C4F C3F 1_555 1_555
C5F B1A 1_555 1_555
C6F C4F 1_555 1_555
H2F C6F 1_555 1_555
H3F C6F 1_555 1_555
H4F C6F 1_555 1_555
O1K C1K 1_555 1_555
C1K C2K 1_555 1_555
C2K C3K 1_555 1_555
C3K H1K 1_555 1_555
C4K C3K 1_555 1_555
C5K B1A 1_555 1_555
C6K C4K 1_555 1_555
H2K C6K 1_555 1_555
H3K C6K 1_555 1_555
H4K C6K 1_555 1_555
O1L C1K 1_555 1_555
C3L C2K 1_555 1_555
H1L C3L 1_555 1_555
C4L C5K 1_555 1_555
C6L C4L 1_555 1_555
H2L C6L 1_555 1_555
H3L C6L 1_555 1_555
H4L C6L 1_555 1_555
O1P C1F 1_555 1_555
C3P C2F 1_555 1_555
H1P C3P 1_555 1_555
C4P C5F 1_555 1_555
C6P C4P 1_555 1_555
H2P C6P 1_555 1_555
H3P C6P 1_555 1_555
H4P C6P 1_555 1_555
O1T C1A 1_555 1_555
C3T C2A 1_555 1_555
H1T C3T 1_555 1_555
C4T C5A 1_555 1_555
C6T C4T 1_555 1_555
H2T C6T 1_555 1_555
H3T C6T 1_555 1_555
H4T C6T 1_555 1_555
Zn1B O3 1_555 1_555
O1B Zn1B 1_555 1_555
B1B C5B 1_555 1_555
C1B O1B 1_555 1_555
C2B C1B 1_555 1_555
C3B C2B 1_555 1_555
H1B C3B 1_555 1_555
C4B C3B 1_555 1_555
C5B C4B 1_555 1_555
C6B C4B 1_555 1_555
H2B C6B 1_555 1_555
H3B C6B 1_555 1_555
H4B C6B 1_555 1_555
O1G C1G 1_555 1_555
C1G C2G 1_555 1_555
C2G C3G 1_555 1_555
C3G H1G 1_555 1_555
C4G C3G 1_555 1_555
C5G B1B 1_555 1_555
C6G C4G 1_555 1_555
H2G C6G 1_555 1_555
H3G C6G 1_555 1_555
H4G C6G 1_555 1_555
O1I C1I 1_555 1_555
C1I C2I 1_555 1_555
C2I C3I 1_555 1_555
C3I H1I 1_555 1_555
C4I C3I 1_555 1_555
C5I B1B 1_555 1_555
C6I C4I 1_555 1_555
H2I C6I 1_555 1_555
H3I C6I 1_555 1_555
H4I C6I 1_555 1_555
O1N C1I 1_555 1_555
C3N C2I 1_555 1_555
H1N C3N 1_555 1_555
C4N C5I 1_555 1_555
C6N C4N 1_555 1_555
H2N C6N 1_555 1_555
H3N C6N 1_555 1_555
H4N C6N 1_555 1_555
O1S C1G 1_555 1_555
C3S C2G 1_555 1_555
H1S C3S 1_555 1_555
C4S C5G 1_555 1_555
C6S C4S 1_555 1_555
H2S C6S 1_555 1_555
H3S C6S 1_555 1_555
H4S C6S 1_555 1_555
O1U C1B 1_555 1_555
C3U C2B 1_555 1_555
H1U C3U 1_555 1_555
C4U C5B 1_555 1_555
C6U C4U 1_555 1_555
H2U C6U 1_555 1_555
H3U C6U 1_555 1_555
H4U C6U 1_555 1_555
Zn1C O2C 1_555 1_555
O1C Zn1C 1_555 1_555
B1C C5C 1_555 1_555
C1C O1C 1_555 1_555
C2C C1C 1_555 1_555
C3C C2C 1_555 1_555
H1C C3C 1_555 1_555
C4C C3C 1_555 1_555
C5C C4C 1_555 1_555
C6C C4C 1_555 1_555
H2C C6C 1_555 1_555
H3C C6C 1_555 1_555
H4C C6C 1_555 1_555
O1E C1E 1_555 1_555
C1E C2E 1_555 1_555
C2E C3E 1_555 1_555
C3E H1E 1_555 1_555
C4E C3E 1_555 1_555
C5E B1C 1_555 1_555
C6E C4E 1_555 1_555
H2E C6E 1_555 1_555
H3E C6E 1_555 1_555
H4E C6E 1_555 1_555
O1J C1J 1_555 1_555
C1J C2J 1_555 1_555
C2J C3J 1_555 1_555
C3J H1J 1_555 1_555
C4J C3J 1_555 1_555
C5J B1C 1_555 1_555
C6J C4J 1_555 1_555
H2J C6J 1_555 1_555
H3J C6J 1_555 1_555
H4J C6J 1_555 1_555
O1O C1J 1_555 1_555
C3O C2J 1_555 1_555
H1O C3O 1_555 1_555
C4O C5J 1_555 1_555
C6O C4O 1_555 1_555
H2O C6O 1_555 1_555
H3O C6O 1_555 1_555
H4O C6O 1_555 1_555
O1Q C1E 1_555 1_555
C3Q C2E 1_555 1_555
H1Q C3Q 1_555 1_555
C4Q C5E 1_555 1_555
C6Q C4Q 1_555 1_555
H2Q C6Q 1_555 1_555
H3Q C6Q 1_555 1_555
H4Q C6Q 1_555 1_555
O1V C1C 1_555 1_555
C3V C2C 1_555 1_555
H1V C3V 1_555 1_555
C4V C5C 1_555 1_555
C6V C4V 1_555 1_555
H2V C6V 1_555 1_555
H3V C6V 1_555 1_555
H4V C6V 1_555 1_555
Zn1D O1D 1_555 1_555
O2D Zn1D 1_555 1_555
O3D Zn1D 1_555 1_555
C7D O2D 1_555 1_555
C8D C7D 1_555 1_555
C9D C8D 1_555 1_555
H5D C9D 1_555 1_555
O2E C7E 1_555 1_555
C7E C8E 1_555 1_555
C8E C9E 1_555 1_555
C9E C9D 1_555 1_555
H5E C9E 1_555 1_555
O2F C7D 1_555 1_555
C9F C8D 1_555 1_555
H5F C9F 1_555 1_555
O2G C7E 1_555 1_555
C9G C8E 1_555 1_555
H5G C9G 1_555 1_555
Zn1E O2E 1_555 1_555
Zn1F O1F 1_555 1_555
O2F_2 Zn1F 1_555 1_555
C7D_2 O2F_2 1_555 1_555
C8D_2 C7D_2 1_555 1_555
C9F_2 C8D_2 1_555 1_555
H5F_2 C9F_2 1_555 1_555
O2G_2 C7E_2 1_555 1_555
C7E_2 C8E_2 1_555 1_555
C8E_2 C9G_2 1_555 1_555
C9G_2 C9F_2 1_555 1_555
H5G_2 C9G_2 1_555 1_555
O2D_2 C7D_2 1_555 1_555
C9D_2 C8D_2 1_555 1_555
H5D_2 C9D_2 1_555 1_555
O2E_2 C7E_2 1_555 1_555
C9E_2 C8E_2 1_555 1_555
H5E_2 C9E_2 1_555 1_555
Zn1H O1H 1_555 1_555
Zn1K O1K 1_555 1_555
Zn1M O1M 1_555 1_555
Zn1U O3 1_555 1_555
Zn1W O3 1_555 1_555
Zn1D_2 O2D_2 1_555 1_555
Zn1E_2 O2E_2 1_555 1_555
Zn1E_3 O1E 1_555 1_555
Zn1F_2 O3D 1_555 1_555
Zn1G O2G_2 1_555 1_555
Zn1G_2 O1G 1_555 1_555
Zn1G_3 O2G 1_555 1_555
Zn1I O1I 1_555 1_555
Zn1J O1J 1_555 1_555
Zn1L O1L 1_555 1_555
Zn1N O1N 1_555 1_555
Zn1O O1O 1_555 1_555
Zn1P O1P 1_555 1_555
Zn1P_2 O3D 1_555 1_555
Zn1Q O1Q 1_555 1_555
Zn1R O1R 1_555 1_555
Zn1S O1S 1_555 1_555
Zn1T O3A 1_555 1_555
Zn1V O3A 1_555 1_555
O1E_2 Zn1E 1_555 1_555
O1X Zn1C 1_555 1_555
O1Y Zn1B 1_555 1_555
O1Z Zn1A 1_555 1_555
O1AA Zn1 1_555 1_555
O1CA Zn1F 1_555 1_555
O1DA Zn1E 1_555 1_555
O1EA Zn1D 1_555 1_555
O1FA Zn1K 1_555 1_555
O1IA Zn1H 1_555 1_555
O1LA Zn1M 1_555 1_555
O1RA Zn1W 1_555 1_555
O1TA Zn1U 1_555 1_555
O2H Zn1H 1_555 1_555
O2K Zn1K 1_555 1_555
O2M Zn1M 1_555 1_555
O2U Zn1U 1_555 1_555
O2W Zn1W 1_555 1_555
O3D_2 Zn1F 1_555 1_555
O3E Zn1E 1_555 1_555
O3H Zn1H 1_555 1_555
O3I Zn1K 1_555 1_555
C4D C5D 1_555 1_555
C4H C5H 1_555 1_555
C3M C4M 1_555 1_555
C3R C4R 1_555 1_555
O1W Zn1W 1_555 1_555
C3W C4W 1_555 1_555
O2B Zn1B 1_555 1_555
C9B C9C 1_555 1_555
O3A Zn1C 1_555 1_555
C4F C5F 1_555 1_555
C4K C5K 1_555 1_555
C3L C4L 1_555 1_555
C3P C4P 1_555 1_555
O1T Zn1T 1_555 1_555
C3T C4T 1_555 1_555
C4G C5G 1_555 1_555
C4I C5I 1_555 1_555
C3N C4N 1_555 1_555
C3S C4S 1_555 1_555
O1U Zn1U 1_555 1_555
C3U C4U 1_555 1_555
C4E C5E 1_555 1_555
C4J C5J 1_555 1_555
C3O C4O 1_555 1_555
C3Q C4Q 1_555 1_555
O1V Zn1V 1_555 1_555
C3V C4V 1_555 1_555
O3D Zn1R 1_555 1_555
O2F Zn1F_2 1_555 1_555
C9F C9G 1_555 1_555
C9D_2 C9E_2 1_555 1_555
Zn1M O3H 1_555 1_555
Zn1D_2 O3D_2 1_555 1_555
Zn1G_3 O3E 1_555 1_555
Zn1L O3I 1_555 1_555
Zn1P O3D_2 1_555 1_555

#END
