
#######################################################################
#
#                 Cambridge Crystallographic Data Centre
#                                CCDC 
#
#######################################################################
#
# If this CIF has been generated from an entry in the Cambridge 
# Structural Database, then it will include bibliographic, chemical, 
# crystal, experimental, refinement or atomic coordinate data resulting 
# from the CCDC's data processing and validation procedures.
#
#######################################################################

data_GECXUH03
_chemical_formula_moiety         '(C8 H6 O5 Zn1)n,n(C3 H7 N1 O1)'
_chemical_name_systematic        
'catena-((\m~4~-1,4-Benzenedicarboxylato)-aqua-zinc N,N-dimethylformamide solvate)'
_symmetry_cell_setting           monoclinic
_symmetry_space_group_name_H-M   'P 21/n'
_symmetry_Int_Tables_number      14
_space_group_name_Hall           '-P 2yn'
loop_
_symmetry_equiv_pos_site_id
_symmetry_equiv_pos_as_xyz
1 x,y,z
2 1/2-x,1/2+y,1/2-z
3 -x,-y,-z
4 1/2+x,1/2-y,1/2+z
_cell_length_a                   6.723(3)
_cell_length_b                   15.481(6)
_cell_length_c                   12.435(5)
_cell_angle_alpha                90
_cell_angle_beta                 102.825(5)
_cell_angle_gamma                90
_cell_volume                     1261.93
_exptl_crystal_colour            colorless
_exptl_crystal_description       block
_cell_formula_units_Z            4
loop_
_atom_site_label
_atom_site_type_symbol
_atom_site_fract_x
_atom_site_fract_y
_atom_site_fract_z
_atom_site_U_iso_or_equiv
_atom_site_thermal_displace_type
Zn1 Zn 1.20028(5) 0.00508(2) 0.07717(3) 0.0184 Uani
O1 O 1.0605(4) 0.10507(16) 0.1332(2) 0.0439 Uani
O2 O 0.7566(4) 0.09709(15) 0.02082(19) 0.0419 Uani
O3 O 0.7158(4) 0.42057(17) 0.44117(19) 0.0448 Uani
O4 O 0.4124(4) 0.42002(17) 0.3278(2) 0.0456 Uani
O5 O 1.4833(3) 0.02033(16) 0.1575(2) 0.0302 Uani
H1 H 1.547(5) 0.010(2) 0.2218(17) 0.0600 Uiso
H2 H 1.563(5) 0.020(3) 0.116(3) 0.0770 Uiso
C1 C 0.8799(5) 0.12906(19) 0.1010(3) 0.0237 Uani
C2 C 0.8054(5) 0.20112(19) 0.1624(2) 0.0230 Uani
C3 C 0.9395(5) 0.2424(2) 0.2484(3) 0.0258 Uani
H3 H 1.0771 0.2278 0.2640 0.0310 Uiso
C4 C 0.8717(5) 0.3044(2) 0.3106(3) 0.0258 Uani
H4 H 0.9630 0.3306 0.3686 0.0310 Uiso
C5 C 0.6672(5) 0.32845(19) 0.2873(2) 0.0230 Uani
C6 C 0.5336(5) 0.2891(2) 0.1994(3) 0.0289 Uani
H5 H 0.3971 0.3055 0.1818 0.0350 Uiso
C7 C 0.6019(5) 0.2259(2) 0.1378(3) 0.0287 Uani
H6 H 0.5109 0.1999 0.0796 0.0340 Uiso
C8 C 0.5920(5) 0.3944(2) 0.3570(3) 0.0250 Uani
Zn1B Zn 0.79972(5) -0.00508(2) -0.07717(3) 0.0184 Uani
Zn1A Zn 0.29972(5) 0.50508(2) 0.42283(3) 0.0184 Uani
Zn1C Zn 0.70028(5) 0.49492(2) 0.57717(3) 0.0184 Uani
O2B O 1.2434(4) -0.09709(15) -0.02082(19) 0.0419 Uani
O3C O 1.2158(4) 0.07943(17) -0.05883(19) 0.0448 Uani
O4A O 1.0876(4) -0.07998(17) 0.1722(2) 0.0456 Uani
N1 N 0.6381(6) 0.8965(2) 0.5047(3) 0.0507 Uani
O6 O 0.6433(5) 0.98688(19) 0.3624(2) 0.0548 Uani
C9 C 0.5633(7) 0.9293(3) 0.4064(3) 0.0511 Uani
H7 H 0.4401 0.9070 0.3669 0.0610 Uiso
C10 C 0.5337(8) 0.8284(3) 0.5503(4) 0.0755 Uani
H8 H 0.4096 0.8138 0.4987 0.1130 Uiso
H9 H 0.5025 0.8478 0.6180 0.1130 Uiso
H10 H 0.6199 0.7783 0.5644 0.1130 Uiso
C11 C 0.8277(8) 0.9286(3) 0.5698(4) 0.0781 Uani
H11 H 0.9358 0.8895 0.5644 0.1170 Uiso
H12 H 0.8181 0.9333 0.6454 0.1170 Uiso
H13 H 0.8557 0.9845 0.5430 0.1170 Uiso
loop_
_atom_site_aniso_label
_atom_site_aniso_U_11
_atom_site_aniso_U_22
_atom_site_aniso_U_33
_atom_site_aniso_U_23
_atom_site_aniso_U_13
_atom_site_aniso_U_12
Zn1 0.0197(2) 0.0188(2) 0.01880(19) -0.00016(16) 0.00859(14) 0.00054(16)
O1 0.0363(17) 0.0420(16) 0.0488(15) -0.0234(13) -0.0007(13) 0.0176(12)
O2 0.0356(16) 0.0413(16) 0.0462(15) -0.0278(13) 0.0037(13) 0.0083(12)
O3 0.0408(17) 0.0553(17) 0.0382(14) -0.0299(13) 0.0083(13) 0.0074(13)
O4 0.0364(17) 0.0526(17) 0.0479(15) -0.0253(13) 0.0098(13) 0.0149(13)
O5 0.0207(13) 0.0472(16) 0.0230(13) 0.0024(12) 0.0055(11) -0.0034(11)
C1 0.034(2) 0.0169(17) 0.0246(17) 0.0017(14) 0.0157(16) 0.0004(14)
C2 0.031(2) 0.0188(17) 0.0217(16) -0.0011(14) 0.0109(15) 0.0027(14)
C3 0.0216(19) 0.0248(18) 0.0317(19) -0.0030(15) 0.0071(15) 0.0062(14)
C4 0.029(2) 0.0263(19) 0.0224(16) -0.0057(14) 0.0061(15) -0.0017(14)
C5 0.0269(19) 0.0193(17) 0.0260(17) -0.0033(14) 0.0126(15) -0.0002(13)
C6 0.0238(19) 0.035(2) 0.0289(18) -0.0059(16) 0.0081(15) 0.0061(15)
C7 0.030(2) 0.0263(19) 0.0283(18) -0.0102(15) 0.0032(16) 0.0009(15)
C8 0.037(2) 0.0187(17) 0.0262(18) -0.0021(14) 0.0221(16) -0.0042(15)
Zn1B 0.0197 0.0188 0.0188 -0.00016 0.00859 0.00054
Zn1A 0.0197 0.0188 0.0188 0.00016 0.00859 -0.00054
Zn1C 0.0197 0.0188 0.0188 0.00016 0.00859 -0.00054
O2B 0.0356 0.0413 0.0462 -0.0278 0.0037 0.0083
O3C 0.0408 0.0553 0.0382 0.0299 0.0083 -0.0074
O4A 0.0364 0.0526 0.0479 0.0253 0.0098 -0.0149
N1 0.066(3) 0.050(2) 0.0363(19) 0.0055(17) 0.0120(17) 0.0037(18)
O6 0.068(2) 0.064(2) 0.0300(14) 0.0069(14) 0.0057(14) 0.0010(16)
C9 0.061(3) 0.051(3) 0.038(2) -0.009(2) 0.004(2) 0.007(2)
C10 0.105(5) 0.063(3) 0.065(3) 0.014(3) 0.033(3) 0.000(3)
C11 0.083(4) 0.087(4) 0.054(3) 0.024(3) -0.007(3) 0.002(3)
loop_
_geom_bond_atom_site_label_1
_geom_bond_atom_site_label_2
_geom_bond_site_symmetry_1
_geom_bond_site_symmetry_2
Zn1 O1 1_555 1_555
O1 C1 1_555 1_555
O2 C1 1_555 1_555
O3 C8 1_555 1_555
O4 C8 1_555 1_555
O5 Zn1 1_555 1_555
H1 O5 1_555 1_555
H2 O5 1_555 1_555
C1 C2 1_555 1_555
C2 C3 1_555 1_555
C3 H3 1_555 1_555
C4 C3 1_555 1_555
H4 C4 1_555 1_555
C5 C4 1_555 1_555
C6 C5 1_555 1_555
H5 C6 1_555 1_555
C7 C2 1_555 1_555
H6 C7 1_555 1_555
C8 C5 1_555 1_555
N1 C9 1_555 1_555
O6 C9 1_555 1_555
C9 H7 1_555 1_555
C10 N1 1_555 1_555
H8 C10 1_555 1_555
H9 C10 1_555 1_555
H10 C10 1_555 1_555
C11 N1 1_555 1_555
H11 C11 1_555 1_555
H12 C11 1_555 1_555
H13 C11 1_555 1_555
Zn1B O2 1_555 1_555
Zn1A O4 1_555 1_555
Zn1C O3 1_555 1_555
O2B Zn1 1_555 1_555
O3C Zn1 1_555 1_555
O4A Zn1 1_555 1_555
C6 C7 1_555 1_555

#END
