
#######################################################################
#
#                 Cambridge Crystallographic Data Centre
#                                CCDC 
#
#######################################################################
#
# If this CIF has been generated from an entry in the Cambridge 
# Structural Database, then it will include bibliographic, chemical, 
# crystal, experimental, refinement or atomic coordinate data resulting 
# from the CCDC's data processing and validation procedures.
#
#######################################################################

data_BUSNAF
_chemical_formula_moiety         '(C26 H20 Co1 N10)n'
_chemical_name_systematic        
'catena-(bis(\m~2~-3-methyl-2-(3-(pyridin-4-yl)-1H-1,2,4-triazol-5-yl)pyridine)-cobalt(ii)) unknown solvate'
_symmetry_cell_setting           rhombohedral
_symmetry_space_group_name_H-M   'R -3'
_symmetry_Int_Tables_number      148
_space_group_name_Hall           '-R 3'
loop_
_symmetry_equiv_pos_site_id
_symmetry_equiv_pos_as_xyz
1 x,y,z
2 -y,x-y,z
3 -x+y,-x,z
4 2/3+x,1/3+y,1/3+z
5 2/3-y,1/3+x-y,1/3+z
6 2/3-x+y,1/3-x,1/3+z
7 1/3+x,2/3+y,2/3+z
8 1/3-y,2/3+x-y,2/3+z
9 1/3-x+y,2/3-x,2/3+z
10 -x,-y,-z
11 y,-x+y,-z
12 x-y,x,-z
13 1/3-x,2/3-y,2/3-z
14 1/3+y,2/3-x+y,2/3-z
15 1/3+x-y,2/3+x,2/3-z
16 2/3-x,1/3-y,1/3-z
17 2/3+y,1/3-x+y,1/3-z
18 2/3+x-y,1/3+x,1/3-z
_cell_length_a                   27.070(9)
_cell_length_b                   27.070(9)
_cell_length_c                   10.126(7)
_cell_angle_alpha                90
_cell_angle_beta                 90
_cell_angle_gamma                120
_cell_volume                     6426.06
_exptl_crystal_colour            yellow
_exptl_crystal_description       block
_cell_formula_units_Z            9
loop_
_atom_site_label
_atom_site_type_symbol
_atom_site_fract_x
_atom_site_fract_y
_atom_site_fract_z
_atom_site_U_iso_or_equiv
_atom_site_thermal_displace_type
Co1 Co 0.3333 0.1667 1.6667 0.0268 Uani
N1 N 0.2611(2) 0.1528(2) 1.5481(4) 0.0333 Uani
N2 N 0.3455(2) 0.13398(18) 1.4965(4) 0.0289 Uani
N3 N 0.3858(2) 0.12251(19) 1.4475(4) 0.0322 Uani
N4 N 0.3168(2) 0.0988(2) 1.2918(4) 0.0364 Uani
N5 N 0.4580(2) 0.0448(2) 1.0876(4) 0.0352 Uani
C1 C 0.2223(3) 0.1668(3) 1.5832(6) 0.0543 Uani
H1 H 0.2232 0.1802 1.6683 0.0650 Uiso
C2 C 0.1811(3) 0.1619(4) 1.4974(7) 0.0657 Uani
H2 H 0.1552 0.1732 1.5222 0.0780 Uiso
C3 C 0.1787(4) 0.1397(4) 1.3729(7) 0.0651 Uani
H3 H 0.1499 0.1349 1.3150 0.0780 Uiso
C4 C 0.2176(3) 0.1246(3) 1.3333(6) 0.0429 Uani
C5 C 0.2593(2) 0.1319(2) 1.4251(5) 0.0311 Uani
C6 C 0.3061(3) 0.1204(2) 1.4016(5) 0.0319 Uani
C7 C 0.3664(3) 0.1017(2) 1.3265(5) 0.0336 Uani
C8 C 0.3983(3) 0.0835(2) 1.2409(5) 0.0317 Uani
C9 C 0.4542(3) 0.0993(3) 1.2675(6) 0.0456 Uani
H4 H 0.4730 0.1235 1.3381 0.0540 Uiso
C10 C 0.4821(3) 0.0798(3) 1.1912(6) 0.0426 Uani
H5 H 0.5198 0.0911 1.2118 0.0510 Uiso
C11 C 0.4050(3) 0.0315(3) 1.0596(6) 0.0514 Uani
H6 H 0.3877 0.0084 0.9865 0.0610 Uiso
C12 C 0.3737(3) 0.0495(3) 1.1314(6) 0.0451 Uani
H7 H 0.3366 0.0389 1.1066 0.0540 Uiso
C13 C 0.2145(3) 0.1004(3) 1.1965(6) 0.0607 Uani
H8 H 0.2449 0.0921 1.1862 0.0910 Uiso
H9 H 0.2183 0.1279 1.1313 0.0910 Uiso
H10 H 0.1785 0.0661 1.1855 0.0910 Uiso
Co1E Co 0.5001 0.0000 1.0000 0.0268 Uani
Co1K Co 0.1666 0.3333 2.3333 0.0268 Uani
N1O N 0.4056(2) 0.1805(2) 1.7852(4) 0.0333 Uani
N2O N 0.3212(2) 0.19935(18) 1.8368(4) 0.0289 Uani
N3O N 0.2809(2) 0.21082(19) 1.8858(4) 0.0322 Uani
N4O N 0.3499(2) 0.2345(2) 2.0415(4) 0.0364 Uani
N5O N 0.2087(2) 0.2885(2) 2.2457(4) 0.0352 Uani
N5G N 0.2885(2) 0.0799(3) 1.7543(4) 0.0352 Uani
N5M N 0.3781(2) 0.2535(3) 1.5791(4) 0.0352 Uani
C1O C 0.4444(3) 0.1665(3) 1.7501(6) 0.0543 Uani
H1O H 0.4435 0.1531 1.6650 0.0650 Uiso
C2O C 0.4856(3) 0.1714(4) 1.8359(7) 0.0657 Uani
H2O H 0.5115 0.1601 1.8111 0.0780 Uiso
C3O C 0.4880(4) 0.1936(4) 1.9604(7) 0.0651 Uani
H3O H 0.5168 0.1984 2.0183 0.0780 Uiso
C4O C 0.4491(3) 0.2087(3) 2.0000(6) 0.0429 Uani
C5O C 0.4074(2) 0.2014(2) 1.9082(5) 0.0311 Uani
C6O C 0.3606(3) 0.2129(2) 1.9317(5) 0.0319 Uani
C7O C 0.3003(3) 0.2316(2) 2.0068(5) 0.0336 Uani
C8O C 0.2684(3) 0.2498(2) 2.0924(5) 0.0317 Uani
C9O C 0.2125(3) 0.2340(3) 2.0658(6) 0.0456 Uani
H4O H 0.1937 0.2098 1.9952 0.0540 Uiso
C10O C 0.1846(3) 0.2535(3) 2.1421(6) 0.0426 Uani
H5O H 0.1469 0.2422 2.1215 0.0510 Uiso
C11O C 0.2617(3) 0.3018(3) 2.2737(6) 0.0514 Uani
H6O H 0.2790 0.3249 2.3468 0.0610 Uiso
C12O C 0.2930(3) 0.2838(3) 2.2019(6) 0.0451 Uani
H7O H 0.3301 0.2944 2.2267 0.0540 Uiso
C13O C 0.4522(3) 0.2329(3) 2.1368(6) 0.0607 Uani
H8O H 0.4218 0.2412 2.1471 0.0910 Uiso
H9O H 0.4484 0.2054 2.2020 0.0910 Uiso
H10O H 0.4882 0.2672 2.1478 0.0910 Uiso
loop_
_atom_site_aniso_label
_atom_site_aniso_U_11
_atom_site_aniso_U_22
_atom_site_aniso_U_33
_atom_site_aniso_U_23
_atom_site_aniso_U_13
_atom_site_aniso_U_12
Co1 0.0417(7) 0.0236(6) 0.0219(5) 0.0038(4) 0.0094(4) 0.0214(5)
N1 0.040(3) 0.032(3) 0.032(2) -0.002(2) 0.008(2) 0.021(2)
N2 0.041(3) 0.027(2) 0.024(2) -0.0029(18) 0.0048(19) 0.021(2)
N3 0.047(3) 0.032(3) 0.026(2) -0.0005(19) 0.008(2) 0.026(2)
N4 0.043(3) 0.036(3) 0.036(2) -0.004(2) 0.004(2) 0.024(3)
N5 0.035(3) 0.052(3) 0.027(2) -0.011(2) -0.0045(19) 0.028(3)
C1 0.059(5) 0.071(5) 0.051(4) -0.012(3) 0.003(3) 0.046(4)
C2 0.064(5) 0.096(6) 0.069(4) -0.015(4) 0.002(4) 0.064(5)
C3 0.069(6) 0.076(6) 0.066(5) -0.004(4) -0.010(4) 0.048(5)
C4 0.044(4) 0.044(4) 0.046(3) -0.001(3) 0.005(3) 0.026(3)
C5 0.028(3) 0.025(3) 0.040(3) 0.007(2) 0.013(2) 0.013(3)
C6 0.048(4) 0.022(3) 0.029(3) 0.003(2) 0.013(2) 0.020(3)
C7 0.039(3) 0.032(3) 0.038(3) 0.003(2) 0.007(2) 0.024(3)
C8 0.045(4) 0.034(3) 0.027(2) 0.001(2) 0.006(2) 0.028(3)
C9 0.052(4) 0.055(4) 0.042(3) -0.026(3) -0.018(3) 0.036(4)
C10 0.041(4) 0.052(4) 0.049(3) -0.016(3) -0.014(3) 0.034(3)
C11 0.039(4) 0.074(5) 0.049(4) -0.033(3) -0.017(3) 0.034(4)
C12 0.028(3) 0.065(5) 0.046(3) -0.022(3) -0.006(3) 0.026(3)
C13 0.066(5) 0.078(6) 0.050(4) -0.007(4) -0.005(3) 0.045(5)
Co1E 0.0225 0.0417 0.0219 -0.0094 -0.0056 0.0203
Co1K 0.0225 0.0417 0.0219 -0.0094 -0.0056 0.0203
N1O 0.04 0.032 0.032 -0.002 0.008 0.021
N2O 0.041 0.027 0.024 -0.0029 0.0048 0.021
N3O 0.047 0.032 0.026 -0.0005 0.008 0.026
N4O 0.043 0.036 0.036 -0.004 0.004 0.024
N5O 0.035 0.052 0.027 -0.011 -0.0045 0.028
N5G 0.052 0.031 0.027 0.0065 0.011 0.024
N5M 0.052 0.031 0.027 0.0065 0.011 0.024
C1O 0.059 0.071 0.051 -0.012 0.003 0.046
C2O 0.064 0.096 0.069 -0.015 0.002 0.064
C3O 0.069 0.076 0.066 -0.004 -0.01 0.048
C4O 0.044 0.044 0.046 -0.001 0.005 0.026
C5O 0.028 0.025 0.04 0.007 0.013 0.013
C6O 0.048 0.022 0.029 0.003 0.013 0.02
C7O 0.039 0.032 0.038 0.003 0.007 0.024
C8O 0.045 0.034 0.027 0.001 0.006 0.028
C9O 0.052 0.055 0.042 -0.026 -0.018 0.036
C10O 0.041 0.052 0.049 -0.016 -0.014 0.034
C11O 0.039 0.074 0.049 -0.033 -0.017 0.034
C12O 0.028 0.065 0.046 -0.022 -0.006 0.026
C13O 0.066 0.078 0.05 -0.007 -0.005 0.045
loop_
_geom_bond_atom_site_label_1
_geom_bond_atom_site_label_2
_geom_bond_site_symmetry_1
_geom_bond_site_symmetry_2
Co1 N1 1_555 1_555
N1 C1 1_555 1_555
N2 Co1 1_555 1_555
N3 N2 1_555 1_555
N4 C6 1_555 1_555
N5 C10 1_555 1_555
C1 H1 1_555 1_555
C2 C1 1_555 1_555
H2 C2 1_555 1_555
C3 C2 1_555 1_555
H3 C3 1_555 1_555
C4 C3 1_555 1_555
C5 N1 1_555 1_555
C6 N2 1_555 1_555
C7 N3 1_555 1_555
C8 C7 1_555 1_555
C9 C8 1_555 1_555
H4 C9 1_555 1_555
C10 C9 1_555 1_555
H5 C10 1_555 1_555
C11 N5 1_555 1_555
H6 C11 1_555 1_555
C12 C8 1_555 1_555
H7 C12 1_555 1_555
C13 C4 1_555 1_555
H8 C13 1_555 1_555
H9 C13 1_555 1_555
H10 C13 1_555 1_555
Co1E N5 1_555 1_555
Co1K N5O 1_555 1_555
N1O Co1 1_555 1_555
N2O Co1 1_555 1_555
N3O N2O 1_555 1_555
N4O C6O 1_555 1_555
N5O C10O 1_555 1_555
N5G Co1 1_555 1_555
N5M Co1 1_555 1_555
C1O N1O 1_555 1_555
H1O C1O 1_555 1_555
C2O C1O 1_555 1_555
H2O C2O 1_555 1_555
C3O C2O 1_555 1_555
H3O C3O 1_555 1_555
C4O C3O 1_555 1_555
C5O N1O 1_555 1_555
C6O N2O 1_555 1_555
C7O N3O 1_555 1_555
C8O C7O 1_555 1_555
C9O C8O 1_555 1_555
H4O C9O 1_555 1_555
C10O C9O 1_555 1_555
H5O C10O 1_555 1_555
C11O N5O 1_555 1_555
H6O C11O 1_555 1_555
C12O C8O 1_555 1_555
H7O C12O 1_555 1_555
C13O C4O 1_555 1_555
H8O C13O 1_555 1_555
H9O C13O 1_555 1_555
H10O C13O 1_555 1_555
N4 C7 1_555 1_555
C4 C5 1_555 1_555
C5 C6 1_555 1_555
C11 C12 1_555 1_555
N4O C7O 1_555 1_555
C4O C5O 1_555 1_555
C5O C6O 1_555 1_555
C11O C12O 1_555 1_555

#END
