
#######################################################################
#
#                 Cambridge Crystallographic Data Centre
#                                CCDC 
#
#######################################################################
#
# If this CIF has been generated from an entry in the Cambridge 
# Structural Database, then it will include bibliographic, chemical, 
# crystal, experimental, refinement or atomic coordinate data resulting 
# from the CCDC's data processing and validation procedures.
#
#######################################################################

data_BOXFEA
_chemical_name_common            
'catena-(Lead(ii) tetrakis(oxonium) octakis(mu!6$-5,5,10,10,15,15-hexaethyltruxene-2,7,12-tricarboxylato)-tris(mu!4$-oxo)-dodecaaqua-dodeca-lead(ii) hexahydrate)'
_chemical_formula_moiety         
'(Pb1 2+)n,4n(H3 O1 1+),n(C336 H336 O63 Pb12 6-),6n(H2 O1)'
_chemical_name_systematic        
"catena-(Lead(ii) tetrakis(oxonium) octakis(\m~6~-5,5,10,10,15,15-hexaethyl-10,15-dihydro-5H-diindeno[1,2-a:1',2'-c]fluorene-2,7,12-tricarboxylato)-tris(\m~4~-oxo)-dodecaaqua-dodeca-lead(ii) hexahydrate)"
_symmetry_cell_setting           cubic
_symmetry_space_group_name_H-M   'F m -3 c'
_symmetry_Int_Tables_number      226
_space_group_name_Hall           '-F 4a 2 3'
loop_
_symmetry_equiv_pos_site_id
_symmetry_equiv_pos_as_xyz
1 x,y,z
2 z,x,y
3 y,z,x
4 1/2+y,1/2+x,1/2-z
5 1/2+y,1/2-x,1/2+z
6 1/2-y,1/2+x,1/2+z
7 1/2+x,1/2+z,1/2-y
8 1/2-x,1/2+z,1/2+y
9 1/2+x,1/2-z,1/2+y
10 1/2+z,1/2+y,1/2-x
11 1/2+z,1/2-y,1/2+x
12 1/2-z,1/2+y,1/2+x
13 x,1/2+y,1/2+z
14 z,1/2+x,1/2+y
15 y,1/2+z,1/2+x
16 1/2+y,x,-z
17 1/2+y,-x,z
18 1/2-y,x,z
19 1/2+x,z,-y
20 1/2-x,z,y
21 1/2+x,-z,y
22 1/2+z,y,-x
23 1/2+z,-y,x
24 1/2-z,y,x
25 1/2+x,y,1/2+z
26 1/2+z,x,1/2+y
27 1/2+y,z,1/2+x
28 y,1/2+x,-z
29 y,1/2-x,z
30 -y,1/2+x,z
31 x,1/2+z,-y
32 -x,1/2+z,y
33 x,1/2-z,y
34 z,1/2+y,-x
35 z,1/2-y,x
36 -z,1/2+y,x
37 1/2+x,1/2+y,z
38 1/2+z,1/2+x,y
39 1/2+y,1/2+z,x
40 y,x,1/2-z
41 y,-x,1/2+z
42 -y,x,1/2+z
43 x,z,1/2-y
44 -x,z,1/2+y
45 x,-z,1/2+y
46 z,y,1/2-x
47 z,-y,1/2+x
48 -z,y,1/2+x
49 -x,-y,z
50 -x,y,-z
51 x,-y,-z
52 z,-x,-y
53 -z,-x,y
54 -z,x,-y
55 -y,z,-x
56 y,-z,-x
57 -y,-z,x
58 1/2-y,1/2-x,1/2-z
59 1/2-x,1/2-z,1/2-y
60 1/2-z,1/2-y,1/2-x
61 -x,1/2-y,1/2+z
62 -x,1/2+y,1/2-z
63 x,1/2-y,1/2-z
64 z,1/2-x,1/2-y
65 -z,1/2-x,1/2+y
66 -z,1/2+x,1/2-y
67 -y,1/2+z,1/2-x
68 y,1/2-z,1/2-x
69 -y,1/2-z,1/2+x
70 1/2-y,-x,-z
71 1/2-x,-z,-y
72 1/2-z,-y,-x
73 1/2-x,-y,1/2+z
74 1/2-x,y,1/2-z
75 1/2+x,-y,1/2-z
76 1/2+z,-x,1/2-y
77 1/2-z,-x,1/2+y
78 1/2-z,x,1/2-y
79 1/2-y,z,1/2-x
80 1/2+y,-z,1/2-x
81 1/2-y,-z,1/2+x
82 -y,1/2-x,-z
83 -x,1/2-z,-y
84 -z,1/2-y,-x
85 1/2-x,1/2-y,z
86 1/2-x,1/2+y,-z
87 1/2+x,1/2-y,-z
88 1/2+z,1/2-x,-y
89 1/2-z,1/2-x,y
90 1/2-z,1/2+x,-y
91 1/2-y,1/2+z,-x
92 1/2+y,1/2-z,-x
93 1/2-y,1/2-z,x
94 -y,-x,1/2-z
95 -x,-z,1/2-y
96 -z,-y,1/2-x
97 -x,-y,-z
98 -z,-x,-y
99 -y,-z,-x
100 1/2-y,1/2-x,1/2+z
101 1/2-y,1/2+x,1/2-z
102 1/2+y,1/2-x,1/2-z
103 1/2-x,1/2-z,1/2+y
104 1/2+x,1/2-z,1/2-y
105 1/2-x,1/2+z,1/2-y
106 1/2-z,1/2-y,1/2+x
107 1/2-z,1/2+y,1/2-x
108 1/2+z,1/2-y,1/2-x
109 -x,1/2-y,1/2-z
110 -z,1/2-x,1/2-y
111 -y,1/2-z,1/2-x
112 1/2-y,-x,z
113 1/2-y,x,-z
114 1/2+y,-x,-z
115 1/2-x,-z,y
116 1/2+x,-z,-y
117 1/2-x,z,-y
118 1/2-z,-y,x
119 1/2-z,y,-x
120 1/2+z,-y,-x
121 1/2-x,-y,1/2-z
122 1/2-z,-x,1/2-y
123 1/2-y,-z,1/2-x
124 -y,1/2-x,z
125 -y,1/2+x,-z
126 y,1/2-x,-z
127 -x,1/2-z,y
128 x,1/2-z,-y
129 -x,1/2+z,-y
130 -z,1/2-y,x
131 -z,1/2+y,-x
132 z,1/2-y,-x
133 1/2-x,1/2-y,-z
134 1/2-z,1/2-x,-y
135 1/2-y,1/2-z,-x
136 -y,-x,1/2+z
137 -y,x,1/2-z
138 y,-x,1/2-z
139 -x,-z,1/2+y
140 x,-z,1/2-y
141 -x,z,1/2-y
142 -z,-y,1/2+x
143 -z,y,1/2-x
144 z,-y,1/2-x
145 x,y,-z
146 x,-y,z
147 -x,y,z
148 -z,x,y
149 z,x,-y
150 z,-x,y
151 y,-z,x
152 -y,z,x
153 y,z,-x
154 1/2+y,1/2+x,1/2+z
155 1/2+x,1/2+z,1/2+y
156 1/2+z,1/2+y,1/2+x
157 x,1/2+y,1/2-z
158 x,1/2-y,1/2+z
159 -x,1/2+y,1/2+z
160 -z,1/2+x,1/2+y
161 z,1/2+x,1/2-y
162 z,1/2-x,1/2+y
163 y,1/2-z,1/2+x
164 -y,1/2+z,1/2+x
165 y,1/2+z,1/2-x
166 1/2+y,x,z
167 1/2+x,z,y
168 1/2+z,y,x
169 1/2+x,y,1/2-z
170 1/2+x,-y,1/2+z
171 1/2-x,y,1/2+z
172 1/2-z,x,1/2+y
173 1/2+z,x,1/2-y
174 1/2+z,-x,1/2+y
175 1/2+y,-z,1/2+x
176 1/2-y,z,1/2+x
177 1/2+y,z,1/2-x
178 y,1/2+x,z
179 x,1/2+z,y
180 z,1/2+y,x
181 1/2+x,1/2+y,-z
182 1/2+x,1/2-y,z
183 1/2-x,1/2+y,z
184 1/2-z,1/2+x,y
185 1/2+z,1/2+x,-y
186 1/2+z,1/2-x,y
187 1/2+y,1/2-z,x
188 1/2-y,1/2+z,x
189 1/2+y,1/2+z,-x
190 y,x,1/2+z
191 x,z,1/2+y
192 z,y,1/2+x
_cell_length_a                   48.850(6)
_cell_length_b                   48.850(6)
_cell_length_c                   48.850(6)
_cell_angle_alpha                90
_cell_angle_beta                 90
_cell_angle_gamma                90
_cell_volume                     116572
_exptl_crystal_colour            colorless
_exptl_crystal_description       block
_cell_formula_units_Z            8
loop_
_atom_site_label
_atom_site_type_symbol
_atom_site_fract_x
_atom_site_fract_y
_atom_site_fract_z
_atom_site_U_iso_or_equiv
_atom_site_thermal_displace_type
O2 O 0.2500 -0.0740(4) 0.0740(4) 0.2890 Uiso
O3 O 0.2333(3) -0.0254(3) 0.1052(3) 0.2490 Uiso
O4 O 0.4312(4) -0.0553(4) 0.2069(4) 0.2940 Uiso
O5 O 0.4003(7) 0.0000 0.1908(7) 0.3150 Uiso
O6 O 0.2773(7) 0.0000 0.1146(7) 0.3480 Uiso
O7 O 0.4182(8) 0.0000 0.1366(8) 0.3510 Uiso
O8 O 0.1066(9) 0.0000 0.1281(9) 0.4300 Uiso
Pb1 Pb 0.220953(7) 0.0000 0.194421(9) 0.0736 Uani
O9 O 0.26146(10) -0.03170(10) 0.19912(11) 0.0870 Uani
O10 O 0.23934(9) -0.03289(8) 0.16079(10) 0.0727 Uani
O11 O 0.2500 0.0000 0.2500 0.0633 Uani
O12 O 0.18213(19) 0.0000 0.1579(3) 0.1527 Uani
C1 C 0.25829(11) -0.04120(10) 0.17535(13) 0.0597 Uani
C2 C 0.27646(10) -0.06377(10) 0.16607(12) 0.0557 Uani
C3 C 0.29882(11) -0.07185(10) 0.18166(13) 0.0593 Uani
H1 H 0.3029 -0.0628 0.1984 0.0710 Uiso
C4 C 0.31524(11) -0.09318(10) 0.17260(12) 0.0570 Uani
C5 C 0.30922(10) -0.10744(10) 0.14864(11) 0.0550 Uani
C6 C 0.28691(11) -0.09892(11) 0.13287(12) 0.0607 Uani
H2 H 0.2826 -0.1081 0.1163 0.0730 Uiso
C7 C 0.27112(11) -0.07712(11) 0.14151(12) 0.0600 Uani
H3 H 0.2563 -0.0711 0.1304 0.0720 Uiso
C8 C 0.34071(12) -0.10358(12) 0.18660(12) 0.0620 Uani
C9 C 0.34900(11) -0.12693(10) 0.16740(11) 0.0570 Uani
C10 C 0.32994(11) -0.12969(11) 0.14563(11) 0.0543 Uani
C11 C 0.33322(14) -0.11386(13) 0.21558(13) 0.0733 Uani
H4 H 0.3502 -0.1199 0.2248 0.0880 Uiso
H5 H 0.3257 -0.0983 0.2262 0.0880 Uiso
C12 C 0.31257(19) -0.13729(19) 0.21636(16) 0.0953 Uani
H6 H 0.2970 -0.1329 0.2045 0.1430 Uiso
H7 H 0.3061 -0.1399 0.2352 0.1430 Uiso
H8 H 0.3213 -0.1541 0.2099 0.1430 Uiso
C13 C 0.36188(13) -0.08002(12) 0.18718(15) 0.0713 Uani
H9 H 0.3546 -0.0650 0.1987 0.0850 Uiso
H10 H 0.3789 -0.0868 0.1959 0.0850 Uiso
C14 C 0.36886(19) -0.0686(2) 0.1595(2) 0.1030 Uani
H11 H 0.3777 -0.0829 0.1485 0.1540 Uiso
H12 H 0.3813 -0.0531 0.1616 0.1540 Uiso
H13 H 0.3521 -0.0626 0.1504 0.1540 Uiso
Pb1W Pb 0.305579(9) 0.0000 0.220953(7) 0.0736 Uani
Pb1SA Pb 0.194421(9) 0.0000 0.279047(7) 0.0736 Uani
Pb1PD Pb 0.279047(7) 0.0000 0.305579(9) 0.0736 Uani
Pb1RD Pb 0.5000 -0.194421(9) 0.279047(7) 0.0736 Uani
Pb1P Pb 0.5000 -0.220953(7) 0.194421(9) 0.0736 Uani
Pb1AG Pb 0.305579(9) -0.279047(7) 0.0000 0.0736 Uani
Pb1JD Pb 0.279047(7) -0.194421(9) 0.0000 0.0736 Uani
Pb1C Pb 0.5000 -0.279047(7) 0.305579(9) 0.0736 Uani
Pb1RA Pb 0.220953(7) -0.194421(9) 0.5000 0.0736 Uani
Pb1QD Pb 0.305579(9) -0.220953(7) 0.5000 0.0736 Uani
Pb1BA Pb 0.0000 0.279047(7) 0.194421(9) 0.0736 Uani
Pb1B Pb 0.0000 0.194421(9) 0.220953(7) 0.0736 Uani
Pb1S Pb 0.279047(7) 0.194421(9) 0.0000 0.0736 Uani
Pb1A Pb 0.194421(9) 0.220953(7) 0.0000 0.0736 Uani
Pb1M Pb 0.194421(9) -0.279047(7) 0.5000 0.0736 Uani
Pb1TE Pb 0.0000 -0.194421(9) 0.220953(7) 0.0736 Uani
Pb1GE Pb 0.0000 -0.220953(7) 0.305579(9) 0.0736 Uani
O9SA O 0.19912(11) -0.03170(10) 0.23854(10) 0.0870 Uani
O9OE O 0.26146(10) 0.03170(10) 0.19912(11) 0.0870 Uani
O9ME O 0.19912(11) 0.03170(10) 0.23854(10) 0.0870 Uani
O9PD O 0.23854(10) 0.03170(10) 0.30088(11) 0.0870 Uani
O9UB O 0.23854(10) -0.03170(10) 0.30088(11) 0.0870 Uani
O9W O 0.30088(11) -0.03170(10) 0.26146(10) 0.0870 Uani
O9MD O 0.30088(11) 0.03170(10) 0.26146(10) 0.0870 Uani
O9AC O 0.46830(10) -0.19912(11) 0.23854(10) 0.0870 Uani
O9KC O 0.30088(11) -0.23854(10) 0.03170(10) 0.0870 Uani
O9C O 0.46830(10) -0.23854(10) 0.30088(11) 0.0870 Uani
O9RA O 0.26146(10) -0.19912(11) 0.46830(10) 0.0870 Uani
O9SD O 0.03170(10) 0.23854(10) 0.19912(11) 0.0870 Uani
O9LD O 0.23854(10) 0.19912(11) 0.03170(10) 0.0870 Uani
O9M O 0.19912(11) -0.23854(10) 0.46830(10) 0.0870 Uani
O9DB O 0.03170(10) -0.19912(11) 0.26146(10) 0.0870 Uani
O10OE O 0.23934(9) 0.03289(8) 0.16079(10) 0.0727 Uani
O10SA O 0.16079(10) -0.03289(8) 0.26066(9) 0.0727 Uani
O10ME O 0.16079(10) 0.03289(8) 0.26066(9) 0.0727 Uani
O10PD O 0.26066(9) 0.03289(8) 0.33921(10) 0.0727 Uani
O10UB O 0.26066(9) -0.03289(8) 0.33921(10) 0.0727 Uani
O10W O 0.33921(10) -0.03289(8) 0.23934(9) 0.0727 Uani
O10MD O 0.33921(10) 0.03289(8) 0.23934(9) 0.0727 Uani
O10AC O 0.46711(8) -0.16079(10) 0.26066(9) 0.0727 Uani
O10KC O 0.33921(10) -0.26066(9) 0.03289(8) 0.0727 Uani
O10C O 0.46711(8) -0.26066(9) 0.33921(10) 0.0727 Uani
O10RA O 0.23934(9) -0.16079(10) 0.46711(8) 0.0727 Uani
O10SD O 0.03289(8) 0.26066(9) 0.16079(10) 0.0727 Uani
O10LD O 0.26066(9) 0.16079(10) 0.03289(8) 0.0727 Uani
O10M O 0.16079(10) -0.26066(9) 0.46711(8) 0.0727 Uani
O10DB O 0.03289(8) -0.16079(10) 0.23934(9) 0.0727 Uani
O12SA O 0.1579(3) 0.0000 0.31787(19) 0.1527 Uani
O12PD O 0.31787(19) 0.0000 0.3421(3) 0.1527 Uani
O12W O 0.3421(3) 0.0000 0.18213(19) 0.1527 Uani
C1AC C 0.45880(10) -0.17535(13) 0.24171(11) 0.0597 Uani
C1KC C 0.32465(13) -0.24171(11) 0.04120(10) 0.0597 Uani
C1W C 0.32465(13) -0.04120(10) 0.25829(11) 0.0597 Uani
C1C C 0.45880(10) -0.24171(11) 0.32465(13) 0.0597 Uani
C1RA C 0.25829(11) -0.17535(13) 0.45880(10) 0.0597 Uani
C1ME C 0.17535(13) 0.04120(10) 0.24171(11) 0.0597 Uani
C1SD C 0.04120(10) 0.24171(11) 0.17535(13) 0.0597 Uani
C1LD C 0.24171(11) 0.17535(13) 0.04120(10) 0.0597 Uani
C1UB C 0.24171(11) -0.04120(10) 0.32465(13) 0.0597 Uani
C1M C 0.17535(13) -0.24171(11) 0.45880(10) 0.0597 Uani
C1DB C 0.04120(10) -0.17535(13) 0.25829(11) 0.0597 Uani
C2AC C 0.43623(10) -0.16607(12) 0.22354(10) 0.0557 Uani
C2KC C 0.33393(12) -0.22354(10) 0.06377(10) 0.0557 Uani
C2W C 0.33393(12) -0.06377(10) 0.27646(10) 0.0557 Uani
C2C C 0.43623(10) -0.22354(10) 0.33393(12) 0.0557 Uani
C2RA C 0.27646(10) -0.16607(12) 0.43623(10) 0.0557 Uani
C2ME C 0.16607(12) 0.06377(10) 0.22354(10) 0.0557 Uani
C2SD C 0.06377(10) 0.22354(10) 0.16607(12) 0.0557 Uani
C2LD C 0.22354(10) 0.16607(12) 0.06377(10) 0.0557 Uani
C2UB C 0.22354(10) -0.06377(10) 0.33393(12) 0.0557 Uani
C2M C 0.16607(12) -0.22354(10) 0.43623(10) 0.0557 Uani
C2DB C 0.06377(10) -0.16607(12) 0.27646(10) 0.0557 Uani
C3AC C 0.42815(10) -0.18166(13) 0.20118(11) 0.0593 Uani
C3KC C 0.31834(13) -0.20118(11) 0.07185(10) 0.0593 Uani
C3W C 0.31834(13) -0.07185(10) 0.29882(11) 0.0593 Uani
C3C C 0.42815(10) -0.20118(11) 0.31834(13) 0.0593 Uani
C3RA C 0.29882(11) -0.18166(13) 0.42815(10) 0.0593 Uani
C3ME C 0.18166(13) 0.07185(10) 0.20118(11) 0.0593 Uani
C3SD C 0.07185(10) 0.20118(11) 0.18166(13) 0.0593 Uani
C3LD C 0.20118(11) 0.18166(13) 0.07185(10) 0.0593 Uani
C3UB C 0.20118(11) -0.07185(10) 0.31834(13) 0.0593 Uani
C3M C 0.18166(13) -0.20118(11) 0.42815(10) 0.0593 Uani
C3DB C 0.07185(10) -0.18166(13) 0.29882(11) 0.0593 Uani
H1AC H 0.4372 -0.1984 0.1971 0.0710 Uiso
H1KC H 0.3016 -0.1971 0.0628 0.0710 Uiso
H1W H 0.3016 -0.0628 0.3029 0.0710 Uiso
H1C H 0.4372 -0.1971 0.3016 0.0710 Uiso
H1RA H 0.3029 -0.1984 0.4372 0.0710 Uiso
H1ME H 0.1984 0.0628 0.1971 0.0710 Uiso
H1SD H 0.0628 0.1971 0.1984 0.0710 Uiso
H1LD H 0.1971 0.1984 0.0628 0.0710 Uiso
H1UB H 0.1971 -0.0628 0.3016 0.0710 Uiso
H1M H 0.1984 -0.1971 0.4372 0.0710 Uiso
H1DB H 0.0628 -0.1984 0.3029 0.0710 Uiso
C4AC C 0.40682(10) -0.17260(12) 0.18476(11) 0.0570 Uani
C4KC C 0.32740(12) -0.18476(11) 0.09318(10) 0.0570 Uani
C4W C 0.32740(12) -0.09318(10) 0.31524(11) 0.0570 Uani
C4C C 0.40682(10) -0.18476(11) 0.32740(12) 0.0570 Uani
C4RA C 0.31524(11) -0.17260(12) 0.40682(10) 0.0570 Uani
C4ME C 0.17260(12) 0.09318(10) 0.18476(11) 0.0570 Uani
C4SD C 0.09318(10) 0.18476(11) 0.17260(12) 0.0570 Uani
C4LD C 0.18476(11) 0.17260(12) 0.09318(10) 0.0570 Uani
C4UB C 0.18476(11) -0.09318(10) 0.32740(12) 0.0570 Uani
C4M C 0.17260(12) -0.18476(11) 0.40682(10) 0.0570 Uani
C4DB C 0.09318(10) -0.17260(12) 0.31524(11) 0.0570 Uani
C5AC C 0.39256(10) -0.14864(11) 0.19078(10) 0.0550 Uani
C5KC C 0.35136(11) -0.19078(10) 0.10744(10) 0.0550 Uani
C5W C 0.35136(11) -0.10744(10) 0.30922(10) 0.0550 Uani
C5RA C 0.30922(10) -0.14864(11) 0.39256(10) 0.0550 Uani
C5C C 0.39256(10) -0.19078(10) 0.35136(11) 0.0550 Uani
C5ME C 0.14864(11) 0.10744(10) 0.19078(10) 0.0550 Uani
C5LD C 0.19078(10) 0.14864(11) 0.10744(10) 0.0550 Uani
C5SD C 0.10744(10) 0.19078(10) 0.14864(11) 0.0550 Uani
C5UB C 0.19078(10) -0.10744(10) 0.35136(11) 0.0550 Uani
C5DB C 0.10744(10) -0.14864(11) 0.30922(10) 0.0550 Uani
C5M C 0.14864(11) -0.19078(10) 0.39256(10) 0.0550 Uani
C6AC C 0.40108(11) -0.13287(12) 0.21309(11) 0.0607 Uani
C6KC C 0.36713(12) -0.21309(11) 0.09892(11) 0.0607 Uani
C6W C 0.36713(12) -0.09892(11) 0.28691(11) 0.0607 Uani
C6RA C 0.28691(11) -0.13287(12) 0.40108(11) 0.0607 Uani
C6C C 0.40108(11) -0.21309(11) 0.36713(12) 0.0607 Uani
C6ME C 0.13287(12) 0.09892(11) 0.21309(11) 0.0607 Uani
C6LD C 0.21309(11) 0.13287(12) 0.09892(11) 0.0607 Uani
C6SD C 0.09892(11) 0.21309(11) 0.13287(12) 0.0607 Uani
C6UB C 0.21309(11) -0.09892(11) 0.36713(12) 0.0607 Uani
C6DB C 0.09892(11) -0.13287(12) 0.28691(11) 0.0607 Uani
C6M C 0.13287(12) -0.21309(11) 0.40108(11) 0.0607 Uani
H2AC H 0.3919 -0.1163 0.2174 0.0730 Uiso
H2KC H 0.3837 -0.2174 0.1081 0.0730 Uiso
H2W H 0.3837 -0.1081 0.2826 0.0730 Uiso
H2RA H 0.2826 -0.1163 0.3919 0.0730 Uiso
H2C H 0.3919 -0.2174 0.3837 0.0730 Uiso
H2ME H 0.1163 0.1081 0.2174 0.0730 Uiso
H2LD H 0.2174 0.1163 0.1081 0.0730 Uiso
H2SD H 0.1081 0.2174 0.1163 0.0730 Uiso
H2UB H 0.2174 -0.1081 0.3837 0.0730 Uiso
H2DB H 0.1081 -0.1163 0.2826 0.0730 Uiso
H2M H 0.1163 -0.2174 0.3919 0.0730 Uiso
C7AC C 0.42288(11) -0.14151(12) 0.22888(11) 0.0600 Uani
C7KC C 0.35849(12) -0.22888(11) 0.07712(11) 0.0600 Uani
C7W C 0.35849(12) -0.07712(11) 0.27112(11) 0.0600 Uani
C7RA C 0.27112(11) -0.14151(12) 0.42288(11) 0.0600 Uani
C7C C 0.42288(11) -0.22888(11) 0.35849(12) 0.0600 Uani
C7ME C 0.14151(12) 0.07712(11) 0.22888(11) 0.0600 Uani
C7LD C 0.22888(11) 0.14151(12) 0.07712(11) 0.0600 Uani
C7SD C 0.07712(11) 0.22888(11) 0.14151(12) 0.0600 Uani
C7UB C 0.22888(11) -0.07712(11) 0.35849(12) 0.0600 Uani
C7DB C 0.07712(11) -0.14151(12) 0.27112(11) 0.0600 Uani
C7M C 0.14151(12) -0.22888(11) 0.42288(11) 0.0600 Uani
H3AC H 0.4289 -0.1304 0.2437 0.0720 Uiso
H3KC H 0.3696 -0.2437 0.0711 0.0720 Uiso
H3W H 0.3696 -0.0711 0.2563 0.0720 Uiso
H3RA H 0.2563 -0.1304 0.4289 0.0720 Uiso
H3C H 0.4289 -0.2437 0.3696 0.0720 Uiso
H3ME H 0.1304 0.0711 0.2437 0.0720 Uiso
H3LD H 0.2437 0.1304 0.0711 0.0720 Uiso
H3SD H 0.0711 0.2437 0.1304 0.0720 Uiso
H3UB H 0.2437 -0.0711 0.3696 0.0720 Uiso
H3DB H 0.0711 -0.1304 0.2563 0.0720 Uiso
H3M H 0.1304 -0.2437 0.4289 0.0720 Uiso
C8KC C 0.31340(12) -0.15929(12) 0.10358(12) 0.0620 Uani
C8AC C 0.39642(12) -0.18660(12) 0.15929(12) 0.0620 Uani
C8W C 0.31340(12) -0.10358(12) 0.34071(12) 0.0620 Uani
C8C C 0.39642(12) -0.15929(12) 0.31340(12) 0.0620 Uani
C8RA C 0.34071(12) -0.18660(12) 0.39642(12) 0.0620 Uani
C8ME C 0.18660(12) 0.10358(12) 0.15929(12) 0.0620 Uani
C8SD C 0.10358(12) 0.15929(12) 0.18660(12) 0.0620 Uani
C8LD C 0.15929(12) 0.18660(12) 0.10358(12) 0.0620 Uani
C8UB C 0.15929(12) -0.10358(12) 0.31340(12) 0.0620 Uani
C8M C 0.18660(12) -0.15929(12) 0.39642(12) 0.0620 Uani
C8DB C 0.10358(12) -0.18660(12) 0.34071(12) 0.0620 Uani
C9KC C 0.33260(11) -0.15100(11) 0.12693(10) 0.0570 Uani
C9AC C 0.37307(10) -0.16740(11) 0.15100(11) 0.0570 Uani
C9W C 0.33260(11) -0.12693(10) 0.34900(11) 0.0570 Uani
C9C C 0.37307(10) -0.15100(11) 0.33260(11) 0.0570 Uani
C9RA C 0.34900(11) -0.16740(11) 0.37307(10) 0.0570 Uani
C9ME C 0.16740(11) 0.12693(10) 0.15100(11) 0.0570 Uani
C9SD C 0.12693(10) 0.15100(11) 0.16740(11) 0.0570 Uani
C9LD C 0.15100(11) 0.16740(11) 0.12693(10) 0.0570 Uani
C9UB C 0.15100(11) -0.12693(10) 0.33260(11) 0.0570 Uani
C9M C 0.16740(11) -0.15100(11) 0.37307(10) 0.0570 Uani
C9DB C 0.12693(10) -0.16740(11) 0.34900(11) 0.0570 Uani
C10AC C 0.37031(11) -0.14563(11) 0.17006(11) 0.0543 Uani
C10KC C 0.35437(11) -0.17006(11) 0.12969(11) 0.0543 Uani
C10W C 0.35437(11) -0.12969(11) 0.32994(11) 0.0543 Uani
C10RA C 0.32994(11) -0.14563(11) 0.37031(11) 0.0543 Uani
C10C C 0.37031(11) -0.17006(11) 0.35437(11) 0.0543 Uani
C10ME C 0.14563(11) 0.12969(11) 0.17006(11) 0.0543 Uani
C10LD C 0.17006(11) 0.14563(11) 0.12969(11) 0.0543 Uani
C10SD C 0.12969(11) 0.17006(11) 0.14563(11) 0.0543 Uani
C10UB C 0.17006(11) -0.12969(11) 0.35437(11) 0.0543 Uani
C10DB C 0.12969(11) -0.14563(11) 0.32994(11) 0.0543 Uani
C10M C 0.14563(11) -0.17006(11) 0.37031(11) 0.0543 Uani
C11KC C 0.28442(13) -0.16678(14) 0.11386(13) 0.0733 Uani
C11AC C 0.38614(13) -0.21558(13) 0.16678(14) 0.0733 Uani
C11W C 0.28442(13) -0.11386(13) 0.33322(14) 0.0733 Uani
C11C C 0.38614(13) -0.16678(14) 0.28442(13) 0.0733 Uani
C11RA C 0.33322(14) -0.21558(13) 0.38614(13) 0.0733 Uani
C11ME C 0.21558(13) 0.11386(13) 0.16678(14) 0.0733 Uani
C11SD C 0.11386(13) 0.16678(14) 0.21558(13) 0.0733 Uani
C11LD C 0.16678(14) 0.21558(13) 0.11386(13) 0.0733 Uani
C11UB C 0.16678(14) -0.11386(13) 0.28442(13) 0.0733 Uani
C11M C 0.21558(13) -0.16678(14) 0.38614(13) 0.0733 Uani
C11DB C 0.11386(13) -0.21558(13) 0.33322(14) 0.0733 Uani
H4KC H 0.2752 -0.1498 0.1199 0.0880 Uiso
H4AC H 0.3801 -0.2248 0.1498 0.0880 Uiso
H4W H 0.2752 -0.1199 0.3502 0.0880 Uiso
H4C H 0.3801 -0.1498 0.2752 0.0880 Uiso
H4RA H 0.3502 -0.2248 0.3801 0.0880 Uiso
H4ME H 0.2248 0.1199 0.1498 0.0880 Uiso
H4SD H 0.1199 0.1498 0.2248 0.0880 Uiso
H4LD H 0.1498 0.2248 0.1199 0.0880 Uiso
H4UB H 0.1498 -0.1199 0.2752 0.0880 Uiso
H4M H 0.2248 -0.1498 0.3801 0.0880 Uiso
H4DB H 0.1199 -0.2248 0.3502 0.0880 Uiso
H5KC H 0.2738 -0.1743 0.0983 0.0880 Uiso
H5AC H 0.4017 -0.2262 0.1743 0.0880 Uiso
H5W H 0.2738 -0.0983 0.3257 0.0880 Uiso
H5C H 0.4017 -0.1743 0.2738 0.0880 Uiso
H5RA H 0.3257 -0.2262 0.4017 0.0880 Uiso
H5ME H 0.2262 0.0983 0.1743 0.0880 Uiso
H5SD H 0.0983 0.1743 0.2262 0.0880 Uiso
H5LD H 0.1743 0.2262 0.0983 0.0880 Uiso
H5UB H 0.1743 -0.0983 0.2738 0.0880 Uiso
H5M H 0.2262 -0.1743 0.4017 0.0880 Uiso
H5DB H 0.0983 -0.2262 0.3257 0.0880 Uiso
C12KC C 0.28364(16) -0.18743(19) 0.13729(19) 0.0953 Uani
C12AC C 0.36271(19) -0.21636(16) 0.18743(19) 0.0953 Uani
C12W C 0.28364(16) -0.13729(19) 0.31257(19) 0.0953 Uani
C12C C 0.36271(19) -0.18743(19) 0.28364(16) 0.0953 Uani
C12RA C 0.31257(19) -0.21636(16) 0.36271(19) 0.0953 Uani
C12ME C 0.21636(16) 0.13729(19) 0.18743(19) 0.0953 Uani
C12SD C 0.13729(19) 0.18743(19) 0.21636(16) 0.0953 Uani
C12LD C 0.18743(19) 0.21636(16) 0.13729(19) 0.0953 Uani
C12UB C 0.18743(19) -0.13729(19) 0.28364(16) 0.0953 Uani
C12M C 0.21636(16) -0.18743(19) 0.36271(19) 0.0953 Uani
C12DB C 0.13729(19) -0.21636(16) 0.31257(19) 0.0953 Uani
H6KC H 0.2955 -0.2030 0.1329 0.1430 Uiso
H6AC H 0.3671 -0.2045 0.2030 0.1430 Uiso
H6W H 0.2955 -0.1329 0.2970 0.1430 Uiso
H6C H 0.3671 -0.2030 0.2955 0.1430 Uiso
H6RA H 0.2970 -0.2045 0.3671 0.1430 Uiso
H6ME H 0.2045 0.1329 0.2030 0.1430 Uiso
H6SD H 0.1329 0.2030 0.2045 0.1430 Uiso
H6LD H 0.2030 0.2045 0.1329 0.1430 Uiso
H6UB H 0.2030 -0.1329 0.2955 0.1430 Uiso
H6M H 0.2045 -0.2030 0.3671 0.1430 Uiso
H6DB H 0.1329 -0.2045 0.2970 0.1430 Uiso
H7KC H 0.2648 -0.1939 0.1399 0.1430 Uiso
H7AC H 0.3601 -0.2352 0.1939 0.1430 Uiso
H7W H 0.2648 -0.1399 0.3061 0.1430 Uiso
H7C H 0.3601 -0.1939 0.2648 0.1430 Uiso
H7RA H 0.3061 -0.2352 0.3601 0.1430 Uiso
H7ME H 0.2352 0.1399 0.1939 0.1430 Uiso
H7SD H 0.1399 0.1939 0.2352 0.1430 Uiso
H7LD H 0.1939 0.2352 0.1399 0.1430 Uiso
H7UB H 0.1939 -0.1399 0.2648 0.1430 Uiso
H7M H 0.2352 -0.1939 0.3601 0.1430 Uiso
H7DB H 0.1399 -0.2352 0.3061 0.1430 Uiso
H8KC H 0.2901 -0.1787 0.1541 0.1430 Uiso
H8AC H 0.3459 -0.2099 0.1787 0.1430 Uiso
H8W H 0.2901 -0.1541 0.3213 0.1430 Uiso
H8C H 0.3459 -0.1787 0.2901 0.1430 Uiso
H8RA H 0.3213 -0.2099 0.3459 0.1430 Uiso
H8ME H 0.2099 0.1541 0.1787 0.1430 Uiso
H8SD H 0.1541 0.1787 0.2099 0.1430 Uiso
H8LD H 0.1787 0.2099 0.1541 0.1430 Uiso
H8UB H 0.1787 -0.1541 0.2901 0.1430 Uiso
H8M H 0.2099 -0.1787 0.3459 0.1430 Uiso
H8DB H 0.1541 -0.2099 0.3213 0.1430 Uiso
C13KC C 0.31282(15) -0.13812(13) 0.08002(12) 0.0713 Uani
C13AC C 0.41998(12) -0.18718(15) 0.13812(13) 0.0713 Uani
C13W C 0.31282(15) -0.08002(12) 0.36188(13) 0.0713 Uani
C13C C 0.41998(12) -0.13812(13) 0.31282(15) 0.0713 Uani
C13RA C 0.36188(13) -0.18718(15) 0.41998(12) 0.0713 Uani
C13ME C 0.18718(15) 0.08002(12) 0.13812(13) 0.0713 Uani
C13SD C 0.08002(12) 0.13812(13) 0.18718(15) 0.0713 Uani
C13LD C 0.13812(13) 0.18718(15) 0.08002(12) 0.0713 Uani
C13UB C 0.13812(13) -0.08002(12) 0.31282(15) 0.0713 Uani
C13M C 0.18718(15) -0.13812(13) 0.41998(12) 0.0713 Uani
C13DB C 0.08002(12) -0.18718(15) 0.36188(13) 0.0713 Uani
H9KC H 0.3013 -0.1454 0.0650 0.0850 Uiso
H9AC H 0.4350 -0.1987 0.1454 0.0850 Uiso
H9W H 0.3013 -0.0650 0.3546 0.0850 Uiso
H9C H 0.4350 -0.1454 0.3013 0.0850 Uiso
H9RA H 0.3546 -0.1987 0.4350 0.0850 Uiso
H9ME H 0.1987 0.0650 0.1454 0.0850 Uiso
H9SD H 0.0650 0.1454 0.1987 0.0850 Uiso
H9LD H 0.1454 0.1987 0.0650 0.0850 Uiso
H9UB H 0.1454 -0.0650 0.3013 0.0850 Uiso
H9M H 0.1987 -0.1454 0.4350 0.0850 Uiso
H9DB H 0.0650 -0.1987 0.3546 0.0850 Uiso
H10KC H 0.3041 -0.1211 0.0868 0.0850 Uiso
H10AC H 0.4132 -0.1959 0.1211 0.0850 Uiso
H10W H 0.3041 -0.0868 0.3789 0.0850 Uiso
H10C H 0.4132 -0.1211 0.3041 0.0850 Uiso
H10RA H 0.3789 -0.1959 0.4132 0.0850 Uiso
H10ME H 0.1959 0.0868 0.1211 0.0850 Uiso
H10SD H 0.0868 0.1211 0.1959 0.0850 Uiso
H10LD H 0.1211 0.1959 0.0868 0.0850 Uiso
H10UB H 0.1211 -0.0868 0.3041 0.0850 Uiso
H10M H 0.1959 -0.1211 0.4132 0.0850 Uiso
H10DB H 0.0868 -0.1959 0.3789 0.0850 Uiso
C14KC C 0.3405(2) -0.13114(19) 0.0686(2) 0.1030 Uani
C14AC C 0.4314(2) -0.1595(2) 0.13114(19) 0.1030 Uani
C14W C 0.3405(2) -0.0686(2) 0.36886(19) 0.1030 Uani
C14C C 0.4314(2) -0.13114(19) 0.3405(2) 0.1030 Uani
C14RA C 0.36886(19) -0.1595(2) 0.4314(2) 0.1030 Uani
C14ME C 0.1595(2) 0.0686(2) 0.13114(19) 0.1030 Uani
C14SD C 0.0686(2) 0.13114(19) 0.1595(2) 0.1030 Uani
C14LD C 0.13114(19) 0.1595(2) 0.0686(2) 0.1030 Uani
C14UB C 0.13114(19) -0.0686(2) 0.3405(2) 0.1030 Uani
C14M C 0.1595(2) -0.13114(19) 0.4314(2) 0.1030 Uani
C14DB C 0.0686(2) -0.1595(2) 0.36886(19) 0.1030 Uani
H11KC H 0.3515 -0.1223 0.0829 0.1540 Uiso
H11AC H 0.4171 -0.1485 0.1223 0.1540 Uiso
H11W H 0.3515 -0.0829 0.3777 0.1540 Uiso
H11C H 0.4171 -0.1223 0.3515 0.1540 Uiso
H11RA H 0.3777 -0.1485 0.4171 0.1540 Uiso
H11ME H 0.1485 0.0829 0.1223 0.1540 Uiso
H11SD H 0.0829 0.1223 0.1485 0.1540 Uiso
H11LD H 0.1223 0.1485 0.0829 0.1540 Uiso
H11UB H 0.1223 -0.0829 0.3515 0.1540 Uiso
H11M H 0.1485 -0.1223 0.4171 0.1540 Uiso
H11DB H 0.0829 -0.1485 0.3777 0.1540 Uiso
H12KC H 0.3384 -0.1187 0.0531 0.1540 Uiso
H12AC H 0.4469 -0.1616 0.1187 0.1540 Uiso
H12W H 0.3384 -0.0531 0.3813 0.1540 Uiso
H12C H 0.4469 -0.1187 0.3384 0.1540 Uiso
H12RA H 0.3813 -0.1616 0.4469 0.1540 Uiso
H12ME H 0.1616 0.0531 0.1187 0.1540 Uiso
H12SD H 0.0531 0.1187 0.1616 0.1540 Uiso
H12LD H 0.1187 0.1616 0.0531 0.1540 Uiso
H12UB H 0.1187 -0.0531 0.3384 0.1540 Uiso
H12M H 0.1616 -0.1187 0.4469 0.1540 Uiso
H12DB H 0.0531 -0.1616 0.3813 0.1540 Uiso
H13KC H 0.3496 -0.1479 0.0626 0.1540 Uiso
H13AC H 0.4374 -0.1504 0.1479 0.1540 Uiso
H13W H 0.3496 -0.0626 0.3521 0.1540 Uiso
H13C H 0.4374 -0.1479 0.3496 0.1540 Uiso
H13RA H 0.3521 -0.1504 0.4374 0.1540 Uiso
H13ME H 0.1504 0.0626 0.1479 0.1540 Uiso
H13SD H 0.0626 0.1479 0.1504 0.1540 Uiso
H13LD H 0.1479 0.1504 0.0626 0.1540 Uiso
H13UB H 0.1479 -0.0626 0.3496 0.1540 Uiso
H13M H 0.1504 -0.1479 0.4374 0.1540 Uiso
H13DB H 0.0626 -0.1504 0.3521 0.1540 Uiso
O1 O 0.3244(4) -0.0588(4) 0.0980(4) 0.3030 Uiso
O13? O 0.1271(4) 0.0141(4) 0.1736(4) 0.3040 Uiso
loop_
_atom_site_aniso_label
_atom_site_aniso_U_11
_atom_site_aniso_U_22
_atom_site_aniso_U_33
_atom_site_aniso_U_23
_atom_site_aniso_U_13
_atom_site_aniso_U_12
Pb1 0.0657(2) 0.0388(2) 0.1164(4) 0.000 0.04001(19) 0.000
O9 0.071(3) 0.076(3) 0.114(4) -0.039(3) -0.019(2) 0.020(2)
O10 0.067(2) 0.059(2) 0.092(3) -0.013(2) -0.010(2) 0.0257(18)
O11 0.068(4) 0.054(6) 0.068(4) 0.000 0.000 0.000
O12 0.070(5) 0.198(12) 0.190(11) 0.000 -0.026(6) 0.000
C1 0.051(3) 0.038(2) 0.090(4) -0.009(2) 0.001(3) -0.006(2)
C2 0.048(2) 0.040(2) 0.079(3) -0.005(2) -0.003(2) -0.0006(19)
C3 0.057(3) 0.043(2) 0.078(3) -0.022(2) -0.010(2) 0.003(2)
C4 0.051(3) 0.049(3) 0.071(3) -0.011(2) -0.010(2) 0.006(2)
C5 0.054(3) 0.050(3) 0.061(3) -0.011(2) -0.011(2) 0.010(2)
C6 0.061(3) 0.056(3) 0.065(3) -0.013(2) -0.013(2) 0.014(2)
C7 0.055(3) 0.054(3) 0.071(3) -0.003(2) -0.007(2) 0.008(2)
C8 0.062(3) 0.055(3) 0.069(3) -0.020(2) -0.017(3) 0.013(2)
C9 0.060(3) 0.049(3) 0.062(3) -0.015(2) -0.017(2) 0.014(2)
C10 0.057(3) 0.052(3) 0.054(3) -0.009(2) -0.012(2) 0.012(2)
C11 0.081(4) 0.072(4) 0.067(3) -0.021(3) -0.016(3) 0.017(3)
C12 0.117(6) 0.096(6) 0.073(4) 0.001(4) -0.001(4) 0.000(5)
C13 0.061(3) 0.058(3) 0.095(4) -0.016(3) -0.020(3) 0.006(3)
C14 0.089(5) 0.104(6) 0.116(6) 0.007(5) -0.007(5) -0.024(5)
Pb1W 0.1164 0.0388 0.0657 0 -0.04001 0
Pb1SA 0.1164 0.0388 0.0657 0 -0.04001 0
Pb1PD 0.0657 0.0388 0.1164 0 0.04001 0
Pb1RD 0.0388 0.1164 0.0657 0.04001 0 0
Pb1P 0.0388 0.0657 0.1164 -0.04001 0 0
Pb1AG 0.1164 0.0657 0.0388 0 0 -0.04001
Pb1JD 0.0657 0.1164 0.0388 0 0 0.04001
Pb1C 0.0388 0.0657 0.1164 -0.04001 0 0
Pb1RA 0.0657 0.1164 0.0388 0 0 -0.04001
Pb1QD 0.1164 0.0657 0.0388 0 0 0.04001
Pb1BA 0.0388 0.0657 0.1164 -0.04001 0 0
Pb1B 0.0388 0.1164 0.0657 0.04001 0 0
Pb1S 0.0657 0.1164 0.0388 0 0 -0.04001
Pb1A 0.1164 0.0657 0.0388 0 0 0.04001
Pb1M 0.1164 0.0657 0.0388 0 0 0.04001
Pb1TE 0.0388 0.1164 0.0657 -0.04001 0 0
Pb1GE 0.0388 0.0657 0.1164 0.04001 0 0
O9SA 0.114 0.076 0.071 -0.02 0.019 -0.039
O9OE 0.071 0.076 0.114 0.039 -0.019 -0.02
O9ME 0.114 0.076 0.071 0.02 0.019 0.039
O9PD 0.071 0.076 0.114 -0.039 -0.019 0.02
O9UB 0.071 0.076 0.114 0.039 -0.019 -0.02
O9W 0.114 0.076 0.071 0.02 0.019 0.039
O9MD 0.114 0.076 0.071 -0.02 0.019 -0.039
O9AC 0.076 0.114 0.071 -0.019 -0.02 0.039
O9KC 0.114 0.071 0.076 -0.02 -0.039 0.019
O9C 0.076 0.071 0.114 0.019 0.039 0.02
O9RA 0.071 0.114 0.076 0.039 0.02 0.019
O9SD 0.076 0.071 0.114 0.019 0.039 0.02
O9LD 0.071 0.114 0.076 0.039 0.02 0.019
O9M 0.114 0.071 0.076 0.02 -0.039 -0.019
O9DB 0.076 0.114 0.071 0.019 -0.02 -0.039
O10OE 0.067 0.059 0.092 0.013 -0.01 -0.0257
O10SA 0.092 0.059 0.067 -0.0257 0.01 -0.013
O10ME 0.092 0.059 0.067 0.0257 0.01 0.013
O10PD 0.067 0.059 0.092 -0.013 -0.01 0.0257
O10UB 0.067 0.059 0.092 0.013 -0.01 -0.0257
O10W 0.092 0.059 0.067 0.0257 0.01 0.013
O10MD 0.092 0.059 0.067 -0.0257 0.01 -0.013
O10AC 0.059 0.092 0.067 -0.01 -0.0257 0.013
O10KC 0.092 0.067 0.059 -0.0257 -0.013 0.01
O10C 0.059 0.067 0.092 0.01 0.013 0.0257
O10RA 0.067 0.092 0.059 0.013 0.0257 0.01
O10SD 0.059 0.067 0.092 0.01 0.013 0.0257
O10LD 0.067 0.092 0.059 0.013 0.0257 0.01
O10M 0.092 0.067 0.059 0.0257 -0.013 -0.01
O10DB 0.059 0.092 0.067 0.01 -0.0257 -0.013
O12SA 0.19 0.198 0.07 0 0.026 0
O12PD 0.07 0.198 0.19 0 -0.026 0
O12W 0.19 0.198 0.07 0 0.026 0
C1AC 0.038 0.09 0.051 0.001 0.006 0.009
C1KC 0.09 0.051 0.038 0.006 -0.009 -0.001
C1W 0.09 0.038 0.051 -0.006 -0.001 0.009
C1C 0.038 0.051 0.09 -0.001 0.009 -0.006
C1RA 0.051 0.09 0.038 0.009 -0.006 -0.001
C1ME 0.09 0.038 0.051 -0.006 -0.001 0.009
C1SD 0.038 0.051 0.09 -0.001 0.009 -0.006
C1LD 0.051 0.09 0.038 0.009 -0.006 -0.001
C1UB 0.051 0.038 0.09 0.009 0.001 0.006
C1M 0.09 0.051 0.038 -0.006 -0.009 0.001
C1DB 0.038 0.09 0.051 -0.001 0.006 -0.009
C2AC 0.04 0.079 0.048 -0.003 0.0006 0.005
C2KC 0.079 0.048 0.04 0.0006 -0.005 0.003
C2W 0.079 0.04 0.048 -0.0006 0.003 0.005
C2C 0.04 0.048 0.079 0.003 0.005 -0.0006
C2RA 0.048 0.079 0.04 0.005 -0.0006 0.003
C2ME 0.079 0.04 0.048 -0.0006 0.003 0.005
C2SD 0.04 0.048 0.079 0.003 0.005 -0.0006
C2LD 0.048 0.079 0.04 0.005 -0.0006 0.003
C2UB 0.048 0.04 0.079 0.005 -0.003 0.0006
C2M 0.079 0.048 0.04 -0.0006 -0.005 -0.003
C2DB 0.04 0.079 0.048 0.003 0.0006 -0.005
C3AC 0.043 0.078 0.057 -0.01 -0.003 0.022
C3KC 0.078 0.057 0.043 -0.003 -0.022 0.01
C3W 0.078 0.043 0.057 0.003 0.01 0.022
C3C 0.043 0.057 0.078 0.01 0.022 0.003
C3RA 0.057 0.078 0.043 0.022 0.003 0.01
C3ME 0.078 0.043 0.057 0.003 0.01 0.022
C3SD 0.043 0.057 0.078 0.01 0.022 0.003
C3LD 0.057 0.078 0.043 0.022 0.003 0.01
C3UB 0.057 0.043 0.078 0.022 -0.01 -0.003
C3M 0.078 0.057 0.043 0.003 -0.022 -0.01
C3DB 0.043 0.078 0.057 0.01 -0.003 -0.022
C4AC 0.049 0.071 0.051 -0.01 -0.006 0.011
C4KC 0.071 0.051 0.049 -0.006 -0.011 0.01
C4W 0.071 0.049 0.051 0.006 0.01 0.011
C4C 0.049 0.051 0.071 0.01 0.011 0.006
C4RA 0.051 0.071 0.049 0.011 0.006 0.01
C4ME 0.071 0.049 0.051 0.006 0.01 0.011
C4SD 0.049 0.051 0.071 0.01 0.011 0.006
C4LD 0.051 0.071 0.049 0.011 0.006 0.01
C4UB 0.051 0.049 0.071 0.011 -0.01 -0.006
C4M 0.071 0.051 0.049 0.006 -0.011 -0.01
C4DB 0.049 0.071 0.051 0.01 -0.006 -0.011
C5AC 0.05 0.061 0.054 -0.011 -0.01 0.011
C5KC 0.061 0.054 0.05 -0.01 -0.011 0.011
C5W 0.061 0.05 0.054 0.01 0.011 0.011
C5RA 0.054 0.061 0.05 0.011 0.01 0.011
C5C 0.05 0.054 0.061 0.011 0.011 0.01
C5ME 0.061 0.05 0.054 0.01 0.011 0.011
C5LD 0.054 0.061 0.05 0.011 0.01 0.011
C5SD 0.05 0.054 0.061 0.011 0.011 0.01
C5UB 0.054 0.05 0.061 0.011 -0.011 -0.01
C5DB 0.05 0.061 0.054 0.011 -0.01 -0.011
C5M 0.061 0.054 0.05 0.01 -0.011 -0.011
C6AC 0.056 0.065 0.061 -0.013 -0.014 0.013
C6KC 0.065 0.061 0.056 -0.014 -0.013 0.013
C6W 0.065 0.056 0.061 0.014 0.013 0.013
C6RA 0.061 0.065 0.056 0.013 0.014 0.013
C6C 0.056 0.061 0.065 0.013 0.013 0.014
C6ME 0.065 0.056 0.061 0.014 0.013 0.013
C6LD 0.061 0.065 0.056 0.013 0.014 0.013
C6SD 0.056 0.061 0.065 0.013 0.013 0.014
C6UB 0.061 0.056 0.065 0.013 -0.013 -0.014
C6DB 0.056 0.065 0.061 0.013 -0.014 -0.013
C6M 0.065 0.061 0.056 0.014 -0.013 -0.013
C7AC 0.054 0.071 0.055 -0.007 -0.008 0.003
C7KC 0.071 0.055 0.054 -0.008 -0.003 0.007
C7W 0.071 0.054 0.055 0.008 0.007 0.003
C7RA 0.055 0.071 0.054 0.003 0.008 0.007
C7C 0.054 0.055 0.071 0.007 0.003 0.008
C7ME 0.071 0.054 0.055 0.008 0.007 0.003
C7LD 0.055 0.071 0.054 0.003 0.008 0.007
C7SD 0.054 0.055 0.071 0.007 0.003 0.008
C7UB 0.055 0.054 0.071 0.003 -0.007 -0.008
C7DB 0.054 0.071 0.055 0.007 -0.008 -0.003
C7M 0.071 0.055 0.054 0.008 -0.003 -0.007
C8KC 0.069 0.062 0.055 -0.013 -0.02 0.017
C8AC 0.055 0.069 0.062 -0.017 -0.013 0.02
C8W 0.069 0.055 0.062 0.013 0.017 0.02
C8C 0.055 0.062 0.069 0.017 0.02 0.013
C8RA 0.062 0.069 0.055 0.02 0.013 0.017
C8ME 0.069 0.055 0.062 0.013 0.017 0.02
C8SD 0.055 0.062 0.069 0.017 0.02 0.013
C8LD 0.062 0.069 0.055 0.02 0.013 0.017
C8UB 0.062 0.055 0.069 0.02 -0.017 -0.013
C8M 0.069 0.062 0.055 0.013 -0.02 -0.017
C8DB 0.055 0.069 0.062 0.017 -0.013 -0.02
C9KC 0.062 0.06 0.049 -0.014 -0.015 0.017
C9AC 0.049 0.062 0.06 -0.017 -0.014 0.015
C9W 0.062 0.049 0.06 0.014 0.017 0.015
C9C 0.049 0.06 0.062 0.017 0.015 0.014
C9RA 0.06 0.062 0.049 0.015 0.014 0.017
C9ME 0.062 0.049 0.06 0.014 0.017 0.015
C9SD 0.049 0.06 0.062 0.017 0.015 0.014
C9LD 0.06 0.062 0.049 0.015 0.014 0.017
C9UB 0.06 0.049 0.062 0.015 -0.017 -0.014
C9M 0.062 0.06 0.049 0.014 -0.015 -0.017
C9DB 0.049 0.062 0.06 0.017 -0.014 -0.015
C10AC 0.052 0.054 0.057 -0.012 -0.012 0.009
C10KC 0.054 0.057 0.052 -0.012 -0.009 0.012
C10W 0.054 0.052 0.057 0.012 0.012 0.009
C10RA 0.057 0.054 0.052 0.009 0.012 0.012
C10C 0.052 0.057 0.054 0.012 0.009 0.012
C10ME 0.054 0.052 0.057 0.012 0.012 0.009
C10LD 0.057 0.054 0.052 0.009 0.012 0.012
C10SD 0.052 0.057 0.054 0.012 0.009 0.012
C10UB 0.057 0.052 0.054 0.009 -0.012 -0.012
C10DB 0.052 0.054 0.057 0.012 -0.012 -0.009
C10M 0.054 0.057 0.052 0.012 -0.009 -0.012
C11KC 0.067 0.081 0.072 -0.017 -0.021 0.016
C11AC 0.072 0.067 0.081 -0.016 -0.017 0.021
C11W 0.067 0.072 0.081 0.017 0.016 0.021
C11C 0.072 0.081 0.067 0.016 0.021 0.017
C11RA 0.081 0.067 0.072 0.021 0.017 0.016
C11ME 0.067 0.072 0.081 0.017 0.016 0.021
C11SD 0.072 0.081 0.067 0.016 0.021 0.017
C11LD 0.081 0.067 0.072 0.021 0.017 0.016
C11UB 0.081 0.072 0.067 0.021 -0.016 -0.017
C11M 0.067 0.081 0.072 0.017 -0.021 -0.016
C11DB 0.072 0.067 0.081 0.016 -0.017 -0.021
C12KC 0.073 0.117 0.096 0 0.001 0.001
C12AC 0.096 0.073 0.117 -0.001 0 -0.001
C12W 0.073 0.096 0.117 0 0.001 -0.001
C12C 0.096 0.117 0.073 0.001 -0.001 0
C12RA 0.117 0.073 0.096 -0.001 0 0.001
C12ME 0.073 0.096 0.117 0 0.001 -0.001
C12SD 0.096 0.117 0.073 0.001 -0.001 0
C12LD 0.117 0.073 0.096 -0.001 0 0.001
C12UB 0.117 0.096 0.073 -0.001 -0.001 0
C12M 0.073 0.117 0.096 0 0.001 -0.001
C12DB 0.096 0.073 0.117 0.001 0 0.001
C13KC 0.095 0.061 0.058 -0.006 -0.016 0.02
C13AC 0.058 0.095 0.061 -0.02 -0.006 0.016
C13W 0.095 0.058 0.061 0.006 0.02 0.016
C13C 0.058 0.061 0.095 0.02 0.016 0.006
C13RA 0.061 0.095 0.058 0.016 0.006 0.02
C13ME 0.095 0.058 0.061 0.006 0.02 0.016
C13SD 0.058 0.061 0.095 0.02 0.016 0.006
C13LD 0.061 0.095 0.058 0.016 0.006 0.02
C13UB 0.061 0.058 0.095 0.016 -0.02 -0.006
C13M 0.095 0.061 0.058 0.006 -0.016 -0.02
C13DB 0.058 0.095 0.061 0.02 -0.006 -0.016
C14KC 0.116 0.089 0.104 0.024 0.007 0.007
C14AC 0.104 0.116 0.089 -0.007 0.024 -0.007
C14W 0.116 0.104 0.089 -0.024 0.007 -0.007
C14C 0.104 0.089 0.116 0.007 -0.007 -0.024
C14RA 0.089 0.116 0.104 -0.007 -0.024 0.007
C14ME 0.116 0.104 0.089 -0.024 0.007 -0.007
C14SD 0.104 0.089 0.116 0.007 -0.007 -0.024
C14LD 0.089 0.116 0.104 -0.007 -0.024 0.007
C14UB 0.089 0.104 0.116 -0.007 -0.007 0.024
C14M 0.116 0.089 0.104 -0.024 0.007 -0.007
C14DB 0.104 0.116 0.089 0.007 0.024 0.007
loop_
_geom_bond_atom_site_label_1
_geom_bond_atom_site_label_2
_geom_bond_site_symmetry_1
_geom_bond_site_symmetry_2
Pb1 O9 1_555 1_555
O9 C1 1_555 1_555
O10 Pb1 1_555 1_555
O11 Pb1 1_555 1_555
O12 Pb1 1_555 1_555
C1 O10 1_555 1_555
C2 C1 1_555 1_555
C3 C2 1_555 1_555
H1 C3 1_555 1_555
C4 C3 1_555 1_555
C5 C4 1_555 1_555
C6 C5 1_555 1_555
H2 C6 1_555 1_555
C7 C2 1_555 1_555
H3 C7 1_555 1_555
C8 C4 1_555 1_555
C9 C8 1_555 1_555
C10 C5 1_555 1_555
C11 C8 1_555 1_555
H4 C11 1_555 1_555
H5 C11 1_555 1_555
C12 C11 1_555 1_555
H6 C12 1_555 1_555
H7 C12 1_555 1_555
H8 C12 1_555 1_555
C13 C8 1_555 1_555
H9 C13 1_555 1_555
H10 C13 1_555 1_555
C14 C13 1_555 1_555
H11 C14 1_555 1_555
H12 C14 1_555 1_555
H13 C14 1_555 1_555
Pb1W O9 1_555 1_555
Pb1SA O11 1_555 1_555
Pb1PD O11 1_555 1_555
Pb1RD O9AC 1_555 1_555
Pb1P O9AC 1_555 1_555
Pb1AG O9KC 1_555 1_555
Pb1JD O9KC 1_555 1_555
Pb1C O9C 1_555 1_555
Pb1RA O9RA 1_555 1_555
Pb1QD O9RA 1_555 1_555
Pb1BA O9SD 1_555 1_555
Pb1B O9SD 1_555 1_555
Pb1S O9LD 1_555 1_555
Pb1A O9LD 1_555 1_555
Pb1M O9M 1_555 1_555
Pb1TE O9DB 1_555 1_555
Pb1GE O9DB 1_555 1_555
O9SA Pb1 1_555 1_555
O9OE Pb1 1_555 1_555
O9ME Pb1 1_555 1_555
O9PD Pb1SA 1_555 1_555
O9UB Pb1SA 1_555 1_555
O9W Pb1W 1_555 1_555
O9MD Pb1W 1_555 1_555
O9AC C1AC 1_555 1_555
O9KC C1KC 1_555 1_555
O9C Pb1RD 1_555 1_555
O9RA C1RA 1_555 1_555
O9SD C1SD 1_555 1_555
O9LD C1LD 1_555 1_555
O9M Pb1RA 1_555 1_555
O9DB C1DB 1_555 1_555
O10OE Pb1 1_555 1_555
O10SA Pb1SA 1_555 1_555
O10ME Pb1SA 1_555 1_555
O10PD Pb1PD 1_555 1_555
O10UB Pb1PD 1_555 1_555
O10W Pb1W 1_555 1_555
O10MD Pb1W 1_555 1_555
O10AC Pb1RD 1_555 1_555
O10KC Pb1AG 1_555 1_555
O10C Pb1C 1_555 1_555
O10RA Pb1RA 1_555 1_555
O10SD Pb1BA 1_555 1_555
O10LD Pb1S 1_555 1_555
O10M Pb1M 1_555 1_555
O10DB Pb1TE 1_555 1_555
O12SA Pb1SA 1_555 1_555
O12PD Pb1PD 1_555 1_555
O12W Pb1W 1_555 1_555
C1AC O10AC 1_555 1_555
C1KC O10KC 1_555 1_555
C1W O9W 1_555 1_555
C1C O9C 1_555 1_555
C1RA O10RA 1_555 1_555
C1ME O9ME 1_555 1_555
C1SD O10SD 1_555 1_555
C1LD O10LD 1_555 1_555
C1UB O9UB 1_555 1_555
C1M O9M 1_555 1_555
C1DB O10DB 1_555 1_555
C2AC C1AC 1_555 1_555
C2KC C1KC 1_555 1_555
C2W C1W 1_555 1_555
C2C C1C 1_555 1_555
C2RA C1RA 1_555 1_555
C2ME C1ME 1_555 1_555
C2SD C1SD 1_555 1_555
C2LD C1LD 1_555 1_555
C2UB C1UB 1_555 1_555
C2M C1M 1_555 1_555
C2DB C1DB 1_555 1_555
C3AC C2AC 1_555 1_555
C3KC C2KC 1_555 1_555
C3W C2W 1_555 1_555
C3C C2C 1_555 1_555
C3RA C2RA 1_555 1_555
C3ME C2ME 1_555 1_555
C3SD C2SD 1_555 1_555
C3LD C2LD 1_555 1_555
C3UB C2UB 1_555 1_555
C3M C2M 1_555 1_555
C3DB C2DB 1_555 1_555
H1AC C3AC 1_555 1_555
H1KC C3KC 1_555 1_555
H1W C3W 1_555 1_555
H1C C3C 1_555 1_555
H1RA C3RA 1_555 1_555
H1ME C3ME 1_555 1_555
H1SD C3SD 1_555 1_555
H1LD C3LD 1_555 1_555
H1UB C3UB 1_555 1_555
H1M C3M 1_555 1_555
H1DB C3DB 1_555 1_555
C4AC C3AC 1_555 1_555
C4KC C3KC 1_555 1_555
C4W C3W 1_555 1_555
C4C C3C 1_555 1_555
C4RA C3RA 1_555 1_555
C4ME C3ME 1_555 1_555
C4SD C3SD 1_555 1_555
C4LD C3LD 1_555 1_555
C4UB C3UB 1_555 1_555
C4M C3M 1_555 1_555
C4DB C3DB 1_555 1_555
C5AC C4AC 1_555 1_555
C5KC C4KC 1_555 1_555
C5W C4W 1_555 1_555
C5RA C4RA 1_555 1_555
C5C C4C 1_555 1_555
C5ME C4ME 1_555 1_555
C5LD C4LD 1_555 1_555
C5SD C4SD 1_555 1_555
C5UB C4UB 1_555 1_555
C5DB C4DB 1_555 1_555
C5M C4M 1_555 1_555
C6AC C5AC 1_555 1_555
C6KC C5KC 1_555 1_555
C6W C5W 1_555 1_555
C6RA C5RA 1_555 1_555
C6C C5C 1_555 1_555
C6ME C5ME 1_555 1_555
C6LD C5LD 1_555 1_555
C6SD C5SD 1_555 1_555
C6UB C5UB 1_555 1_555
C6DB C5DB 1_555 1_555
C6M C5M 1_555 1_555
H2AC C6AC 1_555 1_555
H2KC C6KC 1_555 1_555
H2W C6W 1_555 1_555
H2RA C6RA 1_555 1_555
H2C C6C 1_555 1_555
H2ME C6ME 1_555 1_555
H2LD C6LD 1_555 1_555
H2SD C6SD 1_555 1_555
H2UB C6UB 1_555 1_555
H2DB C6DB 1_555 1_555
H2M C6M 1_555 1_555
C7AC C2AC 1_555 1_555
C7KC C2KC 1_555 1_555
C7W C2W 1_555 1_555
C7RA C2RA 1_555 1_555
C7C C2C 1_555 1_555
C7ME C2ME 1_555 1_555
C7LD C2LD 1_555 1_555
C7SD C2SD 1_555 1_555
C7UB C2UB 1_555 1_555
C7DB C2DB 1_555 1_555
C7M C2M 1_555 1_555
H3AC C7AC 1_555 1_555
H3KC C7KC 1_555 1_555
H3W C7W 1_555 1_555
H3RA C7RA 1_555 1_555
H3C C7C 1_555 1_555
H3ME C7ME 1_555 1_555
H3LD C7LD 1_555 1_555
H3SD C7SD 1_555 1_555
H3UB C7UB 1_555 1_555
H3DB C7DB 1_555 1_555
H3M C7M 1_555 1_555
C8KC C4KC 1_555 1_555
C8AC C4AC 1_555 1_555
C8W C4W 1_555 1_555
C8C C4C 1_555 1_555
C8RA C4RA 1_555 1_555
C8ME C4ME 1_555 1_555
C8SD C4SD 1_555 1_555
C8LD C4LD 1_555 1_555
C8UB C4UB 1_555 1_555
C8M C4M 1_555 1_555
C8DB C4DB 1_555 1_555
C9KC C10 1_555 1_555
C9AC C8AC 1_555 1_555
C9W C8W 1_555 1_555
C9C C8C 1_555 1_555
C9RA C8RA 1_555 1_555
C9ME C8ME 1_555 1_555
C9SD C8SD 1_555 1_555
C9LD C8LD 1_555 1_555
C9UB C8UB 1_555 1_555
C9M C8M 1_555 1_555
C9DB C8DB 1_555 1_555
C10AC C9 1_555 1_555
C10KC C5KC 1_555 1_555
C10W C5W 1_555 1_555
C10RA C5RA 1_555 1_555
C10C C5C 1_555 1_555
C10ME C5ME 1_555 1_555
C10LD C5LD 1_555 1_555
C10SD C5SD 1_555 1_555
C10UB C5UB 1_555 1_555
C10DB C5DB 1_555 1_555
C10M C5M 1_555 1_555
C11KC C8KC 1_555 1_555
C11AC C8AC 1_555 1_555
C11W C8W 1_555 1_555
C11C C8C 1_555 1_555
C11RA C8RA 1_555 1_555
C11ME C8ME 1_555 1_555
C11SD C8SD 1_555 1_555
C11LD C8LD 1_555 1_555
C11UB C8UB 1_555 1_555
C11M C8M 1_555 1_555
C11DB C8DB 1_555 1_555
H4KC C11KC 1_555 1_555
H4AC C11AC 1_555 1_555
H4W C11W 1_555 1_555
H4C C11C 1_555 1_555
H4RA C11RA 1_555 1_555
H4ME C11ME 1_555 1_555
H4SD C11SD 1_555 1_555
H4LD C11LD 1_555 1_555
H4UB C11UB 1_555 1_555
H4M C11M 1_555 1_555
H4DB C11DB 1_555 1_555
H5KC C11KC 1_555 1_555
H5AC C11AC 1_555 1_555
H5W C11W 1_555 1_555
H5C C11C 1_555 1_555
H5RA C11RA 1_555 1_555
H5ME C11ME 1_555 1_555
H5SD C11SD 1_555 1_555
H5LD C11LD 1_555 1_555
H5UB C11UB 1_555 1_555
H5M C11M 1_555 1_555
H5DB C11DB 1_555 1_555
C12KC C11KC 1_555 1_555
C12AC C11AC 1_555 1_555
C12W C11W 1_555 1_555
C12C C11C 1_555 1_555
C12RA C11RA 1_555 1_555
C12ME C11ME 1_555 1_555
C12SD C11SD 1_555 1_555
C12LD C11LD 1_555 1_555
C12UB C11UB 1_555 1_555
C12M C11M 1_555 1_555
C12DB C11DB 1_555 1_555
H6KC C12KC 1_555 1_555
H6AC C12AC 1_555 1_555
H6W C12W 1_555 1_555
H6C C12C 1_555 1_555
H6RA C12RA 1_555 1_555
H6ME C12ME 1_555 1_555
H6SD C12SD 1_555 1_555
H6LD C12LD 1_555 1_555
H6UB C12UB 1_555 1_555
H6M C12M 1_555 1_555
H6DB C12DB 1_555 1_555
H7KC C12KC 1_555 1_555
H7AC C12AC 1_555 1_555
H7W C12W 1_555 1_555
H7C C12C 1_555 1_555
H7RA C12RA 1_555 1_555
H7ME C12ME 1_555 1_555
H7SD C12SD 1_555 1_555
H7LD C12LD 1_555 1_555
H7UB C12UB 1_555 1_555
H7M C12M 1_555 1_555
H7DB C12DB 1_555 1_555
H8KC C12KC 1_555 1_555
H8AC C12AC 1_555 1_555
H8W C12W 1_555 1_555
H8C C12C 1_555 1_555
H8RA C12RA 1_555 1_555
H8ME C12ME 1_555 1_555
H8SD C12SD 1_555 1_555
H8LD C12LD 1_555 1_555
H8UB C12UB 1_555 1_555
H8M C12M 1_555 1_555
H8DB C12DB 1_555 1_555
C13KC C8KC 1_555 1_555
C13AC C8AC 1_555 1_555
C13W C8W 1_555 1_555
C13C C8C 1_555 1_555
C13RA C8RA 1_555 1_555
C13ME C8ME 1_555 1_555
C13SD C8SD 1_555 1_555
C13LD C8LD 1_555 1_555
C13UB C8UB 1_555 1_555
C13M C8M 1_555 1_555
C13DB C8DB 1_555 1_555
H9KC C13KC 1_555 1_555
H9AC C13AC 1_555 1_555
H9W C13W 1_555 1_555
H9C C13C 1_555 1_555
H9RA C13RA 1_555 1_555
H9ME C13ME 1_555 1_555
H9SD C13SD 1_555 1_555
H9LD C13LD 1_555 1_555
H9UB C13UB 1_555 1_555
H9M C13M 1_555 1_555
H9DB C13DB 1_555 1_555
H10KC C13KC 1_555 1_555
H10AC C13AC 1_555 1_555
H10W C13W 1_555 1_555
H10C C13C 1_555 1_555
H10RA C13RA 1_555 1_555
H10ME C13ME 1_555 1_555
H10SD C13SD 1_555 1_555
H10LD C13LD 1_555 1_555
H10UB C13UB 1_555 1_555
H10M C13M 1_555 1_555
H10DB C13DB 1_555 1_555
C14KC C13KC 1_555 1_555
C14AC C13AC 1_555 1_555
C14W C13W 1_555 1_555
C14C C13C 1_555 1_555
C14RA C13RA 1_555 1_555
C14ME C13ME 1_555 1_555
C14SD C13SD 1_555 1_555
C14LD C13LD 1_555 1_555
C14UB C13UB 1_555 1_555
C14M C13M 1_555 1_555
C14DB C13DB 1_555 1_555
H11KC C14KC 1_555 1_555
H11AC C14AC 1_555 1_555
H11W C14W 1_555 1_555
H11C C14C 1_555 1_555
H11RA C14RA 1_555 1_555
H11ME C14ME 1_555 1_555
H11SD C14SD 1_555 1_555
H11LD C14LD 1_555 1_555
H11UB C14UB 1_555 1_555
H11M C14M 1_555 1_555
H11DB C14DB 1_555 1_555
H12KC C14KC 1_555 1_555
H12AC C14AC 1_555 1_555
H12W C14W 1_555 1_555
H12C C14C 1_555 1_555
H12RA C14RA 1_555 1_555
H12ME C14ME 1_555 1_555
H12SD C14SD 1_555 1_555
H12LD C14LD 1_555 1_555
H12UB C14UB 1_555 1_555
H12M C14M 1_555 1_555
H12DB C14DB 1_555 1_555
H13KC C14KC 1_555 1_555
H13AC C14AC 1_555 1_555
H13W C14W 1_555 1_555
H13C C14C 1_555 1_555
H13RA C14RA 1_555 1_555
H13ME C14ME 1_555 1_555
H13SD C14SD 1_555 1_555
H13LD C14LD 1_555 1_555
H13UB C14UB 1_555 1_555
H13M C14M 1_555 1_555
H13DB C14DB 1_555 1_555
O11 Pb1W 1_555 1_555
C6 C7 1_555 1_555
C9 C10 1_555 1_555
Pb1W O9OE 1_555 1_555
Pb1SA O9SA 1_555 1_555
Pb1SA O9ME 1_555 1_555
Pb1PD O9PD 1_555 1_555
Pb1PD O9UB 1_555 1_555
Pb1PD O9W 1_555 1_555
Pb1PD O9MD 1_555 1_555
O10ME C1ME 1_555 1_555
O10UB C1UB 1_555 1_555
O10W C1W 1_555 1_555
O10C C1C 1_555 1_555
O10M C1M 1_555 1_555
C5AC C10AC 1_555 1_555
C6AC C7AC 1_555 1_555
C6KC C7KC 1_555 1_555
C6W C7W 1_555 1_555
C6RA C7RA 1_555 1_555
C6C C7C 1_555 1_555
C6ME C7ME 1_555 1_555
C6LD C7LD 1_555 1_555
C6SD C7SD 1_555 1_555
C6UB C7UB 1_555 1_555
C6DB C7DB 1_555 1_555
C6M C7M 1_555 1_555
C8KC C9KC 1_555 1_555
C9KC C10KC 1_555 1_555
C9AC C10AC 1_555 1_555
C9AC C10KC 1_555 1_555
C9W C10W 1_555 1_555
C9W C10RA 1_555 1_555
C9C C10W 1_555 1_555
C9C C10C 1_555 1_555
C9RA C10RA 1_555 1_555
C9RA C10C 1_555 1_555
C9ME C10ME 1_555 1_555
C9ME C10LD 1_555 1_555
C9SD C10ME 1_555 1_555
C9SD C10SD 1_555 1_555
C9LD C10LD 1_555 1_555
C9LD C10SD 1_555 1_555
C9UB C10UB 1_555 1_555
C9UB C10DB 1_555 1_555
C9M C10UB 1_555 1_555
C9M C10M 1_555 1_555
C9DB C10DB 1_555 1_555
C9DB C10M 1_555 1_555

#END
