
#######################################################################
#
#                 Cambridge Crystallographic Data Centre
#                                CCDC 
#
#######################################################################
#
# If this CIF has been generated from an entry in the Cambridge 
# Structural Database, then it will include bibliographic, chemical, 
# crystal, experimental, refinement or atomic coordinate data resulting 
# from the CCDC's data processing and validation procedures.
#
#######################################################################

data_BOXFOK
_chemical_name_common            
'catena-(octakis(mu!6$-5,5,10,10,15,15-Hexaethyltruxene-2,7,12-tricarboxylato)-tris(mu!4$-hydroxo)-dodecakis(methanol)-dodeca-dysprosium(iii) nonanitrate methanol solvate monohydrate)'
_chemical_formula_moiety         
'(C348 H363 Dy12 O63 9+)n,9n(N1 O3 1-),n(C1 H4 O1),n(H2 O1)'
_chemical_name_systematic        
"catena-(octakis(\m~6~-5,5,10,10,15,15-Hexaethyl-10,15-dihydro-5H-diindeno[1,2-a:1',2'-c]fluorene-2,7,12-tricarboxylato)-tris(\m~4~-hydroxo)-dodecakis(methanol)-dodeca-dysprosium(iii) nonanitrate methanol solvate monohydrate)"
_symmetry_cell_setting           cubic
_symmetry_space_group_name_H-M   'F m -3 c'
_symmetry_Int_Tables_number      226
_space_group_name_Hall           '-F 4a 2 3'
loop_
_symmetry_equiv_pos_site_id
_symmetry_equiv_pos_as_xyz
1 x,y,z
2 z,x,y
3 y,z,x
4 1/2+y,1/2+x,1/2-z
5 1/2+y,1/2-x,1/2+z
6 1/2-y,1/2+x,1/2+z
7 1/2+x,1/2+z,1/2-y
8 1/2-x,1/2+z,1/2+y
9 1/2+x,1/2-z,1/2+y
10 1/2+z,1/2+y,1/2-x
11 1/2+z,1/2-y,1/2+x
12 1/2-z,1/2+y,1/2+x
13 x,1/2+y,1/2+z
14 z,1/2+x,1/2+y
15 y,1/2+z,1/2+x
16 1/2+y,x,-z
17 1/2+y,-x,z
18 1/2-y,x,z
19 1/2+x,z,-y
20 1/2-x,z,y
21 1/2+x,-z,y
22 1/2+z,y,-x
23 1/2+z,-y,x
24 1/2-z,y,x
25 1/2+x,y,1/2+z
26 1/2+z,x,1/2+y
27 1/2+y,z,1/2+x
28 y,1/2+x,-z
29 y,1/2-x,z
30 -y,1/2+x,z
31 x,1/2+z,-y
32 -x,1/2+z,y
33 x,1/2-z,y
34 z,1/2+y,-x
35 z,1/2-y,x
36 -z,1/2+y,x
37 1/2+x,1/2+y,z
38 1/2+z,1/2+x,y
39 1/2+y,1/2+z,x
40 y,x,1/2-z
41 y,-x,1/2+z
42 -y,x,1/2+z
43 x,z,1/2-y
44 -x,z,1/2+y
45 x,-z,1/2+y
46 z,y,1/2-x
47 z,-y,1/2+x
48 -z,y,1/2+x
49 -x,-y,z
50 -x,y,-z
51 x,-y,-z
52 z,-x,-y
53 -z,-x,y
54 -z,x,-y
55 -y,z,-x
56 y,-z,-x
57 -y,-z,x
58 1/2-y,1/2-x,1/2-z
59 1/2-x,1/2-z,1/2-y
60 1/2-z,1/2-y,1/2-x
61 -x,1/2-y,1/2+z
62 -x,1/2+y,1/2-z
63 x,1/2-y,1/2-z
64 z,1/2-x,1/2-y
65 -z,1/2-x,1/2+y
66 -z,1/2+x,1/2-y
67 -y,1/2+z,1/2-x
68 y,1/2-z,1/2-x
69 -y,1/2-z,1/2+x
70 1/2-y,-x,-z
71 1/2-x,-z,-y
72 1/2-z,-y,-x
73 1/2-x,-y,1/2+z
74 1/2-x,y,1/2-z
75 1/2+x,-y,1/2-z
76 1/2+z,-x,1/2-y
77 1/2-z,-x,1/2+y
78 1/2-z,x,1/2-y
79 1/2-y,z,1/2-x
80 1/2+y,-z,1/2-x
81 1/2-y,-z,1/2+x
82 -y,1/2-x,-z
83 -x,1/2-z,-y
84 -z,1/2-y,-x
85 1/2-x,1/2-y,z
86 1/2-x,1/2+y,-z
87 1/2+x,1/2-y,-z
88 1/2+z,1/2-x,-y
89 1/2-z,1/2-x,y
90 1/2-z,1/2+x,-y
91 1/2-y,1/2+z,-x
92 1/2+y,1/2-z,-x
93 1/2-y,1/2-z,x
94 -y,-x,1/2-z
95 -x,-z,1/2-y
96 -z,-y,1/2-x
97 -x,-y,-z
98 -z,-x,-y
99 -y,-z,-x
100 1/2-y,1/2-x,1/2+z
101 1/2-y,1/2+x,1/2-z
102 1/2+y,1/2-x,1/2-z
103 1/2-x,1/2-z,1/2+y
104 1/2+x,1/2-z,1/2-y
105 1/2-x,1/2+z,1/2-y
106 1/2-z,1/2-y,1/2+x
107 1/2-z,1/2+y,1/2-x
108 1/2+z,1/2-y,1/2-x
109 -x,1/2-y,1/2-z
110 -z,1/2-x,1/2-y
111 -y,1/2-z,1/2-x
112 1/2-y,-x,z
113 1/2-y,x,-z
114 1/2+y,-x,-z
115 1/2-x,-z,y
116 1/2+x,-z,-y
117 1/2-x,z,-y
118 1/2-z,-y,x
119 1/2-z,y,-x
120 1/2+z,-y,-x
121 1/2-x,-y,1/2-z
122 1/2-z,-x,1/2-y
123 1/2-y,-z,1/2-x
124 -y,1/2-x,z
125 -y,1/2+x,-z
126 y,1/2-x,-z
127 -x,1/2-z,y
128 x,1/2-z,-y
129 -x,1/2+z,-y
130 -z,1/2-y,x
131 -z,1/2+y,-x
132 z,1/2-y,-x
133 1/2-x,1/2-y,-z
134 1/2-z,1/2-x,-y
135 1/2-y,1/2-z,-x
136 -y,-x,1/2+z
137 -y,x,1/2-z
138 y,-x,1/2-z
139 -x,-z,1/2+y
140 x,-z,1/2-y
141 -x,z,1/2-y
142 -z,-y,1/2+x
143 -z,y,1/2-x
144 z,-y,1/2-x
145 x,y,-z
146 x,-y,z
147 -x,y,z
148 -z,x,y
149 z,x,-y
150 z,-x,y
151 y,-z,x
152 -y,z,x
153 y,z,-x
154 1/2+y,1/2+x,1/2+z
155 1/2+x,1/2+z,1/2+y
156 1/2+z,1/2+y,1/2+x
157 x,1/2+y,1/2-z
158 x,1/2-y,1/2+z
159 -x,1/2+y,1/2+z
160 -z,1/2+x,1/2+y
161 z,1/2+x,1/2-y
162 z,1/2-x,1/2+y
163 y,1/2-z,1/2+x
164 -y,1/2+z,1/2+x
165 y,1/2+z,1/2-x
166 1/2+y,x,z
167 1/2+x,z,y
168 1/2+z,y,x
169 1/2+x,y,1/2-z
170 1/2+x,-y,1/2+z
171 1/2-x,y,1/2+z
172 1/2-z,x,1/2+y
173 1/2+z,x,1/2-y
174 1/2+z,-x,1/2+y
175 1/2+y,-z,1/2+x
176 1/2-y,z,1/2+x
177 1/2+y,z,1/2-x
178 y,1/2+x,z
179 x,1/2+z,y
180 z,1/2+y,x
181 1/2+x,1/2+y,-z
182 1/2+x,1/2-y,z
183 1/2-x,1/2+y,z
184 1/2-z,1/2+x,y
185 1/2+z,1/2+x,-y
186 1/2+z,1/2-x,y
187 1/2+y,1/2-z,x
188 1/2-y,1/2+z,x
189 1/2+y,1/2+z,-x
190 y,x,1/2+z
191 x,z,1/2+y
192 z,y,1/2+x
_cell_length_a                   49.267(6)
_cell_length_b                   49.267(6)
_cell_length_c                   49.267(6)
_cell_angle_alpha                90
_cell_angle_beta                 90
_cell_angle_gamma                90
_cell_volume                     119583
_exptl_crystal_colour            colorless
_exptl_crystal_description       block
_cell_formula_units_Z            8
loop_
_atom_site_label
_atom_site_type_symbol
_atom_site_fract_x
_atom_site_fract_y
_atom_site_fract_z
_atom_site_U_iso_or_equiv
_atom_site_thermal_displace_type
O2 O 0.0000 0.2285(11) 0.1210(14) 0.5600 Uiso
Dy1 Dy 0.0000 0.26791(3) 0.20933(3) 0.0708 Uani
O3 O 0.02988(13) 0.22943(12) 0.20625(15) 0.1237 Uani
O4 O 0.03384(9) 0.25795(10) 0.17263(9) 0.0810 Uani
O5 O 0.0000 0.2500 0.2500 0.3500 Uiso
C1 C 0.04071(12) 0.23657(14) 0.18309(14) 0.0750 Uani
C2 C 0.06307(12) 0.21969(12) 0.17216(13) 0.0747 Uani
C3 C 0.07203(12) 0.19695(12) 0.18653(13) 0.0790 Uani
H1 H 0.0635 0.1918 0.2030 0.0950 Uiso
C4 C 0.09385(11) 0.18185(12) 0.17614(13) 0.0720 Uani
C5 C 0.10706(12) 0.18939(12) 0.15197(13) 0.0710 Uani
C6 C 0.09749(13) 0.21214(13) 0.13803(13) 0.0757 Uani
H2 H 0.1059 0.2176 0.1216 0.0910 Uiso
C7 C 0.07576(13) 0.22670(12) 0.14815(13) 0.0740 Uani
H3 H 0.0694 0.2420 0.1383 0.0890 Uiso
C8 C 0.10558(12) 0.15664(14) 0.18874(13) 0.0767 Uani
C9 C 0.12838(12) 0.15022(12) 0.16898(12) 0.0710 Uani
C10 C 0.12949(12) 0.16967(12) 0.14761(12) 0.0690 Uani
C11 C 0.08286(15) 0.13500(15) 0.18976(18) 0.0987 Uani
H4 H 0.0901 0.1183 0.1983 0.1180 Uiso
H5 H 0.0679 0.1418 0.2013 0.1180 Uiso
C12 C 0.07131(19) 0.12767(19) 0.1616(2) 0.1147 Uani
H6 H 0.0648 0.1442 0.1526 0.1720 Uiso
H7 H 0.0562 0.1149 0.1637 0.1720 Uiso
H8 H 0.0856 0.1193 0.1505 0.1720 Uiso
C13 C 0.11651(15) 0.16399(15) 0.21744(14) 0.0897 Uani
H9 H 0.1012 0.1707 0.2286 0.1070 Uiso
H10 H 0.1235 0.1472 0.2261 0.1070 Uiso
C14 C 0.13871(18) 0.1851(2) 0.21783(17) 0.1103 Uani
H11 H 0.1552 0.1775 0.2097 0.1660 Uiso
H12 H 0.1425 0.1904 0.2366 0.1660 Uiso
H13 H 0.1329 0.2010 0.2075 0.1660 Uiso
O6 O 0.0000 0.3050(3) 0.1760(3) 0.1050 Uani
C15 C 0.0000 0.3293(9) 0.1906(9) 0.1650 Uiso
Dy1PA Dy 0.0000 0.20933(3) 0.23209(3) 0.0708 Uani
Dy1FA Dy 0.0000 0.29067(3) 0.26791(3) 0.0708 Uani
Dy1DD Dy 0.0000 0.23209(3) 0.29067(3) 0.0708 Uani
Dy1A Dy 0.20933(3) 0.0000 0.26791(3) 0.0708 Uani
Dy1Q Dy 0.23209(3) 0.0000 0.20933(3) 0.0708 Uani
Dy1B Dy 0.26791(3) 0.20933(3) 0.0000 0.0708 Uani
Dy1HA Dy 0.20933(3) 0.23209(3) 0.0000 0.0708 Uani
Dy1CA Dy -0.26791(3) 0.5000 0.20933(3) 0.0708 Uani
Dy1ED Dy -0.20933(3) 0.5000 0.23209(3) 0.0708 Uani
Dy1YD Dy -0.20933(3) 0.23209(3) 0.0000 0.0708 Uani
Dy1DG Dy -0.23209(3) 0.29067(3) 0.0000 0.0708 Uani
Dy1FD Dy -0.26791(3) 0.29067(3) 0.5000 0.0708 Uani
Dy1UA Dy -0.20933(3) 0.26791(3) 0.5000 0.0708 Uani
Dy1C Dy -0.23209(3) 0.5000 0.29067(3) 0.0708 Uani
Dy1MA Dy 0.26791(3) 0.0000 0.29067(3) 0.0708 Uani
Dy1SA Dy 0.20933(3) 0.26791(3) 0.5000 0.0708 Uani
Dy1SF Dy 0.23209(3) 0.20933(3) 0.5000 0.0708 Uani
O3FA O 0.02988(13) 0.29375(15) 0.22943(12) 0.1237 Uani
O3PE O -0.02988(13) 0.22943(12) 0.20625(15) 0.1237 Uani
O3VD O -0.02988(13) 0.29375(15) 0.22943(12) 0.1237 Uani
O3PA O 0.02988(13) 0.20625(15) 0.27057(12) 0.1237 Uani
O3JE O -0.02988(13) 0.20625(15) 0.27057(12) 0.1237 Uani
O3DD O -0.02988(13) 0.27057(12) 0.29375(15) 0.1237 Uani
O3JB O 0.02988(13) 0.27057(12) 0.29375(15) 0.1237 Uani
O3A O 0.20625(15) 0.02988(13) 0.22943(12) 0.1237 Uani
O3B O 0.22943(12) 0.20625(15) 0.02988(13) 0.1237 Uani
O3SD O -0.22943(12) 0.47012(13) 0.20625(15) 0.1237 Uani
O3YD O -0.20625(15) 0.27057(12) 0.02988(13) 0.1237 Uani
O3FD O -0.22943(12) 0.29375(15) 0.47012(13) 0.1237 Uani
O3ED O -0.20625(15) 0.47012(13) 0.27057(12) 0.1237 Uani
O3MA O 0.22943(12) 0.02988(13) 0.29375(15) 0.1237 Uani
O3SA O 0.20625(15) 0.22943(12) 0.47012(13) 0.1237 Uani
O4PE O -0.03384(9) 0.25795(10) 0.17263(9) 0.0810 Uani
O4PA O 0.03384(9) 0.17263(9) 0.24205(10) 0.0810 Uani
O4JE O -0.03384(9) 0.17263(9) 0.24205(10) 0.0810 Uani
O4FA O 0.03384(9) 0.32737(9) 0.25795(10) 0.0810 Uani
O4VD O -0.03384(9) 0.32737(9) 0.25795(10) 0.0810 Uani
O4DD O -0.03384(9) 0.24205(10) 0.32737(9) 0.0810 Uani
O4JB O 0.03384(9) 0.24205(10) 0.32737(9) 0.0810 Uani
O4A O 0.17263(9) 0.03384(9) 0.25795(10) 0.0810 Uani
O4B O 0.25795(10) 0.17263(9) 0.03384(9) 0.0810 Uani
O4SD O -0.25795(10) 0.46616(9) 0.17263(9) 0.0810 Uani
O4YD O -0.17263(9) 0.24205(10) 0.03384(9) 0.0810 Uani
O4FD O -0.25795(10) 0.32737(9) 0.46616(9) 0.0810 Uani
O4ED O -0.17263(9) 0.46616(9) 0.24205(10) 0.0810 Uani
O4MA O 0.25795(10) 0.03384(9) 0.32737(9) 0.0810 Uani
O4SA O 0.17263(9) 0.25795(10) 0.46616(9) 0.0810 Uani
C1VD C -0.04071(12) 0.31691(14) 0.23657(14) 0.0750 Uani
C1DD C -0.04071(12) 0.26343(14) 0.31691(14) 0.0750 Uani
C1PA C 0.04071(12) 0.18309(14) 0.26343(14) 0.0750 Uani
C1A C 0.18309(14) 0.04071(12) 0.23657(14) 0.0750 Uani
C1B C 0.23657(14) 0.18309(14) 0.04071(12) 0.0750 Uani
C1SD C -0.23657(14) 0.45929(12) 0.18309(14) 0.0750 Uani
C1YD C -0.18309(14) 0.26343(14) 0.04071(12) 0.0750 Uani
C1FD C -0.23657(14) 0.31691(14) 0.45929(12) 0.0750 Uani
C1ED C -0.18309(14) 0.45929(12) 0.26343(14) 0.0750 Uani
C1MA C 0.23657(14) 0.04071(12) 0.31691(14) 0.0750 Uani
C1SA C 0.18309(14) 0.23657(14) 0.45929(12) 0.0750 Uani
C2VD C -0.06307(12) 0.32784(13) 0.21969(12) 0.0747 Uani
C2DD C -0.06307(12) 0.28031(12) 0.32784(13) 0.0747 Uani
C2PA C 0.06307(12) 0.17216(13) 0.28031(12) 0.0747 Uani
C2A C 0.17216(13) 0.06307(12) 0.21969(12) 0.0747 Uani
C2B C 0.21969(12) 0.17216(13) 0.06307(12) 0.0747 Uani
C2SD C -0.21969(12) 0.43693(12) 0.17216(13) 0.0747 Uani
C2YD C -0.17216(13) 0.28031(12) 0.06307(12) 0.0747 Uani
C2FD C -0.21969(12) 0.32784(13) 0.43693(12) 0.0747 Uani
C2ED C -0.17216(13) 0.43693(12) 0.28031(12) 0.0747 Uani
C2MA C 0.21969(12) 0.06307(12) 0.32784(13) 0.0747 Uani
C2SA C 0.17216(13) 0.21969(12) 0.43693(12) 0.0747 Uani
C3VD C -0.07203(12) 0.31347(13) 0.19695(12) 0.0790 Uani
C3DD C -0.07203(12) 0.30305(12) 0.31347(13) 0.0790 Uani
C3PA C 0.07203(12) 0.18653(13) 0.30305(12) 0.0790 Uani
C3A C 0.18653(13) 0.07203(12) 0.19695(12) 0.0790 Uani
C3B C 0.19695(12) 0.18653(13) 0.07203(12) 0.0790 Uani
C3SD C -0.19695(12) 0.42797(12) 0.18653(13) 0.0790 Uani
C3YD C -0.18653(13) 0.30305(12) 0.07203(12) 0.0790 Uani
C3FD C -0.19695(12) 0.31347(13) 0.42797(12) 0.0790 Uani
C3ED C -0.18653(13) 0.42797(12) 0.30305(12) 0.0790 Uani
C3MA C 0.19695(12) 0.07203(12) 0.31347(13) 0.0790 Uani
C3SA C 0.18653(13) 0.19695(12) 0.42797(12) 0.0790 Uani
H1VD H -0.0635 0.2970 0.1918 0.0950 Uiso
H1DD H -0.0635 0.3082 0.2970 0.0950 Uiso
H1PA H 0.0635 0.2030 0.3082 0.0950 Uiso
H1A H 0.2030 0.0635 0.1918 0.0950 Uiso
H1B H 0.1918 0.2030 0.0635 0.0950 Uiso
H1SD H -0.1918 0.4365 0.2030 0.0950 Uiso
H1YD H -0.2030 0.3082 0.0635 0.0950 Uiso
H1FD H -0.1918 0.2970 0.4365 0.0950 Uiso
H1ED H -0.2030 0.4365 0.3082 0.0950 Uiso
H1MA H 0.1918 0.0635 0.2970 0.0950 Uiso
H1SA H 0.2030 0.1918 0.4365 0.0950 Uiso
C4A C 0.17614(13) 0.09385(11) 0.18185(12) 0.0720 Uani
C4B C 0.18185(12) 0.17614(13) 0.09385(11) 0.0720 Uani
C4VD C -0.09385(11) 0.32386(13) 0.18185(12) 0.0720 Uani
C4DD C -0.09385(11) 0.31815(12) 0.32386(13) 0.0720 Uani
C4PA C 0.09385(11) 0.17614(13) 0.31815(12) 0.0720 Uani
C4SD C -0.18185(12) 0.40615(11) 0.17614(13) 0.0720 Uani
C4YD C -0.17614(13) 0.31815(12) 0.09385(11) 0.0720 Uani
C4FD C -0.18185(12) 0.32386(13) 0.40615(11) 0.0720 Uani
C4ED C -0.17614(13) 0.40615(11) 0.31815(12) 0.0720 Uani
C4MA C 0.18185(12) 0.09385(11) 0.32386(13) 0.0720 Uani
C4SA C 0.17614(13) 0.18185(12) 0.40615(11) 0.0720 Uani
C5A C 0.15197(13) 0.10706(12) 0.18939(12) 0.0710 Uani
C5B C 0.18939(12) 0.15197(13) 0.10706(12) 0.0710 Uani
C5VD C -0.10706(12) 0.34803(13) 0.18939(12) 0.0710 Uani
C5DD C -0.10706(12) 0.31061(12) 0.34803(13) 0.0710 Uani
C5PA C 0.10706(12) 0.15197(13) 0.31061(12) 0.0710 Uani
C5YD C -0.15197(13) 0.31061(12) 0.10706(12) 0.0710 Uani
C5ED C -0.15197(13) 0.39294(12) 0.31061(12) 0.0710 Uani
C5SA C 0.15197(13) 0.18939(12) 0.39294(12) 0.0710 Uani
C5SD C -0.18939(12) 0.39294(12) 0.15197(13) 0.0710 Uani
C5FD C -0.18939(12) 0.34803(13) 0.39294(12) 0.0710 Uani
C5MA C 0.18939(12) 0.10706(12) 0.34803(13) 0.0710 Uani
C6A C 0.13803(13) 0.09749(13) 0.21214(13) 0.0757 Uani
C6B C 0.21214(13) 0.13803(13) 0.09749(13) 0.0757 Uani
C6VD C -0.09749(13) 0.36197(13) 0.21214(13) 0.0757 Uani
C6DD C -0.09749(13) 0.28786(13) 0.36197(13) 0.0757 Uani
C6PA C 0.09749(13) 0.13803(13) 0.28786(13) 0.0757 Uani
C6YD C -0.13803(13) 0.28786(13) 0.09749(13) 0.0757 Uani
C6ED C -0.13803(13) 0.40251(13) 0.28786(13) 0.0757 Uani
C6SA C 0.13803(13) 0.21214(13) 0.40251(13) 0.0757 Uani
C6SD C -0.21214(13) 0.40251(13) 0.13803(13) 0.0757 Uani
C6FD C -0.21214(13) 0.36197(13) 0.40251(13) 0.0757 Uani
C6MA C 0.21214(13) 0.09749(13) 0.36197(13) 0.0757 Uani
H2A H 0.1216 0.1059 0.2176 0.0910 Uiso
H2B H 0.2176 0.1216 0.1059 0.0910 Uiso
H2VD H -0.1059 0.3784 0.2176 0.0910 Uiso
H2DD H -0.1059 0.2824 0.3784 0.0910 Uiso
H2PA H 0.1059 0.1216 0.2824 0.0910 Uiso
H2YD H -0.1216 0.2824 0.1059 0.0910 Uiso
H2ED H -0.1216 0.3941 0.2824 0.0910 Uiso
H2SA H 0.1216 0.2176 0.3941 0.0910 Uiso
H2SD H -0.2176 0.3941 0.1216 0.0910 Uiso
H2FD H -0.2176 0.3784 0.3941 0.0910 Uiso
H2MA H 0.2176 0.1059 0.3784 0.0910 Uiso
C7VD C -0.07576(13) 0.35185(13) 0.22670(12) 0.0740 Uani
C7DD C -0.07576(13) 0.27330(12) 0.35185(13) 0.0740 Uani
C7PA C 0.07576(13) 0.14815(13) 0.27330(12) 0.0740 Uani
C7A C 0.14815(13) 0.07576(13) 0.22670(12) 0.0740 Uani
C7B C 0.22670(12) 0.14815(13) 0.07576(13) 0.0740 Uani
C7YD C -0.14815(13) 0.27330(12) 0.07576(13) 0.0740 Uani
C7ED C -0.14815(13) 0.42424(13) 0.27330(12) 0.0740 Uani
C7SA C 0.14815(13) 0.22670(12) 0.42424(13) 0.0740 Uani
C7SD C -0.22670(12) 0.42424(13) 0.14815(13) 0.0740 Uani
C7FD C -0.22670(12) 0.35185(13) 0.42424(13) 0.0740 Uani
C7MA C 0.22670(12) 0.07576(13) 0.35185(13) 0.0740 Uani
H3VD H -0.0694 0.3617 0.2420 0.0890 Uiso
H3DD H -0.0694 0.2580 0.3617 0.0890 Uiso
H3PA H 0.0694 0.1383 0.2580 0.0890 Uiso
H3A H 0.1383 0.0694 0.2420 0.0890 Uiso
H3B H 0.2420 0.1383 0.0694 0.0890 Uiso
H3YD H -0.1383 0.2580 0.0694 0.0890 Uiso
H3ED H -0.1383 0.4306 0.2580 0.0890 Uiso
H3SA H 0.1383 0.2420 0.4306 0.0890 Uiso
H3SD H -0.2420 0.4306 0.1383 0.0890 Uiso
H3FD H -0.2420 0.3617 0.4306 0.0890 Uiso
H3MA H 0.2420 0.0694 0.3617 0.0890 Uiso
C8B C 0.15664(14) 0.18874(13) 0.10558(12) 0.0767 Uani
C8A C 0.18874(13) 0.10558(12) 0.15664(14) 0.0767 Uani
C8VD C -0.10558(12) 0.31126(13) 0.15664(14) 0.0767 Uani
C8DD C -0.10558(12) 0.34336(14) 0.31126(13) 0.0767 Uani
C8PA C 0.10558(12) 0.18874(13) 0.34336(14) 0.0767 Uani
C8SD C -0.15664(14) 0.39442(12) 0.18874(13) 0.0767 Uani
C8FD C -0.15664(14) 0.31126(13) 0.39442(12) 0.0767 Uani
C8MA C 0.15664(14) 0.10558(12) 0.31126(13) 0.0767 Uani
C8YD C -0.18874(13) 0.34336(14) 0.10558(12) 0.0767 Uani
C8ED C -0.18874(13) 0.39442(12) 0.34336(14) 0.0767 Uani
C8SA C 0.18874(13) 0.15664(14) 0.39442(12) 0.0767 Uani
C9B C 0.15022(12) 0.16898(12) 0.12838(12) 0.0710 Uani
C9A C 0.16898(12) 0.12838(12) 0.15022(12) 0.0710 Uani
C9VD C -0.12838(12) 0.33102(12) 0.15022(12) 0.0710 Uani
C9DD C -0.12838(12) 0.34978(12) 0.33102(12) 0.0710 Uani
C9PA C 0.12838(12) 0.16898(12) 0.34978(12) 0.0710 Uani
C9SD C -0.15022(12) 0.37162(12) 0.16898(12) 0.0710 Uani
C9FD C -0.15022(12) 0.33102(12) 0.37162(12) 0.0710 Uani
C9MA C 0.15022(12) 0.12838(12) 0.33102(12) 0.0710 Uani
C9YD C -0.16898(12) 0.34978(12) 0.12838(12) 0.0710 Uani
C9ED C -0.16898(12) 0.37162(12) 0.34978(12) 0.0710 Uani
C9SA C 0.16898(12) 0.15022(12) 0.37162(12) 0.0710 Uani
C10A C 0.14761(12) 0.12949(12) 0.16967(12) 0.0690 Uani
C10B C 0.16967(12) 0.14761(12) 0.12949(12) 0.0690 Uani
C10VD C -0.12949(12) 0.35239(12) 0.16967(12) 0.0690 Uani
C10DD C -0.12949(12) 0.33033(12) 0.35239(12) 0.0690 Uani
C10PA C 0.12949(12) 0.14761(12) 0.33033(12) 0.0690 Uani
C10YD C -0.14761(12) 0.33033(12) 0.12949(12) 0.0690 Uani
C10ED C -0.14761(12) 0.37051(12) 0.33033(12) 0.0690 Uani
C10SA C 0.14761(12) 0.16967(12) 0.37051(12) 0.0690 Uani
C10SD C -0.16967(12) 0.37051(12) 0.14761(12) 0.0690 Uani
C10FD C -0.16967(12) 0.35239(12) 0.37051(12) 0.0690 Uani
C10MA C 0.16967(12) 0.12949(12) 0.35239(12) 0.0690 Uani
C11B C 0.13500(15) 0.18976(18) 0.08286(15) 0.0987 Uani
C11A C 0.18976(18) 0.08286(15) 0.13500(15) 0.0987 Uani
C11VD C -0.08286(15) 0.31024(18) 0.13500(15) 0.0987 Uani
C11DD C -0.08286(15) 0.36500(15) 0.31024(18) 0.0987 Uani
C11PA C 0.08286(15) 0.18976(18) 0.36500(15) 0.0987 Uani
C11SD C -0.13500(15) 0.41714(15) 0.18976(18) 0.0987 Uani
C11FD C -0.13500(15) 0.31024(18) 0.41714(15) 0.0987 Uani
C11MA C 0.13500(15) 0.08286(15) 0.31024(18) 0.0987 Uani
C11YD C -0.18976(18) 0.36500(15) 0.08286(15) 0.0987 Uani
C11ED C -0.18976(18) 0.41714(15) 0.36500(15) 0.0987 Uani
C11SA C 0.18976(18) 0.13500(15) 0.41714(15) 0.0987 Uani
H4B H 0.1183 0.1983 0.0901 0.1180 Uiso
H4A H 0.1983 0.0901 0.1183 0.1180 Uiso
H4VD H -0.0901 0.3017 0.1183 0.1180 Uiso
H4DD H -0.0901 0.3817 0.3017 0.1180 Uiso
H4PA H 0.0901 0.1983 0.3817 0.1180 Uiso
H4SD H -0.1183 0.4099 0.1983 0.1180 Uiso
H4FD H -0.1183 0.3017 0.4099 0.1180 Uiso
H4MA H 0.1183 0.0901 0.3017 0.1180 Uiso
H4YD H -0.1983 0.3817 0.0901 0.1180 Uiso
H4ED H -0.1983 0.4099 0.3817 0.1180 Uiso
H4SA H 0.1983 0.1183 0.4099 0.1180 Uiso
H5B H 0.1418 0.2013 0.0679 0.1180 Uiso
H5A H 0.2013 0.0679 0.1418 0.1180 Uiso
H5VD H -0.0679 0.2987 0.1418 0.1180 Uiso
H5DD H -0.0679 0.3582 0.2987 0.1180 Uiso
H5PA H 0.0679 0.2013 0.3582 0.1180 Uiso
H5SD H -0.1418 0.4321 0.2013 0.1180 Uiso
H5FD H -0.1418 0.2987 0.4321 0.1180 Uiso
H5MA H 0.1418 0.0679 0.2987 0.1180 Uiso
H5YD H -0.2013 0.3582 0.0679 0.1180 Uiso
H5ED H -0.2013 0.4321 0.3582 0.1180 Uiso
H5SA H 0.2013 0.1418 0.4321 0.1180 Uiso
C12B C 0.12767(19) 0.1616(2) 0.07131(19) 0.1147 Uani
C12A C 0.1616(2) 0.07131(19) 0.12767(19) 0.1147 Uani
C12VD C -0.07131(19) 0.3384(2) 0.12767(19) 0.1147 Uani
C12DD C -0.07131(19) 0.37233(19) 0.3384(2) 0.1147 Uani
C12PA C 0.07131(19) 0.1616(2) 0.37233(19) 0.1147 Uani
C12SD C -0.12767(19) 0.42869(19) 0.1616(2) 0.1147 Uani
C12FD C -0.12767(19) 0.3384(2) 0.42869(19) 0.1147 Uani
C12MA C 0.12767(19) 0.07131(19) 0.3384(2) 0.1147 Uani
C12YD C -0.1616(2) 0.37233(19) 0.07131(19) 0.1147 Uani
C12ED C -0.1616(2) 0.42869(19) 0.37233(19) 0.1147 Uani
C12SA C 0.1616(2) 0.12767(19) 0.42869(19) 0.1147 Uani
H6B H 0.1442 0.1526 0.0648 0.1720 Uiso
H6A H 0.1526 0.0648 0.1442 0.1720 Uiso
H6VD H -0.0648 0.3474 0.1442 0.1720 Uiso
H6DD H -0.0648 0.3558 0.3474 0.1720 Uiso
H6PA H 0.0648 0.1526 0.3558 0.1720 Uiso
H6SD H -0.1442 0.4352 0.1526 0.1720 Uiso
H6FD H -0.1442 0.3474 0.4352 0.1720 Uiso
H6MA H 0.1442 0.0648 0.3474 0.1720 Uiso
H6YD H -0.1526 0.3558 0.0648 0.1720 Uiso
H6ED H -0.1526 0.4352 0.3558 0.1720 Uiso
H6SA H 0.1526 0.1442 0.4352 0.1720 Uiso
H7B H 0.1149 0.1637 0.0562 0.1720 Uiso
H7A H 0.1637 0.0562 0.1149 0.1720 Uiso
H7VD H -0.0562 0.3363 0.1149 0.1720 Uiso
H7DD H -0.0562 0.3851 0.3363 0.1720 Uiso
H7PA H 0.0562 0.1637 0.3851 0.1720 Uiso
H7SD H -0.1149 0.4438 0.1637 0.1720 Uiso
H7FD H -0.1149 0.3363 0.4438 0.1720 Uiso
H7MA H 0.1149 0.0562 0.3363 0.1720 Uiso
H7YD H -0.1637 0.3851 0.0562 0.1720 Uiso
H7ED H -0.1637 0.4438 0.3851 0.1720 Uiso
H7SA H 0.1637 0.1149 0.4438 0.1720 Uiso
H8B H 0.1193 0.1505 0.0856 0.1720 Uiso
H8A H 0.1505 0.0856 0.1193 0.1720 Uiso
H8VD H -0.0856 0.3495 0.1193 0.1720 Uiso
H8DD H -0.0856 0.3807 0.3495 0.1720 Uiso
H8PA H 0.0856 0.1505 0.3807 0.1720 Uiso
H8SD H -0.1193 0.4144 0.1505 0.1720 Uiso
H8FD H -0.1193 0.3495 0.4144 0.1720 Uiso
H8MA H 0.1193 0.0856 0.3495 0.1720 Uiso
H8YD H -0.1505 0.3807 0.0856 0.1720 Uiso
H8ED H -0.1505 0.4144 0.3807 0.1720 Uiso
H8SA H 0.1505 0.1193 0.4144 0.1720 Uiso
C13B C 0.16399(15) 0.21744(14) 0.11651(15) 0.0897 Uani
C13A C 0.21744(14) 0.11651(15) 0.16399(15) 0.0897 Uani
C13VD C -0.11651(15) 0.28256(14) 0.16399(15) 0.0897 Uani
C13DD C -0.11651(15) 0.33601(15) 0.28256(14) 0.0897 Uani
C13PA C 0.11651(15) 0.21744(14) 0.33601(15) 0.0897 Uani
C13SD C -0.16399(15) 0.38349(15) 0.21744(14) 0.0897 Uani
C13FD C -0.16399(15) 0.28256(14) 0.38349(15) 0.0897 Uani
C13MA C 0.16399(15) 0.11651(15) 0.28256(14) 0.0897 Uani
C13YD C -0.21744(14) 0.33601(15) 0.11651(15) 0.0897 Uani
C13ED C -0.21744(14) 0.38349(15) 0.33601(15) 0.0897 Uani
C13SA C 0.21744(14) 0.16399(15) 0.38349(15) 0.0897 Uani
H9B H 0.1707 0.2286 0.1012 0.1070 Uiso
H9A H 0.2286 0.1012 0.1707 0.1070 Uiso
H9VD H -0.1012 0.2714 0.1707 0.1070 Uiso
H9DD H -0.1012 0.3293 0.2714 0.1070 Uiso
H9PA H 0.1012 0.2286 0.3293 0.1070 Uiso
H9SD H -0.1707 0.3988 0.2286 0.1070 Uiso
H9FD H -0.1707 0.2714 0.3988 0.1070 Uiso
H9MA H 0.1707 0.1012 0.2714 0.1070 Uiso
H9YD H -0.2286 0.3293 0.1012 0.1070 Uiso
H9ED H -0.2286 0.3988 0.3293 0.1070 Uiso
H9SA H 0.2286 0.1707 0.3988 0.1070 Uiso
H10B H 0.1472 0.2261 0.1235 0.1070 Uiso
H10A H 0.2261 0.1235 0.1472 0.1070 Uiso
H10VD H -0.1235 0.2739 0.1472 0.1070 Uiso
H10DD H -0.1235 0.3528 0.2739 0.1070 Uiso
H10PA H 0.1235 0.2261 0.3528 0.1070 Uiso
H10SD H -0.1472 0.3765 0.2261 0.1070 Uiso
H10FD H -0.1472 0.2739 0.3765 0.1070 Uiso
H10MA H 0.1472 0.1235 0.2739 0.1070 Uiso
H10YD H -0.2261 0.3528 0.1235 0.1070 Uiso
H10ED H -0.2261 0.3765 0.3528 0.1070 Uiso
H10SA H 0.2261 0.1472 0.3765 0.1070 Uiso
C14B C 0.1851(2) 0.21783(17) 0.13871(18) 0.1103 Uani
C14A C 0.21783(17) 0.13871(18) 0.1851(2) 0.1103 Uani
C14VD C -0.13871(18) 0.28217(17) 0.1851(2) 0.1103 Uani
C14DD C -0.13871(18) 0.3149(2) 0.28217(17) 0.1103 Uani
C14PA C 0.13871(18) 0.21783(17) 0.3149(2) 0.1103 Uani
C14SD C -0.1851(2) 0.36129(18) 0.21783(17) 0.1103 Uani
C14FD C -0.1851(2) 0.28217(17) 0.36129(18) 0.1103 Uani
C14MA C 0.1851(2) 0.13871(18) 0.28217(17) 0.1103 Uani
C14YD C -0.21783(17) 0.3149(2) 0.13871(18) 0.1103 Uani
C14ED C -0.21783(17) 0.36129(18) 0.3149(2) 0.1103 Uani
C14SA C 0.21783(17) 0.1851(2) 0.36129(18) 0.1103 Uani
H11B H 0.1775 0.2097 0.1552 0.1660 Uiso
H11A H 0.2097 0.1552 0.1775 0.1660 Uiso
H11VD H -0.1552 0.2903 0.1775 0.1660 Uiso
H11DD H -0.1552 0.3225 0.2903 0.1660 Uiso
H11PA H 0.1552 0.2097 0.3225 0.1660 Uiso
H11SD H -0.1775 0.3448 0.2097 0.1660 Uiso
H11FD H -0.1775 0.2903 0.3448 0.1660 Uiso
H11MA H 0.1775 0.1552 0.2903 0.1660 Uiso
H11YD H -0.2097 0.3225 0.1552 0.1660 Uiso
H11ED H -0.2097 0.3448 0.3225 0.1660 Uiso
H11SA H 0.2097 0.1775 0.3448 0.1660 Uiso
H12B H 0.1904 0.2366 0.1425 0.1660 Uiso
H12A H 0.2366 0.1425 0.1904 0.1660 Uiso
H12VD H -0.1425 0.2634 0.1904 0.1660 Uiso
H12DD H -0.1425 0.3096 0.2634 0.1660 Uiso
H12PA H 0.1425 0.2366 0.3096 0.1660 Uiso
H12SD H -0.1904 0.3575 0.2366 0.1660 Uiso
H12FD H -0.1904 0.2634 0.3575 0.1660 Uiso
H12MA H 0.1904 0.1425 0.2634 0.1660 Uiso
H12YD H -0.2366 0.3096 0.1425 0.1660 Uiso
H12ED H -0.2366 0.3575 0.3096 0.1660 Uiso
H12SA H 0.2366 0.1904 0.3575 0.1660 Uiso
H13B H 0.2010 0.2075 0.1329 0.1660 Uiso
H13A H 0.2075 0.1329 0.2010 0.1660 Uiso
H13VD H -0.1329 0.2925 0.2010 0.1660 Uiso
H13DD H -0.1329 0.2990 0.2925 0.1660 Uiso
H13PA H 0.1329 0.2075 0.2990 0.1660 Uiso
H13SD H -0.2010 0.3671 0.2075 0.1660 Uiso
H13FD H -0.2010 0.2925 0.3671 0.1660 Uiso
H13MA H 0.2010 0.1329 0.2925 0.1660 Uiso
H13YD H -0.2075 0.2990 0.1329 0.1660 Uiso
H13ED H -0.2075 0.3671 0.2990 0.1660 Uiso
H13SA H 0.2075 0.2010 0.3671 0.1660 Uiso
O6PA O 0.0000 0.1760(3) 0.1950(3) 0.1050 Uani
O6FA O 0.0000 0.3240(3) 0.3050(3) 0.1050 Uani
O6DD O 0.0000 0.1950(3) 0.3240(3) 0.1050 Uani
C15PA C 0.0000 0.1906(9) 0.1707(9) 0.1650 Uiso
C15DD C 0.0000 0.1707(9) 0.3094(9) 0.1650 Uiso
C15FA C 0.0000 0.3094(9) 0.3293(9) 0.1650 Uiso
O1 O 0.0900(9) 0.2500 0.2500 0.3153 Uani
Dy2? Dy 0.0000 0.27517(4) 0.19676(4) 0.1015 Uani
O7? O 0.0000 0.3093(4) 0.1559(8) 0.1797 Uani
C16? C 0.0000 0.3310(6) 0.1680(5) 0.1070 Uiso
loop_
_atom_site_aniso_label
_atom_site_aniso_U_11
_atom_site_aniso_U_22
_atom_site_aniso_U_33
_atom_site_aniso_U_23
_atom_site_aniso_U_13
_atom_site_aniso_U_12
Dy1 0.0689(7) 0.0729(7) 0.0706(8) -0.0013(5) 0.000 0.000
O3 0.092(4) 0.102(4) 0.177(6) 0.030(4) 0.041(4) 0.028(3)
O4 0.080(3) 0.081(3) 0.082(3) 0.004(2) 0.006(2) 0.016(2)
C1 0.057(3) 0.083(4) 0.085(4) -0.001(3) 0.018(3) -0.011(3)
C2 0.064(3) 0.069(3) 0.091(4) 0.002(3) 0.003(3) 0.000(3)
C3 0.067(3) 0.080(4) 0.090(4) 0.010(3) 0.016(3) -0.001(3)
C4 0.063(3) 0.070(3) 0.083(4) 0.009(3) 0.010(3) 0.003(3)
C5 0.071(3) 0.070(3) 0.072(3) 0.003(3) 0.003(3) 0.006(3)
C6 0.080(4) 0.075(4) 0.072(3) 0.005(3) 0.006(3) 0.011(3)
C7 0.074(4) 0.071(3) 0.077(4) 0.002(3) 0.002(3) 0.007(3)
C8 0.067(3) 0.082(4) 0.081(4) 0.016(3) 0.016(3) 0.012(3)
C9 0.066(3) 0.074(4) 0.073(3) 0.001(3) 0.006(3) 0.003(3)
C10 0.067(3) 0.071(3) 0.069(3) 0.005(3) 0.001(3) 0.007(3)
C11 0.075(4) 0.086(4) 0.135(7) 0.030(4) 0.010(4) 0.006(3)
C12 0.098(5) 0.104(6) 0.142(7) -0.007(5) 0.006(5) -0.016(4)
C13 0.094(5) 0.099(5) 0.076(4) 0.007(3) 0.013(3) 0.023(4)
C14 0.096(5) 0.146(7) 0.089(5) -0.020(5) 0.005(4) 0.005(5)
O6 0.179(16) 0.069(9) 0.067(8) 0.037(7) 0.000 0.000
Dy1PA 0.0689 0.0706 0.0729 0.0013 0 0
Dy1FA 0.0689 0.0706 0.0729 0.0013 0 0
Dy1DD 0.0689 0.0729 0.0706 -0.0013 0 0
Dy1A 0.0706 0.0689 0.0729 0 -0.0013 0
Dy1Q 0.0729 0.0689 0.0706 0 0.0013 0
Dy1B 0.0729 0.0706 0.0689 0 0 -0.0013
Dy1HA 0.0706 0.0729 0.0689 0 0 0.0013
Dy1CA 0.0729 0.0689 0.0706 0 0.0013 0
Dy1ED 0.0706 0.0689 0.0729 0 -0.0013 0
Dy1YD 0.0706 0.0729 0.0689 0 0 -0.0013
Dy1DG 0.0729 0.0706 0.0689 0 0 0.0013
Dy1FD 0.0729 0.0706 0.0689 0 0 -0.0013
Dy1UA 0.0706 0.0729 0.0689 0 0 0.0013
Dy1C 0.0729 0.0689 0.0706 0 0.0013 0
Dy1MA 0.0729 0.0689 0.0706 0 0.0013 0
Dy1SA 0.0706 0.0729 0.0689 0 0 -0.0013
Dy1SF 0.0729 0.0706 0.0689 0 0 0.0013
O3FA 0.092 0.177 0.102 -0.03 0.028 -0.041
O3PE 0.092 0.102 0.177 0.03 -0.041 -0.028
O3VD 0.092 0.177 0.102 -0.03 -0.028 0.041
O3PA 0.092 0.177 0.102 -0.03 -0.028 0.041
O3JE 0.092 0.177 0.102 -0.03 0.028 -0.041
O3DD 0.092 0.102 0.177 0.03 0.041 0.028
O3JB 0.092 0.102 0.177 0.03 -0.041 -0.028
O3A 0.177 0.092 0.102 0.028 0.03 0.041
O3B 0.102 0.177 0.092 0.041 0.028 0.03
O3SD 0.102 0.092 0.177 -0.041 -0.03 0.028
O3YD 0.177 0.102 0.092 -0.028 -0.041 0.03
O3FD 0.102 0.177 0.092 0.041 0.028 0.03
O3ED 0.177 0.092 0.102 0.028 0.03 0.041
O3MA 0.102 0.092 0.177 -0.041 -0.03 0.028
O3SA 0.177 0.102 0.092 -0.028 -0.041 0.03
O4PE 0.08 0.081 0.082 0.004 -0.006 -0.016
O4PA 0.08 0.082 0.081 -0.004 -0.016 0.006
O4JE 0.08 0.082 0.081 -0.004 0.016 -0.006
O4FA 0.08 0.082 0.081 -0.004 0.016 -0.006
O4VD 0.08 0.082 0.081 -0.004 -0.016 0.006
O4DD 0.08 0.081 0.082 0.004 0.006 0.016
O4JB 0.08 0.081 0.082 0.004 -0.006 -0.016
O4A 0.082 0.08 0.081 0.016 0.004 0.006
O4B 0.081 0.082 0.08 0.006 0.016 0.004
O4SD 0.081 0.08 0.082 -0.006 -0.004 0.016
O4YD 0.082 0.081 0.08 -0.016 -0.006 0.004
O4FD 0.081 0.082 0.08 0.006 0.016 0.004
O4ED 0.082 0.08 0.081 0.016 0.004 0.006
O4MA 0.081 0.08 0.082 -0.006 -0.004 0.016
O4SA 0.082 0.081 0.08 -0.016 -0.006 0.004
C1VD 0.057 0.085 0.083 0.001 0.011 0.018
C1DD 0.057 0.083 0.085 -0.001 0.018 -0.011
C1PA 0.057 0.085 0.083 0.001 0.011 0.018
C1A 0.085 0.057 0.083 -0.011 -0.001 0.018
C1B 0.083 0.085 0.057 0.018 -0.011 -0.001
C1SD 0.083 0.057 0.085 -0.018 0.001 -0.011
C1YD 0.085 0.083 0.057 0.011 -0.018 -0.001
C1FD 0.083 0.085 0.057 0.018 -0.011 -0.001
C1ED 0.085 0.057 0.083 -0.011 -0.001 0.018
C1MA 0.083 0.057 0.085 -0.018 0.001 -0.011
C1SA 0.085 0.083 0.057 0.011 -0.018 -0.001
C2VD 0.064 0.091 0.069 -0.002 0 0.003
C2DD 0.064 0.069 0.091 0.002 0.003 0
C2PA 0.064 0.091 0.069 -0.002 0 0.003
C2A 0.091 0.064 0.069 0 0.002 0.003
C2B 0.069 0.091 0.064 0.003 0 0.002
C2SD 0.069 0.064 0.091 -0.003 -0.002 0
C2YD 0.091 0.069 0.064 0 -0.003 0.002
C2FD 0.069 0.091 0.064 0.003 0 0.002
C2ED 0.091 0.064 0.069 0 0.002 0.003
C2MA 0.069 0.064 0.091 -0.003 -0.002 0
C2SA 0.091 0.069 0.064 0 -0.003 0.002
C3VD 0.067 0.09 0.08 -0.01 0.001 0.016
C3DD 0.067 0.08 0.09 0.01 0.016 -0.001
C3PA 0.067 0.09 0.08 -0.01 0.001 0.016
C3A 0.09 0.067 0.08 -0.001 0.01 0.016
C3B 0.08 0.09 0.067 0.016 -0.001 0.01
C3SD 0.08 0.067 0.09 -0.016 -0.01 -0.001
C3YD 0.09 0.08 0.067 0.001 -0.016 0.01
C3FD 0.08 0.09 0.067 0.016 -0.001 0.01
C3ED 0.09 0.067 0.08 -0.001 0.01 0.016
C3MA 0.08 0.067 0.09 -0.016 -0.01 -0.001
C3SA 0.09 0.08 0.067 0.001 -0.016 0.01
C4A 0.083 0.063 0.07 0.003 0.009 0.01
C4B 0.07 0.083 0.063 0.01 0.003 0.009
C4VD 0.063 0.083 0.07 -0.009 -0.003 0.01
C4DD 0.063 0.07 0.083 0.009 0.01 0.003
C4PA 0.063 0.083 0.07 -0.009 -0.003 0.01
C4SD 0.07 0.063 0.083 -0.01 -0.009 0.003
C4YD 0.083 0.07 0.063 -0.003 -0.01 0.009
C4FD 0.07 0.083 0.063 0.01 0.003 0.009
C4ED 0.083 0.063 0.07 0.003 0.009 0.01
C4MA 0.07 0.063 0.083 -0.01 -0.009 0.003
C4SA 0.083 0.07 0.063 -0.003 -0.01 0.009
C5A 0.072 0.071 0.07 0.006 0.003 0.003
C5B 0.07 0.072 0.071 0.003 0.006 0.003
C5VD 0.071 0.072 0.07 -0.003 -0.006 0.003
C5DD 0.071 0.07 0.072 0.003 0.003 0.006
C5PA 0.071 0.072 0.07 -0.003 -0.006 0.003
C5YD 0.072 0.07 0.071 -0.006 -0.003 0.003
C5ED 0.072 0.071 0.07 0.006 0.003 0.003
C5SA 0.072 0.07 0.071 -0.006 -0.003 0.003
C5SD 0.07 0.071 0.072 -0.003 -0.003 0.006
C5FD 0.07 0.072 0.071 0.003 0.006 0.003
C5MA 0.07 0.071 0.072 -0.003 -0.003 0.006
C6A 0.072 0.08 0.075 0.011 0.005 0.006
C6B 0.075 0.072 0.08 0.006 0.011 0.005
C6VD 0.08 0.072 0.075 -0.005 -0.011 0.006
C6DD 0.08 0.075 0.072 0.005 0.006 0.011
C6PA 0.08 0.072 0.075 -0.005 -0.011 0.006
C6YD 0.072 0.075 0.08 -0.011 -0.006 0.005
C6ED 0.072 0.08 0.075 0.011 0.005 0.006
C6SA 0.072 0.075 0.08 -0.011 -0.006 0.005
C6SD 0.075 0.08 0.072 -0.006 -0.005 0.011
C6FD 0.075 0.072 0.08 0.006 0.011 0.005
C6MA 0.075 0.08 0.072 -0.006 -0.005 0.011
C7VD 0.074 0.077 0.071 -0.002 -0.007 0.002
C7DD 0.074 0.071 0.077 0.002 0.002 0.007
C7PA 0.074 0.077 0.071 -0.002 -0.007 0.002
C7A 0.077 0.074 0.071 0.007 0.002 0.002
C7B 0.071 0.077 0.074 0.002 0.007 0.002
C7YD 0.077 0.071 0.074 -0.007 -0.002 0.002
C7ED 0.077 0.074 0.071 0.007 0.002 0.002
C7SA 0.077 0.071 0.074 -0.007 -0.002 0.002
C7SD 0.071 0.074 0.077 -0.002 -0.002 0.007
C7FD 0.071 0.077 0.074 0.002 0.007 0.002
C7MA 0.071 0.074 0.077 -0.002 -0.002 0.007
C8B 0.082 0.081 0.067 0.016 0.012 0.016
C8A 0.081 0.067 0.082 0.012 0.016 0.016
C8VD 0.067 0.081 0.082 -0.016 -0.012 0.016
C8DD 0.067 0.082 0.081 0.016 0.016 0.012
C8PA 0.067 0.081 0.082 -0.016 -0.012 0.016
C8SD 0.082 0.067 0.081 -0.016 -0.016 0.012
C8FD 0.082 0.081 0.067 0.016 0.012 0.016
C8MA 0.082 0.067 0.081 -0.016 -0.016 0.012
C8YD 0.081 0.082 0.067 -0.012 -0.016 0.016
C8ED 0.081 0.067 0.082 0.012 0.016 0.016
C8SA 0.081 0.082 0.067 -0.012 -0.016 0.016
C9B 0.074 0.073 0.066 0.006 0.003 0.001
C9A 0.073 0.066 0.074 0.003 0.001 0.006
C9VD 0.066 0.073 0.074 -0.001 -0.003 0.006
C9DD 0.066 0.074 0.073 0.001 0.006 0.003
C9PA 0.066 0.073 0.074 -0.001 -0.003 0.006
C9SD 0.074 0.066 0.073 -0.006 -0.001 0.003
C9FD 0.074 0.073 0.066 0.006 0.003 0.001
C9MA 0.074 0.066 0.073 -0.006 -0.001 0.003
C9YD 0.073 0.074 0.066 -0.003 -0.006 0.001
C9ED 0.073 0.066 0.074 0.003 0.001 0.006
C9SA 0.073 0.074 0.066 -0.003 -0.006 0.001
C10A 0.069 0.067 0.071 0.007 0.005 0.001
C10B 0.071 0.069 0.067 0.001 0.007 0.005
C10VD 0.067 0.069 0.071 -0.005 -0.007 0.001
C10DD 0.067 0.071 0.069 0.005 0.001 0.007
C10PA 0.067 0.069 0.071 -0.005 -0.007 0.001
C10YD 0.069 0.071 0.067 -0.007 -0.001 0.005
C10ED 0.069 0.067 0.071 0.007 0.005 0.001
C10SA 0.069 0.071 0.067 -0.007 -0.001 0.005
C10SD 0.071 0.067 0.069 -0.001 -0.005 0.007
C10FD 0.071 0.069 0.067 0.001 0.007 0.005
C10MA 0.071 0.067 0.069 -0.001 -0.005 0.007
C11B 0.086 0.135 0.075 0.01 0.006 0.03
C11A 0.135 0.075 0.086 0.006 0.03 0.01
C11VD 0.075 0.135 0.086 -0.03 -0.006 0.01
C11DD 0.075 0.086 0.135 0.03 0.01 0.006
C11PA 0.075 0.135 0.086 -0.03 -0.006 0.01
C11SD 0.086 0.075 0.135 -0.01 -0.03 0.006
C11FD 0.086 0.135 0.075 0.01 0.006 0.03
C11MA 0.086 0.075 0.135 -0.01 -0.03 0.006
C11YD 0.135 0.086 0.075 -0.006 -0.01 0.03
C11ED 0.135 0.075 0.086 0.006 0.03 0.01
C11SA 0.135 0.086 0.075 -0.006 -0.01 0.03
C12B 0.104 0.142 0.098 0.006 -0.016 -0.007
C12A 0.142 0.098 0.104 -0.016 -0.007 0.006
C12VD 0.098 0.142 0.104 0.007 0.016 0.006
C12DD 0.098 0.104 0.142 -0.007 0.006 -0.016
C12PA 0.098 0.142 0.104 0.007 0.016 0.006
C12SD 0.104 0.098 0.142 -0.006 0.007 -0.016
C12FD 0.104 0.142 0.098 0.006 -0.016 -0.007
C12MA 0.104 0.098 0.142 -0.006 0.007 -0.016
C12YD 0.142 0.104 0.098 0.016 -0.006 -0.007
C12ED 0.142 0.098 0.104 -0.016 -0.007 0.006
C12SA 0.142 0.104 0.098 0.016 -0.006 -0.007
C13B 0.099 0.076 0.094 0.013 0.023 0.007
C13A 0.076 0.094 0.099 0.023 0.007 0.013
C13VD 0.094 0.076 0.099 -0.007 -0.023 0.013
C13DD 0.094 0.099 0.076 0.007 0.013 0.023
C13PA 0.094 0.076 0.099 -0.007 -0.023 0.013
C13SD 0.099 0.094 0.076 -0.013 -0.007 0.023
C13FD 0.099 0.076 0.094 0.013 0.023 0.007
C13MA 0.099 0.094 0.076 -0.013 -0.007 0.023
C13YD 0.076 0.099 0.094 -0.023 -0.013 0.007
C13ED 0.076 0.094 0.099 0.023 0.007 0.013
C13SA 0.076 0.099 0.094 -0.023 -0.013 0.007
C14B 0.146 0.089 0.096 0.005 0.005 -0.02
C14A 0.089 0.096 0.146 0.005 -0.02 0.005
C14VD 0.096 0.089 0.146 0.02 -0.005 0.005
C14DD 0.096 0.146 0.089 -0.02 0.005 0.005
C14PA 0.096 0.089 0.146 0.02 -0.005 0.005
C14SD 0.146 0.096 0.089 -0.005 0.02 0.005
C14FD 0.146 0.089 0.096 0.005 0.005 -0.02
C14MA 0.146 0.096 0.089 -0.005 0.02 0.005
C14YD 0.089 0.146 0.096 -0.005 -0.005 -0.02
C14ED 0.089 0.096 0.146 0.005 -0.02 0.005
C14SA 0.089 0.146 0.096 -0.005 -0.005 -0.02
O6PA 0.179 0.067 0.069 -0.037 0 0
O6FA 0.179 0.067 0.069 -0.037 0 0
O6DD 0.179 0.069 0.067 0.037 0 0
O1 0.50(6) 0.223(15) 0.223(15) 0.000 0.000 0.000
Dy2? 0.0622(8) 0.1285(14) 0.1138(13) -0.0409(10) 0.000 0.000
O7? 0.134(16) 0.075(12) 0.33(4) 0.06(2) 0.000 0.000
loop_
_geom_bond_atom_site_label_1
_geom_bond_atom_site_label_2
_geom_bond_site_symmetry_1
_geom_bond_site_symmetry_2
Dy1 O3 1_555 1_555
O3 C1 1_555 1_555
O4 Dy1 1_555 1_555
O5 Dy1 1_555 1_555
C1 O4 1_555 1_555
C2 C1 1_555 1_555
C3 C2 1_555 1_555
H1 C3 1_555 1_555
C4 C3 1_555 1_555
C5 C4 1_555 1_555
C6 C5 1_555 1_555
H2 C6 1_555 1_555
C7 C2 1_555 1_555
H3 C7 1_555 1_555
C8 C4 1_555 1_555
C9 C8 1_555 1_555
C10 C5 1_555 1_555
C11 C8 1_555 1_555
H4 C11 1_555 1_555
H5 C11 1_555 1_555
C12 C11 1_555 1_555
H6 C12 1_555 1_555
H7 C12 1_555 1_555
H8 C12 1_555 1_555
C13 C8 1_555 1_555
H9 C13 1_555 1_555
H10 C13 1_555 1_555
C14 C13 1_555 1_555
H11 C14 1_555 1_555
H12 C14 1_555 1_555
H13 C14 1_555 1_555
O6 Dy1 1_555 1_555
C15 O6 1_555 1_555
Dy1PA O3 1_555 1_555
Dy1FA O5 1_555 1_555
Dy1DD O5 1_555 1_555
Dy1A O3A 1_555 1_555
Dy1Q O3A 1_555 1_555
Dy1B O3B 1_555 1_555
Dy1HA O3B 1_555 1_555
Dy1CA O3SD 1_555 1_555
Dy1ED O3SD 1_555 1_555
Dy1YD O3YD 1_555 1_555
Dy1DG O3YD 1_555 1_555
Dy1FD O3FD 1_555 1_555
Dy1UA O3FD 1_555 1_555
Dy1C O3ED 1_555 1_555
Dy1MA O3MA 1_555 1_555
Dy1SA O3SA 1_555 1_555
Dy1SF O3SA 1_555 1_555
O3FA Dy1 1_555 1_555
O3PE Dy1 1_555 1_555
O3VD Dy1 1_555 1_555
O3PA Dy1PA 1_555 1_555
O3JE Dy1PA 1_555 1_555
O3DD Dy1FA 1_555 1_555
O3JB Dy1FA 1_555 1_555
O3A C1A 1_555 1_555
O3B C1B 1_555 1_555
O3SD C1SD 1_555 1_555
O3YD C1YD 1_555 1_555
O3FD C1FD 1_555 1_555
O3ED Dy1ED 1_555 1_555
O3MA Dy1A 1_555 1_555
O3SA C1SA 1_555 1_555
O4PE Dy1 1_555 1_555
O4PA Dy1PA 1_555 1_555
O4JE Dy1PA 1_555 1_555
O4FA Dy1FA 1_555 1_555
O4VD Dy1FA 1_555 1_555
O4DD Dy1DD 1_555 1_555
O4JB Dy1DD 1_555 1_555
O4A Dy1A 1_555 1_555
O4B Dy1B 1_555 1_555
O4SD Dy1CA 1_555 1_555
O4YD Dy1YD 1_555 1_555
O4FD Dy1FD 1_555 1_555
O4ED Dy1ED 1_555 1_555
O4MA Dy1MA 1_555 1_555
O4SA Dy1SA 1_555 1_555
C1VD O3VD 1_555 1_555
C1DD O3DD 1_555 1_555
C1PA O3PA 1_555 1_555
C1A O4A 1_555 1_555
C1B O4B 1_555 1_555
C1SD O4SD 1_555 1_555
C1YD O4YD 1_555 1_555
C1FD O4FD 1_555 1_555
C1ED O3ED 1_555 1_555
C1MA O3MA 1_555 1_555
C1SA O4SA 1_555 1_555
C2VD C1VD 1_555 1_555
C2DD C1DD 1_555 1_555
C2PA C1PA 1_555 1_555
C2A C1A 1_555 1_555
C2B C1B 1_555 1_555
C2SD C1SD 1_555 1_555
C2YD C1YD 1_555 1_555
C2FD C1FD 1_555 1_555
C2ED C1ED 1_555 1_555
C2MA C1MA 1_555 1_555
C2SA C1SA 1_555 1_555
C3VD C2VD 1_555 1_555
C3DD C2DD 1_555 1_555
C3PA C2PA 1_555 1_555
C3A C2A 1_555 1_555
C3B C2B 1_555 1_555
C3SD C2SD 1_555 1_555
C3YD C2YD 1_555 1_555
C3FD C2FD 1_555 1_555
C3ED C2ED 1_555 1_555
C3MA C2MA 1_555 1_555
C3SA C2SA 1_555 1_555
H1VD C3VD 1_555 1_555
H1DD C3DD 1_555 1_555
H1PA C3PA 1_555 1_555
H1A C3A 1_555 1_555
H1B C3B 1_555 1_555
H1SD C3SD 1_555 1_555
H1YD C3YD 1_555 1_555
H1FD C3FD 1_555 1_555
H1ED C3ED 1_555 1_555
H1MA C3MA 1_555 1_555
H1SA C3SA 1_555 1_555
C4A C3A 1_555 1_555
C4B C3B 1_555 1_555
C4VD C3VD 1_555 1_555
C4DD C3DD 1_555 1_555
C4PA C3PA 1_555 1_555
C4SD C3SD 1_555 1_555
C4YD C3YD 1_555 1_555
C4FD C3FD 1_555 1_555
C4ED C3ED 1_555 1_555
C4MA C3MA 1_555 1_555
C4SA C3SA 1_555 1_555
C5A C4A 1_555 1_555
C5B C4B 1_555 1_555
C5VD C4VD 1_555 1_555
C5DD C4DD 1_555 1_555
C5PA C4PA 1_555 1_555
C5YD C4YD 1_555 1_555
C5ED C4ED 1_555 1_555
C5SA C4SA 1_555 1_555
C5SD C4SD 1_555 1_555
C5FD C4FD 1_555 1_555
C5MA C4MA 1_555 1_555
C6A C5A 1_555 1_555
C6B C5B 1_555 1_555
C6VD C5VD 1_555 1_555
C6DD C5DD 1_555 1_555
C6PA C5PA 1_555 1_555
C6YD C5YD 1_555 1_555
C6ED C5ED 1_555 1_555
C6SA C5SA 1_555 1_555
C6SD C5SD 1_555 1_555
C6FD C5FD 1_555 1_555
C6MA C5MA 1_555 1_555
H2A C6A 1_555 1_555
H2B C6B 1_555 1_555
H2VD C6VD 1_555 1_555
H2DD C6DD 1_555 1_555
H2PA C6PA 1_555 1_555
H2YD C6YD 1_555 1_555
H2ED C6ED 1_555 1_555
H2SA C6SA 1_555 1_555
H2SD C6SD 1_555 1_555
H2FD C6FD 1_555 1_555
H2MA C6MA 1_555 1_555
C7VD C2VD 1_555 1_555
C7DD C2DD 1_555 1_555
C7PA C2PA 1_555 1_555
C7A C2A 1_555 1_555
C7B C2B 1_555 1_555
C7YD C2YD 1_555 1_555
C7ED C2ED 1_555 1_555
C7SA C2SA 1_555 1_555
C7SD C2SD 1_555 1_555
C7FD C2FD 1_555 1_555
C7MA C2MA 1_555 1_555
H3VD C7VD 1_555 1_555
H3DD C7DD 1_555 1_555
H3PA C7PA 1_555 1_555
H3A C7A 1_555 1_555
H3B C7B 1_555 1_555
H3YD C7YD 1_555 1_555
H3ED C7ED 1_555 1_555
H3SA C7SA 1_555 1_555
H3SD C7SD 1_555 1_555
H3FD C7FD 1_555 1_555
H3MA C7MA 1_555 1_555
C8B C4B 1_555 1_555
C8A C4A 1_555 1_555
C8VD C4VD 1_555 1_555
C8DD C4DD 1_555 1_555
C8PA C4PA 1_555 1_555
C8SD C4SD 1_555 1_555
C8FD C4FD 1_555 1_555
C8MA C4MA 1_555 1_555
C8YD C4YD 1_555 1_555
C8ED C4ED 1_555 1_555
C8SA C4SA 1_555 1_555
C9B C10 1_555 1_555
C9A C8A 1_555 1_555
C9VD C8VD 1_555 1_555
C9DD C8DD 1_555 1_555
C9PA C8PA 1_555 1_555
C9SD C8SD 1_555 1_555
C9FD C8FD 1_555 1_555
C9MA C8MA 1_555 1_555
C9YD C8YD 1_555 1_555
C9ED C8ED 1_555 1_555
C9SA C8SA 1_555 1_555
C10A C9 1_555 1_555
C10B C5B 1_555 1_555
C10VD C5VD 1_555 1_555
C10DD C5DD 1_555 1_555
C10PA C5PA 1_555 1_555
C10YD C5YD 1_555 1_555
C10ED C5ED 1_555 1_555
C10SA C5SA 1_555 1_555
C10SD C5SD 1_555 1_555
C10FD C5FD 1_555 1_555
C10MA C5MA 1_555 1_555
C11B C8B 1_555 1_555
C11A C8A 1_555 1_555
C11VD C8VD 1_555 1_555
C11DD C8DD 1_555 1_555
C11PA C8PA 1_555 1_555
C11SD C8SD 1_555 1_555
C11FD C8FD 1_555 1_555
C11MA C8MA 1_555 1_555
C11YD C8YD 1_555 1_555
C11ED C8ED 1_555 1_555
C11SA C8SA 1_555 1_555
H4B C11B 1_555 1_555
H4A C11A 1_555 1_555
H4VD C11VD 1_555 1_555
H4DD C11DD 1_555 1_555
H4PA C11PA 1_555 1_555
H4SD C11SD 1_555 1_555
H4FD C11FD 1_555 1_555
H4MA C11MA 1_555 1_555
H4YD C11YD 1_555 1_555
H4ED C11ED 1_555 1_555
H4SA C11SA 1_555 1_555
H5B C11B 1_555 1_555
H5A C11A 1_555 1_555
H5VD C11VD 1_555 1_555
H5DD C11DD 1_555 1_555
H5PA C11PA 1_555 1_555
H5SD C11SD 1_555 1_555
H5FD C11FD 1_555 1_555
H5MA C11MA 1_555 1_555
H5YD C11YD 1_555 1_555
H5ED C11ED 1_555 1_555
H5SA C11SA 1_555 1_555
C12B C11B 1_555 1_555
C12A C11A 1_555 1_555
C12VD C11VD 1_555 1_555
C12DD C11DD 1_555 1_555
C12PA C11PA 1_555 1_555
C12SD C11SD 1_555 1_555
C12FD C11FD 1_555 1_555
C12MA C11MA 1_555 1_555
C12YD C11YD 1_555 1_555
C12ED C11ED 1_555 1_555
C12SA C11SA 1_555 1_555
H6B C12B 1_555 1_555
H6A C12A 1_555 1_555
H6VD C12VD 1_555 1_555
H6DD C12DD 1_555 1_555
H6PA C12PA 1_555 1_555
H6SD C12SD 1_555 1_555
H6FD C12FD 1_555 1_555
H6MA C12MA 1_555 1_555
H6YD C12YD 1_555 1_555
H6ED C12ED 1_555 1_555
H6SA C12SA 1_555 1_555
H7B C12B 1_555 1_555
H7A C12A 1_555 1_555
H7VD C12VD 1_555 1_555
H7DD C12DD 1_555 1_555
H7PA C12PA 1_555 1_555
H7SD C12SD 1_555 1_555
H7FD C12FD 1_555 1_555
H7MA C12MA 1_555 1_555
H7YD C12YD 1_555 1_555
H7ED C12ED 1_555 1_555
H7SA C12SA 1_555 1_555
H8B C12B 1_555 1_555
H8A C12A 1_555 1_555
H8VD C12VD 1_555 1_555
H8DD C12DD 1_555 1_555
H8PA C12PA 1_555 1_555
H8SD C12SD 1_555 1_555
H8FD C12FD 1_555 1_555
H8MA C12MA 1_555 1_555
H8YD C12YD 1_555 1_555
H8ED C12ED 1_555 1_555
H8SA C12SA 1_555 1_555
C13B C8B 1_555 1_555
C13A C8A 1_555 1_555
C13VD C8VD 1_555 1_555
C13DD C8DD 1_555 1_555
C13PA C8PA 1_555 1_555
C13SD C8SD 1_555 1_555
C13FD C8FD 1_555 1_555
C13MA C8MA 1_555 1_555
C13YD C8YD 1_555 1_555
C13ED C8ED 1_555 1_555
C13SA C8SA 1_555 1_555
H9B C13B 1_555 1_555
H9A C13A 1_555 1_555
H9VD C13VD 1_555 1_555
H9DD C13DD 1_555 1_555
H9PA C13PA 1_555 1_555
H9SD C13SD 1_555 1_555
H9FD C13FD 1_555 1_555
H9MA C13MA 1_555 1_555
H9YD C13YD 1_555 1_555
H9ED C13ED 1_555 1_555
H9SA C13SA 1_555 1_555
H10B C13B 1_555 1_555
H10A C13A 1_555 1_555
H10VD C13VD 1_555 1_555
H10DD C13DD 1_555 1_555
H10PA C13PA 1_555 1_555
H10SD C13SD 1_555 1_555
H10FD C13FD 1_555 1_555
H10MA C13MA 1_555 1_555
H10YD C13YD 1_555 1_555
H10ED C13ED 1_555 1_555
H10SA C13SA 1_555 1_555
C14B C13B 1_555 1_555
C14A C13A 1_555 1_555
C14VD C13VD 1_555 1_555
C14DD C13DD 1_555 1_555
C14PA C13PA 1_555 1_555
C14SD C13SD 1_555 1_555
C14FD C13FD 1_555 1_555
C14MA C13MA 1_555 1_555
C14YD C13YD 1_555 1_555
C14ED C13ED 1_555 1_555
C14SA C13SA 1_555 1_555
H11B C14B 1_555 1_555
H11A C14A 1_555 1_555
H11VD C14VD 1_555 1_555
H11DD C14DD 1_555 1_555
H11PA C14PA 1_555 1_555
H11SD C14SD 1_555 1_555
H11FD C14FD 1_555 1_555
H11MA C14MA 1_555 1_555
H11YD C14YD 1_555 1_555
H11ED C14ED 1_555 1_555
H11SA C14SA 1_555 1_555
H12B C14B 1_555 1_555
H12A C14A 1_555 1_555
H12VD C14VD 1_555 1_555
H12DD C14DD 1_555 1_555
H12PA C14PA 1_555 1_555
H12SD C14SD 1_555 1_555
H12FD C14FD 1_555 1_555
H12MA C14MA 1_555 1_555
H12YD C14YD 1_555 1_555
H12ED C14ED 1_555 1_555
H12SA C14SA 1_555 1_555
H13B C14B 1_555 1_555
H13A C14A 1_555 1_555
H13VD C14VD 1_555 1_555
H13DD C14DD 1_555 1_555
H13PA C14PA 1_555 1_555
H13SD C14SD 1_555 1_555
H13FD C14FD 1_555 1_555
H13MA C14MA 1_555 1_555
H13YD C14YD 1_555 1_555
H13ED C14ED 1_555 1_555
H13SA C14SA 1_555 1_555
O6PA Dy1PA 1_555 1_555
O6FA Dy1FA 1_555 1_555
O6DD Dy1DD 1_555 1_555
C15PA O6PA 1_555 1_555
C15DD O6DD 1_555 1_555
C15FA O6FA 1_555 1_555
O5 Dy1PA 1_555 1_555
C6 C7 1_555 1_555
C9 C10 1_555 1_555
Dy1PA O3PE 1_555 1_555
Dy1FA O3FA 1_555 1_555
Dy1FA O3VD 1_555 1_555
Dy1DD O3PA 1_555 1_555
Dy1DD O3JE 1_555 1_555
Dy1DD O3DD 1_555 1_555
Dy1DD O3JB 1_555 1_555
O4PA C1PA 1_555 1_555
O4VD C1VD 1_555 1_555
O4DD C1DD 1_555 1_555
O4ED C1ED 1_555 1_555
O4MA C1MA 1_555 1_555
C5A C10A 1_555 1_555
C6A C7A 1_555 1_555
C6B C7B 1_555 1_555
C6VD C7VD 1_555 1_555
C6DD C7DD 1_555 1_555
C6PA C7PA 1_555 1_555
C6YD C7YD 1_555 1_555
C6ED C7ED 1_555 1_555
C6SA C7SA 1_555 1_555
C6SD C7SD 1_555 1_555
C6FD C7FD 1_555 1_555
C6MA C7MA 1_555 1_555
C8B C9B 1_555 1_555
C9B C10B 1_555 1_555
C9A C10A 1_555 1_555
C9A C10B 1_555 1_555
C9VD C10VD 1_555 1_555
C9VD C10YD 1_555 1_555
C9DD C10DD 1_555 1_555
C9DD C10ED 1_555 1_555
C9PA C10PA 1_555 1_555
C9PA C10SA 1_555 1_555
C9SD C10VD 1_555 1_555
C9SD C10SD 1_555 1_555
C9FD C10DD 1_555 1_555
C9FD C10FD 1_555 1_555
C9MA C10PA 1_555 1_555
C9MA C10MA 1_555 1_555
C9YD C10YD 1_555 1_555
C9YD C10SD 1_555 1_555
C9ED C10ED 1_555 1_555
C9ED C10FD 1_555 1_555
C9SA C10SA 1_555 1_555
C9SA C10MA 1_555 1_555

#END
