
#######################################################################
#
#                 Cambridge Crystallographic Data Centre
#                                CCDC 
#
#######################################################################
#
# If this CIF has been generated from an entry in the Cambridge 
# Structural Database, then it will include bibliographic, chemical, 
# crystal, experimental, refinement or atomic coordinate data resulting 
# from the CCDC's data processing and validation procedures.
#
#######################################################################

data_BOXFIE
_chemical_name_common            
'catena-(Sesqui-lead(ii) tris(oxonium) octakis(mu!6$-5,5,10,10,15,15-hexaethyltruxene-2,7,12-tricarboxylato)-tris(mu!4$-oxo)-dodeca-lead(ii) hexahydrate)'
_chemical_formula_moiety         
'(Pb1 2+)1.5n,3n(H3 O1 1+),n(C336 H312 O51 Pb12 6-),6n(H2 O1)'
_chemical_name_systematic        
"catena-(Sesqui-lead(ii) tris(oxonium) octakis(\m~6~-5,5,10,10,15,15-hexaethyl-10,15-dihydro-5H-diindeno[1,2-a:1',2'-c]fluorene-2,7,12-tricarboxylato)-tris(\m~4~-oxo)-dodeca-lead(ii) hexahydrate)"
_symmetry_cell_setting           cubic
_symmetry_space_group_name_H-M   'F m -3 c'
_symmetry_Int_Tables_number      226
_space_group_name_Hall           '-F 4a 2 3'
loop_
_symmetry_equiv_pos_site_id
_symmetry_equiv_pos_as_xyz
1 x,y,z
2 z,x,y
3 y,z,x
4 1/2+y,1/2+x,1/2-z
5 1/2+y,1/2-x,1/2+z
6 1/2-y,1/2+x,1/2+z
7 1/2+x,1/2+z,1/2-y
8 1/2-x,1/2+z,1/2+y
9 1/2+x,1/2-z,1/2+y
10 1/2+z,1/2+y,1/2-x
11 1/2+z,1/2-y,1/2+x
12 1/2-z,1/2+y,1/2+x
13 x,1/2+y,1/2+z
14 z,1/2+x,1/2+y
15 y,1/2+z,1/2+x
16 1/2+y,x,-z
17 1/2+y,-x,z
18 1/2-y,x,z
19 1/2+x,z,-y
20 1/2-x,z,y
21 1/2+x,-z,y
22 1/2+z,y,-x
23 1/2+z,-y,x
24 1/2-z,y,x
25 1/2+x,y,1/2+z
26 1/2+z,x,1/2+y
27 1/2+y,z,1/2+x
28 y,1/2+x,-z
29 y,1/2-x,z
30 -y,1/2+x,z
31 x,1/2+z,-y
32 -x,1/2+z,y
33 x,1/2-z,y
34 z,1/2+y,-x
35 z,1/2-y,x
36 -z,1/2+y,x
37 1/2+x,1/2+y,z
38 1/2+z,1/2+x,y
39 1/2+y,1/2+z,x
40 y,x,1/2-z
41 y,-x,1/2+z
42 -y,x,1/2+z
43 x,z,1/2-y
44 -x,z,1/2+y
45 x,-z,1/2+y
46 z,y,1/2-x
47 z,-y,1/2+x
48 -z,y,1/2+x
49 -x,-y,z
50 -x,y,-z
51 x,-y,-z
52 z,-x,-y
53 -z,-x,y
54 -z,x,-y
55 -y,z,-x
56 y,-z,-x
57 -y,-z,x
58 1/2-y,1/2-x,1/2-z
59 1/2-x,1/2-z,1/2-y
60 1/2-z,1/2-y,1/2-x
61 -x,1/2-y,1/2+z
62 -x,1/2+y,1/2-z
63 x,1/2-y,1/2-z
64 z,1/2-x,1/2-y
65 -z,1/2-x,1/2+y
66 -z,1/2+x,1/2-y
67 -y,1/2+z,1/2-x
68 y,1/2-z,1/2-x
69 -y,1/2-z,1/2+x
70 1/2-y,-x,-z
71 1/2-x,-z,-y
72 1/2-z,-y,-x
73 1/2-x,-y,1/2+z
74 1/2-x,y,1/2-z
75 1/2+x,-y,1/2-z
76 1/2+z,-x,1/2-y
77 1/2-z,-x,1/2+y
78 1/2-z,x,1/2-y
79 1/2-y,z,1/2-x
80 1/2+y,-z,1/2-x
81 1/2-y,-z,1/2+x
82 -y,1/2-x,-z
83 -x,1/2-z,-y
84 -z,1/2-y,-x
85 1/2-x,1/2-y,z
86 1/2-x,1/2+y,-z
87 1/2+x,1/2-y,-z
88 1/2+z,1/2-x,-y
89 1/2-z,1/2-x,y
90 1/2-z,1/2+x,-y
91 1/2-y,1/2+z,-x
92 1/2+y,1/2-z,-x
93 1/2-y,1/2-z,x
94 -y,-x,1/2-z
95 -x,-z,1/2-y
96 -z,-y,1/2-x
97 -x,-y,-z
98 -z,-x,-y
99 -y,-z,-x
100 1/2-y,1/2-x,1/2+z
101 1/2-y,1/2+x,1/2-z
102 1/2+y,1/2-x,1/2-z
103 1/2-x,1/2-z,1/2+y
104 1/2+x,1/2-z,1/2-y
105 1/2-x,1/2+z,1/2-y
106 1/2-z,1/2-y,1/2+x
107 1/2-z,1/2+y,1/2-x
108 1/2+z,1/2-y,1/2-x
109 -x,1/2-y,1/2-z
110 -z,1/2-x,1/2-y
111 -y,1/2-z,1/2-x
112 1/2-y,-x,z
113 1/2-y,x,-z
114 1/2+y,-x,-z
115 1/2-x,-z,y
116 1/2+x,-z,-y
117 1/2-x,z,-y
118 1/2-z,-y,x
119 1/2-z,y,-x
120 1/2+z,-y,-x
121 1/2-x,-y,1/2-z
122 1/2-z,-x,1/2-y
123 1/2-y,-z,1/2-x
124 -y,1/2-x,z
125 -y,1/2+x,-z
126 y,1/2-x,-z
127 -x,1/2-z,y
128 x,1/2-z,-y
129 -x,1/2+z,-y
130 -z,1/2-y,x
131 -z,1/2+y,-x
132 z,1/2-y,-x
133 1/2-x,1/2-y,-z
134 1/2-z,1/2-x,-y
135 1/2-y,1/2-z,-x
136 -y,-x,1/2+z
137 -y,x,1/2-z
138 y,-x,1/2-z
139 -x,-z,1/2+y
140 x,-z,1/2-y
141 -x,z,1/2-y
142 -z,-y,1/2+x
143 -z,y,1/2-x
144 z,-y,1/2-x
145 x,y,-z
146 x,-y,z
147 -x,y,z
148 -z,x,y
149 z,x,-y
150 z,-x,y
151 y,-z,x
152 -y,z,x
153 y,z,-x
154 1/2+y,1/2+x,1/2+z
155 1/2+x,1/2+z,1/2+y
156 1/2+z,1/2+y,1/2+x
157 x,1/2+y,1/2-z
158 x,1/2-y,1/2+z
159 -x,1/2+y,1/2+z
160 -z,1/2+x,1/2+y
161 z,1/2+x,1/2-y
162 z,1/2-x,1/2+y
163 y,1/2-z,1/2+x
164 -y,1/2+z,1/2+x
165 y,1/2+z,1/2-x
166 1/2+y,x,z
167 1/2+x,z,y
168 1/2+z,y,x
169 1/2+x,y,1/2-z
170 1/2+x,-y,1/2+z
171 1/2-x,y,1/2+z
172 1/2-z,x,1/2+y
173 1/2+z,x,1/2-y
174 1/2+z,-x,1/2+y
175 1/2+y,-z,1/2+x
176 1/2-y,z,1/2+x
177 1/2+y,z,1/2-x
178 y,1/2+x,z
179 x,1/2+z,y
180 z,1/2+y,x
181 1/2+x,1/2+y,-z
182 1/2+x,1/2-y,z
183 1/2-x,1/2+y,z
184 1/2-z,1/2+x,y
185 1/2+z,1/2+x,-y
186 1/2+z,1/2-x,y
187 1/2+y,1/2-z,x
188 1/2-y,1/2+z,x
189 1/2+y,1/2+z,-x
190 y,x,1/2+z
191 x,z,1/2+y
192 z,y,1/2+x
_cell_length_a                   48.793(6)
_cell_length_b                   48.793(6)
_cell_length_c                   48.793(6)
_cell_angle_alpha                90
_cell_angle_beta                 90
_cell_angle_gamma                90
_cell_volume                     116164
_exptl_crystal_colour            colorless
_exptl_crystal_description       block
_cell_formula_units_Z            8
_exptl_crystal_preparation       
'crystal soaked in Pb(NO3)2 solution for 12 hours'
loop_
_atom_site_label
_atom_site_type_symbol
_atom_site_fract_x
_atom_site_fract_y
_atom_site_fract_z
_atom_site_U_iso_or_equiv
_atom_site_thermal_displace_type
Pb1 Pb 0.222444(14) 1.0000 0.193721(17) 0.1349 Uani
O1 O 0.26176(15) 0.96952(13) 0.19861(16) 0.1310 Uani
O2 O 0.23869(16) 0.96610(14) 0.16067(17) 0.1447 Uani
O3 O 0.2500 1.0000 0.2500 0.1157 Uani
C1 C 0.2577(2) 0.95860(18) 0.1758(3) 0.1150 Uani
C2 C 0.27590(18) 0.93564(17) 0.1661(2) 0.1043 Uani
C3 C 0.2977(2) 0.92772(18) 0.1825(2) 0.1163 Uani
H1 H 0.3013 0.9367 0.1989 0.1400 Uiso
C4 C 0.31435(17) 0.90565(18) 0.1738(2) 0.1073 Uani
C5 C 0.30869(17) 0.89183(17) 0.14954(19) 0.1037 Uani
C6 C 0.28670(19) 0.90074(19) 0.1338(2) 0.1170 Uani
H2 H 0.2825 0.8917 0.1175 0.1400 Uiso
C7 C 0.27112(18) 0.92257(19) 0.1417(2) 0.1137 Uani
H3 H 0.2571 0.9287 0.1304 0.1360 Uiso
C8 C 0.3400(2) 0.8953(2) 0.1872(2) 0.1157 Uani
C9 C 0.34777(18) 0.87201(17) 0.16844(18) 0.1033 Uani
C10 C 0.32905(17) 0.86934(17) 0.14657(17) 0.1000 Uani
C11 C 0.3618(3) 0.9194(3) 0.1867(3) 0.1610 Uani
H4 H 0.3548 0.9347 0.1973 0.1930 Uiso
H5 H 0.3785 0.9131 0.1955 0.1930 Uiso
C12 C 0.3691(3) 0.9299(3) 0.1576(4) 0.2153 Uani
H6 H 0.3734 0.9146 0.1460 0.3240 Uiso
H7 H 0.3847 0.9419 0.1587 0.3240 Uiso
H8 H 0.3538 0.9397 0.1501 0.3240 Uiso
C13 C 0.3325(3) 0.8849(3) 0.2167(3) 0.1537 Uani
H9 H 0.3492 0.8786 0.2256 0.1850 Uiso
H10 H 0.3256 0.9002 0.2273 0.1850 Uiso
C14 C 0.3115(3) 0.8618(3) 0.2180(3) 0.1880 Uani
H11 H 0.2946 0.8679 0.2101 0.2820 Uiso
H12 H 0.3085 0.8567 0.2368 0.2820 Uiso
H13 H 0.3182 0.8463 0.2080 0.2820 Uiso
Pb1W Pb 0.306279(17) 1.0000 0.222444(14) 0.1349 Uani
Pb1SA Pb 0.193721(17) 1.0000 0.277556(14) 0.1349 Uani
Pb1PD Pb 0.277556(14) 1.0000 0.306279(17) 0.1349 Uani
Pb1RD Pb 0.5000 0.806279(17) 0.277556(14) 0.1349 Uani
Pb1P Pb 0.5000 0.777556(14) 0.193721(17) 0.1349 Uani
Pb1AG Pb 0.306279(17) 0.722444(14) 0.0000 0.1349 Uani
Pb1JD Pb 0.277556(14) 0.806279(17) 0.0000 0.1349 Uani
Pb1C Pb 0.5000 0.722444(14) 0.306279(17) 0.1349 Uani
Pb1RA Pb 0.222444(14) 0.806279(17) 0.5000 0.1349 Uani
Pb1QD Pb 0.306279(17) 0.777556(14) 0.5000 0.1349 Uani
Pb1EF Pb 0.193721(17) 1.277556(14) 0.5000 0.1349 Uani
Pb1PA Pb 0.222444(14) 1.193721(17) 0.5000 0.1349 Uani
Pb1B Pb 0.0000 1.193721(17) 0.222444(14) 0.1349 Uani
Pb1MA Pb 0.0000 1.222444(14) 0.306279(17) 0.1349 Uani
Pb1BA Pb 0.0000 1.277556(14) 0.193721(17) 0.1349 Uani
Pb1S Pb 0.277556(14) 1.193721(17) 0.0000 0.1349 Uani
Pb1A Pb 0.193721(17) 1.222444(14) 0.0000 0.1349 Uani
O1SA O 0.19861(16) 0.96952(13) 0.23824(15) 0.1310 Uani
O1OE O 0.26176(15) 1.03048(13) 0.19861(16) 0.1310 Uani
O1ME O 0.19861(16) 1.03048(13) 0.23824(15) 0.1310 Uani
O1W O 0.30139(16) 0.96952(13) 0.26176(15) 0.1310 Uani
O1MD O 0.30139(16) 1.03048(13) 0.26176(15) 0.1310 Uani
O1PD O 0.23824(15) 1.03048(13) 0.30139(16) 0.1310 Uani
O1UB O 0.23824(15) 0.96952(13) 0.30139(16) 0.1310 Uani
O1AC O 0.46952(13) 0.80139(16) 0.23824(15) 0.1310 Uani
O1KC O 0.30139(16) 0.76176(15) 0.03048(13) 0.1310 Uani
O1C O 0.46952(13) 0.76176(15) 0.30139(16) 0.1310 Uani
O1RA O 0.26176(15) 0.80139(16) 0.46952(13) 0.1310 Uani
O1EF O 0.19861(16) 1.23824(15) 0.46952(13) 0.1310 Uani
O1UE O 0.03048(13) 1.19861(16) 0.26176(15) 0.1310 Uani
O1SD O 0.03048(13) 1.23824(15) 0.19861(16) 0.1310 Uani
O1LD O 0.23824(15) 1.19861(16) 0.03048(13) 0.1310 Uani
O2OE O 0.23869(16) 1.03390(14) 0.16067(17) 0.1447 Uani
O2W O 0.33933(17) 0.96610(14) 0.23869(16) 0.1447 Uani
O2MD O 0.33933(17) 1.03390(14) 0.23869(16) 0.1447 Uani
O2SA O 0.16067(17) 0.96610(14) 0.26131(16) 0.1447 Uani
O2ME O 0.16067(17) 1.03390(14) 0.26131(16) 0.1447 Uani
O2PD O 0.26131(16) 1.03390(14) 0.33933(17) 0.1447 Uani
O2UB O 0.26131(16) 0.96610(14) 0.33933(17) 0.1447 Uani
O2AC O 0.46610(14) 0.83933(17) 0.26131(16) 0.1447 Uani
O2KC O 0.33933(17) 0.73869(16) 0.03390(14) 0.1447 Uani
O2C O 0.46610(14) 0.73869(16) 0.33933(17) 0.1447 Uani
O2RA O 0.23869(16) 0.83933(17) 0.46610(14) 0.1447 Uani
O2EF O 0.16067(17) 1.26131(16) 0.46610(14) 0.1447 Uani
O2UE O 0.03390(14) 1.16067(17) 0.23869(16) 0.1447 Uani
O2SD O 0.03390(14) 1.26131(16) 0.16067(17) 0.1447 Uani
O2LD O 0.26131(16) 1.16067(17) 0.03390(14) 0.1447 Uani
C1W C 0.3242(3) 0.95860(18) 0.2577(2) 0.1150 Uani
C1PD C 0.2423(2) 1.04140(18) 0.3242(3) 0.1150 Uani
C1ME C 0.1758(3) 1.04140(18) 0.2423(2) 0.1150 Uani
C1AC C 0.45860(18) 0.8242(3) 0.2423(2) 0.1150 Uani
C1KC C 0.3242(3) 0.7577(2) 0.04140(18) 0.1150 Uani
C1C C 0.45860(18) 0.7577(2) 0.3242(3) 0.1150 Uani
C1RA C 0.2577(2) 0.8242(3) 0.45860(18) 0.1150 Uani
C1EF C 0.1758(3) 1.2423(2) 0.45860(18) 0.1150 Uani
C1UE C 0.04140(18) 1.1758(3) 0.2577(2) 0.1150 Uani
C1SD C 0.04140(18) 1.2423(2) 0.1758(3) 0.1150 Uani
C1LD C 0.2423(2) 1.1758(3) 0.04140(18) 0.1150 Uani
C2W C 0.3339(2) 0.93564(17) 0.27590(18) 0.1043 Uani
C2PD C 0.22410(18) 1.06436(17) 0.3339(2) 0.1043 Uani
C2ME C 0.1661(2) 1.06436(17) 0.22410(18) 0.1043 Uani
C2AC C 0.43564(17) 0.8339(2) 0.22410(18) 0.1043 Uani
C2KC C 0.3339(2) 0.77590(18) 0.06436(17) 0.1043 Uani
C2C C 0.43564(17) 0.77590(18) 0.3339(2) 0.1043 Uani
C2RA C 0.27590(18) 0.8339(2) 0.43564(17) 0.1043 Uani
C2EF C 0.1661(2) 1.22410(18) 0.43564(17) 0.1043 Uani
C2UE C 0.06436(17) 1.1661(2) 0.27590(18) 0.1043 Uani
C2SD C 0.06436(17) 1.22410(18) 0.1661(2) 0.1043 Uani
C2LD C 0.22410(18) 1.1661(2) 0.06436(17) 0.1043 Uani
C3W C 0.3175(2) 0.92772(18) 0.2977(2) 0.1163 Uani
C3PD C 0.2023(2) 1.07228(18) 0.3175(2) 0.1163 Uani
C3ME C 0.1825(2) 1.07228(18) 0.2023(2) 0.1163 Uani
C3AC C 0.42772(18) 0.8175(2) 0.2023(2) 0.1163 Uani
C3KC C 0.3175(2) 0.7977(2) 0.07228(18) 0.1163 Uani
C3C C 0.42772(18) 0.7977(2) 0.3175(2) 0.1163 Uani
C3RA C 0.2977(2) 0.8175(2) 0.42772(18) 0.1163 Uani
C3EF C 0.1825(2) 1.2023(2) 0.42772(18) 0.1163 Uani
C3UE C 0.07228(18) 1.1825(2) 0.2977(2) 0.1163 Uani
C3SD C 0.07228(18) 1.2023(2) 0.1825(2) 0.1163 Uani
C3LD C 0.2023(2) 1.1825(2) 0.07228(18) 0.1163 Uani
H1W H 0.3011 0.9367 0.3013 0.1400 Uiso
H1PD H 0.1987 1.0633 0.3011 0.1400 Uiso
H1ME H 0.1989 1.0633 0.1987 0.1400 Uiso
H1AC H 0.4367 0.8011 0.1987 0.1400 Uiso
H1KC H 0.3011 0.8013 0.0633 0.1400 Uiso
H1C H 0.4367 0.8013 0.3011 0.1400 Uiso
H1RA H 0.3013 0.8011 0.4367 0.1400 Uiso
H1EF H 0.1989 1.1987 0.4367 0.1400 Uiso
H1UE H 0.0633 1.1989 0.3013 0.1400 Uiso
H1SD H 0.0633 1.1987 0.1989 0.1400 Uiso
H1LD H 0.1987 1.1989 0.0633 0.1400 Uiso
C4AC C 0.40565(18) 0.8262(2) 0.18565(17) 0.1073 Uani
C4KC C 0.3262(2) 0.81435(17) 0.09435(18) 0.1073 Uani
C4W C 0.3262(2) 0.90565(18) 0.31435(17) 0.1073 Uani
C4PD C 0.18565(17) 1.09435(18) 0.3262(2) 0.1073 Uani
C4ME C 0.1738(2) 1.09435(18) 0.18565(17) 0.1073 Uani
C4C C 0.40565(18) 0.81435(17) 0.3262(2) 0.1073 Uani
C4RA C 0.31435(17) 0.8262(2) 0.40565(18) 0.1073 Uani
C4EF C 0.1738(2) 1.18565(17) 0.40565(18) 0.1073 Uani
C4UE C 0.09435(18) 1.1738(2) 0.31435(17) 0.1073 Uani
C4SD C 0.09435(18) 1.18565(17) 0.1738(2) 0.1073 Uani
C4LD C 0.18565(17) 1.1738(2) 0.09435(18) 0.1073 Uani
C5AC C 0.39183(17) 0.85046(19) 0.19131(17) 0.1037 Uani
C5KC C 0.35046(19) 0.80869(17) 0.10817(17) 0.1037 Uani
C5W C 0.35046(19) 0.89183(17) 0.30869(17) 0.1037 Uani
C5PD C 0.19131(17) 1.10817(17) 0.35046(19) 0.1037 Uani
C5ME C 0.14954(19) 1.10817(17) 0.19131(17) 0.1037 Uani
C5RA C 0.30869(17) 0.85046(19) 0.39183(17) 0.1037 Uani
C5UE C 0.10817(17) 1.14954(19) 0.30869(17) 0.1037 Uani
C5LD C 0.19131(17) 1.14954(19) 0.10817(17) 0.1037 Uani
C5C C 0.39183(17) 0.80869(17) 0.35046(19) 0.1037 Uani
C5EF C 0.14954(19) 1.19131(17) 0.39183(17) 0.1037 Uani
C5SD C 0.10817(17) 1.19131(17) 0.14954(19) 0.1037 Uani
C6AC C 0.40074(19) 0.8662(2) 0.21330(19) 0.1170 Uani
C6KC C 0.3662(2) 0.78670(19) 0.09926(19) 0.1170 Uani
C6W C 0.3662(2) 0.90074(19) 0.28670(19) 0.1170 Uani
C6PD C 0.21330(19) 1.09926(19) 0.3662(2) 0.1170 Uani
C6ME C 0.1338(2) 1.09926(19) 0.21330(19) 0.1170 Uani
C6RA C 0.28670(19) 0.8662(2) 0.40074(19) 0.1170 Uani
C6UE C 0.09926(19) 1.1338(2) 0.28670(19) 0.1170 Uani
C6LD C 0.21330(19) 1.1338(2) 0.09926(19) 0.1170 Uani
C6C C 0.40074(19) 0.78670(19) 0.3662(2) 0.1170 Uani
C6EF C 0.1338(2) 1.21330(19) 0.40074(19) 0.1170 Uani
C6SD C 0.09926(19) 1.21330(19) 0.1338(2) 0.1170 Uani
H2AC H 0.3917 0.8825 0.2175 0.1400 Uiso
H2KC H 0.3825 0.7825 0.1083 0.1400 Uiso
H2W H 0.3825 0.8917 0.2825 0.1400 Uiso
H2PD H 0.2175 1.1083 0.3825 0.1400 Uiso
H2ME H 0.1175 1.1083 0.2175 0.1400 Uiso
H2RA H 0.2825 0.8825 0.3917 0.1400 Uiso
H2UE H 0.1083 1.1175 0.2825 0.1400 Uiso
H2LD H 0.2175 1.1175 0.1083 0.1400 Uiso
H2C H 0.3917 0.7825 0.3825 0.1400 Uiso
H2EF H 0.1175 1.2175 0.3917 0.1400 Uiso
H2SD H 0.1083 1.2175 0.1175 0.1400 Uiso
C7W C 0.3583(2) 0.92257(19) 0.27112(18) 0.1137 Uani
C7PD C 0.22888(18) 1.07743(19) 0.3583(2) 0.1137 Uani
C7ME C 0.1417(2) 1.07743(19) 0.22888(18) 0.1137 Uani
C7AC C 0.42257(19) 0.8583(2) 0.22888(18) 0.1137 Uani
C7KC C 0.3583(2) 0.77112(18) 0.07743(19) 0.1137 Uani
C7RA C 0.27112(18) 0.8583(2) 0.42257(19) 0.1137 Uani
C7UE C 0.07743(19) 1.1417(2) 0.27112(18) 0.1137 Uani
C7LD C 0.22888(18) 1.1417(2) 0.07743(19) 0.1137 Uani
C7C C 0.42257(19) 0.77112(18) 0.3583(2) 0.1137 Uani
C7EF C 0.1417(2) 1.22888(18) 0.42257(19) 0.1137 Uani
C7SD C 0.07743(19) 1.22888(18) 0.1417(2) 0.1137 Uani
H3W H 0.3696 0.9287 0.2571 0.1360 Uiso
H3PD H 0.2429 1.0713 0.3696 0.1360 Uiso
H3ME H 0.1304 1.0713 0.2429 0.1360 Uiso
H3AC H 0.4287 0.8696 0.2429 0.1360 Uiso
H3KC H 0.3696 0.7571 0.0713 0.1360 Uiso
H3RA H 0.2571 0.8696 0.4287 0.1360 Uiso
H3UE H 0.0713 1.1304 0.2571 0.1360 Uiso
H3LD H 0.2429 1.1304 0.0713 0.1360 Uiso
H3C H 0.4287 0.7571 0.3696 0.1360 Uiso
H3EF H 0.1304 1.2429 0.4287 0.1360 Uiso
H3SD H 0.0713 1.2429 0.1304 0.1360 Uiso
C8KC C 0.3128(2) 0.8400(2) 0.1047(2) 0.1157 Uani
C8AC C 0.3953(2) 0.8128(2) 0.1600(2) 0.1157 Uani
C8W C 0.3128(2) 0.8953(2) 0.3400(2) 0.1157 Uani
C8PD C 0.1600(2) 1.1047(2) 0.3128(2) 0.1157 Uani
C8ME C 0.1872(2) 1.1047(2) 0.1600(2) 0.1157 Uani
C8C C 0.3953(2) 0.8400(2) 0.3128(2) 0.1157 Uani
C8EF C 0.1872(2) 1.1600(2) 0.3953(2) 0.1157 Uani
C8SD C 0.1047(2) 1.1600(2) 0.1872(2) 0.1157 Uani
C8RA C 0.3400(2) 0.8128(2) 0.3953(2) 0.1157 Uani
C8UE C 0.1047(2) 1.1872(2) 0.3400(2) 0.1157 Uani
C8LD C 0.1600(2) 1.1872(2) 0.1047(2) 0.1157 Uani
C9KC C 0.33156(18) 0.84777(18) 0.12799(17) 0.1033 Uani
C9AC C 0.37201(17) 0.83156(18) 0.15223(18) 0.1033 Uani
C9W C 0.33156(18) 0.87201(17) 0.34777(18) 0.1033 Uani
C9PD C 0.15223(18) 1.12799(17) 0.33156(18) 0.1033 Uani
C9ME C 0.16844(18) 1.12799(17) 0.15223(18) 0.1033 Uani
C9C C 0.37201(17) 0.84777(18) 0.33156(18) 0.1033 Uani
C9EF C 0.16844(18) 1.15223(18) 0.37201(17) 0.1033 Uani
C9SD C 0.12799(17) 1.15223(18) 0.16844(18) 0.1033 Uani
C9RA C 0.34777(18) 0.83156(18) 0.37201(17) 0.1033 Uani
C9UE C 0.12799(17) 1.16844(18) 0.34777(18) 0.1033 Uani
C9LD C 0.15223(18) 1.16844(18) 0.12799(17) 0.1033 Uani
C10AC C 0.36934(17) 0.85343(17) 0.17095(17) 0.1000 Uani
C10KC C 0.35343(17) 0.82905(17) 0.13066(17) 0.1000 Uani
C10W C 0.35343(17) 0.86934(17) 0.32905(17) 0.1000 Uani
C10PD C 0.17095(17) 1.13066(17) 0.35343(17) 0.1000 Uani
C10ME C 0.14657(17) 1.13066(17) 0.17095(17) 0.1000 Uani
C10RA C 0.32905(17) 0.85343(17) 0.36934(17) 0.1000 Uani
C10UE C 0.13066(17) 1.14657(17) 0.32905(17) 0.1000 Uani
C10LD C 0.17095(17) 1.14657(17) 0.13066(17) 0.1000 Uani
C10C C 0.36934(17) 0.82905(17) 0.35343(17) 0.1000 Uani
C10EF C 0.14657(17) 1.17095(17) 0.36934(17) 0.1000 Uani
C10SD C 0.13066(17) 1.17095(17) 0.14657(17) 0.1000 Uani
C11KC C 0.3133(3) 0.8618(3) 0.0806(3) 0.1610 Uani
C11AC C 0.4194(3) 0.8133(3) 0.1382(3) 0.1610 Uani
C11W C 0.3133(3) 0.9194(3) 0.3618(3) 0.1610 Uani
C11PD C 0.1382(3) 1.0806(3) 0.3133(3) 0.1610 Uani
C11ME C 0.1867(3) 1.0806(3) 0.1382(3) 0.1610 Uani
C11C C 0.4194(3) 0.8618(3) 0.3133(3) 0.1610 Uani
C11EF C 0.1867(3) 1.1382(3) 0.4194(3) 0.1610 Uani
C11SD C 0.0806(3) 1.1382(3) 0.1867(3) 0.1610 Uani
C11RA C 0.3618(3) 0.8133(3) 0.4194(3) 0.1610 Uani
C11UE C 0.0806(3) 1.1867(3) 0.3618(3) 0.1610 Uani
C11LD C 0.1382(3) 1.1867(3) 0.0806(3) 0.1610 Uani
H4KC H 0.3027 0.8548 0.0653 0.1930 Uiso
H4AC H 0.4347 0.8027 0.1452 0.1930 Uiso
H4W H 0.3027 0.9347 0.3548 0.1930 Uiso
H4PD H 0.1452 1.0653 0.3027 0.1930 Uiso
H4ME H 0.1973 1.0653 0.1452 0.1930 Uiso
H4C H 0.4347 0.8548 0.3027 0.1930 Uiso
H4EF H 0.1973 1.1452 0.4347 0.1930 Uiso
H4SD H 0.0653 1.1452 0.1973 0.1930 Uiso
H4RA H 0.3548 0.8027 0.4347 0.1930 Uiso
H4UE H 0.0653 1.1973 0.3548 0.1930 Uiso
H4LD H 0.1452 1.1973 0.0653 0.1930 Uiso
H5KC H 0.3045 0.8785 0.0869 0.1930 Uiso
H5AC H 0.4131 0.8045 0.1215 0.1930 Uiso
H5W H 0.3045 0.9131 0.3785 0.1930 Uiso
H5PD H 0.1215 1.0869 0.3045 0.1930 Uiso
H5ME H 0.1955 1.0869 0.1215 0.1930 Uiso
H5C H 0.4131 0.8785 0.3045 0.1930 Uiso
H5EF H 0.1955 1.1215 0.4131 0.1930 Uiso
H5SD H 0.0869 1.1215 0.1955 0.1930 Uiso
H5RA H 0.3785 0.8045 0.4131 0.1930 Uiso
H5UE H 0.0869 1.1955 0.3785 0.1930 Uiso
H5LD H 0.1215 1.1955 0.0869 0.1930 Uiso
C12KC C 0.3424(4) 0.8691(3) 0.0701(3) 0.2153 Uani
C12AC C 0.4299(3) 0.8424(4) 0.1309(3) 0.2153 Uani
C12W C 0.3424(4) 0.9299(3) 0.3691(3) 0.2153 Uani
C12PD C 0.1309(3) 1.0701(3) 0.3424(4) 0.2153 Uani
C12ME C 0.1576(4) 1.0701(3) 0.1309(3) 0.2153 Uani
C12C C 0.4299(3) 0.8691(3) 0.3424(4) 0.2153 Uani
C12EF C 0.1576(4) 1.1309(3) 0.4299(3) 0.2153 Uani
C12SD C 0.0701(3) 1.1309(3) 0.1576(4) 0.2153 Uani
C12RA C 0.3691(3) 0.8424(4) 0.4299(3) 0.2153 Uani
C12UE C 0.0701(3) 1.1576(4) 0.3691(3) 0.2153 Uani
C12LD C 0.1309(3) 1.1576(4) 0.0701(3) 0.2153 Uani
H6KC H 0.3540 0.8734 0.0854 0.3240 Uiso
H6AC H 0.4146 0.8540 0.1266 0.3240 Uiso
H6W H 0.3540 0.9146 0.3734 0.3240 Uiso
H6PD H 0.1266 1.0854 0.3540 0.3240 Uiso
H6ME H 0.1460 1.0854 0.1266 0.3240 Uiso
H6C H 0.4146 0.8734 0.3540 0.3240 Uiso
H6EF H 0.1460 1.1266 0.4146 0.3240 Uiso
H6SD H 0.0854 1.1266 0.1460 0.3240 Uiso
H6RA H 0.3734 0.8540 0.4146 0.3240 Uiso
H6UE H 0.0854 1.1460 0.3734 0.3240 Uiso
H6LD H 0.1266 1.1460 0.0854 0.3240 Uiso
H7KC H 0.3413 0.8847 0.0581 0.3240 Uiso
H7AC H 0.4419 0.8413 0.1153 0.3240 Uiso
H7W H 0.3413 0.9419 0.3847 0.3240 Uiso
H7PD H 0.1153 1.0581 0.3413 0.3240 Uiso
H7ME H 0.1587 1.0581 0.1153 0.3240 Uiso
H7C H 0.4419 0.8847 0.3413 0.3240 Uiso
H7EF H 0.1587 1.1153 0.4419 0.3240 Uiso
H7SD H 0.0581 1.1153 0.1587 0.3240 Uiso
H7RA H 0.3847 0.8413 0.4419 0.3240 Uiso
H7UE H 0.0581 1.1587 0.3847 0.3240 Uiso
H7LD H 0.1153 1.1587 0.0581 0.3240 Uiso
H8KC H 0.3499 0.8538 0.0603 0.3240 Uiso
H8AC H 0.4397 0.8499 0.1462 0.3240 Uiso
H8W H 0.3499 0.9397 0.3538 0.3240 Uiso
H8PD H 0.1462 1.0603 0.3499 0.3240 Uiso
H8ME H 0.1501 1.0603 0.1462 0.3240 Uiso
H8C H 0.4397 0.8538 0.3499 0.3240 Uiso
H8EF H 0.1501 1.1462 0.4397 0.3240 Uiso
H8SD H 0.0603 1.1462 0.1501 0.3240 Uiso
H8RA H 0.3538 0.8499 0.4397 0.3240 Uiso
H8UE H 0.0603 1.1501 0.3538 0.3240 Uiso
H8LD H 0.1462 1.1501 0.0603 0.3240 Uiso
C13KC C 0.2833(3) 0.8325(3) 0.1151(3) 0.1537 Uani
C13AC C 0.3849(3) 0.7833(3) 0.1675(3) 0.1537 Uani
C13W C 0.2833(3) 0.8849(3) 0.3325(3) 0.1537 Uani
C13PD C 0.1675(3) 1.1151(3) 0.2833(3) 0.1537 Uani
C13ME C 0.2167(3) 1.1151(3) 0.1675(3) 0.1537 Uani
C13C C 0.3849(3) 0.8325(3) 0.2833(3) 0.1537 Uani
C13EF C 0.2167(3) 1.1675(3) 0.3849(3) 0.1537 Uani
C13SD C 0.1151(3) 1.1675(3) 0.2167(3) 0.1537 Uani
C13RA C 0.3325(3) 0.7833(3) 0.3849(3) 0.1537 Uani
C13UE C 0.1151(3) 1.2167(3) 0.3325(3) 0.1537 Uani
C13LD C 0.1675(3) 1.2167(3) 0.1151(3) 0.1537 Uani
H9KC H 0.2744 0.8492 0.1214 0.1850 Uiso
H9AC H 0.3786 0.7744 0.1508 0.1850 Uiso
H9W H 0.2744 0.8786 0.3492 0.1850 Uiso
H9PD H 0.1508 1.1214 0.2744 0.1850 Uiso
H9ME H 0.2256 1.1214 0.1508 0.1850 Uiso
H9C H 0.3786 0.8492 0.2744 0.1850 Uiso
H9EF H 0.2256 1.1508 0.3786 0.1850 Uiso
H9SD H 0.1214 1.1508 0.2256 0.1850 Uiso
H9RA H 0.3492 0.7744 0.3786 0.1850 Uiso
H9UE H 0.1214 1.2256 0.3492 0.1850 Uiso
H9LD H 0.1508 1.2256 0.1214 0.1850 Uiso
H10KC H 0.2727 0.8256 0.0998 0.1850 Uiso
H10AC H 0.4002 0.7727 0.1744 0.1850 Uiso
H10W H 0.2727 0.9002 0.3256 0.1850 Uiso
H10PD H 0.1744 1.0998 0.2727 0.1850 Uiso
H10ME H 0.2273 1.0998 0.1744 0.1850 Uiso
H10C H 0.4002 0.8256 0.2727 0.1850 Uiso
H10EF H 0.2273 1.1744 0.4002 0.1850 Uiso
H10SD H 0.0998 1.1744 0.2273 0.1850 Uiso
H10RA H 0.3256 0.7727 0.4002 0.1850 Uiso
H10UE H 0.0998 1.2273 0.3256 0.1850 Uiso
H10LD H 0.1744 1.2273 0.0998 0.1850 Uiso
C14KC C 0.2820(3) 0.8115(3) 0.1382(3) 0.1880 Uani
C14AC C 0.3618(3) 0.7820(3) 0.1885(3) 0.1880 Uani
C14W C 0.2820(3) 0.8618(3) 0.3115(3) 0.1880 Uani
C14PD C 0.1885(3) 1.1382(3) 0.2820(3) 0.1880 Uani
C14ME C 0.2180(3) 1.1382(3) 0.1885(3) 0.1880 Uani
C14C C 0.3618(3) 0.8115(3) 0.2820(3) 0.1880 Uani
C14EF C 0.2180(3) 1.1885(3) 0.3618(3) 0.1880 Uani
C14SD C 0.1382(3) 1.1885(3) 0.2180(3) 0.1880 Uani
C14RA C 0.3115(3) 0.7820(3) 0.3618(3) 0.1880 Uani
C14UE C 0.1382(3) 1.2180(3) 0.3115(3) 0.1880 Uani
C14LD C 0.1885(3) 1.2180(3) 0.1382(3) 0.1880 Uani
H11KC H 0.2899 0.7946 0.1321 0.2820 Uiso
H11AC H 0.3679 0.7899 0.2054 0.2820 Uiso
H11W H 0.2899 0.8679 0.2946 0.2820 Uiso
H11PD H 0.2054 1.1321 0.2899 0.2820 Uiso
H11ME H 0.2101 1.1321 0.2054 0.2820 Uiso
H11C H 0.3679 0.7946 0.2899 0.2820 Uiso
H11EF H 0.2101 1.2054 0.3679 0.2820 Uiso
H11SD H 0.1321 1.2054 0.2101 0.2820 Uiso
H11RA H 0.2946 0.7899 0.3679 0.2820 Uiso
H11UE H 0.1321 1.2101 0.2946 0.2820 Uiso
H11LD H 0.2054 1.2101 0.1321 0.2820 Uiso
H12KC H 0.2632 0.8085 0.1433 0.2820 Uiso
H12AC H 0.3567 0.7632 0.1915 0.2820 Uiso
H12W H 0.2632 0.8567 0.3085 0.2820 Uiso
H12PD H 0.1915 1.1433 0.2632 0.2820 Uiso
H12ME H 0.2368 1.1433 0.1915 0.2820 Uiso
H12C H 0.3567 0.8085 0.2632 0.2820 Uiso
H12EF H 0.2368 1.1915 0.3567 0.2820 Uiso
H12SD H 0.1433 1.1915 0.2368 0.2820 Uiso
H12RA H 0.3085 0.7632 0.3567 0.2820 Uiso
H12UE H 0.1433 1.2368 0.3085 0.2820 Uiso
H12LD H 0.1915 1.2368 0.1433 0.2820 Uiso
H13KC H 0.2920 0.8182 0.1537 0.2820 Uiso
H13AC H 0.3463 0.7920 0.1818 0.2820 Uiso
H13W H 0.2920 0.8463 0.3182 0.2820 Uiso
H13PD H 0.1818 1.1537 0.2920 0.2820 Uiso
H13ME H 0.2080 1.1537 0.1818 0.2820 Uiso
H13C H 0.3463 0.8182 0.2920 0.2820 Uiso
H13EF H 0.2080 1.1818 0.3463 0.2820 Uiso
H13SD H 0.1537 1.1818 0.2080 0.2820 Uiso
H13RA H 0.3182 0.7920 0.3463 0.2820 Uiso
H13UE H 0.1537 1.2080 0.3182 0.2820 Uiso
H13LD H 0.1818 1.2080 0.1537 0.2820 Uiso
loop_
_atom_site_aniso_label
_atom_site_aniso_U_11
_atom_site_aniso_U_22
_atom_site_aniso_U_33
_atom_site_aniso_U_23
_atom_site_aniso_U_13
_atom_site_aniso_U_12
Pb1 0.1289(6) 0.0767(4) 0.1992(8) 0.000 0.0544(5) 0.000
O1 0.138(6) 0.090(4) 0.165(6) -0.027(4) 0.009(5) 0.003(4)
O2 0.126(5) 0.112(5) 0.196(7) -0.028(5) -0.022(5) 0.030(4)
O3 0.103(7) 0.141(14) 0.103(7) 0.000 0.000 0.000
C1 0.104(7) 0.081(6) 0.160(9) -0.013(6) 0.004(7) 0.002(5)
C2 0.091(6) 0.077(5) 0.145(8) 0.001(5) -0.001(5) 0.001(4)
C3 0.116(7) 0.090(6) 0.143(8) -0.031(5) -0.007(6) 0.000(5)
C4 0.096(6) 0.097(6) 0.129(7) -0.022(5) -0.023(5) 0.011(5)
C5 0.105(6) 0.093(5) 0.113(6) -0.017(5) -0.024(5) 0.012(5)
C6 0.112(6) 0.116(7) 0.123(7) -0.024(6) -0.026(6) 0.027(6)
C7 0.105(6) 0.105(6) 0.131(7) -0.017(6) -0.025(5) 0.022(5)
C8 0.117(7) 0.106(6) 0.124(8) -0.038(6) -0.033(6) 0.019(5)
C9 0.103(6) 0.098(6) 0.109(6) -0.022(5) -0.022(5) 0.021(5)
C10 0.099(6) 0.096(6) 0.105(6) -0.016(5) -0.023(5) 0.019(5)
C11 0.140(10) 0.134(9) 0.209(14) -0.033(9) -0.061(10) 0.013(8)
C12 0.187(15) 0.199(15) 0.26(2) 0.010(15) -0.006(14) -0.048(12)
C13 0.163(11) 0.156(11) 0.142(10) -0.054(9) -0.027(8) 0.043(9)
C14 0.222(16) 0.186(15) 0.156(12) -0.004(10) 0.019(11) 0.022(12)
Pb1W 0.1992 0.0767 0.1289 0 -0.0544 0
Pb1SA 0.1992 0.0767 0.1289 0 -0.0544 0
Pb1PD 0.1289 0.0767 0.1992 0 0.0544 0
Pb1RD 0.0767 0.1992 0.1289 0.0544 0 0
Pb1P 0.0767 0.1289 0.1992 -0.0544 0 0
Pb1AG 0.1992 0.1289 0.0767 0 0 -0.0544
Pb1JD 0.1289 0.1992 0.0767 0 0 0.0544
Pb1C 0.0767 0.1289 0.1992 -0.0544 0 0
Pb1RA 0.1289 0.1992 0.0767 0 0 -0.0544
Pb1QD 0.1992 0.1289 0.0767 0 0 0.0544
Pb1EF 0.1992 0.1289 0.0767 0 0 -0.0544
Pb1PA 0.1289 0.1992 0.0767 0 0 0.0544
Pb1B 0.0767 0.1992 0.1289 0.0544 0 0
Pb1MA 0.0767 0.1289 0.1992 -0.0544 0 0
Pb1BA 0.0767 0.1289 0.1992 -0.0544 0 0
Pb1S 0.1289 0.1992 0.0767 0 0 -0.0544
Pb1A 0.1992 0.1289 0.0767 0 0 0.0544
O1SA 0.165 0.09 0.138 -0.003 -0.009 -0.027
O1OE 0.138 0.09 0.165 0.027 0.009 -0.003
O1ME 0.165 0.09 0.138 0.003 -0.009 0.027
O1W 0.165 0.09 0.138 0.003 -0.009 0.027
O1MD 0.165 0.09 0.138 -0.003 -0.009 -0.027
O1PD 0.138 0.09 0.165 -0.027 0.009 0.003
O1UB 0.138 0.09 0.165 0.027 0.009 -0.003
O1AC 0.09 0.165 0.138 0.009 -0.003 0.027
O1KC 0.165 0.138 0.09 -0.003 -0.027 -0.009
O1C 0.09 0.138 0.165 -0.009 0.027 0.003
O1RA 0.138 0.165 0.09 0.027 0.003 -0.009
O1EF 0.165 0.138 0.09 -0.003 -0.027 -0.009
O1UE 0.09 0.165 0.138 0.009 -0.003 0.027
O1SD 0.09 0.138 0.165 -0.009 0.027 0.003
O1LD 0.138 0.165 0.09 0.027 0.003 -0.009
O2OE 0.126 0.112 0.196 0.028 -0.022 -0.03
O2W 0.196 0.112 0.126 0.03 0.022 0.028
O2MD 0.196 0.112 0.126 -0.03 0.022 -0.028
O2SA 0.196 0.112 0.126 -0.03 0.022 -0.028
O2ME 0.196 0.112 0.126 0.03 0.022 0.028
O2PD 0.126 0.112 0.196 -0.028 -0.022 0.03
O2UB 0.126 0.112 0.196 0.028 -0.022 -0.03
O2AC 0.112 0.196 0.126 -0.022 -0.03 0.028
O2KC 0.196 0.126 0.112 -0.03 -0.028 0.022
O2C 0.112 0.126 0.196 0.022 0.028 0.03
O2RA 0.126 0.196 0.112 0.028 0.03 0.022
O2EF 0.196 0.126 0.112 -0.03 -0.028 0.022
O2UE 0.112 0.196 0.126 -0.022 -0.03 0.028
O2SD 0.112 0.126 0.196 0.022 0.028 0.03
O2LD 0.126 0.196 0.112 0.028 0.03 0.022
C1W 0.16 0.081 0.104 0.002 -0.004 0.013
C1PD 0.104 0.081 0.16 -0.013 0.004 0.002
C1ME 0.16 0.081 0.104 0.002 -0.004 0.013
C1AC 0.081 0.16 0.104 0.004 -0.002 0.013
C1KC 0.16 0.104 0.081 -0.002 -0.013 -0.004
C1C 0.081 0.104 0.16 -0.004 0.013 0.002
C1RA 0.104 0.16 0.081 0.013 0.002 -0.004
C1EF 0.16 0.104 0.081 -0.002 -0.013 -0.004
C1UE 0.081 0.16 0.104 0.004 -0.002 0.013
C1SD 0.081 0.104 0.16 -0.004 0.013 0.002
C1LD 0.104 0.16 0.081 0.013 0.002 -0.004
C2W 0.145 0.077 0.091 0.001 0.001 -0.001
C2PD 0.091 0.077 0.145 0.001 -0.001 0.001
C2ME 0.145 0.077 0.091 0.001 0.001 -0.001
C2AC 0.077 0.145 0.091 -0.001 -0.001 -0.001
C2KC 0.145 0.091 0.077 -0.001 0.001 0.001
C2C 0.077 0.091 0.145 0.001 -0.001 0.001
C2RA 0.091 0.145 0.077 -0.001 0.001 0.001
C2EF 0.145 0.091 0.077 -0.001 0.001 0.001
C2UE 0.077 0.145 0.091 -0.001 -0.001 -0.001
C2SD 0.077 0.091 0.145 0.001 -0.001 0.001
C2LD 0.091 0.145 0.077 -0.001 0.001 0.001
C3W 0.143 0.09 0.116 0 0.007 0.031
C3PD 0.116 0.09 0.143 -0.031 -0.007 0
C3ME 0.143 0.09 0.116 0 0.007 0.031
C3AC 0.09 0.143 0.116 -0.007 0 0.031
C3KC 0.143 0.116 0.09 0 -0.031 0.007
C3C 0.09 0.116 0.143 0.007 0.031 0
C3RA 0.116 0.143 0.09 0.031 0 0.007
C3EF 0.143 0.116 0.09 0 -0.031 0.007
C3UE 0.09 0.143 0.116 -0.007 0 0.031
C3SD 0.09 0.116 0.143 0.007 0.031 0
C3LD 0.116 0.143 0.09 0.031 0 0.007
C4AC 0.097 0.129 0.096 -0.023 -0.011 0.022
C4KC 0.129 0.096 0.097 -0.011 -0.022 0.023
C4W 0.129 0.097 0.096 0.011 0.023 0.022
C4PD 0.096 0.097 0.129 -0.022 -0.023 0.011
C4ME 0.129 0.097 0.096 0.011 0.023 0.022
C4C 0.097 0.096 0.129 0.023 0.022 0.011
C4RA 0.096 0.129 0.097 0.022 0.011 0.023
C4EF 0.129 0.096 0.097 -0.011 -0.022 0.023
C4UE 0.097 0.129 0.096 -0.023 -0.011 0.022
C4SD 0.097 0.096 0.129 0.023 0.022 0.011
C4LD 0.096 0.129 0.097 0.022 0.011 0.023
C5AC 0.093 0.113 0.105 -0.024 -0.012 0.017
C5KC 0.113 0.105 0.093 -0.012 -0.017 0.024
C5W 0.113 0.093 0.105 0.012 0.024 0.017
C5PD 0.105 0.093 0.113 -0.017 -0.024 0.012
C5ME 0.113 0.093 0.105 0.012 0.024 0.017
C5RA 0.105 0.113 0.093 0.017 0.012 0.024
C5UE 0.093 0.113 0.105 -0.024 -0.012 0.017
C5LD 0.105 0.113 0.093 0.017 0.012 0.024
C5C 0.093 0.105 0.113 0.024 0.017 0.012
C5EF 0.113 0.105 0.093 -0.012 -0.017 0.024
C5SD 0.093 0.105 0.113 0.024 0.017 0.012
C6AC 0.116 0.123 0.112 -0.026 -0.027 0.024
C6KC 0.123 0.112 0.116 -0.027 -0.024 0.026
C6W 0.123 0.116 0.112 0.027 0.026 0.024
C6PD 0.112 0.116 0.123 -0.024 -0.026 0.027
C6ME 0.123 0.116 0.112 0.027 0.026 0.024
C6RA 0.112 0.123 0.116 0.024 0.027 0.026
C6UE 0.116 0.123 0.112 -0.026 -0.027 0.024
C6LD 0.112 0.123 0.116 0.024 0.027 0.026
C6C 0.116 0.112 0.123 0.026 0.024 0.027
C6EF 0.123 0.112 0.116 -0.027 -0.024 0.026
C6SD 0.116 0.112 0.123 0.026 0.024 0.027
C7W 0.131 0.105 0.105 0.022 0.025 0.017
C7PD 0.105 0.105 0.131 -0.017 -0.025 0.022
C7ME 0.131 0.105 0.105 0.022 0.025 0.017
C7AC 0.105 0.131 0.105 -0.025 -0.022 0.017
C7KC 0.131 0.105 0.105 -0.022 -0.017 0.025
C7RA 0.105 0.131 0.105 0.017 0.022 0.025
C7UE 0.105 0.131 0.105 -0.025 -0.022 0.017
C7LD 0.105 0.131 0.105 0.017 0.022 0.025
C7C 0.105 0.105 0.131 0.025 0.017 0.022
C7EF 0.131 0.105 0.105 -0.022 -0.017 0.025
C7SD 0.105 0.105 0.131 0.025 0.017 0.022
C8KC 0.124 0.117 0.106 -0.019 -0.038 0.033
C8AC 0.106 0.124 0.117 -0.033 -0.019 0.038
C8W 0.124 0.106 0.117 0.019 0.033 0.038
C8PD 0.117 0.106 0.124 -0.038 -0.033 0.019
C8ME 0.124 0.106 0.117 0.019 0.033 0.038
C8C 0.106 0.117 0.124 0.033 0.038 0.019
C8EF 0.124 0.117 0.106 -0.019 -0.038 0.033
C8SD 0.106 0.117 0.124 0.033 0.038 0.019
C8RA 0.117 0.124 0.106 0.038 0.019 0.033
C8UE 0.106 0.124 0.117 -0.033 -0.019 0.038
C8LD 0.117 0.124 0.106 0.038 0.019 0.033
C9KC 0.109 0.103 0.098 -0.021 -0.022 0.022
C9AC 0.098 0.109 0.103 -0.022 -0.021 0.022
C9W 0.109 0.098 0.103 0.021 0.022 0.022
C9PD 0.103 0.098 0.109 -0.022 -0.022 0.021
C9ME 0.109 0.098 0.103 0.021 0.022 0.022
C9C 0.098 0.103 0.109 0.022 0.022 0.021
C9EF 0.109 0.103 0.098 -0.021 -0.022 0.022
C9SD 0.098 0.103 0.109 0.022 0.022 0.021
C9RA 0.103 0.109 0.098 0.022 0.021 0.022
C9UE 0.098 0.109 0.103 -0.022 -0.021 0.022
C9LD 0.103 0.109 0.098 0.022 0.021 0.022
C10AC 0.096 0.105 0.099 -0.023 -0.019 0.016
C10KC 0.105 0.099 0.096 -0.019 -0.016 0.023
C10W 0.105 0.096 0.099 0.019 0.023 0.016
C10PD 0.099 0.096 0.105 -0.016 -0.023 0.019
C10ME 0.105 0.096 0.099 0.019 0.023 0.016
C10RA 0.099 0.105 0.096 0.016 0.019 0.023
C10UE 0.096 0.105 0.099 -0.023 -0.019 0.016
C10LD 0.099 0.105 0.096 0.016 0.019 0.023
C10C 0.096 0.099 0.105 0.023 0.016 0.019
C10EF 0.105 0.099 0.096 -0.019 -0.016 0.023
C10SD 0.096 0.099 0.105 0.023 0.016 0.019
C11KC 0.209 0.14 0.134 -0.013 -0.033 0.061
C11AC 0.134 0.209 0.14 -0.061 -0.013 0.033
C11W 0.209 0.134 0.14 0.013 0.061 0.033
C11PD 0.14 0.134 0.209 -0.033 -0.061 0.013
C11ME 0.209 0.134 0.14 0.013 0.061 0.033
C11C 0.134 0.14 0.209 0.061 0.033 0.013
C11EF 0.209 0.14 0.134 -0.013 -0.033 0.061
C11SD 0.134 0.14 0.209 0.061 0.033 0.013
C11RA 0.14 0.209 0.134 0.033 0.013 0.061
C11UE 0.134 0.209 0.14 -0.061 -0.013 0.033
C11LD 0.14 0.209 0.134 0.033 0.013 0.061
C12KC 0.26 0.187 0.199 0.048 0.01 0.006
C12AC 0.199 0.26 0.187 -0.006 0.048 -0.01
C12W 0.26 0.199 0.187 -0.048 0.006 -0.01
C12PD 0.187 0.199 0.26 0.01 -0.006 -0.048
C12ME 0.26 0.199 0.187 -0.048 0.006 -0.01
C12C 0.199 0.187 0.26 0.006 -0.01 -0.048
C12EF 0.26 0.187 0.199 0.048 0.01 0.006
C12SD 0.199 0.187 0.26 0.006 -0.01 -0.048
C12RA 0.187 0.26 0.199 -0.01 -0.048 0.006
C12UE 0.199 0.26 0.187 -0.006 0.048 -0.01
C12LD 0.187 0.26 0.199 -0.01 -0.048 0.006
C13KC 0.142 0.163 0.156 -0.043 -0.054 0.027
C13AC 0.156 0.142 0.163 -0.027 -0.043 0.054
C13W 0.142 0.156 0.163 0.043 0.027 0.054
C13PD 0.163 0.156 0.142 -0.054 -0.027 0.043
C13ME 0.142 0.156 0.163 0.043 0.027 0.054
C13C 0.156 0.163 0.142 0.027 0.054 0.043
C13EF 0.142 0.163 0.156 -0.043 -0.054 0.027
C13SD 0.156 0.163 0.142 0.027 0.054 0.043
C13RA 0.163 0.142 0.156 0.054 0.043 0.027
C13UE 0.156 0.142 0.163 -0.027 -0.043 0.054
C13LD 0.163 0.142 0.156 0.054 0.043 0.027
C14KC 0.156 0.222 0.186 -0.022 -0.004 -0.019
C14AC 0.186 0.156 0.222 0.019 -0.022 0.004
C14W 0.156 0.186 0.222 0.022 -0.019 0.004
C14PD 0.222 0.186 0.156 -0.004 0.019 0.022
C14ME 0.156 0.186 0.222 0.022 -0.019 0.004
C14C 0.186 0.222 0.156 -0.019 0.004 0.022
C14EF 0.156 0.222 0.186 -0.022 -0.004 -0.019
C14SD 0.186 0.222 0.156 -0.019 0.004 0.022
C14RA 0.222 0.156 0.186 0.004 0.022 -0.019
C14UE 0.186 0.156 0.222 0.019 -0.022 0.004
C14LD 0.222 0.156 0.186 0.004 0.022 -0.019
loop_
_geom_bond_atom_site_label_1
_geom_bond_atom_site_label_2
_geom_bond_site_symmetry_1
_geom_bond_site_symmetry_2
Pb1 O1 1_555 1_555
O1 C1 1_555 1_555
O2 Pb1 1_555 1_555
O3 Pb1 1_555 1_555
C1 O2 1_555 1_555
C2 C1 1_555 1_555
C3 C2 1_555 1_555
H1 C3 1_555 1_555
C4 C3 1_555 1_555
C5 C4 1_555 1_555
C6 C5 1_555 1_555
H2 C6 1_555 1_555
C7 C2 1_555 1_555
H3 C7 1_555 1_555
C8 C4 1_555 1_555
C9 C8 1_555 1_555
C10 C5 1_555 1_555
C11 C8 1_555 1_555
H4 C11 1_555 1_555
H5 C11 1_555 1_555
C12 C11 1_555 1_555
H6 C12 1_555 1_555
H7 C12 1_555 1_555
H8 C12 1_555 1_555
C13 C8 1_555 1_555
H9 C13 1_555 1_555
H10 C13 1_555 1_555
C14 C13 1_555 1_555
H11 C14 1_555 1_555
H12 C14 1_555 1_555
H13 C14 1_555 1_555
Pb1W O1 1_555 1_555
Pb1SA O3 1_555 1_555
Pb1PD O3 1_555 1_555
Pb1RD O1AC 1_555 1_555
Pb1P O1AC 1_555 1_555
Pb1AG O1KC 1_555 1_555
Pb1JD O1KC 1_555 1_555
Pb1C O1C 1_555 1_555
Pb1RA O1RA 1_555 1_555
Pb1QD O1RA 1_555 1_555
Pb1EF O1EF 1_555 1_555
Pb1PA O1EF 1_555 1_555
Pb1B O1UE 1_555 1_555
Pb1MA O1UE 1_555 1_555
Pb1BA O1SD 1_555 1_555
Pb1S O1LD 1_555 1_555
Pb1A O1LD 1_555 1_555
O1SA Pb1 1_555 1_555
O1OE Pb1 1_555 1_555
O1ME Pb1 1_555 1_555
O1W Pb1W 1_555 1_555
O1MD Pb1W 1_555 1_555
O1PD Pb1SA 1_555 1_555
O1UB Pb1SA 1_555 1_555
O1AC C1AC 1_555 1_555
O1KC C1KC 1_555 1_555
O1C Pb1RD 1_555 1_555
O1RA C1RA 1_555 1_555
O1EF C1EF 1_555 1_555
O1UE C1UE 1_555 1_555
O1SD Pb1B 1_555 1_555
O1LD C1LD 1_555 1_555
O2OE Pb1 1_555 1_555
O2W Pb1W 1_555 1_555
O2MD Pb1W 1_555 1_555
O2SA Pb1SA 1_555 1_555
O2ME Pb1SA 1_555 1_555
O2PD Pb1PD 1_555 1_555
O2UB Pb1PD 1_555 1_555
O2AC Pb1RD 1_555 1_555
O2KC Pb1AG 1_555 1_555
O2C Pb1C 1_555 1_555
O2RA Pb1RA 1_555 1_555
O2EF Pb1EF 1_555 1_555
O2UE Pb1B 1_555 1_555
O2SD Pb1BA 1_555 1_555
O2LD Pb1S 1_555 1_555
C1W O1W 1_555 1_555
C1PD O1PD 1_555 1_555
C1ME O1ME 1_555 1_555
C1AC O2AC 1_555 1_555
C1KC O2KC 1_555 1_555
C1C O1C 1_555 1_555
C1RA O2RA 1_555 1_555
C1EF O2EF 1_555 1_555
C1UE O2UE 1_555 1_555
C1SD O1SD 1_555 1_555
C1LD O2LD 1_555 1_555
C2W C1W 1_555 1_555
C2PD C1PD 1_555 1_555
C2ME C1ME 1_555 1_555
C2AC C1AC 1_555 1_555
C2KC C1KC 1_555 1_555
C2C C1C 1_555 1_555
C2RA C1RA 1_555 1_555
C2EF C1EF 1_555 1_555
C2UE C1UE 1_555 1_555
C2SD C1SD 1_555 1_555
C2LD C1LD 1_555 1_555
C3W C2W 1_555 1_555
C3PD C2PD 1_555 1_555
C3ME C2ME 1_555 1_555
C3AC C2AC 1_555 1_555
C3KC C2KC 1_555 1_555
C3C C2C 1_555 1_555
C3RA C2RA 1_555 1_555
C3EF C2EF 1_555 1_555
C3UE C2UE 1_555 1_555
C3SD C2SD 1_555 1_555
C3LD C2LD 1_555 1_555
H1W C3W 1_555 1_555
H1PD C3PD 1_555 1_555
H1ME C3ME 1_555 1_555
H1AC C3AC 1_555 1_555
H1KC C3KC 1_555 1_555
H1C C3C 1_555 1_555
H1RA C3RA 1_555 1_555
H1EF C3EF 1_555 1_555
H1UE C3UE 1_555 1_555
H1SD C3SD 1_555 1_555
H1LD C3LD 1_555 1_555
C4AC C3AC 1_555 1_555
C4KC C3KC 1_555 1_555
C4W C3W 1_555 1_555
C4PD C3PD 1_555 1_555
C4ME C3ME 1_555 1_555
C4C C3C 1_555 1_555
C4RA C3RA 1_555 1_555
C4EF C3EF 1_555 1_555
C4UE C3UE 1_555 1_555
C4SD C3SD 1_555 1_555
C4LD C3LD 1_555 1_555
C5AC C4AC 1_555 1_555
C5KC C4KC 1_555 1_555
C5W C4W 1_555 1_555
C5PD C4PD 1_555 1_555
C5ME C4ME 1_555 1_555
C5RA C4RA 1_555 1_555
C5UE C4UE 1_555 1_555
C5LD C4LD 1_555 1_555
C5C C4C 1_555 1_555
C5EF C4EF 1_555 1_555
C5SD C4SD 1_555 1_555
C6AC C5AC 1_555 1_555
C6KC C5KC 1_555 1_555
C6W C5W 1_555 1_555
C6PD C5PD 1_555 1_555
C6ME C5ME 1_555 1_555
C6RA C5RA 1_555 1_555
C6UE C5UE 1_555 1_555
C6LD C5LD 1_555 1_555
C6C C5C 1_555 1_555
C6EF C5EF 1_555 1_555
C6SD C5SD 1_555 1_555
H2AC C6AC 1_555 1_555
H2KC C6KC 1_555 1_555
H2W C6W 1_555 1_555
H2PD C6PD 1_555 1_555
H2ME C6ME 1_555 1_555
H2RA C6RA 1_555 1_555
H2UE C6UE 1_555 1_555
H2LD C6LD 1_555 1_555
H2C C6C 1_555 1_555
H2EF C6EF 1_555 1_555
H2SD C6SD 1_555 1_555
C7W C2W 1_555 1_555
C7PD C2PD 1_555 1_555
C7ME C2ME 1_555 1_555
C7AC C2AC 1_555 1_555
C7KC C2KC 1_555 1_555
C7RA C2RA 1_555 1_555
C7UE C2UE 1_555 1_555
C7LD C2LD 1_555 1_555
C7C C2C 1_555 1_555
C7EF C2EF 1_555 1_555
C7SD C2SD 1_555 1_555
H3W C7W 1_555 1_555
H3PD C7PD 1_555 1_555
H3ME C7ME 1_555 1_555
H3AC C7AC 1_555 1_555
H3KC C7KC 1_555 1_555
H3RA C7RA 1_555 1_555
H3UE C7UE 1_555 1_555
H3LD C7LD 1_555 1_555
H3C C7C 1_555 1_555
H3EF C7EF 1_555 1_555
H3SD C7SD 1_555 1_555
C8KC C4KC 1_555 1_555
C8AC C4AC 1_555 1_555
C8W C4W 1_555 1_555
C8PD C4PD 1_555 1_555
C8ME C4ME 1_555 1_555
C8C C4C 1_555 1_555
C8EF C4EF 1_555 1_555
C8SD C4SD 1_555 1_555
C8RA C4RA 1_555 1_555
C8UE C4UE 1_555 1_555
C8LD C4LD 1_555 1_555
C9KC C10 1_555 1_555
C9AC C8AC 1_555 1_555
C9W C8W 1_555 1_555
C9PD C8PD 1_555 1_555
C9ME C8ME 1_555 1_555
C9C C8C 1_555 1_555
C9EF C8EF 1_555 1_555
C9SD C8SD 1_555 1_555
C9RA C8RA 1_555 1_555
C9UE C8UE 1_555 1_555
C9LD C8LD 1_555 1_555
C10AC C9 1_555 1_555
C10KC C5KC 1_555 1_555
C10W C5W 1_555 1_555
C10PD C5PD 1_555 1_555
C10ME C5ME 1_555 1_555
C10RA C5RA 1_555 1_555
C10UE C5UE 1_555 1_555
C10LD C5LD 1_555 1_555
C10C C5C 1_555 1_555
C10EF C5EF 1_555 1_555
C10SD C5SD 1_555 1_555
C11KC C8KC 1_555 1_555
C11AC C8AC 1_555 1_555
C11W C8W 1_555 1_555
C11PD C8PD 1_555 1_555
C11ME C8ME 1_555 1_555
C11C C8C 1_555 1_555
C11EF C8EF 1_555 1_555
C11SD C8SD 1_555 1_555
C11RA C8RA 1_555 1_555
C11UE C8UE 1_555 1_555
C11LD C8LD 1_555 1_555
H4KC C11KC 1_555 1_555
H4AC C11AC 1_555 1_555
H4W C11W 1_555 1_555
H4PD C11PD 1_555 1_555
H4ME C11ME 1_555 1_555
H4C C11C 1_555 1_555
H4EF C11EF 1_555 1_555
H4SD C11SD 1_555 1_555
H4RA C11RA 1_555 1_555
H4UE C11UE 1_555 1_555
H4LD C11LD 1_555 1_555
H5KC C11KC 1_555 1_555
H5AC C11AC 1_555 1_555
H5W C11W 1_555 1_555
H5PD C11PD 1_555 1_555
H5ME C11ME 1_555 1_555
H5C C11C 1_555 1_555
H5EF C11EF 1_555 1_555
H5SD C11SD 1_555 1_555
H5RA C11RA 1_555 1_555
H5UE C11UE 1_555 1_555
H5LD C11LD 1_555 1_555
C12KC C11KC 1_555 1_555
C12AC C11AC 1_555 1_555
C12W C11W 1_555 1_555
C12PD C11PD 1_555 1_555
C12ME C11ME 1_555 1_555
C12C C11C 1_555 1_555
C12EF C11EF 1_555 1_555
C12SD C11SD 1_555 1_555
C12RA C11RA 1_555 1_555
C12UE C11UE 1_555 1_555
C12LD C11LD 1_555 1_555
H6KC C12KC 1_555 1_555
H6AC C12AC 1_555 1_555
H6W C12W 1_555 1_555
H6PD C12PD 1_555 1_555
H6ME C12ME 1_555 1_555
H6C C12C 1_555 1_555
H6EF C12EF 1_555 1_555
H6SD C12SD 1_555 1_555
H6RA C12RA 1_555 1_555
H6UE C12UE 1_555 1_555
H6LD C12LD 1_555 1_555
H7KC C12KC 1_555 1_555
H7AC C12AC 1_555 1_555
H7W C12W 1_555 1_555
H7PD C12PD 1_555 1_555
H7ME C12ME 1_555 1_555
H7C C12C 1_555 1_555
H7EF C12EF 1_555 1_555
H7SD C12SD 1_555 1_555
H7RA C12RA 1_555 1_555
H7UE C12UE 1_555 1_555
H7LD C12LD 1_555 1_555
H8KC C12KC 1_555 1_555
H8AC C12AC 1_555 1_555
H8W C12W 1_555 1_555
H8PD C12PD 1_555 1_555
H8ME C12ME 1_555 1_555
H8C C12C 1_555 1_555
H8EF C12EF 1_555 1_555
H8SD C12SD 1_555 1_555
H8RA C12RA 1_555 1_555
H8UE C12UE 1_555 1_555
H8LD C12LD 1_555 1_555
C13KC C8KC 1_555 1_555
C13AC C8AC 1_555 1_555
C13W C8W 1_555 1_555
C13PD C8PD 1_555 1_555
C13ME C8ME 1_555 1_555
C13C C8C 1_555 1_555
C13EF C8EF 1_555 1_555
C13SD C8SD 1_555 1_555
C13RA C8RA 1_555 1_555
C13UE C8UE 1_555 1_555
C13LD C8LD 1_555 1_555
H9KC C13KC 1_555 1_555
H9AC C13AC 1_555 1_555
H9W C13W 1_555 1_555
H9PD C13PD 1_555 1_555
H9ME C13ME 1_555 1_555
H9C C13C 1_555 1_555
H9EF C13EF 1_555 1_555
H9SD C13SD 1_555 1_555
H9RA C13RA 1_555 1_555
H9UE C13UE 1_555 1_555
H9LD C13LD 1_555 1_555
H10KC C13KC 1_555 1_555
H10AC C13AC 1_555 1_555
H10W C13W 1_555 1_555
H10PD C13PD 1_555 1_555
H10ME C13ME 1_555 1_555
H10C C13C 1_555 1_555
H10EF C13EF 1_555 1_555
H10SD C13SD 1_555 1_555
H10RA C13RA 1_555 1_555
H10UE C13UE 1_555 1_555
H10LD C13LD 1_555 1_555
C14KC C13KC 1_555 1_555
C14AC C13AC 1_555 1_555
C14W C13W 1_555 1_555
C14PD C13PD 1_555 1_555
C14ME C13ME 1_555 1_555
C14C C13C 1_555 1_555
C14EF C13EF 1_555 1_555
C14SD C13SD 1_555 1_555
C14RA C13RA 1_555 1_555
C14UE C13UE 1_555 1_555
C14LD C13LD 1_555 1_555
H11KC C14KC 1_555 1_555
H11AC C14AC 1_555 1_555
H11W C14W 1_555 1_555
H11PD C14PD 1_555 1_555
H11ME C14ME 1_555 1_555
H11C C14C 1_555 1_555
H11EF C14EF 1_555 1_555
H11SD C14SD 1_555 1_555
H11RA C14RA 1_555 1_555
H11UE C14UE 1_555 1_555
H11LD C14LD 1_555 1_555
H12KC C14KC 1_555 1_555
H12AC C14AC 1_555 1_555
H12W C14W 1_555 1_555
H12PD C14PD 1_555 1_555
H12ME C14ME 1_555 1_555
H12C C14C 1_555 1_555
H12EF C14EF 1_555 1_555
H12SD C14SD 1_555 1_555
H12RA C14RA 1_555 1_555
H12UE C14UE 1_555 1_555
H12LD C14LD 1_555 1_555
H13KC C14KC 1_555 1_555
H13AC C14AC 1_555 1_555
H13W C14W 1_555 1_555
H13PD C14PD 1_555 1_555
H13ME C14ME 1_555 1_555
H13C C14C 1_555 1_555
H13EF C14EF 1_555 1_555
H13SD C14SD 1_555 1_555
H13RA C14RA 1_555 1_555
H13UE C14UE 1_555 1_555
H13LD C14LD 1_555 1_555
O3 Pb1W 1_555 1_555
C6 C7 1_555 1_555
C9 C10 1_555 1_555
Pb1W O1OE 1_555 1_555
Pb1SA O1SA 1_555 1_555
Pb1SA O1ME 1_555 1_555
Pb1PD O1W 1_555 1_555
Pb1PD O1MD 1_555 1_555
Pb1PD O1PD 1_555 1_555
Pb1PD O1UB 1_555 1_555
O2W C1W 1_555 1_555
O2ME C1ME 1_555 1_555
O2PD C1PD 1_555 1_555
O2C C1C 1_555 1_555
O2SD C1SD 1_555 1_555
C5AC C10AC 1_555 1_555
C6AC C7AC 1_555 1_555
C6KC C7KC 1_555 1_555
C6W C7W 1_555 1_555
C6PD C7PD 1_555 1_555
C6ME C7ME 1_555 1_555
C6RA C7RA 1_555 1_555
C6UE C7UE 1_555 1_555
C6LD C7LD 1_555 1_555
C6C C7C 1_555 1_555
C6EF C7EF 1_555 1_555
C6SD C7SD 1_555 1_555
C8KC C9KC 1_555 1_555
C9KC C10KC 1_555 1_555
C9AC C10AC 1_555 1_555
C9AC C10KC 1_555 1_555
C9W C10W 1_555 1_555
C9W C10RA 1_555 1_555
C9PD C10PD 1_555 1_555
C9PD C10UE 1_555 1_555
C9ME C10ME 1_555 1_555
C9ME C10LD 1_555 1_555
C9C C10W 1_555 1_555
C9C C10C 1_555 1_555
C9EF C10PD 1_555 1_555
C9EF C10EF 1_555 1_555
C9SD C10ME 1_555 1_555
C9SD C10SD 1_555 1_555
C9RA C10RA 1_555 1_555
C9RA C10C 1_555 1_555
C9UE C10UE 1_555 1_555
C9UE C10EF 1_555 1_555
C9LD C10LD 1_555 1_555
C9LD C10SD 1_555 1_555

#END
