
#######################################################################
#
#                 Cambridge Crystallographic Data Centre
#                                CCDC 
#
#######################################################################
#
# If this CIF has been generated from an entry in the Cambridge 
# Structural Database, then it will include bibliographic, chemical, 
# crystal, experimental, refinement or atomic coordinate data resulting 
# from the CCDC's data processing and validation procedures.
#
#######################################################################

data_BOXFAW
_chemical_name_common            
'catena-(Sesqui-cadmium(ii) tris(oxonium) octakis(mu!6$-5,5,10,10,15,15-hexaethyltruxene-2,7,12-tricarboxylato)-tris(mu!4$-oxo)-dodecakis(methanol)-dodeca-cadmium(ii) hexahydrate)'
_chemical_formula_moiety         
'(Cd1 2+)1.5n,3n(H3 O1 1+),n(C348 H360 Cd12 O63 6-),6n(H2 O1)'
_chemical_name_systematic        
"catena-(Sesqui-cadmium(ii) tris(oxonium) octakis(\m~6~-5,5,10,10,15,15-hexaethyl-10,15-dihydro-5H-diindeno[1,2-a:1',2'-c]fluorene-2,7,12-tricarboxylato)-tris(\m~4~-oxo)-dodecakis(methanol)-dodeca-cadmium(ii) hexahydrate)"
_symmetry_cell_setting           cubic
_symmetry_space_group_name_H-M   'F m -3 c'
_symmetry_Int_Tables_number      226
_space_group_name_Hall           '-F 4a 2 3'
loop_
_symmetry_equiv_pos_site_id
_symmetry_equiv_pos_as_xyz
1 x,y,z
2 z,x,y
3 y,z,x
4 1/2+y,1/2+x,1/2-z
5 1/2+y,1/2-x,1/2+z
6 1/2-y,1/2+x,1/2+z
7 1/2+x,1/2+z,1/2-y
8 1/2-x,1/2+z,1/2+y
9 1/2+x,1/2-z,1/2+y
10 1/2+z,1/2+y,1/2-x
11 1/2+z,1/2-y,1/2+x
12 1/2-z,1/2+y,1/2+x
13 x,1/2+y,1/2+z
14 z,1/2+x,1/2+y
15 y,1/2+z,1/2+x
16 1/2+y,x,-z
17 1/2+y,-x,z
18 1/2-y,x,z
19 1/2+x,z,-y
20 1/2-x,z,y
21 1/2+x,-z,y
22 1/2+z,y,-x
23 1/2+z,-y,x
24 1/2-z,y,x
25 1/2+x,y,1/2+z
26 1/2+z,x,1/2+y
27 1/2+y,z,1/2+x
28 y,1/2+x,-z
29 y,1/2-x,z
30 -y,1/2+x,z
31 x,1/2+z,-y
32 -x,1/2+z,y
33 x,1/2-z,y
34 z,1/2+y,-x
35 z,1/2-y,x
36 -z,1/2+y,x
37 1/2+x,1/2+y,z
38 1/2+z,1/2+x,y
39 1/2+y,1/2+z,x
40 y,x,1/2-z
41 y,-x,1/2+z
42 -y,x,1/2+z
43 x,z,1/2-y
44 -x,z,1/2+y
45 x,-z,1/2+y
46 z,y,1/2-x
47 z,-y,1/2+x
48 -z,y,1/2+x
49 -x,-y,z
50 -x,y,-z
51 x,-y,-z
52 z,-x,-y
53 -z,-x,y
54 -z,x,-y
55 -y,z,-x
56 y,-z,-x
57 -y,-z,x
58 1/2-y,1/2-x,1/2-z
59 1/2-x,1/2-z,1/2-y
60 1/2-z,1/2-y,1/2-x
61 -x,1/2-y,1/2+z
62 -x,1/2+y,1/2-z
63 x,1/2-y,1/2-z
64 z,1/2-x,1/2-y
65 -z,1/2-x,1/2+y
66 -z,1/2+x,1/2-y
67 -y,1/2+z,1/2-x
68 y,1/2-z,1/2-x
69 -y,1/2-z,1/2+x
70 1/2-y,-x,-z
71 1/2-x,-z,-y
72 1/2-z,-y,-x
73 1/2-x,-y,1/2+z
74 1/2-x,y,1/2-z
75 1/2+x,-y,1/2-z
76 1/2+z,-x,1/2-y
77 1/2-z,-x,1/2+y
78 1/2-z,x,1/2-y
79 1/2-y,z,1/2-x
80 1/2+y,-z,1/2-x
81 1/2-y,-z,1/2+x
82 -y,1/2-x,-z
83 -x,1/2-z,-y
84 -z,1/2-y,-x
85 1/2-x,1/2-y,z
86 1/2-x,1/2+y,-z
87 1/2+x,1/2-y,-z
88 1/2+z,1/2-x,-y
89 1/2-z,1/2-x,y
90 1/2-z,1/2+x,-y
91 1/2-y,1/2+z,-x
92 1/2+y,1/2-z,-x
93 1/2-y,1/2-z,x
94 -y,-x,1/2-z
95 -x,-z,1/2-y
96 -z,-y,1/2-x
97 -x,-y,-z
98 -z,-x,-y
99 -y,-z,-x
100 1/2-y,1/2-x,1/2+z
101 1/2-y,1/2+x,1/2-z
102 1/2+y,1/2-x,1/2-z
103 1/2-x,1/2-z,1/2+y
104 1/2+x,1/2-z,1/2-y
105 1/2-x,1/2+z,1/2-y
106 1/2-z,1/2-y,1/2+x
107 1/2-z,1/2+y,1/2-x
108 1/2+z,1/2-y,1/2-x
109 -x,1/2-y,1/2-z
110 -z,1/2-x,1/2-y
111 -y,1/2-z,1/2-x
112 1/2-y,-x,z
113 1/2-y,x,-z
114 1/2+y,-x,-z
115 1/2-x,-z,y
116 1/2+x,-z,-y
117 1/2-x,z,-y
118 1/2-z,-y,x
119 1/2-z,y,-x
120 1/2+z,-y,-x
121 1/2-x,-y,1/2-z
122 1/2-z,-x,1/2-y
123 1/2-y,-z,1/2-x
124 -y,1/2-x,z
125 -y,1/2+x,-z
126 y,1/2-x,-z
127 -x,1/2-z,y
128 x,1/2-z,-y
129 -x,1/2+z,-y
130 -z,1/2-y,x
131 -z,1/2+y,-x
132 z,1/2-y,-x
133 1/2-x,1/2-y,-z
134 1/2-z,1/2-x,-y
135 1/2-y,1/2-z,-x
136 -y,-x,1/2+z
137 -y,x,1/2-z
138 y,-x,1/2-z
139 -x,-z,1/2+y
140 x,-z,1/2-y
141 -x,z,1/2-y
142 -z,-y,1/2+x
143 -z,y,1/2-x
144 z,-y,1/2-x
145 x,y,-z
146 x,-y,z
147 -x,y,z
148 -z,x,y
149 z,x,-y
150 z,-x,y
151 y,-z,x
152 -y,z,x
153 y,z,-x
154 1/2+y,1/2+x,1/2+z
155 1/2+x,1/2+z,1/2+y
156 1/2+z,1/2+y,1/2+x
157 x,1/2+y,1/2-z
158 x,1/2-y,1/2+z
159 -x,1/2+y,1/2+z
160 -z,1/2+x,1/2+y
161 z,1/2+x,1/2-y
162 z,1/2-x,1/2+y
163 y,1/2-z,1/2+x
164 -y,1/2+z,1/2+x
165 y,1/2+z,1/2-x
166 1/2+y,x,z
167 1/2+x,z,y
168 1/2+z,y,x
169 1/2+x,y,1/2-z
170 1/2+x,-y,1/2+z
171 1/2-x,y,1/2+z
172 1/2-z,x,1/2+y
173 1/2+z,x,1/2-y
174 1/2+z,-x,1/2+y
175 1/2+y,-z,1/2+x
176 1/2-y,z,1/2+x
177 1/2+y,z,1/2-x
178 y,1/2+x,z
179 x,1/2+z,y
180 z,1/2+y,x
181 1/2+x,1/2+y,-z
182 1/2+x,1/2-y,z
183 1/2-x,1/2+y,z
184 1/2-z,1/2+x,y
185 1/2+z,1/2+x,-y
186 1/2+z,1/2-x,y
187 1/2+y,1/2-z,x
188 1/2-y,1/2+z,x
189 1/2+y,1/2+z,-x
190 y,x,1/2+z
191 x,z,1/2+y
192 z,y,1/2+x
_cell_length_a                   48.527(6)
_cell_length_b                   48.527(6)
_cell_length_c                   48.527(6)
_cell_angle_alpha                90
_cell_angle_beta                 90
_cell_angle_gamma                90
_cell_volume                     114275
_exptl_crystal_colour            colorless
_exptl_crystal_description       block
_cell_formula_units_Z            8
loop_
_atom_site_label
_atom_site_type_symbol
_atom_site_fract_x
_atom_site_fract_y
_atom_site_fract_z
_atom_site_U_iso_or_equiv
_atom_site_thermal_displace_type
O2 O 1.0894(9) 0.2500 0.2500 0.3800 Uiso
O3 O 1.0445(4) 0.2500 0.2500 0.1720 Uiso
Cd1 Cd 1.0000 0.201728(5) 0.224881(5) 0.0288 Uani
O4 O 0.96640(4) 0.17055(4) 0.23896(4) 0.0347 Uani
O5 O 1.02941(4) 0.23368(4) 0.20649(4) 0.0378 Uani
O6 O 1.0000 0.2500 0.2500 1.3100 Uiso
C1 C 0.95976(5) 0.18319(6) 0.26041(6) 0.0311 Uani
C2 C 0.93770(5) 0.17179(6) 0.27876(6) 0.0348 Uani
C3 C 0.92865(6) 0.18644(6) 0.30155(5) 0.0376 Uani
H1 H 0.9370 0.2035 0.3063 0.0450 Uiso
C4 C 0.90736(5) 0.17592(6) 0.31738(6) 0.0370 Uani
C5 C 0.89433(6) 0.15111(6) 0.31064(6) 0.0376 Uani
C6 C 0.90427(6) 0.13605(6) 0.28821(6) 0.0410 Uani
H2 H 0.8963 0.1188 0.2836 0.0490 Uiso
C7 C 0.92583(6) 0.14642(6) 0.27266(6) 0.0389 Uani
H3 H 0.9327 0.1360 0.2575 0.0470 Uiso
C8 C 0.87178(6) 0.14650(6) 0.33089(6) 0.0379 Uani
C9 C 0.85070(6) 0.12701(6) 0.33207(6) 0.0387 Uani
C10 C 0.89584(6) 0.18853(6) 0.34335(6) 0.0436 Uani
C11 C 0.88415(7) 0.21741(7) 0.33652(7) 0.0593 Uani
H4 H 0.8775 0.2260 0.3538 0.0710 Uiso
H5 H 0.8993 0.2290 0.3294 0.0710 Uiso
C12 C 0.86097(9) 0.21773(8) 0.31582(8) 0.0773 Uani
H6 H 0.8670 0.2085 0.2989 0.1160 Uiso
H7 H 0.8559 0.2368 0.3117 0.1160 Uiso
H8 H 0.8450 0.2080 0.3235 0.1160 Uiso
C13 C 0.92001(7) 0.18918(7) 0.36482(8) 0.0610 Uani
H9 H 0.9349 0.2011 0.3574 0.0730 Uiso
H10 H 0.9132 0.1979 0.3820 0.0730 Uiso
C14 C 0.93229(9) 0.16142(9) 0.37211(9) 0.0787 Uani
H11 H 0.9180 0.1496 0.3800 0.1180 Uiso
H12 H 0.9471 0.1639 0.3856 0.1180 Uiso
H13 H 0.9397 0.1528 0.3555 0.1180 Uiso
O7 O 1.0000 0.17758(7) 0.18326(6) 0.0584 Uani
C15 C 1.0000 0.1832(3) 0.15475(18) 0.1560 Uani
H14 H 1.0000 0.1530(7) 0.1835(7) 0.0240 Uiso
Cd1FA Cd 1.0000 0.275119(5) 0.201728(5) 0.0288 Uani
Cd1PA Cd 1.0000 0.224881(5) 0.298272(5) 0.0288 Uani
Cd1DD Cd 1.0000 0.298272(5) 0.275119(5) 0.0288 Uani
Cd1PF Cd 0.724881(5) 0.0000 0.298272(5) 0.0288 Uani
Cd1FE Cd 0.798272(5) 0.0000 0.275119(5) 0.0288 Uani
Cd1FD Cd 0.798272(5) 0.275119(5) 0.5000 0.0288 Uani
Cd1UA Cd 0.775119(5) 0.201728(5) 0.5000 0.0288 Uani
Cd1KA Cd 0.724881(5) 0.5000 0.201728(5) 0.0288 Uani
Cd1CA Cd 0.798272(5) 0.5000 0.224881(5) 0.0288 Uani
Cd1UE Cd 0.798272(5) 0.224881(5) 0.0000 0.0288 Uani
Cd1YD Cd 0.775119(5) 0.298272(5) 0.0000 0.0288 Uani
Cd1W Cd 1.275119(5) 0.201728(5) 0.0000 0.0288 Uani
Cd1B Cd 1.201728(5) 0.224881(5) 0.0000 0.0288 Uani
Cd1MA Cd 1.201728(5) 0.0000 0.275119(5) 0.0288 Uani
Cd1A Cd 1.224881(5) 0.0000 0.201728(5) 0.0288 Uani
Cd1J Cd 0.724881(5) 0.298272(5) 0.5000 0.0288 Uani
Cd1ED Cd 0.775119(5) 0.5000 0.298272(5) 0.0288 Uani
O4PE O 1.03360(4) 0.17055(4) 0.23896(4) 0.0347 Uani
O4WB O 0.73896(4) 0.03360(4) 0.32945(4) 0.0347 Uani
O4PB O 0.82945(4) 0.26104(4) 0.46640(4) 0.0347 Uani
O4FA O 0.96640(4) 0.26104(4) 0.17055(4) 0.0347 Uani
O4VD O 1.03360(4) 0.26104(4) 0.17055(4) 0.0347 Uani
O4DD O 1.03360(4) 0.32945(4) 0.26104(4) 0.0347 Uani
O4JB O 0.96640(4) 0.32945(4) 0.26104(4) 0.0347 Uani
O4PA O 0.96640(4) 0.23896(4) 0.32945(4) 0.0347 Uani
O4JE O 1.03360(4) 0.23896(4) 0.32945(4) 0.0347 Uani
O4KA O 0.73896(4) 0.46640(4) 0.17055(4) 0.0347 Uani
O4BB O 0.82945(4) 0.23896(4) 0.03360(4) 0.0347 Uani
O4ND O 1.26104(4) 0.17055(4) 0.03360(4) 0.0347 Uani
O4GE O 1.17055(4) 0.03360(4) 0.26104(4) 0.0347 Uani
O4J O 0.73896(4) 0.32945(4) 0.46640(4) 0.0347 Uani
O4CA O 0.82945(4) 0.46640(4) 0.23896(4) 0.0347 Uani
O5PA O 1.02941(4) 0.20649(4) 0.26632(4) 0.0378 Uani
O5PE O 0.97059(4) 0.23368(4) 0.20649(4) 0.0378 Uani
O5JE O 0.97059(4) 0.20649(4) 0.26632(4) 0.0378 Uani
O5FE O 0.76632(4) 0.02941(4) 0.29351(4) 0.0378 Uani
O5LE O 0.79351(4) 0.23368(4) 0.47059(4) 0.0378 Uani
O5FA O 1.02941(4) 0.29351(4) 0.23368(4) 0.0378 Uani
O5VD O 0.97059(4) 0.29351(4) 0.23368(4) 0.0378 Uani
O5DD O 0.97059(4) 0.26632(4) 0.29351(4) 0.0378 Uani
O5JB O 1.02941(4) 0.26632(4) 0.29351(4) 0.0378 Uani
O5SD O 0.76632(4) 0.47059(4) 0.20649(4) 0.0378 Uani
O5YD O 0.79351(4) 0.26632(4) 0.02941(4) 0.0378 Uani
O5B O 1.23368(4) 0.20649(4) 0.02941(4) 0.0378 Uani
O5A O 1.20649(4) 0.02941(4) 0.23368(4) 0.0378 Uani
O5FD O 0.76632(4) 0.29351(4) 0.47059(4) 0.0378 Uani
O5ED O 0.79351(4) 0.47059(4) 0.26632(4) 0.0378 Uani
C1VD C 1.04024(5) 0.23959(6) 0.18319(6) 0.0311 Uani
C1WB C 0.76041(6) 0.04024(5) 0.31681(6) 0.0311 Uani
C1PB C 0.81681(6) 0.23959(6) 0.45976(5) 0.0311 Uani
C1JB C 0.95976(5) 0.31681(6) 0.23959(6) 0.0311 Uani
C1KA C 0.76041(6) 0.45976(5) 0.18319(6) 0.0311 Uani
C1BB C 0.81681(6) 0.26041(6) 0.04024(5) 0.0311 Uani
C1ND C 1.23959(6) 0.18319(6) 0.04024(5) 0.0311 Uani
C1GE C 1.18319(6) 0.04024(5) 0.23959(6) 0.0311 Uani
C1PA C 0.95976(5) 0.26041(6) 0.31681(6) 0.0311 Uani
C1J C 0.76041(6) 0.31681(6) 0.45976(5) 0.0311 Uani
C1CA C 0.81681(6) 0.45976(5) 0.26041(6) 0.0311 Uani
C2WB C 0.77876(6) 0.06230(5) 0.32821(6) 0.0348 Uani
C2PB C 0.82821(6) 0.22124(6) 0.43770(5) 0.0348 Uani
C2JB C 0.93770(5) 0.32821(6) 0.22124(6) 0.0348 Uani
C2KA C 0.77876(6) 0.43770(5) 0.17179(6) 0.0348 Uani
C2BB C 0.82821(6) 0.27876(6) 0.06230(5) 0.0348 Uani
C2VD C 1.06230(5) 0.22124(6) 0.17179(6) 0.0348 Uani
C2ND C 1.22124(6) 0.17179(6) 0.06230(5) 0.0348 Uani
C2GE C 1.17179(6) 0.06230(5) 0.22124(6) 0.0348 Uani
C2PA C 0.93770(5) 0.27876(6) 0.32821(6) 0.0348 Uani
C2J C 0.77876(6) 0.32821(6) 0.43770(5) 0.0348 Uani
C2CA C 0.82821(6) 0.43770(5) 0.27876(6) 0.0348 Uani
C3WB C 0.80155(5) 0.07135(6) 0.31356(6) 0.0376 Uani
C3PB C 0.81356(6) 0.19845(5) 0.42865(6) 0.0376 Uani
C3JB C 0.92865(6) 0.31356(6) 0.19845(5) 0.0376 Uani
C3KA C 0.80155(5) 0.42865(6) 0.18644(6) 0.0376 Uani
C3BB C 0.81356(6) 0.30155(5) 0.07135(6) 0.0376 Uani
C3VD C 1.07135(6) 0.19845(5) 0.18644(6) 0.0376 Uani
C3ND C 1.19845(5) 0.18644(6) 0.07135(6) 0.0376 Uani
C3GE C 1.18644(6) 0.07135(6) 0.19845(5) 0.0376 Uani
C3PA C 0.92865(6) 0.30155(5) 0.31356(6) 0.0376 Uani
C3J C 0.80155(5) 0.31356(6) 0.42865(6) 0.0376 Uani
C3CA C 0.81356(6) 0.42865(6) 0.30155(5) 0.0376 Uani
H1WB H 0.8063 0.0630 0.2965 0.0450 Uiso
H1PB H 0.7965 0.1937 0.4370 0.0450 Uiso
H1JB H 0.9370 0.2965 0.1937 0.0450 Uiso
H1KA H 0.8063 0.4370 0.2035 0.0450 Uiso
H1BB H 0.7965 0.3063 0.0630 0.0450 Uiso
H1VD H 1.0630 0.1937 0.2035 0.0450 Uiso
H1ND H 1.1937 0.2035 0.0630 0.0450 Uiso
H1GE H 1.2035 0.0630 0.1937 0.0450 Uiso
H1PA H 0.9370 0.3063 0.2965 0.0450 Uiso
H1J H 0.8063 0.2965 0.4370 0.0450 Uiso
H1CA H 0.7965 0.4370 0.3063 0.0450 Uiso
C4WB C 0.81738(6) 0.09264(5) 0.32408(6) 0.0370 Uani
C4PB C 0.82408(6) 0.18262(6) 0.40736(5) 0.0370 Uani
C4JB C 0.90736(5) 0.32408(6) 0.18262(6) 0.0370 Uani
C4KA C 0.81738(6) 0.40736(5) 0.17592(6) 0.0370 Uani
C4BB C 0.82408(6) 0.31738(6) 0.09264(5) 0.0370 Uani
C4VD C 1.09264(5) 0.18262(6) 0.17592(6) 0.0370 Uani
C4ND C 1.18262(6) 0.17592(6) 0.09264(5) 0.0370 Uani
C4GE C 1.17592(6) 0.09264(5) 0.18262(6) 0.0370 Uani
C4PA C 0.90736(5) 0.31738(6) 0.32408(6) 0.0370 Uani
C4J C 0.81738(6) 0.32408(6) 0.40736(5) 0.0370 Uani
C4CA C 0.82408(6) 0.40736(5) 0.31738(6) 0.0370 Uani
C5WB C 0.81064(6) 0.10567(6) 0.34889(6) 0.0376 Uani
C5PB C 0.84889(6) 0.18936(6) 0.39433(6) 0.0376 Uani
C5JB C 0.89433(6) 0.34889(6) 0.18936(6) 0.0376 Uani
C5BB C 0.84889(6) 0.31064(6) 0.10567(6) 0.0376 Uani
C5KA C 0.81064(6) 0.39433(6) 0.15111(6) 0.0376 Uani
C5VD C 1.10567(6) 0.18936(6) 0.15111(6) 0.0376 Uani
C5GE C 1.15111(6) 0.10567(6) 0.18936(6) 0.0376 Uani
C5ND C 1.18936(6) 0.15111(6) 0.10567(6) 0.0376 Uani
C5PA C 0.89433(6) 0.31064(6) 0.34889(6) 0.0376 Uani
C5CA C 0.84889(6) 0.39433(6) 0.31064(6) 0.0376 Uani
C5J C 0.81064(6) 0.34889(6) 0.39433(6) 0.0376 Uani
C6WB C 0.78821(6) 0.09573(6) 0.36395(6) 0.0410 Uani
C6PB C 0.86395(6) 0.21179(6) 0.40427(6) 0.0410 Uani
C6JB C 0.90427(6) 0.36395(6) 0.21179(6) 0.0410 Uani
C6BB C 0.86395(6) 0.28821(6) 0.09573(6) 0.0410 Uani
C6KA C 0.78821(6) 0.40427(6) 0.13605(6) 0.0410 Uani
C6VD C 1.09573(6) 0.21179(6) 0.13605(6) 0.0410 Uani
C6GE C 1.13605(6) 0.09573(6) 0.21179(6) 0.0410 Uani
C6ND C 1.21179(6) 0.13605(6) 0.09573(6) 0.0410 Uani
C6PA C 0.90427(6) 0.28821(6) 0.36395(6) 0.0410 Uani
C6CA C 0.86395(6) 0.40427(6) 0.28821(6) 0.0410 Uani
C6J C 0.78821(6) 0.36395(6) 0.40427(6) 0.0410 Uani
H2WB H 0.7836 0.1037 0.3812 0.0490 Uiso
H2PB H 0.8812 0.2164 0.3963 0.0490 Uiso
H2JB H 0.8963 0.3812 0.2164 0.0490 Uiso
H2BB H 0.8812 0.2836 0.1037 0.0490 Uiso
H2KA H 0.7836 0.3963 0.1188 0.0490 Uiso
H2VD H 1.1037 0.2164 0.1188 0.0490 Uiso
H2GE H 1.1188 0.1037 0.2164 0.0490 Uiso
H2ND H 1.2164 0.1188 0.1037 0.0490 Uiso
H2PA H 0.8963 0.2836 0.3812 0.0490 Uiso
H2CA H 0.8812 0.3963 0.2836 0.0490 Uiso
H2J H 0.7836 0.3812 0.3963 0.0490 Uiso
C7WB C 0.77266(6) 0.07417(6) 0.35358(6) 0.0389 Uani
C7PB C 0.85358(6) 0.22734(6) 0.42583(6) 0.0389 Uani
C7JB C 0.92583(6) 0.35358(6) 0.22734(6) 0.0389 Uani
C7BB C 0.85358(6) 0.27266(6) 0.07417(6) 0.0389 Uani
C7KA C 0.77266(6) 0.42583(6) 0.14642(6) 0.0389 Uani
C7VD C 1.07417(6) 0.22734(6) 0.14642(6) 0.0389 Uani
C7GE C 1.14642(6) 0.07417(6) 0.22734(6) 0.0389 Uani
C7ND C 1.22734(6) 0.14642(6) 0.07417(6) 0.0389 Uani
C7PA C 0.92583(6) 0.27266(6) 0.35358(6) 0.0389 Uani
C7CA C 0.85358(6) 0.42583(6) 0.27266(6) 0.0389 Uani
C7J C 0.77266(6) 0.35358(6) 0.42583(6) 0.0389 Uani
H3WB H 0.7575 0.0673 0.3640 0.0470 Uiso
H3PB H 0.8640 0.2425 0.4327 0.0470 Uiso
H3JB H 0.9327 0.3640 0.2425 0.0470 Uiso
H3BB H 0.8640 0.2575 0.0673 0.0470 Uiso
H3KA H 0.7575 0.4327 0.1360 0.0470 Uiso
H3VD H 1.0673 0.2425 0.1360 0.0470 Uiso
H3GE H 1.1360 0.0673 0.2425 0.0470 Uiso
H3ND H 1.2425 0.1360 0.0673 0.0470 Uiso
H3PA H 0.9327 0.2575 0.3640 0.0470 Uiso
H3CA H 0.8640 0.4327 0.2575 0.0470 Uiso
H3J H 0.7575 0.3640 0.4327 0.0470 Uiso
C8WB C 0.83089(6) 0.12822(6) 0.35350(6) 0.0379 Uani
C8PB C 0.85350(6) 0.16911(6) 0.37178(6) 0.0379 Uani
C8JB C 0.87178(6) 0.35350(6) 0.16911(6) 0.0379 Uani
C8BB C 0.85350(6) 0.33089(6) 0.12822(6) 0.0379 Uani
C8KA C 0.83089(6) 0.37178(6) 0.14650(6) 0.0379 Uani
C8VD C 1.12822(6) 0.16911(6) 0.14650(6) 0.0379 Uani
C8GE C 1.14650(6) 0.12822(6) 0.16911(6) 0.0379 Uani
C8ND C 1.16911(6) 0.14650(6) 0.12822(6) 0.0379 Uani
C8PA C 0.87178(6) 0.33089(6) 0.35350(6) 0.0379 Uani
C8CA C 0.85350(6) 0.37178(6) 0.33089(6) 0.0379 Uani
C8J C 0.83089(6) 0.35350(6) 0.37178(6) 0.0379 Uani
C9PB C 0.87299(6) 0.16793(6) 0.35070(6) 0.0387 Uani
C9WB C 0.83207(6) 0.14930(6) 0.37299(6) 0.0387 Uani
C9BB C 0.87299(6) 0.33207(6) 0.14930(6) 0.0387 Uani
C9JB C 0.85070(6) 0.37299(6) 0.16793(6) 0.0387 Uani
C9KA C 0.83207(6) 0.35070(6) 0.12701(6) 0.0387 Uani
C9GE C 1.12701(6) 0.14930(6) 0.16793(6) 0.0387 Uani
C9VD C 1.14930(6) 0.16793(6) 0.12701(6) 0.0387 Uani
C9ND C 1.16793(6) 0.12701(6) 0.14930(6) 0.0387 Uani
C9CA C 0.87299(6) 0.35070(6) 0.33207(6) 0.0387 Uani
C9PA C 0.85070(6) 0.33207(6) 0.37299(6) 0.0387 Uani
C9J C 0.83207(6) 0.37299(6) 0.35070(6) 0.0387 Uani
C10WB C 0.84335(6) 0.10416(6) 0.31147(6) 0.0436 Uani
C10PB C 0.81147(6) 0.15665(6) 0.39584(6) 0.0436 Uani
C10JB C 0.89584(6) 0.31147(6) 0.15665(6) 0.0436 Uani
C10KA C 0.84335(6) 0.39584(6) 0.18853(6) 0.0436 Uani
C10BB C 0.81147(6) 0.34335(6) 0.10416(6) 0.0436 Uani
C10VD C 1.10416(6) 0.15665(6) 0.18853(6) 0.0436 Uani
C10ND C 1.15665(6) 0.18853(6) 0.10416(6) 0.0436 Uani
C10GE C 1.18853(6) 0.10416(6) 0.15665(6) 0.0436 Uani
C10PA C 0.89584(6) 0.34335(6) 0.31147(6) 0.0436 Uani
C10J C 0.84335(6) 0.31147(6) 0.39584(6) 0.0436 Uani
C10CA C 0.81147(6) 0.39584(6) 0.34335(6) 0.0436 Uani
C11WB C 0.83652(7) 0.11585(7) 0.28259(7) 0.0593 Uani
C11PB C 0.78259(7) 0.16348(7) 0.38415(7) 0.0593 Uani
C11JB C 0.88415(7) 0.28259(7) 0.16348(7) 0.0593 Uani
C11KA C 0.83652(7) 0.38415(7) 0.21741(7) 0.0593 Uani
C11BB C 0.78259(7) 0.33652(7) 0.11585(7) 0.0593 Uani
C11VD C 1.11585(7) 0.16348(7) 0.21741(7) 0.0593 Uani
C11ND C 1.16348(7) 0.21741(7) 0.11585(7) 0.0593 Uani
C11GE C 1.21741(7) 0.11585(7) 0.16348(7) 0.0593 Uani
C11PA C 0.88415(7) 0.33652(7) 0.28259(7) 0.0593 Uani
C11J C 0.83652(7) 0.28259(7) 0.38415(7) 0.0593 Uani
C11CA C 0.78259(7) 0.38415(7) 0.33652(7) 0.0593 Uani
H4WB H 0.8538 0.1225 0.2740 0.0710 Uiso
H4PB H 0.7740 0.1462 0.3775 0.0710 Uiso
H4JB H 0.8775 0.2740 0.1462 0.0710 Uiso
H4KA H 0.8538 0.3775 0.2260 0.0710 Uiso
H4BB H 0.7740 0.3538 0.1225 0.0710 Uiso
H4VD H 1.1225 0.1462 0.2260 0.0710 Uiso
H4ND H 1.1462 0.2260 0.1225 0.0710 Uiso
H4GE H 1.2260 0.1225 0.1462 0.0710 Uiso
H4PA H 0.8775 0.3538 0.2740 0.0710 Uiso
H4J H 0.8538 0.2740 0.3775 0.0710 Uiso
H4CA H 0.7740 0.3775 0.3538 0.0710 Uiso
H5WB H 0.8294 0.1007 0.2710 0.0710 Uiso
H5PB H 0.7710 0.1706 0.3993 0.0710 Uiso
H5JB H 0.8993 0.2710 0.1706 0.0710 Uiso
H5KA H 0.8294 0.3993 0.2290 0.0710 Uiso
H5BB H 0.7710 0.3294 0.1007 0.0710 Uiso
H5VD H 1.1007 0.1706 0.2290 0.0710 Uiso
H5ND H 1.1706 0.2290 0.1007 0.0710 Uiso
H5GE H 1.2290 0.1007 0.1706 0.0710 Uiso
H5PA H 0.8993 0.3294 0.2710 0.0710 Uiso
H5J H 0.8294 0.2710 0.3993 0.0710 Uiso
H5CA H 0.7710 0.3993 0.3294 0.0710 Uiso
C12WB C 0.81582(8) 0.13903(9) 0.28227(8) 0.0773 Uani
C12PB C 0.78227(8) 0.18418(8) 0.36097(9) 0.0773 Uani
C12JB C 0.86097(9) 0.28227(8) 0.18418(8) 0.0773 Uani
C12KA C 0.81582(8) 0.36097(9) 0.21773(8) 0.0773 Uani
C12BB C 0.78227(8) 0.31582(8) 0.13903(9) 0.0773 Uani
C12VD C 1.13903(9) 0.18418(8) 0.21773(8) 0.0773 Uani
C12ND C 1.18418(8) 0.21773(8) 0.13903(9) 0.0773 Uani
C12GE C 1.21773(8) 0.13903(9) 0.18418(8) 0.0773 Uani
C12PA C 0.86097(9) 0.31582(8) 0.28227(8) 0.0773 Uani
C12J C 0.81582(8) 0.28227(8) 0.36097(9) 0.0773 Uani
C12CA C 0.78227(8) 0.36097(9) 0.31582(8) 0.0773 Uani
H6WB H 0.7989 0.1330 0.2915 0.1160 Uiso
H6PB H 0.7915 0.2011 0.3670 0.1160 Uiso
H6JB H 0.8670 0.2915 0.2011 0.1160 Uiso
H6KA H 0.7989 0.3670 0.2085 0.1160 Uiso
H6BB H 0.7915 0.2989 0.1330 0.1160 Uiso
H6VD H 1.1330 0.2011 0.2085 0.1160 Uiso
H6ND H 1.2011 0.2085 0.1330 0.1160 Uiso
H6GE H 1.2085 0.1330 0.2011 0.1160 Uiso
H6PA H 0.8670 0.2989 0.2915 0.1160 Uiso
H6J H 0.7989 0.2915 0.3670 0.1160 Uiso
H6CA H 0.7915 0.3670 0.2989 0.1160 Uiso
H7WB H 0.8117 0.1441 0.2632 0.1160 Uiso
H7PB H 0.7632 0.1883 0.3559 0.1160 Uiso
H7JB H 0.8559 0.2632 0.1883 0.1160 Uiso
H7KA H 0.8117 0.3559 0.2368 0.1160 Uiso
H7BB H 0.7632 0.3117 0.1441 0.1160 Uiso
H7VD H 1.1441 0.1883 0.2368 0.1160 Uiso
H7ND H 1.1883 0.2368 0.1441 0.1160 Uiso
H7GE H 1.2368 0.1441 0.1883 0.1160 Uiso
H7PA H 0.8559 0.3117 0.2632 0.1160 Uiso
H7J H 0.8117 0.2632 0.3559 0.1160 Uiso
H7CA H 0.7632 0.3559 0.3117 0.1160 Uiso
H8WB H 0.8235 0.1550 0.2920 0.1160 Uiso
H8PB H 0.7920 0.1765 0.3450 0.1160 Uiso
H8JB H 0.8450 0.2920 0.1765 0.1160 Uiso
H8KA H 0.8235 0.3450 0.2080 0.1160 Uiso
H8BB H 0.7920 0.3235 0.1550 0.1160 Uiso
H8VD H 1.1550 0.1765 0.2080 0.1160 Uiso
H8ND H 1.1765 0.2080 0.1550 0.1160 Uiso
H8GE H 1.2080 0.1550 0.1765 0.1160 Uiso
H8PA H 0.8450 0.3235 0.2920 0.1160 Uiso
H8J H 0.8235 0.2920 0.3450 0.1160 Uiso
H8CA H 0.7920 0.3450 0.3235 0.1160 Uiso
C13WB C 0.86482(8) 0.07999(7) 0.31082(7) 0.0610 Uani
C13PB C 0.81082(7) 0.13518(8) 0.42001(7) 0.0610 Uani
C13JB C 0.92001(7) 0.31082(7) 0.13518(8) 0.0610 Uani
C13KA C 0.86482(8) 0.42001(7) 0.18918(7) 0.0610 Uani
C13BB C 0.81082(7) 0.36482(8) 0.07999(7) 0.0610 Uani
C13VD C 1.07999(7) 0.13518(8) 0.18918(7) 0.0610 Uani
C13ND C 1.13518(8) 0.18918(7) 0.07999(7) 0.0610 Uani
C13GE C 1.18918(7) 0.07999(7) 0.13518(8) 0.0610 Uani
C13PA C 0.92001(7) 0.36482(8) 0.31082(7) 0.0610 Uani
C13J C 0.86482(8) 0.31082(7) 0.42001(7) 0.0610 Uani
C13CA C 0.81082(7) 0.42001(7) 0.36482(8) 0.0610 Uani
H9WB H 0.8574 0.0651 0.2989 0.0730 Uiso
H9PB H 0.7989 0.1426 0.4349 0.0730 Uiso
H9JB H 0.9349 0.2989 0.1426 0.0730 Uiso
H9KA H 0.8574 0.4349 0.2011 0.0730 Uiso
H9BB H 0.7989 0.3574 0.0651 0.0730 Uiso
H9VD H 1.0651 0.1426 0.2011 0.0730 Uiso
H9ND H 1.1426 0.2011 0.0651 0.0730 Uiso
H9GE H 1.2011 0.0651 0.1426 0.0730 Uiso
H9PA H 0.9349 0.3574 0.2989 0.0730 Uiso
H9J H 0.8574 0.2989 0.4349 0.0730 Uiso
H9CA H 0.7989 0.4349 0.3574 0.0730 Uiso
H10WB H 0.8820 0.0868 0.3021 0.0730 Uiso
H10PB H 0.8021 0.1180 0.4132 0.0730 Uiso
H10JB H 0.9132 0.3021 0.1180 0.0730 Uiso
H10KA H 0.8820 0.4132 0.1979 0.0730 Uiso
H10BB H 0.8021 0.3820 0.0868 0.0730 Uiso
H10VD H 1.0868 0.1180 0.1979 0.0730 Uiso
H10ND H 1.1180 0.1979 0.0868 0.0730 Uiso
H10GE H 1.1979 0.0868 0.1180 0.0730 Uiso
H10PA H 0.9132 0.3820 0.3021 0.0730 Uiso
H10J H 0.8820 0.3021 0.4132 0.0730 Uiso
H10CA H 0.8021 0.4132 0.3820 0.0730 Uiso
C14WB C 0.87211(9) 0.06771(9) 0.33858(9) 0.0787 Uani
C14PB C 0.83858(9) 0.12789(9) 0.43229(9) 0.0787 Uani
C14JB C 0.93229(9) 0.33858(9) 0.12789(9) 0.0787 Uani
C14KA C 0.87211(9) 0.43229(9) 0.16142(9) 0.0787 Uani
C14BB C 0.83858(9) 0.37211(9) 0.06771(9) 0.0787 Uani
C14VD C 1.06771(9) 0.12789(9) 0.16142(9) 0.0787 Uani
C14ND C 1.12789(9) 0.16142(9) 0.06771(9) 0.0787 Uani
C14GE C 1.16142(9) 0.06771(9) 0.12789(9) 0.0787 Uani
C14PA C 0.93229(9) 0.37211(9) 0.33858(9) 0.0787 Uani
C14J C 0.87211(9) 0.33858(9) 0.43229(9) 0.0787 Uani
C14CA C 0.83858(9) 0.43229(9) 0.37211(9) 0.0787 Uani
H11WB H 0.8800 0.0820 0.3504 0.1180 Uiso
H11PB H 0.8504 0.1200 0.4180 0.1180 Uiso
H11JB H 0.9180 0.3504 0.1200 0.1180 Uiso
H11KA H 0.8800 0.4180 0.1496 0.1180 Uiso
H11BB H 0.8504 0.3800 0.0820 0.1180 Uiso
H11VD H 1.0820 0.1200 0.1496 0.1180 Uiso
H11ND H 1.1200 0.1496 0.0820 0.1180 Uiso
H11GE H 1.1496 0.0820 0.1200 0.1180 Uiso
H11PA H 0.9180 0.3800 0.3504 0.1180 Uiso
H11J H 0.8800 0.3504 0.4180 0.1180 Uiso
H11CA H 0.8504 0.4180 0.3800 0.1180 Uiso
H12WB H 0.8856 0.0529 0.3361 0.1180 Uiso
H12PB H 0.8361 0.1144 0.4471 0.1180 Uiso
H12JB H 0.9471 0.3361 0.1144 0.1180 Uiso
H12KA H 0.8856 0.4471 0.1639 0.1180 Uiso
H12BB H 0.8361 0.3856 0.0529 0.1180 Uiso
H12VD H 1.0529 0.1144 0.1639 0.1180 Uiso
H12ND H 1.1144 0.1639 0.0529 0.1180 Uiso
H12GE H 1.1639 0.0529 0.1144 0.1180 Uiso
H12PA H 0.9471 0.3856 0.3361 0.1180 Uiso
H12J H 0.8856 0.3361 0.4471 0.1180 Uiso
H12CA H 0.8361 0.4471 0.3856 0.1180 Uiso
H13WB H 0.8555 0.0603 0.3472 0.1180 Uiso
H13PB H 0.8472 0.1445 0.4397 0.1180 Uiso
H13JB H 0.9397 0.3472 0.1445 0.1180 Uiso
H13KA H 0.8555 0.4397 0.1528 0.1180 Uiso
H13BB H 0.8472 0.3555 0.0603 0.1180 Uiso
H13VD H 1.0603 0.1445 0.1528 0.1180 Uiso
H13ND H 1.1445 0.1528 0.0603 0.1180 Uiso
H13GE H 1.1528 0.0603 0.1445 0.1180 Uiso
H13PA H 0.9397 0.3555 0.3472 0.1180 Uiso
H13J H 0.8555 0.3472 0.4397 0.1180 Uiso
H13CA H 0.8472 0.4397 0.3555 0.1180 Uiso
O7FA O 1.0000 0.31674(6) 0.17758(7) 0.0584 Uani
O7DD O 1.0000 0.32242(7) 0.31674(6) 0.0584 Uani
O7PA O 1.0000 0.18326(6) 0.32242(7) 0.0584 Uani
C15DD C 1.0000 0.3168(3) 0.34525(18) 0.1560 Uani
C15FA C 1.0000 0.34525(18) 0.1832(3) 0.1560 Uani
C15PA C 1.0000 0.15475(18) 0.3168(3) 0.1560 Uani
H14DD H 1.0000 0.3470(7) 0.3165(7) 0.0240 Uiso
H14FA H 1.0000 0.3165(7) 0.1530(7) 0.0240 Uiso
H14PA H 1.0000 0.1835(7) 0.3470(7) 0.0240 Uiso
O1 O 0.0000 0.12920(9) 0.21135(11) 0.1040 Uani
loop_
_atom_site_aniso_label
_atom_site_aniso_U_11
_atom_site_aniso_U_22
_atom_site_aniso_U_33
_atom_site_aniso_U_23
_atom_site_aniso_U_13
_atom_site_aniso_U_12
Cd1 0.0238(2) 0.0317(2) 0.0308(2) 0.00308(11) 0.000 0.000
O4 0.0300(10) 0.0409(11) 0.0333(11) 0.0023(9) 0.0039(8) -0.0019(8)
O5 0.0307 0.0376 0.0452 -0.0007 0.0085 0.0004
C1 0.0225(14) 0.0372(17) 0.0335(17) 0.0034(13) -0.0005(12) -0.0026(13)
C2 0.0284(15) 0.0399(17) 0.0362(16) -0.0015(13) -0.0004(12) -0.0037(13)
C3 0.0325(16) 0.0407(16) 0.0395(16) -0.0066(13) 0.0019(13) -0.0109(13)
C4 0.0335(15) 0.0416(17) 0.0359(16) -0.0073(13) 0.0053(13) -0.0072(13)
C5 0.0345(15) 0.0403(17) 0.0379(16) -0.0056(13) 0.0055(13) -0.0072(13)
C6 0.0436(18) 0.0388(17) 0.0407(17) -0.0079(14) 0.0088(14) -0.0107(14)
C7 0.0393(16) 0.0434(18) 0.0340(16) -0.0059(13) 0.0080(13) -0.0045(14)
C8 0.0357(16) 0.0397(16) 0.0383(17) -0.0084(13) 0.0089(13) -0.0076(14)
C9 0.0411(17) 0.0366(16) 0.0383(17) -0.0088(13) 0.0091(14) -0.0077(14)
C10 0.0428 0.0449 0.0432 -0.0149 0.0151 -0.0169
C11 0.066 0.051 0.061 -0.012 0.0241 -0.0123
C12 0.069 0.061 0.102 0.007 0.022 0.007
C13 0.051 0.078 0.054 -0.0236 0.0078 -0.0091
C14 0.073 0.098 0.065 -0.001 -0.01 -0.007
O7 0.084(2) 0.056(2) 0.0352(17) -0.0105(14) 0.000 0.000
C15 0.152(9) 0.218(11) 0.098(6) -0.006(7) 0.000 0.000
Cd1FA 0.0238 0.0308 0.0317 -0.00308 0 0
Cd1PA 0.0238 0.0308 0.0317 -0.00308 0 0
Cd1DD 0.0238 0.0317 0.0308 0.00308 0 0
Cd1PF 0.0308 0.0238 0.0317 0 -0.00308 0
Cd1FE 0.0317 0.0238 0.0308 0 0.00308 0
Cd1FD 0.0317 0.0308 0.0238 0 0 0.00308
Cd1UA 0.0308 0.0317 0.0238 0 0 -0.00308
Cd1KA 0.0308 0.0238 0.0317 0 0.00308 0
Cd1CA 0.0317 0.0238 0.0308 0 -0.00308 0
Cd1UE 0.0317 0.0308 0.0238 0 0 -0.00308
Cd1YD 0.0308 0.0317 0.0238 0 0 0.00308
Cd1W 0.0308 0.0317 0.0238 0 0 -0.00308
Cd1B 0.0317 0.0308 0.0238 0 0 0.00308
Cd1MA 0.0317 0.0238 0.0308 0 -0.00308 0
Cd1A 0.0308 0.0238 0.0317 0 0.00308 0
Cd1J 0.0308 0.0317 0.0238 0 0 -0.00308
Cd1ED 0.0308 0.0238 0.0317 0 0.00308 0
O4PE 0.03 0.0409 0.0333 0.0023 -0.0039 0.0019
O4WB 0.0333 0.03 0.0409 -0.0019 -0.0023 -0.0039
O4PB 0.0409 0.0333 0.03 -0.0039 0.0019 0.0023
O4FA 0.03 0.0333 0.0409 -0.0023 -0.0019 -0.0039
O4VD 0.03 0.0333 0.0409 -0.0023 0.0019 0.0039
O4DD 0.03 0.0409 0.0333 0.0023 0.0039 -0.0019
O4JB 0.03 0.0409 0.0333 0.0023 -0.0039 0.0019
O4PA 0.03 0.0333 0.0409 -0.0023 0.0019 0.0039
O4JE 0.03 0.0333 0.0409 -0.0023 -0.0019 -0.0039
O4KA 0.0333 0.03 0.0409 -0.0019 0.0023 0.0039
O4BB 0.0409 0.0333 0.03 -0.0039 -0.0019 -0.0023
O4ND 0.0333 0.0409 0.03 0.0019 0.0039 -0.0023
O4GE 0.0409 0.03 0.0333 0.0039 -0.0023 0.0019
O4J 0.0333 0.0409 0.03 0.0019 0.0039 -0.0023
O4CA 0.0409 0.03 0.0333 0.0039 -0.0023 0.0019
O5PA 0.0307 0.0452 0.0376 0.0007 -0.0004 0.0085
O5PE 0.0307 0.0376 0.0452 -0.0007 -0.0085 -0.0004
O5JE 0.0307 0.0452 0.0376 0.0007 0.0004 -0.0085
O5FE 0.0376 0.0307 0.0452 -0.0085 -0.0007 -0.0004
O5LE 0.0452 0.0376 0.0307 -0.0004 0.0085 0.0007
O5FA 0.0307 0.0452 0.0376 0.0007 0.0004 -0.0085
O5VD 0.0307 0.0452 0.0376 0.0007 -0.0004 0.0085
O5DD 0.0307 0.0376 0.0452 -0.0007 0.0085 0.0004
O5JB 0.0307 0.0376 0.0452 -0.0007 -0.0085 -0.0004
O5SD 0.0376 0.0307 0.0452 -0.0085 0.0007 0.0004
O5YD 0.0452 0.0376 0.0307 -0.0004 -0.0085 -0.0007
O5B 0.0376 0.0452 0.0307 0.0085 0.0004 -0.0007
O5A 0.0452 0.0307 0.0376 0.0004 -0.0007 0.0085
O5FD 0.0376 0.0452 0.0307 0.0085 0.0004 -0.0007
O5ED 0.0452 0.0307 0.0376 0.0004 -0.0007 0.0085
C1VD 0.0225 0.0335 0.0372 -0.0034 0.0026 -0.0005
C1WB 0.0335 0.0225 0.0372 -0.0026 -0.0034 0.0005
C1PB 0.0372 0.0335 0.0225 0.0005 0.0026 0.0034
C1JB 0.0225 0.0372 0.0335 0.0034 0.0005 0.0026
C1KA 0.0335 0.0225 0.0372 -0.0026 0.0034 -0.0005
C1BB 0.0372 0.0335 0.0225 0.0005 -0.0026 -0.0034
C1ND 0.0335 0.0372 0.0225 0.0026 -0.0005 -0.0034
C1GE 0.0372 0.0225 0.0335 -0.0005 -0.0034 0.0026
C1PA 0.0225 0.0335 0.0372 -0.0034 0.0026 -0.0005
C1J 0.0335 0.0372 0.0225 0.0026 -0.0005 -0.0034
C1CA 0.0372 0.0225 0.0335 -0.0005 -0.0034 0.0026
C2WB 0.0362 0.0284 0.0399 -0.0037 0.0015 0.0004
C2PB 0.0399 0.0362 0.0284 0.0004 0.0037 -0.0015
C2JB 0.0284 0.0399 0.0362 -0.0015 0.0004 0.0037
C2KA 0.0362 0.0284 0.0399 -0.0037 -0.0015 -0.0004
C2BB 0.0399 0.0362 0.0284 0.0004 -0.0037 0.0015
C2VD 0.0284 0.0362 0.0399 0.0015 0.0037 -0.0004
C2ND 0.0362 0.0399 0.0284 0.0037 -0.0004 0.0015
C2GE 0.0399 0.0284 0.0362 -0.0004 0.0015 0.0037
C2PA 0.0284 0.0362 0.0399 0.0015 0.0037 -0.0004
C2J 0.0362 0.0399 0.0284 0.0037 -0.0004 0.0015
C2CA 0.0399 0.0284 0.0362 -0.0004 0.0015 0.0037
C3WB 0.0395 0.0325 0.0407 -0.0109 0.0066 -0.0019
C3PB 0.0407 0.0395 0.0325 -0.0019 0.0109 -0.0066
C3JB 0.0325 0.0407 0.0395 -0.0066 -0.0019 0.0109
C3KA 0.0395 0.0325 0.0407 -0.0109 -0.0066 0.0019
C3BB 0.0407 0.0395 0.0325 -0.0019 -0.0109 0.0066
C3VD 0.0325 0.0395 0.0407 0.0066 0.0109 0.0019
C3ND 0.0395 0.0407 0.0325 0.0109 0.0019 0.0066
C3GE 0.0407 0.0325 0.0395 0.0019 0.0066 0.0109
C3PA 0.0325 0.0395 0.0407 0.0066 0.0109 0.0019
C3J 0.0395 0.0407 0.0325 0.0109 0.0019 0.0066
C3CA 0.0407 0.0325 0.0395 0.0019 0.0066 0.0109
C4WB 0.0359 0.0335 0.0416 -0.0072 0.0073 -0.0053
C4PB 0.0416 0.0359 0.0335 -0.0053 0.0072 -0.0073
C4JB 0.0335 0.0416 0.0359 -0.0073 -0.0053 0.0072
C4KA 0.0359 0.0335 0.0416 -0.0072 -0.0073 0.0053
C4BB 0.0416 0.0359 0.0335 -0.0053 -0.0072 0.0073
C4VD 0.0335 0.0359 0.0416 0.0073 0.0072 0.0053
C4ND 0.0359 0.0416 0.0335 0.0072 0.0053 0.0073
C4GE 0.0416 0.0335 0.0359 0.0053 0.0073 0.0072
C4PA 0.0335 0.0359 0.0416 0.0073 0.0072 0.0053
C4J 0.0359 0.0416 0.0335 0.0072 0.0053 0.0073
C4CA 0.0416 0.0335 0.0359 0.0053 0.0073 0.0072
C5WB 0.0379 0.0345 0.0403 -0.0072 0.0056 -0.0055
C5PB 0.0403 0.0379 0.0345 -0.0055 0.0072 -0.0056
C5JB 0.0345 0.0403 0.0379 -0.0056 -0.0055 0.0072
C5BB 0.0403 0.0379 0.0345 -0.0055 -0.0072 0.0056
C5KA 0.0379 0.0345 0.0403 -0.0072 -0.0056 0.0055
C5VD 0.0345 0.0379 0.0403 0.0056 0.0072 0.0055
C5GE 0.0403 0.0345 0.0379 0.0055 0.0056 0.0072
C5ND 0.0379 0.0403 0.0345 0.0072 0.0055 0.0056
C5PA 0.0345 0.0379 0.0403 0.0056 0.0072 0.0055
C5CA 0.0403 0.0345 0.0379 0.0055 0.0056 0.0072
C5J 0.0379 0.0403 0.0345 0.0072 0.0055 0.0056
C6WB 0.0407 0.0436 0.0388 -0.0107 0.0079 -0.0088
C6PB 0.0388 0.0407 0.0436 -0.0088 0.0107 -0.0079
C6JB 0.0436 0.0388 0.0407 -0.0079 -0.0088 0.0107
C6BB 0.0388 0.0407 0.0436 -0.0088 -0.0107 0.0079
C6KA 0.0407 0.0436 0.0388 -0.0107 -0.0079 0.0088
C6VD 0.0436 0.0407 0.0388 0.0079 0.0107 0.0088
C6GE 0.0388 0.0436 0.0407 0.0088 0.0079 0.0107
C6ND 0.0407 0.0388 0.0436 0.0107 0.0088 0.0079
C6PA 0.0436 0.0407 0.0388 0.0079 0.0107 0.0088
C6CA 0.0388 0.0436 0.0407 0.0088 0.0079 0.0107
C6J 0.0407 0.0388 0.0436 0.0107 0.0088 0.0079
C7WB 0.034 0.0393 0.0434 -0.0045 0.0059 -0.008
C7PB 0.0434 0.034 0.0393 -0.008 0.0045 -0.0059
C7JB 0.0393 0.0434 0.034 -0.0059 -0.008 0.0045
C7BB 0.0434 0.034 0.0393 -0.008 -0.0045 0.0059
C7KA 0.034 0.0393 0.0434 -0.0045 -0.0059 0.008
C7VD 0.0393 0.034 0.0434 0.0059 0.0045 0.008
C7GE 0.0434 0.0393 0.034 0.008 0.0059 0.0045
C7ND 0.034 0.0434 0.0393 0.0045 0.008 0.0059
C7PA 0.0393 0.034 0.0434 0.0059 0.0045 0.008
C7CA 0.0434 0.0393 0.034 0.008 0.0059 0.0045
C7J 0.034 0.0434 0.0393 0.0045 0.008 0.0059
C8WB 0.0383 0.0357 0.0397 -0.0076 0.0084 -0.0089
C8PB 0.0397 0.0383 0.0357 -0.0089 0.0076 -0.0084
C8JB 0.0357 0.0397 0.0383 -0.0084 -0.0089 0.0076
C8BB 0.0397 0.0383 0.0357 -0.0089 -0.0076 0.0084
C8KA 0.0383 0.0357 0.0397 -0.0076 -0.0084 0.0089
C8VD 0.0357 0.0383 0.0397 0.0084 0.0076 0.0089
C8GE 0.0397 0.0357 0.0383 0.0089 0.0084 0.0076
C8ND 0.0383 0.0397 0.0357 0.0076 0.0089 0.0084
C8PA 0.0357 0.0383 0.0397 0.0084 0.0076 0.0089
C8CA 0.0397 0.0357 0.0383 0.0089 0.0084 0.0076
C8J 0.0383 0.0397 0.0357 0.0076 0.0089 0.0084
C9PB 0.0366 0.0383 0.0411 -0.0091 0.0077 -0.0088
C9WB 0.0383 0.0411 0.0366 -0.0077 0.0088 -0.0091
C9BB 0.0366 0.0383 0.0411 -0.0091 -0.0077 0.0088
C9JB 0.0411 0.0366 0.0383 -0.0088 -0.0091 0.0077
C9KA 0.0383 0.0411 0.0366 -0.0077 -0.0088 0.0091
C9GE 0.0366 0.0411 0.0383 0.0091 0.0088 0.0077
C9VD 0.0411 0.0383 0.0366 0.0088 0.0077 0.0091
C9ND 0.0383 0.0366 0.0411 0.0077 0.0091 0.0088
C9CA 0.0366 0.0411 0.0383 0.0091 0.0088 0.0077
C9PA 0.0411 0.0383 0.0366 0.0088 0.0077 0.0091
C9J 0.0383 0.0366 0.0411 0.0077 0.0091 0.0088
C10WB 0.0432(17) 0.0428(17) 0.0449(18) -0.0169(14) 0.0149(14) -0.0151(14)
C10PB 0.0449 0.0432 0.0428 -0.0151 0.0169 -0.0149
C10JB 0.0428 0.0449 0.0432 -0.0149 -0.0151 0.0169
C10KA 0.0432 0.0428 0.0449 -0.0169 -0.0149 0.0151
C10BB 0.0449 0.0432 0.0428 -0.0151 -0.0169 0.0149
C10VD 0.0428 0.0432 0.0449 0.0149 0.0169 0.0151
C10ND 0.0432 0.0449 0.0428 0.0169 0.0151 0.0149
C10GE 0.0449 0.0428 0.0432 0.0151 0.0149 0.0169
C10PA 0.0428 0.0432 0.0449 0.0149 0.0169 0.0151
C10J 0.0432 0.0449 0.0428 0.0169 0.0151 0.0149
C10CA 0.0449 0.0428 0.0432 0.0151 0.0149 0.0169
C11WB 0.061(2) 0.066(2) 0.051(2) -0.0123(17) 0.0120(17) -0.0241(19)
C11PB 0.051 0.061 0.066 -0.0241 0.0123 -0.012
C11JB 0.066 0.051 0.061 -0.012 -0.0241 0.0123
C11KA 0.061 0.066 0.051 -0.0123 -0.012 0.0241
C11BB 0.051 0.061 0.066 -0.0241 -0.0123 0.012
C11VD 0.066 0.061 0.051 0.012 0.0123 0.0241
C11ND 0.061 0.051 0.066 0.0123 0.0241 0.012
C11GE 0.051 0.066 0.061 0.0241 0.012 0.0123
C11PA 0.066 0.061 0.051 0.012 0.0123 0.0241
C11J 0.061 0.051 0.066 0.0123 0.0241 0.012
C11CA 0.051 0.066 0.061 0.0241 0.012 0.0123
C12WB 0.102(3) 0.069(3) 0.061(2) 0.007(2) -0.007(2) -0.022(2)
C12PB 0.061 0.102 0.069 -0.022 -0.007 0.007
C12JB 0.069 0.061 0.102 0.007 -0.022 -0.007
C12KA 0.102 0.069 0.061 0.007 0.007 0.022
C12BB 0.061 0.102 0.069 -0.022 0.007 -0.007
C12VD 0.069 0.102 0.061 -0.007 -0.007 0.022
C12ND 0.102 0.061 0.069 -0.007 0.022 -0.007
C12GE 0.061 0.069 0.102 0.022 -0.007 -0.007
C12PA 0.069 0.102 0.061 -0.007 -0.007 0.022
C12J 0.102 0.061 0.069 -0.007 0.022 -0.007
C12CA 0.061 0.069 0.102 0.022 -0.007 -0.007
C13WB 0.054(2) 0.051(2) 0.078(3) -0.0091(19) 0.0236(19) -0.0078(17)
C13PB 0.078 0.054 0.051 -0.0078 0.0091 -0.0236
C13JB 0.051 0.078 0.054 -0.0236 -0.0078 0.0091
C13KA 0.054 0.051 0.078 -0.0091 -0.0236 0.0078
C13BB 0.078 0.054 0.051 -0.0078 -0.0091 0.0236
C13VD 0.051 0.054 0.078 0.0236 0.0091 0.0078
C13ND 0.054 0.078 0.051 0.0091 0.0078 0.0236
C13GE 0.078 0.051 0.054 0.0078 0.0236 0.0091
C13PA 0.051 0.054 0.078 0.0236 0.0091 0.0078
C13J 0.054 0.078 0.051 0.0091 0.0078 0.0236
C13CA 0.078 0.051 0.054 0.0078 0.0236 0.0091
C14WB 0.065(3) 0.073(3) 0.098(3) -0.007(2) 0.001(2) 0.010(2)
C14PB 0.098 0.065 0.073 0.01 0.007 -0.001
C14JB 0.073 0.098 0.065 -0.001 0.01 0.007
C14KA 0.065 0.073 0.098 -0.007 -0.001 -0.01
C14BB 0.098 0.065 0.073 0.01 -0.007 0.001
C14VD 0.073 0.065 0.098 0.001 0.007 -0.01
C14ND 0.065 0.098 0.073 0.007 -0.01 0.001
C14GE 0.098 0.073 0.065 -0.01 0.001 0.007
C14PA 0.073 0.065 0.098 0.001 0.007 -0.01
C14J 0.065 0.098 0.073 0.007 -0.01 0.001
C14CA 0.098 0.073 0.065 -0.01 0.001 0.007
O7FA 0.084 0.0352 0.056 0.0105 0 0
O7DD 0.084 0.056 0.0352 -0.0105 0 0
O7PA 0.084 0.0352 0.056 0.0105 0 0
C15DD 0.152 0.218 0.098 -0.006 0 0
C15FA 0.152 0.098 0.218 0.006 0 0
C15PA 0.152 0.098 0.218 0.006 0 0
O1 0.122(4) 0.074(3) 0.116(4) -0.008(3) 0.000 0.000
loop_
_geom_bond_atom_site_label_1
_geom_bond_atom_site_label_2
_geom_bond_site_symmetry_1
_geom_bond_site_symmetry_2
Cd1 O4 1_555 1_555
O4 C1 1_555 1_555
O5 Cd1 1_555 1_555
O6 Cd1 1_555 1_555
C1 C2 1_555 1_555
C2 C3 1_555 1_555
C3 H1 1_555 1_555
C4 C3 1_555 1_555
C5 C4 1_555 1_555
C6 C5 1_555 1_555
H2 C6 1_555 1_555
C7 C2 1_555 1_555
H3 C7 1_555 1_555
C8 C5 1_555 1_555
C9 C8 1_555 1_555
C10 C4 1_555 1_555
C11 C10 1_555 1_555
H4 C11 1_555 1_555
H5 C11 1_555 1_555
C12 C11 1_555 1_555
H6 C12 1_555 1_555
H7 C12 1_555 1_555
H8 C12 1_555 1_555
C13 C10 1_555 1_555
H9 C13 1_555 1_555
H10 C13 1_555 1_555
C14 C13 1_555 1_555
H11 C14 1_555 1_555
H12 C14 1_555 1_555
H13 C14 1_555 1_555
O7 Cd1 1_555 1_555
C15 O7 1_555 1_555
H14 O7 1_555 1_555
Cd1FA O5 1_555 1_555
Cd1PA O6 1_555 1_555
Cd1DD O6 1_555 1_555
Cd1PF O4WB 1_555 1_555
Cd1FE O5FE 1_555 1_555
Cd1FD O4PB 1_555 1_555
Cd1UA O5LE 1_555 1_555
Cd1KA O4KA 1_555 1_555
Cd1CA O4CA 1_555 1_555
Cd1UE O4BB 1_555 1_555
Cd1YD O5YD 1_555 1_555
Cd1W O4ND 1_555 1_555
Cd1B O5B 1_555 1_555
Cd1MA O4GE 1_555 1_555
Cd1A O5A 1_555 1_555
Cd1J O4J 1_555 1_555
Cd1ED O5ED 1_555 1_555
O4PE Cd1 1_555 1_555
O4WB C1WB 1_555 1_555
O4PB C1PB 1_555 1_555
O4FA Cd1FA 1_555 1_555
O4VD Cd1FA 1_555 1_555
O4DD Cd1DD 1_555 1_555
O4JB Cd1DD 1_555 1_555
O4PA Cd1PA 1_555 1_555
O4JE Cd1PA 1_555 1_555
O4KA C1KA 1_555 1_555
O4BB C1BB 1_555 1_555
O4ND C1ND 1_555 1_555
O4GE C1GE 1_555 1_555
O4J C1J 1_555 1_555
O4CA C1CA 1_555 1_555
O5PA Cd1 1_555 1_555
O5PE Cd1 1_555 1_555
O5JE Cd1 1_555 1_555
O5FE Cd1PF 1_555 1_555
O5LE Cd1FD 1_555 1_555
O5FA Cd1FA 1_555 1_555
O5VD Cd1FA 1_555 1_555
O5DD Cd1PA 1_555 1_555
O5JB Cd1PA 1_555 1_555
O5SD Cd1KA 1_555 1_555
O5YD Cd1UE 1_555 1_555
O5B Cd1W 1_555 1_555
O5A Cd1MA 1_555 1_555
O5FD Cd1FD 1_555 1_555
O5ED Cd1CA 1_555 1_555
C1VD O5 1_555 1_555
C1WB O5FE 1_555 1_555
C1PB O5LE 1_555 1_555
C1JB O4JB 1_555 1_555
C1KA O5SD 1_555 1_555
C1BB O5YD 1_555 1_555
C1ND O5B 1_555 1_555
C1GE O5A 1_555 1_555
C1PA O4PA 1_555 1_555
C1J O5FD 1_555 1_555
C1CA O5ED 1_555 1_555
C2WB C1WB 1_555 1_555
C2PB C1PB 1_555 1_555
C2JB C1JB 1_555 1_555
C2KA C1KA 1_555 1_555
C2BB C1BB 1_555 1_555
C2VD C1VD 1_555 1_555
C2ND C1ND 1_555 1_555
C2GE C1GE 1_555 1_555
C2PA C1PA 1_555 1_555
C2J C1J 1_555 1_555
C2CA C1CA 1_555 1_555
C3WB C2WB 1_555 1_555
C3PB C2PB 1_555 1_555
C3JB C2JB 1_555 1_555
C3KA C2KA 1_555 1_555
C3BB C2BB 1_555 1_555
C3VD C2VD 1_555 1_555
C3ND C2ND 1_555 1_555
C3GE C2GE 1_555 1_555
C3PA C2PA 1_555 1_555
C3J C2J 1_555 1_555
C3CA C2CA 1_555 1_555
H1WB C3WB 1_555 1_555
H1PB C3PB 1_555 1_555
H1JB C3JB 1_555 1_555
H1KA C3KA 1_555 1_555
H1BB C3BB 1_555 1_555
H1VD C3VD 1_555 1_555
H1ND C3ND 1_555 1_555
H1GE C3GE 1_555 1_555
H1PA C3PA 1_555 1_555
H1J C3J 1_555 1_555
H1CA C3CA 1_555 1_555
C4WB C3WB 1_555 1_555
C4PB C3PB 1_555 1_555
C4JB C3JB 1_555 1_555
C4KA C3KA 1_555 1_555
C4BB C3BB 1_555 1_555
C4VD C3VD 1_555 1_555
C4ND C3ND 1_555 1_555
C4GE C3GE 1_555 1_555
C4PA C3PA 1_555 1_555
C4J C3J 1_555 1_555
C4CA C3CA 1_555 1_555
C5WB C4WB 1_555 1_555
C5PB C4PB 1_555 1_555
C5JB C4JB 1_555 1_555
C5BB C4BB 1_555 1_555
C5KA C4KA 1_555 1_555
C5VD C4VD 1_555 1_555
C5GE C4GE 1_555 1_555
C5ND C4ND 1_555 1_555
C5PA C4PA 1_555 1_555
C5CA C4CA 1_555 1_555
C5J C4J 1_555 1_555
C6WB C5WB 1_555 1_555
C6PB C5PB 1_555 1_555
C6JB C5JB 1_555 1_555
C6BB C5BB 1_555 1_555
C6KA C5KA 1_555 1_555
C6VD C5VD 1_555 1_555
C6GE C5GE 1_555 1_555
C6ND C5ND 1_555 1_555
C6PA C5PA 1_555 1_555
C6CA C5CA 1_555 1_555
C6J C5J 1_555 1_555
H2WB C6WB 1_555 1_555
H2PB C6PB 1_555 1_555
H2JB C6JB 1_555 1_555
H2BB C6BB 1_555 1_555
H2KA C6KA 1_555 1_555
H2VD C6VD 1_555 1_555
H2GE C6GE 1_555 1_555
H2ND C6ND 1_555 1_555
H2PA C6PA 1_555 1_555
H2CA C6CA 1_555 1_555
H2J C6J 1_555 1_555
C7WB C2WB 1_555 1_555
C7PB C2PB 1_555 1_555
C7JB C2JB 1_555 1_555
C7BB C2BB 1_555 1_555
C7KA C2KA 1_555 1_555
C7VD C2VD 1_555 1_555
C7GE C2GE 1_555 1_555
C7ND C2ND 1_555 1_555
C7PA C2PA 1_555 1_555
C7CA C2CA 1_555 1_555
C7J C2J 1_555 1_555
H3WB C7WB 1_555 1_555
H3PB C7PB 1_555 1_555
H3JB C7JB 1_555 1_555
H3BB C7BB 1_555 1_555
H3KA C7KA 1_555 1_555
H3VD C7VD 1_555 1_555
H3GE C7GE 1_555 1_555
H3ND C7ND 1_555 1_555
H3PA C7PA 1_555 1_555
H3CA C7CA 1_555 1_555
H3J C7J 1_555 1_555
C8WB C9 1_555 1_555
C8PB C5PB 1_555 1_555
C8JB C5JB 1_555 1_555
C8BB C5BB 1_555 1_555
C8KA C5KA 1_555 1_555
C8VD C5VD 1_555 1_555
C8GE C5GE 1_555 1_555
C8ND C5ND 1_555 1_555
C8PA C5PA 1_555 1_555
C8CA C5CA 1_555 1_555
C8J C5J 1_555 1_555
C9PB C8 1_555 1_555
C9WB C8WB 1_555 1_555
C9BB C8JB 1_555 1_555
C9JB C8JB 1_555 1_555
C9KA C8BB 1_555 1_555
C9GE C8VD 1_555 1_555
C9VD C8VD 1_555 1_555
C9ND C8GE 1_555 1_555
C9CA C8PA 1_555 1_555
C9PA C8PA 1_555 1_555
C9J C8CA 1_555 1_555
C10WB C9 1_555 1_555
C10PB C4PB 1_555 1_555
C10JB C4JB 1_555 1_555
C10KA C4KA 1_555 1_555
C10BB C4BB 1_555 1_555
C10VD C4VD 1_555 1_555
C10ND C4ND 1_555 1_555
C10GE C4GE 1_555 1_555
C10PA C4PA 1_555 1_555
C10J C4J 1_555 1_555
C10CA C4CA 1_555 1_555
C11WB C10WB 1_555 1_555
C11PB C10PB 1_555 1_555
C11JB C10JB 1_555 1_555
C11KA C10KA 1_555 1_555
C11BB C10BB 1_555 1_555
C11VD C10VD 1_555 1_555
C11ND C10ND 1_555 1_555
C11GE C10GE 1_555 1_555
C11PA C10PA 1_555 1_555
C11J C10J 1_555 1_555
C11CA C10CA 1_555 1_555
H4WB C11WB 1_555 1_555
H4PB C11PB 1_555 1_555
H4JB C11JB 1_555 1_555
H4KA C11KA 1_555 1_555
H4BB C11BB 1_555 1_555
H4VD C11VD 1_555 1_555
H4ND C11ND 1_555 1_555
H4GE C11GE 1_555 1_555
H4PA C11PA 1_555 1_555
H4J C11J 1_555 1_555
H4CA C11CA 1_555 1_555
H5WB C11WB 1_555 1_555
H5PB C11PB 1_555 1_555
H5JB C11JB 1_555 1_555
H5KA C11KA 1_555 1_555
H5BB C11BB 1_555 1_555
H5VD C11VD 1_555 1_555
H5ND C11ND 1_555 1_555
H5GE C11GE 1_555 1_555
H5PA C11PA 1_555 1_555
H5J C11J 1_555 1_555
H5CA C11CA 1_555 1_555
C12WB C11WB 1_555 1_555
C12PB C11PB 1_555 1_555
C12JB C11JB 1_555 1_555
C12KA C11KA 1_555 1_555
C12BB C11BB 1_555 1_555
C12VD C11VD 1_555 1_555
C12ND C11ND 1_555 1_555
C12GE C11GE 1_555 1_555
C12PA C11PA 1_555 1_555
C12J C11J 1_555 1_555
C12CA C11CA 1_555 1_555
H6WB C12WB 1_555 1_555
H6PB C12PB 1_555 1_555
H6JB C12JB 1_555 1_555
H6KA C12KA 1_555 1_555
H6BB C12BB 1_555 1_555
H6VD C12VD 1_555 1_555
H6ND C12ND 1_555 1_555
H6GE C12GE 1_555 1_555
H6PA C12PA 1_555 1_555
H6J C12J 1_555 1_555
H6CA C12CA 1_555 1_555
H7WB C12WB 1_555 1_555
H7PB C12PB 1_555 1_555
H7JB C12JB 1_555 1_555
H7KA C12KA 1_555 1_555
H7BB C12BB 1_555 1_555
H7VD C12VD 1_555 1_555
H7ND C12ND 1_555 1_555
H7GE C12GE 1_555 1_555
H7PA C12PA 1_555 1_555
H7J C12J 1_555 1_555
H7CA C12CA 1_555 1_555
H8WB C12WB 1_555 1_555
H8PB C12PB 1_555 1_555
H8JB C12JB 1_555 1_555
H8KA C12KA 1_555 1_555
H8BB C12BB 1_555 1_555
H8VD C12VD 1_555 1_555
H8ND C12ND 1_555 1_555
H8GE C12GE 1_555 1_555
H8PA C12PA 1_555 1_555
H8J C12J 1_555 1_555
H8CA C12CA 1_555 1_555
C13WB C10WB 1_555 1_555
C13PB C10PB 1_555 1_555
C13JB C10JB 1_555 1_555
C13KA C10KA 1_555 1_555
C13BB C10BB 1_555 1_555
C13VD C10VD 1_555 1_555
C13ND C10ND 1_555 1_555
C13GE C10GE 1_555 1_555
C13PA C10PA 1_555 1_555
C13J C10J 1_555 1_555
C13CA C10CA 1_555 1_555
H9WB C13WB 1_555 1_555
H9PB C13PB 1_555 1_555
H9JB C13JB 1_555 1_555
H9KA C13KA 1_555 1_555
H9BB C13BB 1_555 1_555
H9VD C13VD 1_555 1_555
H9ND C13ND 1_555 1_555
H9GE C13GE 1_555 1_555
H9PA C13PA 1_555 1_555
H9J C13J 1_555 1_555
H9CA C13CA 1_555 1_555
H10WB C13WB 1_555 1_555
H10PB C13PB 1_555 1_555
H10JB C13JB 1_555 1_555
H10KA C13KA 1_555 1_555
H10BB C13BB 1_555 1_555
H10VD C13VD 1_555 1_555
H10ND C13ND 1_555 1_555
H10GE C13GE 1_555 1_555
H10PA C13PA 1_555 1_555
H10J C13J 1_555 1_555
H10CA C13CA 1_555 1_555
C14WB C13WB 1_555 1_555
C14PB C13PB 1_555 1_555
C14JB C13JB 1_555 1_555
C14KA C13KA 1_555 1_555
C14BB C13BB 1_555 1_555
C14VD C13VD 1_555 1_555
C14ND C13ND 1_555 1_555
C14GE C13GE 1_555 1_555
C14PA C13PA 1_555 1_555
C14J C13J 1_555 1_555
C14CA C13CA 1_555 1_555
H11WB C14WB 1_555 1_555
H11PB C14PB 1_555 1_555
H11JB C14JB 1_555 1_555
H11KA C14KA 1_555 1_555
H11BB C14BB 1_555 1_555
H11VD C14VD 1_555 1_555
H11ND C14ND 1_555 1_555
H11GE C14GE 1_555 1_555
H11PA C14PA 1_555 1_555
H11J C14J 1_555 1_555
H11CA C14CA 1_555 1_555
H12WB C14WB 1_555 1_555
H12PB C14PB 1_555 1_555
H12JB C14JB 1_555 1_555
H12KA C14KA 1_555 1_555
H12BB C14BB 1_555 1_555
H12VD C14VD 1_555 1_555
H12ND C14ND 1_555 1_555
H12GE C14GE 1_555 1_555
H12PA C14PA 1_555 1_555
H12J C14J 1_555 1_555
H12CA C14CA 1_555 1_555
H13WB C14WB 1_555 1_555
H13PB C14PB 1_555 1_555
H13JB C14JB 1_555 1_555
H13KA C14KA 1_555 1_555
H13BB C14BB 1_555 1_555
H13VD C14VD 1_555 1_555
H13ND C14ND 1_555 1_555
H13GE C14GE 1_555 1_555
H13PA C14PA 1_555 1_555
H13J C14J 1_555 1_555
H13CA C14CA 1_555 1_555
O7FA Cd1FA 1_555 1_555
O7DD Cd1DD 1_555 1_555
O7PA Cd1PA 1_555 1_555
C15DD O7DD 1_555 1_555
C15FA O7FA 1_555 1_555
C15PA O7PA 1_555 1_555
H14DD O7DD 1_555 1_555
H14FA O7FA 1_555 1_555
H14PA O7PA 1_555 1_555
O6 Cd1FA 1_555 1_555
C1 O5JE 1_555 1_555
C6 C7 1_555 1_555
C10 C9PB 1_555 1_555
Cd1FA O5PE 1_555 1_555
Cd1PA O5PA 1_555 1_555
Cd1PA O5JE 1_555 1_555
Cd1DD O5FA 1_555 1_555
Cd1DD O5VD 1_555 1_555
Cd1DD O5DD 1_555 1_555
Cd1DD O5JB 1_555 1_555
Cd1CA O5SD 1_555 1_555
Cd1J O5FD 1_555 1_555
O4VD C1VD 1_555 1_555
O5VD C1JB 1_555 1_555
O5DD C1PA 1_555 1_555
C4WB C10WB 1_555 1_555
C5WB C8WB 1_555 1_555
C6WB C7WB 1_555 1_555
C6PB C7PB 1_555 1_555
C6JB C7JB 1_555 1_555
C6BB C7BB 1_555 1_555
C6KA C7KA 1_555 1_555
C6VD C7VD 1_555 1_555
C6GE C7GE 1_555 1_555
C6ND C7ND 1_555 1_555
C6PA C7PA 1_555 1_555
C6CA C7CA 1_555 1_555
C6J C7J 1_555 1_555
C8PB C9PB 1_555 1_555
C8PB C9WB 1_555 1_555
C8BB C9BB 1_555 1_555
C8KA C9JB 1_555 1_555
C8KA C9KA 1_555 1_555
C8GE C9GE 1_555 1_555
C8ND C9VD 1_555 1_555
C8ND C9ND 1_555 1_555
C8CA C9CA 1_555 1_555
C8J C9PA 1_555 1_555
C8J C9J 1_555 1_555
C9WB C10PB 1_555 1_555
C9BB C10JB 1_555 1_555
C9JB C10KA 1_555 1_555
C9KA C10BB 1_555 1_555
C9GE C10VD 1_555 1_555
C9VD C10ND 1_555 1_555
C9ND C10GE 1_555 1_555
C9CA C10PA 1_555 1_555
C9PA C10J 1_555 1_555
C9J C10CA 1_555 1_555

#END
