
#######################################################################
#
#                 Cambridge Crystallographic Data Centre
#                                CCDC 
#
#######################################################################
#
# If this CIF has been generated from an entry in the Cambridge 
# Structural Database, then it will include bibliographic, chemical, 
# crystal, experimental, refinement or atomic coordinate data resulting 
# from the CCDC's data processing and validation procedures.
#
#######################################################################

data_BUFNUM
_chemical_name_common            
'catena-(Sesqui-cadmium(ii) tris(oxonium) octakis(mu!6$-5,5,10,10,15,15-hexaethyltruxene-2,7,12-tricarboxylato)-tris(mu!4$-oxo)-dodeca-cadmium(ii) hexahydrate)'
_chemical_formula_moiety         
'(Cd1 2+)1.5n,3n(H3 O1 1+),n(C336 H312 Cd12 O51 6-),6n(H2 O1)'
_chemical_name_systematic        
"catena-(Sesqui-cadmium(ii) tris(oxonium) octakis(\m~6~-5,5,10,10,15,15-hexaethyl-10,15-dihydro-5H-diindeno[1,2-a:1',2'-c]fluorene-2,7,12-tricarboxylato)-tris(\m~4~-oxo)-dodeca-cadmium(ii) hexahydrate)"
_symmetry_cell_setting           cubic
_symmetry_space_group_name_H-M   'F m -3 c'
_symmetry_Int_Tables_number      226
_space_group_name_Hall           '-F 4a 2 3'
loop_
_symmetry_equiv_pos_site_id
_symmetry_equiv_pos_as_xyz
1 x,y,z
2 z,x,y
3 y,z,x
4 1/2+y,1/2+x,1/2-z
5 1/2+y,1/2-x,1/2+z
6 1/2-y,1/2+x,1/2+z
7 1/2+x,1/2+z,1/2-y
8 1/2-x,1/2+z,1/2+y
9 1/2+x,1/2-z,1/2+y
10 1/2+z,1/2+y,1/2-x
11 1/2+z,1/2-y,1/2+x
12 1/2-z,1/2+y,1/2+x
13 x,1/2+y,1/2+z
14 z,1/2+x,1/2+y
15 y,1/2+z,1/2+x
16 1/2+y,x,-z
17 1/2+y,-x,z
18 1/2-y,x,z
19 1/2+x,z,-y
20 1/2-x,z,y
21 1/2+x,-z,y
22 1/2+z,y,-x
23 1/2+z,-y,x
24 1/2-z,y,x
25 1/2+x,y,1/2+z
26 1/2+z,x,1/2+y
27 1/2+y,z,1/2+x
28 y,1/2+x,-z
29 y,1/2-x,z
30 -y,1/2+x,z
31 x,1/2+z,-y
32 -x,1/2+z,y
33 x,1/2-z,y
34 z,1/2+y,-x
35 z,1/2-y,x
36 -z,1/2+y,x
37 1/2+x,1/2+y,z
38 1/2+z,1/2+x,y
39 1/2+y,1/2+z,x
40 y,x,1/2-z
41 y,-x,1/2+z
42 -y,x,1/2+z
43 x,z,1/2-y
44 -x,z,1/2+y
45 x,-z,1/2+y
46 z,y,1/2-x
47 z,-y,1/2+x
48 -z,y,1/2+x
49 -x,-y,z
50 -x,y,-z
51 x,-y,-z
52 z,-x,-y
53 -z,-x,y
54 -z,x,-y
55 -y,z,-x
56 y,-z,-x
57 -y,-z,x
58 1/2-y,1/2-x,1/2-z
59 1/2-x,1/2-z,1/2-y
60 1/2-z,1/2-y,1/2-x
61 -x,1/2-y,1/2+z
62 -x,1/2+y,1/2-z
63 x,1/2-y,1/2-z
64 z,1/2-x,1/2-y
65 -z,1/2-x,1/2+y
66 -z,1/2+x,1/2-y
67 -y,1/2+z,1/2-x
68 y,1/2-z,1/2-x
69 -y,1/2-z,1/2+x
70 1/2-y,-x,-z
71 1/2-x,-z,-y
72 1/2-z,-y,-x
73 1/2-x,-y,1/2+z
74 1/2-x,y,1/2-z
75 1/2+x,-y,1/2-z
76 1/2+z,-x,1/2-y
77 1/2-z,-x,1/2+y
78 1/2-z,x,1/2-y
79 1/2-y,z,1/2-x
80 1/2+y,-z,1/2-x
81 1/2-y,-z,1/2+x
82 -y,1/2-x,-z
83 -x,1/2-z,-y
84 -z,1/2-y,-x
85 1/2-x,1/2-y,z
86 1/2-x,1/2+y,-z
87 1/2+x,1/2-y,-z
88 1/2+z,1/2-x,-y
89 1/2-z,1/2-x,y
90 1/2-z,1/2+x,-y
91 1/2-y,1/2+z,-x
92 1/2+y,1/2-z,-x
93 1/2-y,1/2-z,x
94 -y,-x,1/2-z
95 -x,-z,1/2-y
96 -z,-y,1/2-x
97 -x,-y,-z
98 -z,-x,-y
99 -y,-z,-x
100 1/2-y,1/2-x,1/2+z
101 1/2-y,1/2+x,1/2-z
102 1/2+y,1/2-x,1/2-z
103 1/2-x,1/2-z,1/2+y
104 1/2+x,1/2-z,1/2-y
105 1/2-x,1/2+z,1/2-y
106 1/2-z,1/2-y,1/2+x
107 1/2-z,1/2+y,1/2-x
108 1/2+z,1/2-y,1/2-x
109 -x,1/2-y,1/2-z
110 -z,1/2-x,1/2-y
111 -y,1/2-z,1/2-x
112 1/2-y,-x,z
113 1/2-y,x,-z
114 1/2+y,-x,-z
115 1/2-x,-z,y
116 1/2+x,-z,-y
117 1/2-x,z,-y
118 1/2-z,-y,x
119 1/2-z,y,-x
120 1/2+z,-y,-x
121 1/2-x,-y,1/2-z
122 1/2-z,-x,1/2-y
123 1/2-y,-z,1/2-x
124 -y,1/2-x,z
125 -y,1/2+x,-z
126 y,1/2-x,-z
127 -x,1/2-z,y
128 x,1/2-z,-y
129 -x,1/2+z,-y
130 -z,1/2-y,x
131 -z,1/2+y,-x
132 z,1/2-y,-x
133 1/2-x,1/2-y,-z
134 1/2-z,1/2-x,-y
135 1/2-y,1/2-z,-x
136 -y,-x,1/2+z
137 -y,x,1/2-z
138 y,-x,1/2-z
139 -x,-z,1/2+y
140 x,-z,1/2-y
141 -x,z,1/2-y
142 -z,-y,1/2+x
143 -z,y,1/2-x
144 z,-y,1/2-x
145 x,y,-z
146 x,-y,z
147 -x,y,z
148 -z,x,y
149 z,x,-y
150 z,-x,y
151 y,-z,x
152 -y,z,x
153 y,z,-x
154 1/2+y,1/2+x,1/2+z
155 1/2+x,1/2+z,1/2+y
156 1/2+z,1/2+y,1/2+x
157 x,1/2+y,1/2-z
158 x,1/2-y,1/2+z
159 -x,1/2+y,1/2+z
160 -z,1/2+x,1/2+y
161 z,1/2+x,1/2-y
162 z,1/2-x,1/2+y
163 y,1/2-z,1/2+x
164 -y,1/2+z,1/2+x
165 y,1/2+z,1/2-x
166 1/2+y,x,z
167 1/2+x,z,y
168 1/2+z,y,x
169 1/2+x,y,1/2-z
170 1/2+x,-y,1/2+z
171 1/2-x,y,1/2+z
172 1/2-z,x,1/2+y
173 1/2+z,x,1/2-y
174 1/2+z,-x,1/2+y
175 1/2+y,-z,1/2+x
176 1/2-y,z,1/2+x
177 1/2+y,z,1/2-x
178 y,1/2+x,z
179 x,1/2+z,y
180 z,1/2+y,x
181 1/2+x,1/2+y,-z
182 1/2+x,1/2-y,z
183 1/2-x,1/2+y,z
184 1/2-z,1/2+x,y
185 1/2+z,1/2+x,-y
186 1/2+z,1/2-x,y
187 1/2+y,1/2-z,x
188 1/2-y,1/2+z,x
189 1/2+y,1/2+z,-x
190 y,x,1/2+z
191 x,z,1/2+y
192 z,y,1/2+x
_cell_length_a                   48.686(6)
_cell_length_b                   48.686(6)
_cell_length_c                   48.686(6)
_cell_angle_alpha                90
_cell_angle_beta                 90
_cell_angle_gamma                90
_cell_volume                     115402
_cell_formula_units_Z            8
_exptl_crystal_preparation       
'crystal soaked in Pb(NO3)2 solution for 10 mins'
loop_
_atom_site_label
_atom_site_type_symbol
_atom_site_fract_x
_atom_site_fract_y
_atom_site_fract_z
_atom_site_U_iso_or_equiv
_atom_site_thermal_displace_type
O2 O 0.5000 0.1108(12) 0.2840(10) 0.3500 Uiso
O3 O 0.5000 0.1489(13) 0.1723(14) 0.4200 Uiso
Cd1 Cd 0.5000 0.19908(4) 0.22418(3) 0.0756 Uani
O4 O 0.46901(11) 0.19920(15) 0.26115(12) 0.1507 Uani
O5 O 0.46523(11) 0.16180(14) 0.23722(13) 0.1533 Uani
O6 O 0.5000 0.2500 0.2500 0.1570 Uani
C1 C 0.45780(13) 0.17549(18) 0.25742(17) 0.1203 Uani
C2 C 0.43584(13) 0.16641(17) 0.27575(13) 0.1133 Uani
C3 C 0.42761(13) 0.18235(17) 0.29792(14) 0.1187 Uani
H1 H 0.4365 0.1993 0.3017 0.1430 Uiso
C4 C 0.40638(12) 0.17328(14) 0.31439(13) 0.1100 Uani
C5 C 0.39210(13) 0.14942(14) 0.30855(12) 0.1090 Uani
C6 C 0.40102(14) 0.13364(15) 0.28682(13) 0.1157 Uani
H2 H 0.3920 0.1168 0.2829 0.1390 Uiso
C7 C 0.42240(13) 0.14160(15) 0.27093(14) 0.1167 Uani
H3 H 0.4283 0.1301 0.2563 0.1400 Uiso
C8 C 0.39573(15) 0.18726(14) 0.34009(15) 0.1163 Uani
C9 C 0.37216(13) 0.16830(14) 0.34801(12) 0.1077 Uani
C10 C 0.36976(13) 0.14642(13) 0.32925(13) 0.1073 Uani
C11 C 0.41969(17) 0.1864(2) 0.36144(18) 0.1523 Uani
H4 H 0.4352 0.1974 0.3542 0.1830 Uiso
H5 H 0.4134 0.1953 0.3786 0.1830 Uiso
C12 C 0.4303(2) 0.1573(2) 0.3685(2) 0.1707 Uani
H6 H 0.4148 0.1455 0.3735 0.2560 Uiso
H7 H 0.4432 0.1584 0.3839 0.2560 Uiso
H8 H 0.4397 0.1496 0.3524 0.2560 Uiso
C13 C 0.38579(19) 0.21624(17) 0.33337(18) 0.1470 Uani
H9 H 0.4015 0.2270 0.3262 0.1760 Uiso
H10 H 0.3796 0.2251 0.3506 0.1760 Uiso
C14 C 0.3622(2) 0.21732(19) 0.3122(3) 0.1720 Uani
H11 H 0.3666 0.2053 0.2967 0.2580 Uiso
H12 H 0.3599 0.2362 0.3057 0.2580 Uiso
H13 H 0.3451 0.2111 0.3209 0.2580 Uiso
Cd1PA Cd 0.5000 0.22418(3) 0.30092(4) 0.0756 Uani
Cd1FA Cd 0.5000 0.27582(3) 0.19908(4) 0.0756 Uani
Cd1DD Cd 0.5000 0.30092(4) 0.27582(3) 0.0756 Uani
Cd1DE Cd 0.30092(4) 0.27582(3) 0.5000 0.0756 Uani
Cd1W Cd 0.27582(3) 0.19908(4) 0.5000 0.0756 Uani
Cd1DF Cd 0.22418(3) 0.0000 0.30092(4) 0.0756 Uani
Cd1VC Cd 0.30092(4) 0.0000 0.27582(3) 0.0756 Uani
Cd1UA Cd 0.77582(3) 0.19908(4) 0.0000 0.0756 Uani
Cd1Z Cd 0.69908(4) 0.22418(3) 0.0000 0.0756 Uani
Cd1C Cd 0.69908(4) 0.0000 0.27582(3) 0.0756 Uani
Cd1KA Cd 0.72418(3) 0.0000 0.19908(4) 0.0756 Uani
Cd1HA Cd 0.22418(3) 0.30092(4) 0.5000 0.0756 Uani
Cd1Q Cd 0.30092(4) 0.5000 0.22418(3) 0.0756 Uani
Cd1QD Cd 0.27582(3) 0.5000 0.30092(4) 0.0756 Uani
Cd1QE Cd 0.77582(3) 0.5000 0.19908(4) 0.0756 Uani
Cd1P Cd 0.69908(4) 0.5000 0.22418(3) 0.0756 Uani
Cd1J Cd 0.72418(3) 0.30092(4) 0.0000 0.0756 Uani
O4FA O 0.46901(11) 0.23885(12) 0.19920(15) 0.1507 Uani
O4PE O 0.53099(11) 0.19920(15) 0.26115(12) 0.1507 Uani
O4VD O 0.53099(11) 0.23885(12) 0.19920(15) 0.1507 Uani
O4NC O 0.30080(15) 0.23885(12) 0.46901(11) 0.1507 Uani
O4KB O 0.26115(12) 0.03099(11) 0.30080(15) 0.1507 Uani
O4PA O 0.46901(11) 0.26115(12) 0.30080(15) 0.1507 Uani
O4DD O 0.53099(11) 0.30080(15) 0.23885(12) 0.1507 Uani
O4JE O 0.53099(11) 0.26115(12) 0.30080(15) 0.1507 Uani
O4JB O 0.46901(11) 0.30080(15) 0.23885(12) 0.1507 Uani
O4LE O 0.73885(12) 0.19920(15) 0.03099(11) 0.1507 Uani
O4WC O 0.69920(15) 0.03099(11) 0.23885(12) 0.1507 Uani
O4HA O 0.26115(12) 0.30080(15) 0.46901(11) 0.1507 Uani
O4Q O 0.30080(15) 0.46901(11) 0.26115(12) 0.1507 Uani
O4QE O 0.73885(12) 0.46901(11) 0.19920(15) 0.1507 Uani
O4TF O 0.69920(15) 0.26115(12) 0.03099(11) 0.1507 Uani
O5PE O 0.53477(11) 0.16180(14) 0.23722(13) 0.1533 Uani
O5NC O 0.33820(14) 0.26278(13) 0.46523(11) 0.1533 Uani
O5KB O 0.23722(13) 0.03477(11) 0.33820(14) 0.1533 Uani
O5DD O 0.53477(11) 0.33820(14) 0.26278(13) 0.1533 Uani
O5JB O 0.46523(11) 0.33820(14) 0.26278(13) 0.1533 Uani
O5PA O 0.46523(11) 0.23722(13) 0.33820(14) 0.1533 Uani
O5JE O 0.53477(11) 0.23722(13) 0.33820(14) 0.1533 Uani
O5FA O 0.46523(11) 0.26278(13) 0.16180(14) 0.1533 Uani
O5VD O 0.53477(11) 0.26278(13) 0.16180(14) 0.1533 Uani
O5LE O 0.76278(13) 0.16180(14) 0.03477(11) 0.1533 Uani
O5WC O 0.66180(14) 0.03477(11) 0.26278(13) 0.1533 Uani
O5HA O 0.23722(13) 0.33820(14) 0.46523(11) 0.1533 Uani
O5Q O 0.33820(14) 0.46523(11) 0.23722(13) 0.1533 Uani
O5QE O 0.76278(13) 0.46523(11) 0.16180(14) 0.1533 Uani
O5TF O 0.66180(14) 0.23722(13) 0.03477(11) 0.1533 Uani
C1NC C 0.32451(18) 0.24258(17) 0.45780(13) 0.1203 Uani
C1KB C 0.25742(17) 0.04220(13) 0.32451(18) 0.1203 Uani
C1VD C 0.54220(13) 0.24258(17) 0.17549(18) 0.1203 Uani
C1PA C 0.45780(13) 0.25742(17) 0.32451(18) 0.1203 Uani
C1DD C 0.54220(13) 0.32451(18) 0.24258(17) 0.1203 Uani
C1LE C 0.74258(17) 0.17549(18) 0.04220(13) 0.1203 Uani
C1WC C 0.67549(18) 0.04220(13) 0.24258(17) 0.1203 Uani
C1HA C 0.25742(17) 0.32451(18) 0.45780(13) 0.1203 Uani
C1Q C 0.32451(18) 0.45780(13) 0.25742(17) 0.1203 Uani
C1QE C 0.74258(17) 0.45780(13) 0.17549(18) 0.1203 Uani
C1TF C 0.67549(18) 0.25742(17) 0.04220(13) 0.1203 Uani
C2NC C 0.33359(17) 0.22425(13) 0.43584(13) 0.1133 Uani
C2KB C 0.27575(13) 0.06416(13) 0.33359(17) 0.1133 Uani
C2VD C 0.56416(13) 0.22425(13) 0.16641(17) 0.1133 Uani
C2PA C 0.43584(13) 0.27575(13) 0.33359(17) 0.1133 Uani
C2DD C 0.56416(13) 0.33359(17) 0.22425(13) 0.1133 Uani
C2LE C 0.72425(13) 0.16641(17) 0.06416(13) 0.1133 Uani
C2WC C 0.66641(17) 0.06416(13) 0.22425(13) 0.1133 Uani
C2HA C 0.27575(13) 0.33359(17) 0.43584(13) 0.1133 Uani
C2Q C 0.33359(17) 0.43584(13) 0.27575(13) 0.1133 Uani
C2QE C 0.72425(13) 0.43584(13) 0.16641(17) 0.1133 Uani
C2TF C 0.66641(17) 0.27575(13) 0.06416(13) 0.1133 Uani
C3NC C 0.31765(17) 0.20208(14) 0.42761(13) 0.1187 Uani
C3KB C 0.29792(14) 0.07239(13) 0.31765(17) 0.1187 Uani
C3VD C 0.57239(13) 0.20208(14) 0.18235(17) 0.1187 Uani
C3PA C 0.42761(13) 0.29792(14) 0.31765(17) 0.1187 Uani
C3DD C 0.57239(13) 0.31765(17) 0.20208(14) 0.1187 Uani
C3LE C 0.70208(14) 0.18235(17) 0.07239(13) 0.1187 Uani
C3WC C 0.68235(17) 0.07239(13) 0.20208(14) 0.1187 Uani
C3HA C 0.29792(14) 0.31765(17) 0.42761(13) 0.1187 Uani
C3Q C 0.31765(17) 0.42761(13) 0.29792(14) 0.1187 Uani
C3QE C 0.70208(14) 0.42761(13) 0.18235(17) 0.1187 Uani
C3TF C 0.68235(17) 0.29792(14) 0.07239(13) 0.1187 Uani
H1NC H 0.3007 0.1983 0.4365 0.1430 Uiso
H1KB H 0.3017 0.0635 0.3007 0.1430 Uiso
H1VD H 0.5635 0.1983 0.1993 0.1430 Uiso
H1PA H 0.4365 0.3017 0.3007 0.1430 Uiso
H1DD H 0.5635 0.3007 0.1983 0.1430 Uiso
H1LE H 0.6983 0.1993 0.0635 0.1430 Uiso
H1WC H 0.6993 0.0635 0.1983 0.1430 Uiso
H1HA H 0.3017 0.3007 0.4365 0.1430 Uiso
H1Q H 0.3007 0.4365 0.3017 0.1430 Uiso
H1QE H 0.6983 0.4365 0.1993 0.1430 Uiso
H1TF H 0.6993 0.3017 0.0635 0.1430 Uiso
C4NC C 0.32672(14) 0.18561(13) 0.40638(12) 0.1100 Uani
C4KB C 0.31439(13) 0.09362(12) 0.32672(14) 0.1100 Uani
C4VD C 0.59362(12) 0.18561(13) 0.17328(14) 0.1100 Uani
C4PA C 0.40638(12) 0.31439(13) 0.32672(14) 0.1100 Uani
C4DD C 0.59362(12) 0.32672(14) 0.18561(13) 0.1100 Uani
C4LE C 0.68561(13) 0.17328(14) 0.09362(12) 0.1100 Uani
C4WC C 0.67328(14) 0.09362(12) 0.18561(13) 0.1100 Uani
C4HA C 0.31439(13) 0.32672(14) 0.40638(12) 0.1100 Uani
C4Q C 0.32672(14) 0.40638(12) 0.31439(13) 0.1100 Uani
C4QE C 0.68561(13) 0.40638(12) 0.17328(14) 0.1100 Uani
C4TF C 0.67328(14) 0.31439(13) 0.09362(12) 0.1100 Uani
C5NC C 0.35058(14) 0.19145(12) 0.39210(13) 0.1090 Uani
C5KB C 0.30855(12) 0.10790(13) 0.35058(14) 0.1090 Uani
C5VD C 0.60790(13) 0.19145(12) 0.14942(14) 0.1090 Uani
C5PA C 0.39210(13) 0.30855(12) 0.35058(14) 0.1090 Uani
C5DD C 0.60790(13) 0.35058(14) 0.19145(12) 0.1090 Uani
C5WC C 0.64942(14) 0.10790(13) 0.19145(12) 0.1090 Uani
C5Q C 0.35058(14) 0.39210(13) 0.30855(12) 0.1090 Uani
C5TF C 0.64942(14) 0.30855(12) 0.10790(13) 0.1090 Uani
C5LE C 0.69145(12) 0.14942(14) 0.10790(13) 0.1090 Uani
C5HA C 0.30855(12) 0.35058(14) 0.39210(13) 0.1090 Uani
C5QE C 0.69145(12) 0.39210(13) 0.14942(14) 0.1090 Uani
C6NC C 0.36636(15) 0.21318(13) 0.40102(14) 0.1157 Uani
C6KB C 0.28682(13) 0.09898(14) 0.36636(15) 0.1157 Uani
C6VD C 0.59898(14) 0.21318(13) 0.13364(15) 0.1157 Uani
C6PA C 0.40102(14) 0.28682(13) 0.36636(15) 0.1157 Uani
C6DD C 0.59898(14) 0.36636(15) 0.21318(13) 0.1157 Uani
C6WC C 0.63364(15) 0.09898(14) 0.21318(13) 0.1157 Uani
C6Q C 0.36636(15) 0.40102(14) 0.28682(13) 0.1157 Uani
C6TF C 0.63364(15) 0.28682(13) 0.09898(14) 0.1157 Uani
C6LE C 0.71318(13) 0.13364(15) 0.09898(14) 0.1157 Uani
C6HA C 0.28682(13) 0.36636(15) 0.40102(14) 0.1157 Uani
C6QE C 0.71318(13) 0.40102(14) 0.13364(15) 0.1157 Uani
H2NC H 0.3832 0.2171 0.3920 0.1390 Uiso
H2KB H 0.2829 0.1080 0.3832 0.1390 Uiso
H2VD H 0.6080 0.2171 0.1168 0.1390 Uiso
H2PA H 0.3920 0.2829 0.3832 0.1390 Uiso
H2DD H 0.6080 0.3832 0.2171 0.1390 Uiso
H2WC H 0.6168 0.1080 0.2171 0.1390 Uiso
H2Q H 0.3832 0.3920 0.2829 0.1390 Uiso
H2TF H 0.6168 0.2829 0.1080 0.1390 Uiso
H2LE H 0.7171 0.1168 0.1080 0.1390 Uiso
H2HA H 0.2829 0.3832 0.3920 0.1390 Uiso
H2QE H 0.7171 0.3920 0.1168 0.1390 Uiso
C7NC C 0.35840(15) 0.22907(14) 0.42240(13) 0.1167 Uani
C7KB C 0.27093(14) 0.07760(13) 0.35840(15) 0.1167 Uani
C7VD C 0.57760(13) 0.22907(14) 0.14160(15) 0.1167 Uani
C7PA C 0.42240(13) 0.27093(14) 0.35840(15) 0.1167 Uani
C7DD C 0.57760(13) 0.35840(15) 0.22907(14) 0.1167 Uani
C7WC C 0.64160(15) 0.07760(13) 0.22907(14) 0.1167 Uani
C7Q C 0.35840(15) 0.42240(13) 0.27093(14) 0.1167 Uani
C7TF C 0.64160(15) 0.27093(14) 0.07760(13) 0.1167 Uani
C7LE C 0.72907(14) 0.14160(15) 0.07760(13) 0.1167 Uani
C7HA C 0.27093(14) 0.35840(15) 0.42240(13) 0.1167 Uani
C7QE C 0.72907(14) 0.42240(13) 0.14160(15) 0.1167 Uani
H3NC H 0.3699 0.2437 0.4283 0.1400 Uiso
H3KB H 0.2563 0.0717 0.3699 0.1400 Uiso
H3VD H 0.5717 0.2437 0.1301 0.1400 Uiso
H3PA H 0.4283 0.2563 0.3699 0.1400 Uiso
H3DD H 0.5717 0.3699 0.2437 0.1400 Uiso
H3WC H 0.6301 0.0717 0.2437 0.1400 Uiso
H3Q H 0.3699 0.4283 0.2563 0.1400 Uiso
H3TF H 0.6301 0.2563 0.0717 0.1400 Uiso
H3LE H 0.7437 0.1301 0.0717 0.1400 Uiso
H3HA H 0.2563 0.3699 0.4283 0.1400 Uiso
H3QE H 0.7437 0.4283 0.1301 0.1400 Uiso
C8KB C 0.34009(15) 0.10427(15) 0.31274(14) 0.1163 Uani
C8NC C 0.31274(14) 0.15991(15) 0.39573(15) 0.1163 Uani
C8VD C 0.60427(15) 0.15991(15) 0.18726(14) 0.1163 Uani
C8PA C 0.39573(15) 0.34009(15) 0.31274(14) 0.1163 Uani
C8DD C 0.60427(15) 0.31274(14) 0.15991(15) 0.1163 Uani
C8LE C 0.65991(15) 0.18726(14) 0.10427(15) 0.1163 Uani
C8HA C 0.34009(15) 0.31274(14) 0.39573(15) 0.1163 Uani
C8QE C 0.65991(15) 0.39573(15) 0.18726(14) 0.1163 Uani
C8WC C 0.68726(14) 0.10427(15) 0.15991(15) 0.1163 Uani
C8Q C 0.31274(14) 0.39573(15) 0.34009(15) 0.1163 Uani
C8TF C 0.68726(14) 0.34009(15) 0.10427(15) 0.1163 Uani
C9KB C 0.34801(12) 0.12784(13) 0.33170(14) 0.1077 Uani
C9NC C 0.33170(14) 0.15199(12) 0.37216(13) 0.1077 Uani
C9VD C 0.62784(13) 0.15199(12) 0.16830(14) 0.1077 Uani
C9PA C 0.37216(13) 0.34801(12) 0.33170(14) 0.1077 Uani
C9DD C 0.62784(13) 0.33170(14) 0.15199(12) 0.1077 Uani
C9LE C 0.65199(12) 0.16830(14) 0.12784(13) 0.1077 Uani
C9HA C 0.34801(12) 0.33170(14) 0.37216(13) 0.1077 Uani
C9QE C 0.65199(12) 0.37216(13) 0.16830(14) 0.1077 Uani
C9WC C 0.66830(14) 0.12784(13) 0.15199(12) 0.1077 Uani
C9Q C 0.33170(14) 0.37216(13) 0.34801(12) 0.1077 Uani
C9TF C 0.66830(14) 0.34801(12) 0.12784(13) 0.1077 Uani
C10NC C 0.35358(13) 0.17075(13) 0.36976(13) 0.1073 Uani
C10KB C 0.32925(13) 0.13024(13) 0.35358(13) 0.1073 Uani
C10VD C 0.63024(13) 0.17075(13) 0.14642(13) 0.1073 Uani
C10PA C 0.36976(13) 0.32925(13) 0.35358(13) 0.1073 Uani
C10DD C 0.63024(13) 0.35358(13) 0.17075(13) 0.1073 Uani
C10WC C 0.64642(13) 0.13024(13) 0.17075(13) 0.1073 Uani
C10Q C 0.35358(13) 0.36976(13) 0.32925(13) 0.1073 Uani
C10TF C 0.64642(13) 0.32925(13) 0.13024(13) 0.1073 Uani
C10LE C 0.67075(13) 0.14642(13) 0.13024(13) 0.1073 Uani
C10HA C 0.32925(13) 0.35358(13) 0.36976(13) 0.1073 Uani
C10QE C 0.67075(13) 0.36976(13) 0.14642(13) 0.1073 Uani
C11KB C 0.36144(18) 0.08031(17) 0.3136(2) 0.1523 Uani
C11NC C 0.3136(2) 0.13856(18) 0.41969(17) 0.1523 Uani
C11VD C 0.58031(17) 0.13856(18) 0.1864(2) 0.1523 Uani
C11PA C 0.41969(17) 0.36144(18) 0.3136(2) 0.1523 Uani
C11DD C 0.58031(17) 0.3136(2) 0.13856(18) 0.1523 Uani
C11LE C 0.63856(18) 0.1864(2) 0.08031(17) 0.1523 Uani
C11HA C 0.36144(18) 0.3136(2) 0.41969(17) 0.1523 Uani
C11QE C 0.63856(18) 0.41969(17) 0.1864(2) 0.1523 Uani
C11WC C 0.6864(2) 0.08031(17) 0.13856(18) 0.1523 Uani
C11Q C 0.3136(2) 0.41969(17) 0.36144(18) 0.1523 Uani
C11TF C 0.6864(2) 0.36144(18) 0.08031(17) 0.1523 Uani
H4KB H 0.3542 0.0648 0.3026 0.1830 Uiso
H4NC H 0.3026 0.1458 0.4352 0.1830 Uiso
H4VD H 0.5648 0.1458 0.1974 0.1830 Uiso
H4PA H 0.4352 0.3542 0.3026 0.1830 Uiso
H4DD H 0.5648 0.3026 0.1458 0.1830 Uiso
H4LE H 0.6458 0.1974 0.0648 0.1830 Uiso
H4HA H 0.3542 0.3026 0.4352 0.1830 Uiso
H4QE H 0.6458 0.4352 0.1974 0.1830 Uiso
H4WC H 0.6974 0.0648 0.1458 0.1830 Uiso
H4Q H 0.3026 0.4352 0.3542 0.1830 Uiso
H4TF H 0.6974 0.3542 0.0648 0.1830 Uiso
H5KB H 0.3786 0.0866 0.3047 0.1830 Uiso
H5NC H 0.3047 0.1214 0.4134 0.1830 Uiso
H5VD H 0.5866 0.1214 0.1953 0.1830 Uiso
H5PA H 0.4134 0.3786 0.3047 0.1830 Uiso
H5DD H 0.5866 0.3047 0.1214 0.1830 Uiso
H5LE H 0.6214 0.1953 0.0866 0.1830 Uiso
H5HA H 0.3786 0.3047 0.4134 0.1830 Uiso
H5QE H 0.6214 0.4134 0.1953 0.1830 Uiso
H5WC H 0.6953 0.0866 0.1214 0.1830 Uiso
H5Q H 0.3047 0.4134 0.3786 0.1830 Uiso
H5TF H 0.6953 0.3786 0.0866 0.1830 Uiso
C12KB C 0.3685(2) 0.0697(2) 0.3427(2) 0.1707 Uani
C12NC C 0.3427(2) 0.1315(2) 0.4303(2) 0.1707 Uani
C12VD C 0.5697(2) 0.1315(2) 0.1573(2) 0.1707 Uani
C12PA C 0.4303(2) 0.3685(2) 0.3427(2) 0.1707 Uani
C12DD C 0.5697(2) 0.3427(2) 0.1315(2) 0.1707 Uani
C12LE C 0.6315(2) 0.1573(2) 0.0697(2) 0.1707 Uani
C12HA C 0.3685(2) 0.3427(2) 0.4303(2) 0.1707 Uani
C12QE C 0.6315(2) 0.4303(2) 0.1573(2) 0.1707 Uani
C12WC C 0.6573(2) 0.0697(2) 0.1315(2) 0.1707 Uani
C12Q C 0.3427(2) 0.4303(2) 0.3685(2) 0.1707 Uani
C12TF C 0.6573(2) 0.3685(2) 0.0697(2) 0.1707 Uani
H6KB H 0.3735 0.0852 0.3545 0.2560 Uiso
H6NC H 0.3545 0.1265 0.4148 0.2560 Uiso
H6VD H 0.5852 0.1265 0.1455 0.2560 Uiso
H6PA H 0.4148 0.3735 0.3545 0.2560 Uiso
H6DD H 0.5852 0.3545 0.1265 0.2560 Uiso
H6LE H 0.6265 0.1455 0.0852 0.2560 Uiso
H6HA H 0.3735 0.3545 0.4148 0.2560 Uiso
H6QE H 0.6265 0.4148 0.1455 0.2560 Uiso
H6WC H 0.6455 0.0852 0.1265 0.2560 Uiso
H6Q H 0.3545 0.4148 0.3735 0.2560 Uiso
H6TF H 0.6455 0.3735 0.0852 0.2560 Uiso
H7KB H 0.3839 0.0568 0.3416 0.2560 Uiso
H7NC H 0.3416 0.1161 0.4432 0.2560 Uiso
H7VD H 0.5568 0.1161 0.1584 0.2560 Uiso
H7PA H 0.4432 0.3839 0.3416 0.2560 Uiso
H7DD H 0.5568 0.3416 0.1161 0.2560 Uiso
H7LE H 0.6161 0.1584 0.0568 0.2560 Uiso
H7HA H 0.3839 0.3416 0.4432 0.2560 Uiso
H7QE H 0.6161 0.4432 0.1584 0.2560 Uiso
H7WC H 0.6584 0.0568 0.1161 0.2560 Uiso
H7Q H 0.3416 0.4432 0.3839 0.2560 Uiso
H7TF H 0.6584 0.3839 0.0568 0.2560 Uiso
H8KB H 0.3524 0.0603 0.3504 0.2560 Uiso
H8NC H 0.3504 0.1476 0.4397 0.2560 Uiso
H8VD H 0.5603 0.1476 0.1496 0.2560 Uiso
H8PA H 0.4397 0.3524 0.3504 0.2560 Uiso
H8DD H 0.5603 0.3504 0.1476 0.2560 Uiso
H8LE H 0.6476 0.1496 0.0603 0.2560 Uiso
H8HA H 0.3524 0.3504 0.4397 0.2560 Uiso
H8QE H 0.6476 0.4397 0.1496 0.2560 Uiso
H8WC H 0.6496 0.0603 0.1476 0.2560 Uiso
H8Q H 0.3504 0.4397 0.3524 0.2560 Uiso
H8TF H 0.6496 0.3524 0.0603 0.2560 Uiso
C13KB C 0.33337(18) 0.11421(19) 0.28376(17) 0.1470 Uani
C13NC C 0.28376(17) 0.16663(18) 0.38579(19) 0.1470 Uani
C13VD C 0.61421(19) 0.16663(18) 0.21624(17) 0.1470 Uani
C13PA C 0.38579(19) 0.33337(18) 0.28376(17) 0.1470 Uani
C13DD C 0.61421(19) 0.28376(17) 0.16663(18) 0.1470 Uani
C13LE C 0.66663(18) 0.21624(17) 0.11421(19) 0.1470 Uani
C13HA C 0.33337(18) 0.28376(17) 0.38579(19) 0.1470 Uani
C13QE C 0.66663(18) 0.38579(19) 0.21624(17) 0.1470 Uani
C13WC C 0.71624(17) 0.11421(19) 0.16663(18) 0.1470 Uani
C13Q C 0.28376(17) 0.38579(19) 0.33337(18) 0.1470 Uani
C13TF C 0.71624(17) 0.33337(18) 0.11421(19) 0.1470 Uani
H9KB H 0.3262 0.0985 0.2730 0.1760 Uiso
H9NC H 0.2730 0.1738 0.4015 0.1760 Uiso
H9VD H 0.5985 0.1738 0.2270 0.1760 Uiso
H9PA H 0.4015 0.3262 0.2730 0.1760 Uiso
H9DD H 0.5985 0.2730 0.1738 0.1760 Uiso
H9LE H 0.6738 0.2270 0.0985 0.1760 Uiso
H9HA H 0.3262 0.2730 0.4015 0.1760 Uiso
H9QE H 0.6738 0.4015 0.2270 0.1760 Uiso
H9WC H 0.7270 0.0985 0.1738 0.1760 Uiso
H9Q H 0.2730 0.4015 0.3262 0.1760 Uiso
H9TF H 0.7270 0.3262 0.0985 0.1760 Uiso
H10KB H 0.3506 0.1204 0.2749 0.1760 Uiso
H10NC H 0.2749 0.1494 0.3796 0.1760 Uiso
H10VD H 0.6204 0.1494 0.2251 0.1760 Uiso
H10PA H 0.3796 0.3506 0.2749 0.1760 Uiso
H10DD H 0.6204 0.2749 0.1494 0.1760 Uiso
H10LE H 0.6494 0.2251 0.1204 0.1760 Uiso
H10HA H 0.3506 0.2749 0.3796 0.1760 Uiso
H10QE H 0.6494 0.3796 0.2251 0.1760 Uiso
H10WC H 0.7251 0.1204 0.1494 0.1760 Uiso
H10Q H 0.2749 0.3796 0.3506 0.1760 Uiso
H10TF H 0.7251 0.3506 0.1204 0.1760 Uiso
C14KB C 0.3122(3) 0.1378(2) 0.28268(19) 0.1720 Uani
C14NC C 0.28268(19) 0.1878(3) 0.3622(2) 0.1720 Uani
C14VD C 0.6378(2) 0.1878(3) 0.21732(19) 0.1720 Uani
C14PA C 0.3622(2) 0.3122(3) 0.28268(19) 0.1720 Uani
C14DD C 0.6378(2) 0.28268(19) 0.1878(3) 0.1720 Uani
C14LE C 0.6878(3) 0.21732(19) 0.1378(2) 0.1720 Uani
C14HA C 0.3122(3) 0.28268(19) 0.3622(2) 0.1720 Uani
C14QE C 0.6878(3) 0.3622(2) 0.21732(19) 0.1720 Uani
C14WC C 0.71732(19) 0.1378(2) 0.1878(3) 0.1720 Uani
C14Q C 0.28268(19) 0.3622(2) 0.3122(3) 0.1720 Uani
C14TF C 0.71732(19) 0.3122(3) 0.1378(2) 0.1720 Uani
H11KB H 0.2967 0.1334 0.2947 0.2580 Uiso
H11NC H 0.2947 0.2033 0.3666 0.2580 Uiso
H11VD H 0.6334 0.2033 0.2053 0.2580 Uiso
H11PA H 0.3666 0.2967 0.2947 0.2580 Uiso
H11DD H 0.6334 0.2947 0.2033 0.2580 Uiso
H11LE H 0.7033 0.2053 0.1334 0.2580 Uiso
H11HA H 0.2967 0.2947 0.3666 0.2580 Uiso
H11QE H 0.7033 0.3666 0.2053 0.2580 Uiso
H11WC H 0.7053 0.1334 0.2033 0.2580 Uiso
H11Q H 0.2947 0.3666 0.2967 0.2580 Uiso
H11TF H 0.7053 0.2967 0.1334 0.2580 Uiso
H12KB H 0.3057 0.1401 0.2638 0.2580 Uiso
H12NC H 0.2638 0.1943 0.3599 0.2580 Uiso
H12VD H 0.6401 0.1943 0.2362 0.2580 Uiso
H12PA H 0.3599 0.3057 0.2638 0.2580 Uiso
H12DD H 0.6401 0.2638 0.1943 0.2580 Uiso
H12LE H 0.6943 0.2362 0.1401 0.2580 Uiso
H12HA H 0.3057 0.2638 0.3599 0.2580 Uiso
H12QE H 0.6943 0.3599 0.2362 0.2580 Uiso
H12WC H 0.7362 0.1401 0.1943 0.2580 Uiso
H12Q H 0.2638 0.3599 0.3057 0.2580 Uiso
H12TF H 0.7362 0.3057 0.1401 0.2580 Uiso
H13KB H 0.3209 0.1549 0.2889 0.2580 Uiso
H13NC H 0.2889 0.1791 0.3451 0.2580 Uiso
H13VD H 0.6549 0.1791 0.2111 0.2580 Uiso
H13PA H 0.3451 0.3209 0.2889 0.2580 Uiso
H13DD H 0.6549 0.2889 0.1791 0.2580 Uiso
H13LE H 0.6791 0.2111 0.1549 0.2580 Uiso
H13HA H 0.3209 0.2889 0.3451 0.2580 Uiso
H13QE H 0.6791 0.3451 0.2111 0.2580 Uiso
H13WC H 0.7111 0.1549 0.1791 0.2580 Uiso
H13Q H 0.2889 0.3451 0.3209 0.2580 Uiso
H13TF H 0.7111 0.3209 0.1549 0.2580 Uiso
O1 O 0.4528(4) 0.2500 0.2500 0.2070 Uiso
Pb1? Pb 0.30800(19) 0.2193(2) 0.0000 0.0590 Uani
Pb2? Pb 0.5000 0.18488(13) 0.21432(16) 0.0749 Uani
O7? O 0.5000 0.1987(7) 0.1349(8) 0.2740 Uiso
O8? O 0.5000 0.1187(8) 0.1959(6) 0.2570 Uiso
loop_
_atom_site_aniso_label
_atom_site_aniso_U_11
_atom_site_aniso_U_22
_atom_site_aniso_U_33
_atom_site_aniso_U_23
_atom_site_aniso_U_13
_atom_site_aniso_U_12
Cd1 0.0623(6) 0.0996(14) 0.0648(8) 0.0135(9) 0.000 0.000
O4 0.100(3) 0.207(6) 0.145(4) 0.017(4) 0.000(3) -0.015(3)
O5 0.124(4) 0.204(5) 0.132(4) -0.002(4) 0.037(3) -0.016(3)
O6 0.211(15) 0.130(6) 0.130(6) 0.000 0.000 0.000
C1 0.084(4) 0.154(6) 0.123(5) -0.004(4) -0.008(4) -0.023(4)
C2 0.086(4) 0.156(6) 0.098(4) 0.004(4) 0.005(3) -0.004(4)
C3 0.096(4) 0.149(5) 0.111(4) 0.000(4) -0.008(3) -0.018(4)
C4 0.094(3) 0.129(5) 0.107(4) -0.005(3) 0.004(3) -0.024(3)
C5 0.101(4) 0.123(5) 0.103(4) -0.011(3) 0.007(3) -0.012(3)
C6 0.112(4) 0.125(5) 0.110(4) -0.015(4) 0.018(4) -0.009(4)
C7 0.098(4) 0.142(5) 0.110(4) -0.017(4) 0.010(3) 0.000(4)
C8 0.112(4) 0.118(5) 0.119(4) -0.018(4) 0.015(4) -0.024(3)
C9 0.108(4) 0.111(4) 0.104(4) -0.012(3) 0.009(3) -0.014(3)
C10 0.106(4) 0.109(4) 0.107(4) -0.018(3) 0.013(3) -0.018(3)
C11 0.127(5) 0.185(8) 0.145(6) -0.041(6) 0.003(5) -0.029(5)
C12 0.159(7) 0.178(9) 0.175(8) 0.005(7) -0.025(6) 0.007(7)
C13 0.151(7) 0.141(6) 0.149(6) -0.022(5) 0.029(5) -0.044(5)
C14 0.171(9) 0.134(6) 0.211(10) 0.027(6) 0.016(7) 0.002(6)
Cd1PA 0.0623 0.0648 0.0996 -0.0135 0 0
Cd1FA 0.0623 0.0648 0.0996 -0.0135 0 0
Cd1DD 0.0623 0.0996 0.0648 0.0135 0 0
Cd1DE 0.0996 0.0648 0.0623 0 0 0.0135
Cd1W 0.0648 0.0996 0.0623 0 0 -0.0135
Cd1DF 0.0648 0.0623 0.0996 0 -0.0135 0
Cd1VC 0.0996 0.0623 0.0648 0 0.0135 0
Cd1UA 0.0648 0.0996 0.0623 0 0 -0.0135
Cd1Z 0.0996 0.0648 0.0623 0 0 0.0135
Cd1C 0.0996 0.0623 0.0648 0 -0.0135 0
Cd1KA 0.0648 0.0623 0.0996 0 0.0135 0
Cd1HA 0.0648 0.0996 0.0623 0 0 -0.0135
Cd1Q 0.0996 0.0623 0.0648 0 -0.0135 0
Cd1QD 0.0648 0.0623 0.0996 0 0.0135 0
Cd1QE 0.0648 0.0623 0.0996 0 -0.0135 0
Cd1P 0.0996 0.0623 0.0648 0 0.0135 0
Cd1J 0.0648 0.0996 0.0623 0 0 -0.0135
O4FA 0.1 0.145 0.207 -0.017 -0.015 0
O4PE 0.1 0.207 0.145 0.017 0 0.015
O4VD 0.1 0.145 0.207 -0.017 0.015 0
O4NC 0.207 0.145 0.1 0 0.015 0.017
O4KB 0.145 0.1 0.207 -0.015 -0.017 0
O4PA 0.1 0.145 0.207 -0.017 0.015 0
O4DD 0.1 0.207 0.145 0.017 0 -0.015
O4JE 0.1 0.145 0.207 -0.017 -0.015 0
O4JB 0.1 0.207 0.145 0.017 0 0.015
O4LE 0.145 0.207 0.1 0.015 0 -0.017
O4WC 0.207 0.1 0.145 0 -0.017 0.015
O4HA 0.145 0.207 0.1 0.015 0 -0.017
O4Q 0.207 0.1 0.145 0 -0.017 0.015
O4QE 0.145 0.1 0.207 -0.015 -0.017 0
O4TF 0.207 0.145 0.1 0 0.015 0.017
O5PE 0.124 0.204 0.132 -0.002 -0.037 0.016
O5NC 0.204 0.132 0.124 -0.037 0.016 -0.002
O5KB 0.132 0.124 0.204 -0.016 0.002 -0.037
O5DD 0.124 0.204 0.132 -0.002 0.037 -0.016
O5JB 0.124 0.204 0.132 -0.002 -0.037 0.016
O5PA 0.124 0.132 0.204 0.002 0.016 0.037
O5JE 0.124 0.132 0.204 0.002 -0.016 -0.037
O5FA 0.124 0.132 0.204 0.002 -0.016 -0.037
O5VD 0.124 0.132 0.204 0.002 0.016 0.037
O5LE 0.132 0.204 0.124 0.016 0.037 0.002
O5WC 0.204 0.124 0.132 0.037 0.002 0.016
O5HA 0.132 0.204 0.124 0.016 0.037 0.002
O5Q 0.204 0.124 0.132 0.037 0.002 0.016
O5QE 0.132 0.124 0.204 -0.016 0.002 -0.037
O5TF 0.204 0.132 0.124 -0.037 0.016 -0.002
C1NC 0.154 0.123 0.084 0.008 0.023 -0.004
C1KB 0.123 0.084 0.154 -0.023 0.004 0.008
C1VD 0.084 0.123 0.154 0.004 0.023 -0.008
C1PA 0.084 0.123 0.154 0.004 0.023 -0.008
C1DD 0.084 0.154 0.123 -0.004 -0.008 -0.023
C1LE 0.123 0.154 0.084 0.023 -0.008 0.004
C1WC 0.154 0.084 0.123 -0.008 0.004 0.023
C1HA 0.123 0.154 0.084 0.023 -0.008 0.004
C1Q 0.154 0.084 0.123 -0.008 0.004 0.023
C1QE 0.123 0.084 0.154 -0.023 0.004 0.008
C1TF 0.154 0.123 0.084 0.008 0.023 -0.004
C2NC 0.156 0.098 0.086 -0.005 0.004 0.004
C2KB 0.098 0.086 0.156 -0.004 -0.004 -0.005
C2VD 0.086 0.098 0.156 -0.004 0.004 0.005
C2PA 0.086 0.098 0.156 -0.004 0.004 0.005
C2DD 0.086 0.156 0.098 0.004 0.005 -0.004
C2LE 0.098 0.156 0.086 0.004 0.005 -0.004
C2WC 0.156 0.086 0.098 0.005 -0.004 0.004
C2HA 0.098 0.156 0.086 0.004 0.005 -0.004
C2Q 0.156 0.086 0.098 0.005 -0.004 0.004
C2QE 0.098 0.086 0.156 -0.004 -0.004 -0.005
C2TF 0.156 0.098 0.086 -0.005 0.004 0.004
C3NC 0.149 0.111 0.096 0.008 0.018 0
C3KB 0.111 0.096 0.149 -0.018 0 0.008
C3VD 0.096 0.111 0.149 0 0.018 -0.008
C3PA 0.096 0.111 0.149 0 0.018 -0.008
C3DD 0.096 0.149 0.111 0 -0.008 -0.018
C3LE 0.111 0.149 0.096 0.018 -0.008 0
C3WC 0.149 0.096 0.111 -0.008 0 0.018
C3HA 0.111 0.149 0.096 0.018 -0.008 0
C3Q 0.149 0.096 0.111 -0.008 0 0.018
C3QE 0.111 0.096 0.149 -0.018 0 0.008
C3TF 0.149 0.111 0.096 0.008 0.018 0
C4NC 0.129 0.107 0.094 -0.004 0.024 -0.005
C4KB 0.107 0.094 0.129 -0.024 0.005 -0.004
C4VD 0.094 0.107 0.129 0.005 0.024 0.004
C4PA 0.094 0.107 0.129 0.005 0.024 0.004
C4DD 0.094 0.129 0.107 -0.005 0.004 -0.024
C4LE 0.107 0.129 0.094 0.024 0.004 0.005
C4WC 0.129 0.094 0.107 0.004 0.005 0.024
C4HA 0.107 0.129 0.094 0.024 0.004 0.005
C4Q 0.129 0.094 0.107 0.004 0.005 0.024
C4QE 0.107 0.094 0.129 -0.024 0.005 -0.004
C4TF 0.129 0.107 0.094 -0.004 0.024 -0.005
C5NC 0.123 0.103 0.101 -0.007 0.012 -0.011
C5KB 0.103 0.101 0.123 -0.012 0.011 -0.007
C5VD 0.101 0.103 0.123 0.011 0.012 0.007
C5PA 0.101 0.103 0.123 0.011 0.012 0.007
C5DD 0.101 0.123 0.103 -0.011 0.007 -0.012
C5WC 0.123 0.101 0.103 0.007 0.011 0.012
C5Q 0.123 0.101 0.103 0.007 0.011 0.012
C5TF 0.123 0.103 0.101 -0.007 0.012 -0.011
C5LE 0.103 0.123 0.101 0.012 0.007 0.011
C5HA 0.103 0.123 0.101 0.012 0.007 0.011
C5QE 0.103 0.101 0.123 -0.012 0.011 -0.007
C6NC 0.125 0.11 0.112 -0.018 0.009 -0.015
C6KB 0.11 0.112 0.125 -0.009 0.015 -0.018
C6VD 0.112 0.11 0.125 0.015 0.009 0.018
C6PA 0.112 0.11 0.125 0.015 0.009 0.018
C6DD 0.112 0.125 0.11 -0.015 0.018 -0.009
C6WC 0.125 0.112 0.11 0.018 0.015 0.009
C6Q 0.125 0.112 0.11 0.018 0.015 0.009
C6TF 0.125 0.11 0.112 -0.018 0.009 -0.015
C6LE 0.11 0.125 0.112 0.009 0.018 0.015
C6HA 0.11 0.125 0.112 0.009 0.018 0.015
C6QE 0.11 0.112 0.125 -0.009 0.015 -0.018
C7NC 0.142 0.11 0.098 -0.01 0 -0.017
C7KB 0.11 0.098 0.142 0 0.017 -0.01
C7VD 0.098 0.11 0.142 0.017 0 0.01
C7PA 0.098 0.11 0.142 0.017 0 0.01
C7DD 0.098 0.142 0.11 -0.017 0.01 0
C7WC 0.142 0.098 0.11 0.01 0.017 0
C7Q 0.142 0.098 0.11 0.01 0.017 0
C7TF 0.142 0.11 0.098 -0.01 0 -0.017
C7LE 0.11 0.142 0.098 0 0.01 0.017
C7HA 0.11 0.142 0.098 0 0.01 0.017
C7QE 0.11 0.098 0.142 0 0.017 -0.01
C8KB 0.119 0.112 0.118 -0.024 0.018 -0.015
C8NC 0.118 0.119 0.112 -0.015 0.024 -0.018
C8VD 0.112 0.119 0.118 0.018 0.024 0.015
C8PA 0.112 0.119 0.118 0.018 0.024 0.015
C8DD 0.112 0.118 0.119 -0.018 0.015 -0.024
C8LE 0.119 0.118 0.112 0.024 0.015 0.018
C8HA 0.119 0.118 0.112 0.024 0.015 0.018
C8QE 0.119 0.112 0.118 -0.024 0.018 -0.015
C8WC 0.118 0.112 0.119 0.015 0.018 0.024
C8Q 0.118 0.112 0.119 0.015 0.018 0.024
C8TF 0.118 0.119 0.112 -0.015 0.024 -0.018
C9KB 0.104 0.108 0.111 -0.014 0.012 -0.009
C9NC 0.111 0.104 0.108 -0.009 0.014 -0.012
C9VD 0.108 0.104 0.111 0.012 0.014 0.009
C9PA 0.108 0.104 0.111 0.012 0.014 0.009
C9DD 0.108 0.111 0.104 -0.012 0.009 -0.014
C9LE 0.104 0.111 0.108 0.014 0.009 0.012
C9HA 0.104 0.111 0.108 0.014 0.009 0.012
C9QE 0.104 0.108 0.111 -0.014 0.012 -0.009
C9WC 0.111 0.108 0.104 0.009 0.012 0.014
C9Q 0.111 0.108 0.104 0.009 0.012 0.014
C9TF 0.111 0.104 0.108 -0.009 0.014 -0.012
C10NC 0.109 0.107 0.106 -0.013 0.018 -0.018
C10KB 0.107 0.106 0.109 -0.018 0.018 -0.013
C10VD 0.106 0.107 0.109 0.018 0.018 0.013
C10PA 0.106 0.107 0.109 0.018 0.018 0.013
C10DD 0.106 0.109 0.107 -0.018 0.013 -0.018
C10WC 0.109 0.106 0.107 0.013 0.018 0.018
C10Q 0.109 0.106 0.107 0.013 0.018 0.018
C10TF 0.109 0.107 0.106 -0.013 0.018 -0.018
C10LE 0.107 0.109 0.106 0.018 0.013 0.018
C10HA 0.107 0.109 0.106 0.018 0.013 0.018
C10QE 0.107 0.106 0.109 -0.018 0.018 -0.013
C11KB 0.145 0.127 0.185 -0.029 0.041 -0.003
C11NC 0.185 0.145 0.127 -0.003 0.029 -0.041
C11VD 0.127 0.145 0.185 0.041 0.029 0.003
C11PA 0.127 0.145 0.185 0.041 0.029 0.003
C11DD 0.127 0.185 0.145 -0.041 0.003 -0.029
C11LE 0.145 0.185 0.127 0.029 0.003 0.041
C11HA 0.145 0.185 0.127 0.029 0.003 0.041
C11QE 0.145 0.127 0.185 -0.029 0.041 -0.003
C11WC 0.185 0.127 0.145 0.003 0.041 0.029
C11Q 0.185 0.127 0.145 0.003 0.041 0.029
C11TF 0.185 0.145 0.127 -0.003 0.029 -0.041
C12KB 0.175 0.159 0.178 0.007 -0.005 0.025
C12NC 0.178 0.175 0.159 0.025 -0.007 0.005
C12VD 0.159 0.175 0.178 -0.005 -0.007 -0.025
C12PA 0.159 0.175 0.178 -0.005 -0.007 -0.025
C12DD 0.159 0.178 0.175 0.005 -0.025 0.007
C12LE 0.175 0.178 0.159 -0.007 -0.025 -0.005
C12HA 0.175 0.178 0.159 -0.007 -0.025 -0.005
C12QE 0.175 0.159 0.178 0.007 -0.005 0.025
C12WC 0.178 0.159 0.175 -0.025 -0.005 -0.007
C12Q 0.178 0.159 0.175 -0.025 -0.005 -0.007
C12TF 0.178 0.175 0.159 0.025 -0.007 0.005
C13KB 0.149 0.151 0.141 -0.044 0.022 -0.029
C13NC 0.141 0.149 0.151 -0.029 0.044 -0.022
C13VD 0.151 0.149 0.141 0.022 0.044 0.029
C13PA 0.151 0.149 0.141 0.022 0.044 0.029
C13DD 0.151 0.141 0.149 -0.022 0.029 -0.044
C13LE 0.149 0.141 0.151 0.044 0.029 0.022
C13HA 0.149 0.141 0.151 0.044 0.029 0.022
C13QE 0.149 0.151 0.141 -0.044 0.022 -0.029
C13WC 0.141 0.151 0.149 0.029 0.022 0.044
C13Q 0.141 0.151 0.149 0.029 0.022 0.044
C13TF 0.141 0.149 0.151 -0.029 0.044 -0.022
C14KB 0.211 0.171 0.134 0.002 -0.027 -0.016
C14NC 0.134 0.211 0.171 -0.016 -0.002 0.027
C14VD 0.171 0.211 0.134 -0.027 -0.002 0.016
C14PA 0.171 0.211 0.134 -0.027 -0.002 0.016
C14DD 0.171 0.134 0.211 0.027 0.016 0.002
C14LE 0.211 0.134 0.171 -0.002 0.016 -0.027
C14HA 0.211 0.134 0.171 -0.002 0.016 -0.027
C14QE 0.211 0.171 0.134 0.002 -0.027 -0.016
C14WC 0.134 0.171 0.211 0.016 -0.027 -0.002
C14Q 0.134 0.171 0.211 0.016 -0.027 -0.002
C14TF 0.134 0.211 0.171 -0.016 -0.002 0.027
Pb1? 0.062 0.08 0.035 0 0 0.068
Pb2? 0.0656(16) 0.069(3) 0.090(3) -0.050(2) 0.000 0.000
loop_
_geom_bond_atom_site_label_1
_geom_bond_atom_site_label_2
_geom_bond_site_symmetry_1
_geom_bond_site_symmetry_2
Cd1 O4 1_555 1_555
O4 C1 1_555 1_555
O5 Cd1 1_555 1_555
O6 Cd1 1_555 1_555
C1 O5 1_555 1_555
C2 C1 1_555 1_555
C3 C2 1_555 1_555
H1 C3 1_555 1_555
C4 C3 1_555 1_555
C5 C4 1_555 1_555
C6 C5 1_555 1_555
H2 C6 1_555 1_555
C7 C2 1_555 1_555
H3 C7 1_555 1_555
C8 C4 1_555 1_555
C9 C8 1_555 1_555
C10 C5 1_555 1_555
C11 C8 1_555 1_555
H4 C11 1_555 1_555
H5 C11 1_555 1_555
C12 C11 1_555 1_555
H6 C12 1_555 1_555
H7 C12 1_555 1_555
H8 C12 1_555 1_555
C13 C8 1_555 1_555
H9 C13 1_555 1_555
H10 C13 1_555 1_555
C14 C13 1_555 1_555
H11 C14 1_555 1_555
H12 C14 1_555 1_555
H13 C14 1_555 1_555
Cd1PA O4 1_555 1_555
Cd1FA O6 1_555 1_555
Cd1DD O6 1_555 1_555
Cd1DE O4NC 1_555 1_555
Cd1W O4NC 1_555 1_555
Cd1DF O4KB 1_555 1_555
Cd1VC O4KB 1_555 1_555
Cd1UA O4LE 1_555 1_555
Cd1Z O4LE 1_555 1_555
Cd1C O4WC 1_555 1_555
Cd1KA O4WC 1_555 1_555
Cd1HA O4HA 1_555 1_555
Cd1Q O4Q 1_555 1_555
Cd1QD O4Q 1_555 1_555
Cd1QE O4QE 1_555 1_555
Cd1P O4QE 1_555 1_555
Cd1J O4TF 1_555 1_555
O4FA Cd1 1_555 1_555
O4PE Cd1 1_555 1_555
O4VD Cd1 1_555 1_555
O4NC C1NC 1_555 1_555
O4KB C1KB 1_555 1_555
O4PA Cd1PA 1_555 1_555
O4DD Cd1FA 1_555 1_555
O4JE Cd1PA 1_555 1_555
O4JB Cd1FA 1_555 1_555
O4LE C1LE 1_555 1_555
O4WC C1WC 1_555 1_555
O4HA Cd1DE 1_555 1_555
O4Q C1Q 1_555 1_555
O4QE C1QE 1_555 1_555
O4TF Cd1Z 1_555 1_555
O5PE Cd1 1_555 1_555
O5NC Cd1DE 1_555 1_555
O5KB Cd1DF 1_555 1_555
O5DD Cd1DD 1_555 1_555
O5JB Cd1DD 1_555 1_555
O5PA Cd1PA 1_555 1_555
O5JE Cd1PA 1_555 1_555
O5FA Cd1FA 1_555 1_555
O5VD Cd1FA 1_555 1_555
O5LE Cd1UA 1_555 1_555
O5WC Cd1C 1_555 1_555
O5HA Cd1HA 1_555 1_555
O5Q Cd1Q 1_555 1_555
O5QE Cd1QE 1_555 1_555
O5TF Cd1Z 1_555 1_555
C1NC O5NC 1_555 1_555
C1KB O5KB 1_555 1_555
C1VD O4VD 1_555 1_555
C1PA O4PA 1_555 1_555
C1DD O4DD 1_555 1_555
C1LE O5LE 1_555 1_555
C1WC O5WC 1_555 1_555
C1HA O4HA 1_555 1_555
C1Q O5Q 1_555 1_555
C1QE O5QE 1_555 1_555
C1TF O4TF 1_555 1_555
C2NC C1NC 1_555 1_555
C2KB C1KB 1_555 1_555
C2VD C1VD 1_555 1_555
C2PA C1PA 1_555 1_555
C2DD C1DD 1_555 1_555
C2LE C1LE 1_555 1_555
C2WC C1WC 1_555 1_555
C2HA C1HA 1_555 1_555
C2Q C1Q 1_555 1_555
C2QE C1QE 1_555 1_555
C2TF C1TF 1_555 1_555
C3NC C2NC 1_555 1_555
C3KB C2KB 1_555 1_555
C3VD C2VD 1_555 1_555
C3PA C2PA 1_555 1_555
C3DD C2DD 1_555 1_555
C3LE C2LE 1_555 1_555
C3WC C2WC 1_555 1_555
C3HA C2HA 1_555 1_555
C3Q C2Q 1_555 1_555
C3QE C2QE 1_555 1_555
C3TF C2TF 1_555 1_555
H1NC C3NC 1_555 1_555
H1KB C3KB 1_555 1_555
H1VD C3VD 1_555 1_555
H1PA C3PA 1_555 1_555
H1DD C3DD 1_555 1_555
H1LE C3LE 1_555 1_555
H1WC C3WC 1_555 1_555
H1HA C3HA 1_555 1_555
H1Q C3Q 1_555 1_555
H1QE C3QE 1_555 1_555
H1TF C3TF 1_555 1_555
C4NC C3NC 1_555 1_555
C4KB C3KB 1_555 1_555
C4VD C3VD 1_555 1_555
C4PA C3PA 1_555 1_555
C4DD C3DD 1_555 1_555
C4LE C3LE 1_555 1_555
C4WC C3WC 1_555 1_555
C4HA C3HA 1_555 1_555
C4Q C3Q 1_555 1_555
C4QE C3QE 1_555 1_555
C4TF C3TF 1_555 1_555
C5NC C4NC 1_555 1_555
C5KB C4KB 1_555 1_555
C5VD C4VD 1_555 1_555
C5PA C4PA 1_555 1_555
C5DD C4DD 1_555 1_555
C5WC C4WC 1_555 1_555
C5Q C4Q 1_555 1_555
C5TF C4TF 1_555 1_555
C5LE C4LE 1_555 1_555
C5HA C4HA 1_555 1_555
C5QE C4QE 1_555 1_555
C6NC C5NC 1_555 1_555
C6KB C5KB 1_555 1_555
C6VD C5VD 1_555 1_555
C6PA C5PA 1_555 1_555
C6DD C5DD 1_555 1_555
C6WC C5WC 1_555 1_555
C6Q C5Q 1_555 1_555
C6TF C5TF 1_555 1_555
C6LE C5LE 1_555 1_555
C6HA C5HA 1_555 1_555
C6QE C5QE 1_555 1_555
H2NC C6NC 1_555 1_555
H2KB C6KB 1_555 1_555
H2VD C6VD 1_555 1_555
H2PA C6PA 1_555 1_555
H2DD C6DD 1_555 1_555
H2WC C6WC 1_555 1_555
H2Q C6Q 1_555 1_555
H2TF C6TF 1_555 1_555
H2LE C6LE 1_555 1_555
H2HA C6HA 1_555 1_555
H2QE C6QE 1_555 1_555
C7NC C2NC 1_555 1_555
C7KB C2KB 1_555 1_555
C7VD C2VD 1_555 1_555
C7PA C2PA 1_555 1_555
C7DD C2DD 1_555 1_555
C7WC C2WC 1_555 1_555
C7Q C2Q 1_555 1_555
C7TF C2TF 1_555 1_555
C7LE C2LE 1_555 1_555
C7HA C2HA 1_555 1_555
C7QE C2QE 1_555 1_555
H3NC C7NC 1_555 1_555
H3KB C7KB 1_555 1_555
H3VD C7VD 1_555 1_555
H3PA C7PA 1_555 1_555
H3DD C7DD 1_555 1_555
H3WC C7WC 1_555 1_555
H3Q C7Q 1_555 1_555
H3TF C7TF 1_555 1_555
H3LE C7LE 1_555 1_555
H3HA C7HA 1_555 1_555
H3QE C7QE 1_555 1_555
C8KB C4KB 1_555 1_555
C8NC C4NC 1_555 1_555
C8VD C4VD 1_555 1_555
C8PA C4PA 1_555 1_555
C8DD C4DD 1_555 1_555
C8LE C4LE 1_555 1_555
C8HA C4HA 1_555 1_555
C8QE C4QE 1_555 1_555
C8WC C4WC 1_555 1_555
C8Q C4Q 1_555 1_555
C8TF C4TF 1_555 1_555
C9KB C10 1_555 1_555
C9NC C8NC 1_555 1_555
C9VD C8VD 1_555 1_555
C9PA C8PA 1_555 1_555
C9DD C8DD 1_555 1_555
C9LE C8LE 1_555 1_555
C9HA C8HA 1_555 1_555
C9QE C8QE 1_555 1_555
C9WC C8WC 1_555 1_555
C9Q C8Q 1_555 1_555
C9TF C8TF 1_555 1_555
C10NC C9 1_555 1_555
C10KB C5KB 1_555 1_555
C10VD C5VD 1_555 1_555
C10PA C5PA 1_555 1_555
C10DD C5DD 1_555 1_555
C10WC C5WC 1_555 1_555
C10Q C5Q 1_555 1_555
C10TF C5TF 1_555 1_555
C10LE C5LE 1_555 1_555
C10HA C5HA 1_555 1_555
C10QE C5QE 1_555 1_555
C11KB C8KB 1_555 1_555
C11NC C8NC 1_555 1_555
C11VD C8VD 1_555 1_555
C11PA C8PA 1_555 1_555
C11DD C8DD 1_555 1_555
C11LE C8LE 1_555 1_555
C11HA C8HA 1_555 1_555
C11QE C8QE 1_555 1_555
C11WC C8WC 1_555 1_555
C11Q C8Q 1_555 1_555
C11TF C8TF 1_555 1_555
H4KB C11KB 1_555 1_555
H4NC C11NC 1_555 1_555
H4VD C11VD 1_555 1_555
H4PA C11PA 1_555 1_555
H4DD C11DD 1_555 1_555
H4LE C11LE 1_555 1_555
H4HA C11HA 1_555 1_555
H4QE C11QE 1_555 1_555
H4WC C11WC 1_555 1_555
H4Q C11Q 1_555 1_555
H4TF C11TF 1_555 1_555
H5KB C11KB 1_555 1_555
H5NC C11NC 1_555 1_555
H5VD C11VD 1_555 1_555
H5PA C11PA 1_555 1_555
H5DD C11DD 1_555 1_555
H5LE C11LE 1_555 1_555
H5HA C11HA 1_555 1_555
H5QE C11QE 1_555 1_555
H5WC C11WC 1_555 1_555
H5Q C11Q 1_555 1_555
H5TF C11TF 1_555 1_555
C12KB C11KB 1_555 1_555
C12NC C11NC 1_555 1_555
C12VD C11VD 1_555 1_555
C12PA C11PA 1_555 1_555
C12DD C11DD 1_555 1_555
C12LE C11LE 1_555 1_555
C12HA C11HA 1_555 1_555
C12QE C11QE 1_555 1_555
C12WC C11WC 1_555 1_555
C12Q C11Q 1_555 1_555
C12TF C11TF 1_555 1_555
H6KB C12KB 1_555 1_555
H6NC C12NC 1_555 1_555
H6VD C12VD 1_555 1_555
H6PA C12PA 1_555 1_555
H6DD C12DD 1_555 1_555
H6LE C12LE 1_555 1_555
H6HA C12HA 1_555 1_555
H6QE C12QE 1_555 1_555
H6WC C12WC 1_555 1_555
H6Q C12Q 1_555 1_555
H6TF C12TF 1_555 1_555
H7KB C12KB 1_555 1_555
H7NC C12NC 1_555 1_555
H7VD C12VD 1_555 1_555
H7PA C12PA 1_555 1_555
H7DD C12DD 1_555 1_555
H7LE C12LE 1_555 1_555
H7HA C12HA 1_555 1_555
H7QE C12QE 1_555 1_555
H7WC C12WC 1_555 1_555
H7Q C12Q 1_555 1_555
H7TF C12TF 1_555 1_555
H8KB C12KB 1_555 1_555
H8NC C12NC 1_555 1_555
H8VD C12VD 1_555 1_555
H8PA C12PA 1_555 1_555
H8DD C12DD 1_555 1_555
H8LE C12LE 1_555 1_555
H8HA C12HA 1_555 1_555
H8QE C12QE 1_555 1_555
H8WC C12WC 1_555 1_555
H8Q C12Q 1_555 1_555
H8TF C12TF 1_555 1_555
C13KB C8KB 1_555 1_555
C13NC C8NC 1_555 1_555
C13VD C8VD 1_555 1_555
C13PA C8PA 1_555 1_555
C13DD C8DD 1_555 1_555
C13LE C8LE 1_555 1_555
C13HA C8HA 1_555 1_555
C13QE C8QE 1_555 1_555
C13WC C8WC 1_555 1_555
C13Q C8Q 1_555 1_555
C13TF C8TF 1_555 1_555
H9KB C13KB 1_555 1_555
H9NC C13NC 1_555 1_555
H9VD C13VD 1_555 1_555
H9PA C13PA 1_555 1_555
H9DD C13DD 1_555 1_555
H9LE C13LE 1_555 1_555
H9HA C13HA 1_555 1_555
H9QE C13QE 1_555 1_555
H9WC C13WC 1_555 1_555
H9Q C13Q 1_555 1_555
H9TF C13TF 1_555 1_555
H10KB C13KB 1_555 1_555
H10NC C13NC 1_555 1_555
H10VD C13VD 1_555 1_555
H10PA C13PA 1_555 1_555
H10DD C13DD 1_555 1_555
H10LE C13LE 1_555 1_555
H10HA C13HA 1_555 1_555
H10QE C13QE 1_555 1_555
H10WC C13WC 1_555 1_555
H10Q C13Q 1_555 1_555
H10TF C13TF 1_555 1_555
C14KB C13KB 1_555 1_555
C14NC C13NC 1_555 1_555
C14VD C13VD 1_555 1_555
C14PA C13PA 1_555 1_555
C14DD C13DD 1_555 1_555
C14LE C13LE 1_555 1_555
C14HA C13HA 1_555 1_555
C14QE C13QE 1_555 1_555
C14WC C13WC 1_555 1_555
C14Q C13Q 1_555 1_555
C14TF C13TF 1_555 1_555
H11KB C14KB 1_555 1_555
H11NC C14NC 1_555 1_555
H11VD C14VD 1_555 1_555
H11PA C14PA 1_555 1_555
H11DD C14DD 1_555 1_555
H11LE C14LE 1_555 1_555
H11HA C14HA 1_555 1_555
H11QE C14QE 1_555 1_555
H11WC C14WC 1_555 1_555
H11Q C14Q 1_555 1_555
H11TF C14TF 1_555 1_555
H12KB C14KB 1_555 1_555
H12NC C14NC 1_555 1_555
H12VD C14VD 1_555 1_555
H12PA C14PA 1_555 1_555
H12DD C14DD 1_555 1_555
H12LE C14LE 1_555 1_555
H12HA C14HA 1_555 1_555
H12QE C14QE 1_555 1_555
H12WC C14WC 1_555 1_555
H12Q C14Q 1_555 1_555
H12TF C14TF 1_555 1_555
H13KB C14KB 1_555 1_555
H13NC C14NC 1_555 1_555
H13VD C14VD 1_555 1_555
H13PA C14PA 1_555 1_555
H13DD C14DD 1_555 1_555
H13LE C14LE 1_555 1_555
H13HA C14HA 1_555 1_555
H13QE C14QE 1_555 1_555
H13WC C14WC 1_555 1_555
H13Q C14Q 1_555 1_555
H13TF C14TF 1_555 1_555
O6 Cd1PA 1_555 1_555
C6 C7 1_555 1_555
C9 C10 1_555 1_555
Cd1PA O4PE 1_555 1_555
Cd1FA O4FA 1_555 1_555
Cd1FA O4VD 1_555 1_555
Cd1DD O4PA 1_555 1_555
Cd1DD O4DD 1_555 1_555
Cd1DD O4JE 1_555 1_555
Cd1DD O4JB 1_555 1_555
O5DD C1DD 1_555 1_555
O5PA C1PA 1_555 1_555
O5VD C1VD 1_555 1_555
O5HA C1HA 1_555 1_555
O5TF C1TF 1_555 1_555
C5NC C10NC 1_555 1_555
C6NC C7NC 1_555 1_555
C6KB C7KB 1_555 1_555
C6VD C7VD 1_555 1_555
C6PA C7PA 1_555 1_555
C6DD C7DD 1_555 1_555
C6WC C7WC 1_555 1_555
C6Q C7Q 1_555 1_555
C6TF C7TF 1_555 1_555
C6LE C7LE 1_555 1_555
C6HA C7HA 1_555 1_555
C6QE C7QE 1_555 1_555
C8KB C9KB 1_555 1_555
C9KB C10KB 1_555 1_555
C9NC C10NC 1_555 1_555
C9NC C10KB 1_555 1_555
C9VD C10VD 1_555 1_555
C9VD C10WC 1_555 1_555
C9PA C10PA 1_555 1_555
C9PA C10Q 1_555 1_555
C9DD C10DD 1_555 1_555
C9DD C10TF 1_555 1_555
C9LE C10VD 1_555 1_555
C9LE C10LE 1_555 1_555
C9HA C10PA 1_555 1_555
C9HA C10HA 1_555 1_555
C9QE C10DD 1_555 1_555
C9QE C10QE 1_555 1_555
C9WC C10WC 1_555 1_555
C9WC C10LE 1_555 1_555
C9Q C10Q 1_555 1_555
C9Q C10HA 1_555 1_555
C9TF C10TF 1_555 1_555
C9TF C10QE 1_555 1_555

#END
