
#######################################################################
#
#                 Cambridge Crystallographic Data Centre
#                                CCDC 
#
#######################################################################
#
# If this CIF has been generated from an entry in the Cambridge 
# Structural Database, then it will include bibliographic, chemical, 
# crystal, experimental, refinement or atomic coordinate data resulting 
# from the CCDC's data processing and validation procedures.
#
#######################################################################

data_BUFNEW
_chemical_name_common            
'catena-(Di-cadmium(ii) bis(oxonium) octakis(mu!6$-5,5,10,10,15,15-hexaethyltruxene-2,7,12-tricarboxylato)-tris(mu!4$-oxo)-dodecakis(methanol)-dodeca-cadmium(ii) tetrahydrate)'
_chemical_formula_moiety         
'(Cd1 2+)2n,2n(H3 O1 1+),n(C348 H360 Cd12 O63 6-),4n(H2 O1)'
_chemical_name_systematic        
"catena-(Di-cadmium(ii) bis(oxonium) octakis(\m~6~-5,5,10,10,15,15-hexaethyl-10,15-dihydro-5H-diindeno[1,2-a:1',2'-c]fluorene-2,7,12-tricarboxylato)-tris(\m~4~-oxo)-dodecakis(methanol)-dodeca-cadmium(ii) tetrahydrate)"
_symmetry_cell_setting           cubic
_symmetry_space_group_name_H-M   'F m -3 c'
_symmetry_Int_Tables_number      226
_space_group_name_Hall           '-F 4a 2 3'
loop_
_symmetry_equiv_pos_site_id
_symmetry_equiv_pos_as_xyz
1 x,y,z
2 z,x,y
3 y,z,x
4 1/2+y,1/2+x,1/2-z
5 1/2+y,1/2-x,1/2+z
6 1/2-y,1/2+x,1/2+z
7 1/2+x,1/2+z,1/2-y
8 1/2-x,1/2+z,1/2+y
9 1/2+x,1/2-z,1/2+y
10 1/2+z,1/2+y,1/2-x
11 1/2+z,1/2-y,1/2+x
12 1/2-z,1/2+y,1/2+x
13 x,1/2+y,1/2+z
14 z,1/2+x,1/2+y
15 y,1/2+z,1/2+x
16 1/2+y,x,-z
17 1/2+y,-x,z
18 1/2-y,x,z
19 1/2+x,z,-y
20 1/2-x,z,y
21 1/2+x,-z,y
22 1/2+z,y,-x
23 1/2+z,-y,x
24 1/2-z,y,x
25 1/2+x,y,1/2+z
26 1/2+z,x,1/2+y
27 1/2+y,z,1/2+x
28 y,1/2+x,-z
29 y,1/2-x,z
30 -y,1/2+x,z
31 x,1/2+z,-y
32 -x,1/2+z,y
33 x,1/2-z,y
34 z,1/2+y,-x
35 z,1/2-y,x
36 -z,1/2+y,x
37 1/2+x,1/2+y,z
38 1/2+z,1/2+x,y
39 1/2+y,1/2+z,x
40 y,x,1/2-z
41 y,-x,1/2+z
42 -y,x,1/2+z
43 x,z,1/2-y
44 -x,z,1/2+y
45 x,-z,1/2+y
46 z,y,1/2-x
47 z,-y,1/2+x
48 -z,y,1/2+x
49 -x,-y,z
50 -x,y,-z
51 x,-y,-z
52 z,-x,-y
53 -z,-x,y
54 -z,x,-y
55 -y,z,-x
56 y,-z,-x
57 -y,-z,x
58 1/2-y,1/2-x,1/2-z
59 1/2-x,1/2-z,1/2-y
60 1/2-z,1/2-y,1/2-x
61 -x,1/2-y,1/2+z
62 -x,1/2+y,1/2-z
63 x,1/2-y,1/2-z
64 z,1/2-x,1/2-y
65 -z,1/2-x,1/2+y
66 -z,1/2+x,1/2-y
67 -y,1/2+z,1/2-x
68 y,1/2-z,1/2-x
69 -y,1/2-z,1/2+x
70 1/2-y,-x,-z
71 1/2-x,-z,-y
72 1/2-z,-y,-x
73 1/2-x,-y,1/2+z
74 1/2-x,y,1/2-z
75 1/2+x,-y,1/2-z
76 1/2+z,-x,1/2-y
77 1/2-z,-x,1/2+y
78 1/2-z,x,1/2-y
79 1/2-y,z,1/2-x
80 1/2+y,-z,1/2-x
81 1/2-y,-z,1/2+x
82 -y,1/2-x,-z
83 -x,1/2-z,-y
84 -z,1/2-y,-x
85 1/2-x,1/2-y,z
86 1/2-x,1/2+y,-z
87 1/2+x,1/2-y,-z
88 1/2+z,1/2-x,-y
89 1/2-z,1/2-x,y
90 1/2-z,1/2+x,-y
91 1/2-y,1/2+z,-x
92 1/2+y,1/2-z,-x
93 1/2-y,1/2-z,x
94 -y,-x,1/2-z
95 -x,-z,1/2-y
96 -z,-y,1/2-x
97 -x,-y,-z
98 -z,-x,-y
99 -y,-z,-x
100 1/2-y,1/2-x,1/2+z
101 1/2-y,1/2+x,1/2-z
102 1/2+y,1/2-x,1/2-z
103 1/2-x,1/2-z,1/2+y
104 1/2+x,1/2-z,1/2-y
105 1/2-x,1/2+z,1/2-y
106 1/2-z,1/2-y,1/2+x
107 1/2-z,1/2+y,1/2-x
108 1/2+z,1/2-y,1/2-x
109 -x,1/2-y,1/2-z
110 -z,1/2-x,1/2-y
111 -y,1/2-z,1/2-x
112 1/2-y,-x,z
113 1/2-y,x,-z
114 1/2+y,-x,-z
115 1/2-x,-z,y
116 1/2+x,-z,-y
117 1/2-x,z,-y
118 1/2-z,-y,x
119 1/2-z,y,-x
120 1/2+z,-y,-x
121 1/2-x,-y,1/2-z
122 1/2-z,-x,1/2-y
123 1/2-y,-z,1/2-x
124 -y,1/2-x,z
125 -y,1/2+x,-z
126 y,1/2-x,-z
127 -x,1/2-z,y
128 x,1/2-z,-y
129 -x,1/2+z,-y
130 -z,1/2-y,x
131 -z,1/2+y,-x
132 z,1/2-y,-x
133 1/2-x,1/2-y,-z
134 1/2-z,1/2-x,-y
135 1/2-y,1/2-z,-x
136 -y,-x,1/2+z
137 -y,x,1/2-z
138 y,-x,1/2-z
139 -x,-z,1/2+y
140 x,-z,1/2-y
141 -x,z,1/2-y
142 -z,-y,1/2+x
143 -z,y,1/2-x
144 z,-y,1/2-x
145 x,y,-z
146 x,-y,z
147 -x,y,z
148 -z,x,y
149 z,x,-y
150 z,-x,y
151 y,-z,x
152 -y,z,x
153 y,z,-x
154 1/2+y,1/2+x,1/2+z
155 1/2+x,1/2+z,1/2+y
156 1/2+z,1/2+y,1/2+x
157 x,1/2+y,1/2-z
158 x,1/2-y,1/2+z
159 -x,1/2+y,1/2+z
160 -z,1/2+x,1/2+y
161 z,1/2+x,1/2-y
162 z,1/2-x,1/2+y
163 y,1/2-z,1/2+x
164 -y,1/2+z,1/2+x
165 y,1/2+z,1/2-x
166 1/2+y,x,z
167 1/2+x,z,y
168 1/2+z,y,x
169 1/2+x,y,1/2-z
170 1/2+x,-y,1/2+z
171 1/2-x,y,1/2+z
172 1/2-z,x,1/2+y
173 1/2+z,x,1/2-y
174 1/2+z,-x,1/2+y
175 1/2+y,-z,1/2+x
176 1/2-y,z,1/2+x
177 1/2+y,z,1/2-x
178 y,1/2+x,z
179 x,1/2+z,y
180 z,1/2+y,x
181 1/2+x,1/2+y,-z
182 1/2+x,1/2-y,z
183 1/2-x,1/2+y,z
184 1/2-z,1/2+x,y
185 1/2+z,1/2+x,-y
186 1/2+z,1/2-x,y
187 1/2+y,1/2-z,x
188 1/2-y,1/2+z,x
189 1/2+y,1/2+z,-x
190 y,x,1/2+z
191 x,z,1/2+y
192 z,y,1/2+x
_cell_length_a                   48.325(6)
_cell_length_b                   48.325(6)
_cell_length_c                   48.325(6)
_cell_angle_alpha                90
_cell_angle_beta                 90
_cell_angle_gamma                90
_cell_volume                     112854
_exptl_crystal_colour            colorless
_exptl_crystal_description       block
_cell_formula_units_Z            8
loop_
_atom_site_label
_atom_site_type_symbol
_atom_site_fract_x
_atom_site_fract_y
_atom_site_fract_z
_atom_site_U_iso_or_equiv
_atom_site_thermal_displace_type
O2 O 0.0411(4) 0.2500 0.2500 0.2363 Uani
O3 O 0.0000 0.2007(6) 0.1291(5) 0.3700 Uani
Cd1 Cd 0.0000 0.201490(12) 0.223449(12) 0.0516 Uani
O4 O 0.02968(8) 0.23486(8) 0.20635(9) 0.0670 Uani
O5 O -0.03308(8) 0.16972(8) 0.23855(8) 0.0607 Uani
O6 O 0.0000 0.2500 0.2500 0.8200 Uiso
O7 O 0.0000 0.18103(19) 0.18148(17) 0.1007 Uani
C1 C 0.04010(11) 0.24054(13) 0.18248(13) 0.0573 Uani
C2 C 0.06201(12) 0.22167(12) 0.17121(13) 0.0617 Uani
C3 C 0.07090(12) 0.19871(12) 0.18598(14) 0.0673 Uani
H1 H 0.0623 0.1938 0.2029 0.0810 Uiso
C4 C 0.09245(12) 0.18315(13) 0.17562(13) 0.0663 Uani
C5 C 0.10580(12) 0.18974(13) 0.15103(13) 0.0637 Uani
C6 C 0.09622(13) 0.21265(13) 0.13590(14) 0.0707 Uani
H2 H 0.1046 0.2174 0.1188 0.0850 Uiso
C7 C 0.07462(12) 0.22808(12) 0.14611(13) 0.0647 Uani
H3 H 0.0681 0.2435 0.1358 0.0780 Uiso
C8 C 0.10417(13) 0.15723(14) 0.18853(14) 0.0727 Uani
C9 C 0.12846(13) 0.16942(13) 0.14639(13) 0.0660 Uani
C10 C 0.12719(13) 0.14966(13) 0.16822(13) 0.0650 Uani
C11 C 0.08039(17) 0.13512(17) 0.1891(2) 0.1013 Uani
H4 H 0.0872 0.1186 0.1990 0.1220 Uiso
H5 H 0.0647 0.1427 0.1999 0.1220 Uiso
C12 C 0.0693(2) 0.1258(2) 0.1604(2) 0.1403 Uani
H6 H 0.0597 0.1413 0.1516 0.2110 Uiso
H7 H 0.0564 0.1104 0.1629 0.2110 Uiso
H8 H 0.0848 0.1199 0.1488 0.2110 Uiso
C13 C 0.11587(18) 0.16486(16) 0.21744(15) 0.0943 Uani
H9 H 0.1005 0.1720 0.2290 0.1130 Uiso
H10 H 0.1229 0.1478 0.2263 0.1130 Uiso
C14 C 0.13907(18) 0.1864(2) 0.21710(18) 0.1113 Uani
H11 H 0.1551 0.1788 0.2073 0.1670 Uiso
H12 H 0.1443 0.1910 0.2361 0.1670 Uiso
H13 H 0.1326 0.2031 0.2076 0.1670 Uiso
C15 C 0.0000 0.1582(7) 0.1759(7) 0.3080 Uani
Cd1FA Cd 0.0000 0.276551(12) 0.201490(12) 0.0516 Uani
Cd1PA Cd 0.0000 0.223449(12) 0.298510(12) 0.0516 Uani
Cd1DD Cd 0.0000 0.298510(12) 0.276551(12) 0.0516 Uani
Cd1B Cd 0.201490(12) 0.223449(12) 0.0000 0.0516 Uani
Cd1W Cd 0.276551(12) 0.201490(12) 0.0000 0.0516 Uani
Cd1A Cd 0.223449(12) 0.0000 0.201490(12) 0.0516 Uani
Cd1MA Cd 0.201490(12) 0.0000 0.276551(12) 0.0516 Uani
Cd1CA Cd -0.201490(12) 0.5000 0.223449(12) 0.0516 Uani
Cd1KA Cd -0.276551(12) 0.5000 0.201490(12) 0.0516 Uani
Cd1YD Cd -0.223449(12) 0.298510(12) 0.0000 0.0516 Uani
Cd1UE Cd -0.201490(12) 0.223449(12) 0.0000 0.0516 Uani
Cd1FE Cd -0.201490(12) 0.0000 0.276551(12) 0.0516 Uani
Cd1PF Cd -0.276551(12) 0.0000 0.298510(12) 0.0516 Uani
Cd1UA Cd -0.223449(12) 0.201490(12) 0.5000 0.0516 Uani
Cd1FD Cd -0.201490(12) 0.276551(12) 0.5000 0.0516 Uani
Cd1J Cd -0.276551(12) 0.298510(12) 0.5000 0.0516 Uani
Cd1ED Cd -0.223449(12) 0.5000 0.298510(12) 0.0516 Uani
O4PA O 0.02968(8) 0.20635(9) 0.26514(8) 0.0670 Uani
O4PE O -0.02968(8) 0.23486(8) 0.20635(9) 0.0670 Uani
O4JE O -0.02968(8) 0.20635(9) 0.26514(8) 0.0670 Uani
O4B O 0.23486(8) 0.20635(9) 0.02968(8) 0.0670 Uani
O4A O 0.20635(9) 0.02968(8) 0.23486(8) 0.0670 Uani
O4FA O 0.02968(8) 0.29365(9) 0.23486(8) 0.0670 Uani
O4VD O -0.02968(8) 0.29365(9) 0.23486(8) 0.0670 Uani
O4DD O -0.02968(8) 0.26514(8) 0.29365(9) 0.0670 Uani
O4JB O 0.02968(8) 0.26514(8) 0.29365(9) 0.0670 Uani
O4SD O -0.23486(8) 0.47032(8) 0.20635(9) 0.0670 Uani
O4YD O -0.20635(9) 0.26514(8) 0.02968(8) 0.0670 Uani
O4FE O -0.23486(8) 0.02968(8) 0.29365(9) 0.0670 Uani
O4LE O -0.20635(9) 0.23486(8) 0.47032(8) 0.0670 Uani
O4FD O -0.23486(8) 0.29365(9) 0.47032(8) 0.0670 Uani
O4ED O -0.20635(9) 0.47032(8) 0.26514(8) 0.0670 Uani
O5PE O 0.03308(8) 0.16972(8) 0.23855(8) 0.0607 Uani
O5VD O 0.03308(8) 0.26145(8) 0.16972(8) 0.0607 Uani
O5ND O 0.26145(8) 0.16972(8) 0.03308(8) 0.0607 Uani
O5GE O 0.16972(8) 0.03308(8) 0.26145(8) 0.0607 Uani
O5FA O -0.03308(8) 0.26145(8) 0.16972(8) 0.0607 Uani
O5PA O -0.03308(8) 0.23855(8) 0.33028(8) 0.0607 Uani
O5JE O 0.03308(8) 0.23855(8) 0.33028(8) 0.0607 Uani
O5DD O 0.03308(8) 0.33028(8) 0.26145(8) 0.0607 Uani
O5JB O -0.03308(8) 0.33028(8) 0.26145(8) 0.0607 Uani
O5KA O -0.26145(8) 0.46692(8) 0.16972(8) 0.0607 Uani
O5BB O -0.16972(8) 0.23855(8) 0.03308(8) 0.0607 Uani
O5WB O -0.26145(8) 0.03308(8) 0.33028(8) 0.0607 Uani
O5PB O -0.16972(8) 0.26145(8) 0.46692(8) 0.0607 Uani
O5J O -0.26145(8) 0.33028(8) 0.46692(8) 0.0607 Uani
O5CA O -0.16972(8) 0.46692(8) 0.23855(8) 0.0607 Uani
O7FA O 0.0000 0.31852(17) 0.18103(19) 0.1007 Uani
O7PA O 0.0000 0.18148(17) 0.31897(19) 0.1007 Uani
O7DD O 0.0000 0.31897(19) 0.31852(17) 0.1007 Uani
C1JE C -0.04010(11) 0.18248(13) 0.25946(13) 0.0573 Uani
C1B C 0.24054(13) 0.18248(13) 0.04010(11) 0.0573 Uani
C1A C 0.18248(13) 0.04010(11) 0.24054(13) 0.0573 Uani
C1VD C -0.04010(11) 0.31752(13) 0.24054(13) 0.0573 Uani
C1SD C -0.24054(13) 0.45990(11) 0.18248(13) 0.0573 Uani
C1YD C -0.18248(13) 0.25946(13) 0.04010(11) 0.0573 Uani
C1FE C -0.24054(13) 0.04010(11) 0.31752(13) 0.0573 Uani
C1LE C -0.18248(13) 0.24054(13) 0.45990(11) 0.0573 Uani
C1DD C -0.04010(11) 0.25946(13) 0.31752(13) 0.0573 Uani
C1FD C -0.24054(13) 0.31752(13) 0.45990(11) 0.0573 Uani
C1ED C -0.18248(13) 0.45990(11) 0.25946(13) 0.0573 Uani
C2B C 0.22167(12) 0.17121(13) 0.06201(12) 0.0617 Uani
C2A C 0.17121(13) 0.06201(12) 0.22167(12) 0.0617 Uani
C2VD C -0.06201(12) 0.32879(13) 0.22167(12) 0.0617 Uani
C2SD C -0.22167(12) 0.43799(12) 0.17121(13) 0.0617 Uani
C2YD C -0.17121(13) 0.27833(12) 0.06201(12) 0.0617 Uani
C2JE C -0.06201(12) 0.17121(13) 0.27833(12) 0.0617 Uani
C2FE C -0.22167(12) 0.06201(12) 0.32879(13) 0.0617 Uani
C2LE C -0.17121(13) 0.22167(12) 0.43799(12) 0.0617 Uani
C2DD C -0.06201(12) 0.27833(12) 0.32879(13) 0.0617 Uani
C2FD C -0.22167(12) 0.32879(13) 0.43799(12) 0.0617 Uani
C2ED C -0.17121(13) 0.43799(12) 0.27833(12) 0.0617 Uani
C3B C 0.19871(12) 0.18598(14) 0.07090(12) 0.0673 Uani
C3A C 0.18598(14) 0.07090(12) 0.19871(12) 0.0673 Uani
C3VD C -0.07090(12) 0.31402(14) 0.19871(12) 0.0673 Uani
C3SD C -0.19871(12) 0.42910(12) 0.18598(14) 0.0673 Uani
C3YD C -0.18598(14) 0.30129(12) 0.07090(12) 0.0673 Uani
C3JE C -0.07090(12) 0.18598(14) 0.30129(12) 0.0673 Uani
C3FE C -0.19871(12) 0.07090(12) 0.31402(14) 0.0673 Uani
C3LE C -0.18598(14) 0.19871(12) 0.42910(12) 0.0673 Uani
C3DD C -0.07090(12) 0.30129(12) 0.31402(14) 0.0673 Uani
C3FD C -0.19871(12) 0.31402(14) 0.42910(12) 0.0673 Uani
C3ED C -0.18598(14) 0.42910(12) 0.30129(12) 0.0673 Uani
H1B H 0.1938 0.2029 0.0623 0.0810 Uiso
H1A H 0.2029 0.0623 0.1938 0.0810 Uiso
H1VD H -0.0623 0.2971 0.1938 0.0810 Uiso
H1SD H -0.1938 0.4377 0.2029 0.0810 Uiso
H1YD H -0.2029 0.3062 0.0623 0.0810 Uiso
H1JE H -0.0623 0.2029 0.3062 0.0810 Uiso
H1FE H -0.1938 0.0623 0.2971 0.0810 Uiso
H1LE H -0.2029 0.1938 0.4377 0.0810 Uiso
H1DD H -0.0623 0.3062 0.2971 0.0810 Uiso
H1FD H -0.1938 0.2971 0.4377 0.0810 Uiso
H1ED H -0.2029 0.4377 0.3062 0.0810 Uiso
C4B C 0.18315(13) 0.17562(13) 0.09245(12) 0.0663 Uani
C4A C 0.17562(13) 0.09245(12) 0.18315(13) 0.0663 Uani
C4VD C -0.09245(12) 0.32438(13) 0.18315(13) 0.0663 Uani
C4SD C -0.18315(13) 0.40755(12) 0.17562(13) 0.0663 Uani
C4YD C -0.17562(13) 0.31685(13) 0.09245(12) 0.0663 Uani
C4JE C -0.09245(12) 0.17562(13) 0.31685(13) 0.0663 Uani
C4FE C -0.18315(13) 0.09245(12) 0.32438(13) 0.0663 Uani
C4LE C -0.17562(13) 0.18315(13) 0.40755(12) 0.0663 Uani
C4DD C -0.09245(12) 0.31685(13) 0.32438(13) 0.0663 Uani
C4FD C -0.18315(13) 0.32438(13) 0.40755(12) 0.0663 Uani
C4ED C -0.17562(13) 0.40755(12) 0.31685(13) 0.0663 Uani
C5A C 0.15103(13) 0.10580(12) 0.18974(13) 0.0637 Uani
C5B C 0.18974(13) 0.15103(13) 0.10580(12) 0.0637 Uani
C5VD C -0.10580(12) 0.34897(13) 0.18974(13) 0.0637 Uani
C5YD C -0.15103(13) 0.31026(13) 0.10580(12) 0.0637 Uani
C5SD C -0.18974(13) 0.39420(12) 0.15103(13) 0.0637 Uani
C5JE C -0.10580(12) 0.15103(13) 0.31026(13) 0.0637 Uani
C5LE C -0.15103(13) 0.18974(13) 0.39420(12) 0.0637 Uani
C5FE C -0.18974(13) 0.10580(12) 0.34897(13) 0.0637 Uani
C5DD C -0.10580(12) 0.31026(13) 0.34897(13) 0.0637 Uani
C5ED C -0.15103(13) 0.39420(12) 0.31026(13) 0.0637 Uani
C5FD C -0.18974(13) 0.34897(13) 0.39420(12) 0.0637 Uani
C6A C 0.13590(14) 0.09622(13) 0.21265(13) 0.0707 Uani
C6B C 0.21265(13) 0.13590(14) 0.09622(13) 0.0707 Uani
C6VD C -0.09622(13) 0.36410(14) 0.21265(13) 0.0707 Uani
C6YD C -0.13590(14) 0.28735(13) 0.09622(13) 0.0707 Uani
C6SD C -0.21265(13) 0.40378(13) 0.13590(14) 0.0707 Uani
C6JE C -0.09622(13) 0.13590(14) 0.28735(13) 0.0707 Uani
C6LE C -0.13590(14) 0.21265(13) 0.40378(13) 0.0707 Uani
C6FE C -0.21265(13) 0.09622(13) 0.36410(14) 0.0707 Uani
C6DD C -0.09622(13) 0.28735(13) 0.36410(14) 0.0707 Uani
C6ED C -0.13590(14) 0.40378(13) 0.28735(13) 0.0707 Uani
C6FD C -0.21265(13) 0.36410(14) 0.40378(13) 0.0707 Uani
H2A H 0.1188 0.1046 0.2174 0.0850 Uiso
H2B H 0.2174 0.1188 0.1046 0.0850 Uiso
H2VD H -0.1046 0.3812 0.2174 0.0850 Uiso
H2YD H -0.1188 0.2826 0.1046 0.0850 Uiso
H2SD H -0.2174 0.3954 0.1188 0.0850 Uiso
H2JE H -0.1046 0.1188 0.2826 0.0850 Uiso
H2LE H -0.1188 0.2174 0.3954 0.0850 Uiso
H2FE H -0.2174 0.1046 0.3812 0.0850 Uiso
H2DD H -0.1046 0.2826 0.3812 0.0850 Uiso
H2ED H -0.1188 0.3954 0.2826 0.0850 Uiso
H2FD H -0.2174 0.3812 0.3954 0.0850 Uiso
C7A C 0.14611(13) 0.07462(12) 0.22808(12) 0.0647 Uani
C7B C 0.22808(12) 0.14611(13) 0.07462(12) 0.0647 Uani
C7VD C -0.07462(12) 0.35389(13) 0.22808(12) 0.0647 Uani
C7YD C -0.14611(13) 0.27192(12) 0.07462(12) 0.0647 Uani
C7SD C -0.22808(12) 0.42538(12) 0.14611(13) 0.0647 Uani
C7JE C -0.07462(12) 0.14611(13) 0.27192(12) 0.0647 Uani
C7LE C -0.14611(13) 0.22808(12) 0.42538(12) 0.0647 Uani
C7FE C -0.22808(12) 0.07462(12) 0.35389(13) 0.0647 Uani
C7DD C -0.07462(12) 0.27192(12) 0.35389(13) 0.0647 Uani
C7ED C -0.14611(13) 0.42538(12) 0.27192(12) 0.0647 Uani
C7FD C -0.22808(12) 0.35389(13) 0.42538(12) 0.0647 Uani
H3A H 0.1358 0.0681 0.2435 0.0780 Uiso
H3B H 0.2435 0.1358 0.0681 0.0780 Uiso
H3VD H -0.0681 0.3642 0.2435 0.0780 Uiso
H3YD H -0.1358 0.2565 0.0681 0.0780 Uiso
H3SD H -0.2435 0.4319 0.1358 0.0780 Uiso
H3JE H -0.0681 0.1358 0.2565 0.0780 Uiso
H3LE H -0.1358 0.2435 0.4319 0.0780 Uiso
H3FE H -0.2435 0.0681 0.3642 0.0780 Uiso
H3DD H -0.0681 0.2565 0.3642 0.0780 Uiso
H3ED H -0.1358 0.4319 0.2565 0.0780 Uiso
H3FD H -0.2435 0.3642 0.4319 0.0780 Uiso
C8B C 0.15723(14) 0.18853(14) 0.10417(13) 0.0727 Uani
C8A C 0.18853(14) 0.10417(13) 0.15723(14) 0.0727 Uani
C8VD C -0.10417(13) 0.31147(14) 0.15723(14) 0.0727 Uani
C8SD C -0.15723(14) 0.39583(13) 0.18853(14) 0.0727 Uani
C8YD C -0.18853(14) 0.34277(14) 0.10417(13) 0.0727 Uani
C8JE C -0.10417(13) 0.18853(14) 0.34277(14) 0.0727 Uani
C8FE C -0.15723(14) 0.10417(13) 0.31147(14) 0.0727 Uani
C8LE C -0.18853(14) 0.15723(14) 0.39583(13) 0.0727 Uani
C8DD C -0.10417(13) 0.34277(14) 0.31147(14) 0.0727 Uani
C8FD C -0.15723(14) 0.31147(14) 0.39583(13) 0.0727 Uani
C8ED C -0.18853(14) 0.39583(13) 0.34277(14) 0.0727 Uani
C9A C 0.14639(13) 0.12846(13) 0.16942(13) 0.0660 Uani
C9B C 0.16942(13) 0.14639(13) 0.12846(13) 0.0660 Uani
C9VD C -0.12846(13) 0.35361(13) 0.16942(13) 0.0660 Uani
C9YD C -0.14639(13) 0.33058(13) 0.12846(13) 0.0660 Uani
C9SD C -0.16942(13) 0.37154(13) 0.14639(13) 0.0660 Uani
C9JE C -0.12846(13) 0.14639(13) 0.33058(13) 0.0660 Uani
C9LE C -0.14639(13) 0.16942(13) 0.37154(13) 0.0660 Uani
C9FE C -0.16942(13) 0.12846(13) 0.35361(13) 0.0660 Uani
C9DD C -0.12846(13) 0.33058(13) 0.35361(13) 0.0660 Uani
C9ED C -0.14639(13) 0.37154(13) 0.33058(13) 0.0660 Uani
C9FD C -0.16942(13) 0.35361(13) 0.37154(13) 0.0660 Uani
C10B C 0.14966(13) 0.16822(13) 0.12719(13) 0.0650 Uani
C10A C 0.16822(13) 0.12719(13) 0.14966(13) 0.0650 Uani
C10VD C -0.12719(13) 0.33178(13) 0.14966(13) 0.0650 Uani
C10SD C -0.14966(13) 0.37281(13) 0.16822(13) 0.0650 Uani
C10YD C -0.16822(13) 0.35034(13) 0.12719(13) 0.0650 Uani
C10JE C -0.12719(13) 0.16822(13) 0.35034(13) 0.0650 Uani
C10FE C -0.14966(13) 0.12719(13) 0.33178(13) 0.0650 Uani
C10LE C -0.16822(13) 0.14966(13) 0.37281(13) 0.0650 Uani
C10DD C -0.12719(13) 0.35034(13) 0.33178(13) 0.0650 Uani
C10FD C -0.14966(13) 0.33178(13) 0.37281(13) 0.0650 Uani
C10ED C -0.16822(13) 0.37281(13) 0.35034(13) 0.0650 Uani
C11B C 0.13512(17) 0.1891(2) 0.08039(17) 0.1013 Uani
C11A C 0.1891(2) 0.08039(17) 0.13512(17) 0.1013 Uani
C11VD C -0.08039(17) 0.3109(2) 0.13512(17) 0.1013 Uani
C11SD C -0.13512(17) 0.41961(17) 0.1891(2) 0.1013 Uani
C11YD C -0.1891(2) 0.36488(17) 0.08039(17) 0.1013 Uani
C11JE C -0.08039(17) 0.1891(2) 0.36488(17) 0.1013 Uani
C11FE C -0.13512(17) 0.08039(17) 0.3109(2) 0.1013 Uani
C11LE C -0.1891(2) 0.13512(17) 0.41961(17) 0.1013 Uani
C11DD C -0.08039(17) 0.36488(17) 0.3109(2) 0.1013 Uani
C11FD C -0.13512(17) 0.3109(2) 0.41961(17) 0.1013 Uani
C11ED C -0.1891(2) 0.41961(17) 0.36488(17) 0.1013 Uani
H4B H 0.1186 0.1990 0.0872 0.1220 Uiso
H4A H 0.1990 0.0872 0.1186 0.1220 Uiso
H4VD H -0.0872 0.3010 0.1186 0.1220 Uiso
H4SD H -0.1186 0.4128 0.1990 0.1220 Uiso
H4YD H -0.1990 0.3814 0.0872 0.1220 Uiso
H4JE H -0.0872 0.1990 0.3814 0.1220 Uiso
H4FE H -0.1186 0.0872 0.3010 0.1220 Uiso
H4LE H -0.1990 0.1186 0.4128 0.1220 Uiso
H4DD H -0.0872 0.3814 0.3010 0.1220 Uiso
H4FD H -0.1186 0.3010 0.4128 0.1220 Uiso
H4ED H -0.1990 0.4128 0.3814 0.1220 Uiso
H5B H 0.1427 0.1999 0.0647 0.1220 Uiso
H5A H 0.1999 0.0647 0.1427 0.1220 Uiso
H5VD H -0.0647 0.3001 0.1427 0.1220 Uiso
H5SD H -0.1427 0.4353 0.1999 0.1220 Uiso
H5YD H -0.1999 0.3573 0.0647 0.1220 Uiso
H5JE H -0.0647 0.1999 0.3573 0.1220 Uiso
H5FE H -0.1427 0.0647 0.3001 0.1220 Uiso
H5LE H -0.1999 0.1427 0.4353 0.1220 Uiso
H5DD H -0.0647 0.3573 0.3001 0.1220 Uiso
H5FD H -0.1427 0.3001 0.4353 0.1220 Uiso
H5ED H -0.1999 0.4353 0.3573 0.1220 Uiso
C12B C 0.1258(2) 0.1604(2) 0.0693(2) 0.1403 Uani
C12A C 0.1604(2) 0.0693(2) 0.1258(2) 0.1403 Uani
C12VD C -0.0693(2) 0.3396(2) 0.1258(2) 0.1403 Uani
C12SD C -0.1258(2) 0.4307(2) 0.1604(2) 0.1403 Uani
C12YD C -0.1604(2) 0.3742(2) 0.0693(2) 0.1403 Uani
C12JE C -0.0693(2) 0.1604(2) 0.3742(2) 0.1403 Uani
C12FE C -0.1258(2) 0.0693(2) 0.3396(2) 0.1403 Uani
C12LE C -0.1604(2) 0.1258(2) 0.4307(2) 0.1403 Uani
C12DD C -0.0693(2) 0.3742(2) 0.3396(2) 0.1403 Uani
C12FD C -0.1258(2) 0.3396(2) 0.4307(2) 0.1403 Uani
C12ED C -0.1604(2) 0.4307(2) 0.3742(2) 0.1403 Uani
H6B H 0.1413 0.1516 0.0597 0.2110 Uiso
H6A H 0.1516 0.0597 0.1413 0.2110 Uiso
H6VD H -0.0597 0.3484 0.1413 0.2110 Uiso
H6SD H -0.1413 0.4403 0.1516 0.2110 Uiso
H6YD H -0.1516 0.3587 0.0597 0.2110 Uiso
H6JE H -0.0597 0.1516 0.3587 0.2110 Uiso
H6FE H -0.1413 0.0597 0.3484 0.2110 Uiso
H6LE H -0.1516 0.1413 0.4403 0.2110 Uiso
H6DD H -0.0597 0.3587 0.3484 0.2110 Uiso
H6FD H -0.1413 0.3484 0.4403 0.2110 Uiso
H6ED H -0.1516 0.4403 0.3587 0.2110 Uiso
H7B H 0.1104 0.1629 0.0564 0.2110 Uiso
H7A H 0.1629 0.0564 0.1104 0.2110 Uiso
H7VD H -0.0564 0.3371 0.1104 0.2110 Uiso
H7SD H -0.1104 0.4436 0.1629 0.2110 Uiso
H7YD H -0.1629 0.3896 0.0564 0.2110 Uiso
H7JE H -0.0564 0.1629 0.3896 0.2110 Uiso
H7FE H -0.1104 0.0564 0.3371 0.2110 Uiso
H7LE H -0.1629 0.1104 0.4436 0.2110 Uiso
H7DD H -0.0564 0.3896 0.3371 0.2110 Uiso
H7FD H -0.1104 0.3371 0.4436 0.2110 Uiso
H7ED H -0.1629 0.4436 0.3896 0.2110 Uiso
H8B H 0.1199 0.1488 0.0848 0.2110 Uiso
H8A H 0.1488 0.0848 0.1199 0.2110 Uiso
H8VD H -0.0848 0.3512 0.1199 0.2110 Uiso
H8SD H -0.1199 0.4152 0.1488 0.2110 Uiso
H8YD H -0.1488 0.3801 0.0848 0.2110 Uiso
H8JE H -0.0848 0.1488 0.3801 0.2110 Uiso
H8FE H -0.1199 0.0848 0.3512 0.2110 Uiso
H8LE H -0.1488 0.1199 0.4152 0.2110 Uiso
H8DD H -0.0848 0.3801 0.3512 0.2110 Uiso
H8FD H -0.1199 0.3512 0.4152 0.2110 Uiso
H8ED H -0.1488 0.4152 0.3801 0.2110 Uiso
C13B C 0.16486(16) 0.21744(15) 0.11587(18) 0.0943 Uani
C13A C 0.21744(15) 0.11587(18) 0.16486(16) 0.0943 Uani
C13VD C -0.11587(18) 0.28256(15) 0.16486(16) 0.0943 Uani
C13SD C -0.16486(16) 0.38413(18) 0.21744(15) 0.0943 Uani
C13YD C -0.21744(15) 0.33514(16) 0.11587(18) 0.0943 Uani
C13JE C -0.11587(18) 0.21744(15) 0.33514(16) 0.0943 Uani
C13FE C -0.16486(16) 0.11587(18) 0.28256(15) 0.0943 Uani
C13LE C -0.21744(15) 0.16486(16) 0.38413(18) 0.0943 Uani
C13DD C -0.11587(18) 0.33514(16) 0.28256(15) 0.0943 Uani
C13FD C -0.16486(16) 0.28256(15) 0.38413(18) 0.0943 Uani
C13ED C -0.21744(15) 0.38413(18) 0.33514(16) 0.0943 Uani
H9B H 0.1720 0.2290 0.1005 0.1130 Uiso
H9A H 0.2290 0.1005 0.1720 0.1130 Uiso
H9VD H -0.1005 0.2710 0.1720 0.1130 Uiso
H9SD H -0.1720 0.3995 0.2290 0.1130 Uiso
H9YD H -0.2290 0.3280 0.1005 0.1130 Uiso
H9JE H -0.1005 0.2290 0.3280 0.1130 Uiso
H9FE H -0.1720 0.1005 0.2710 0.1130 Uiso
H9LE H -0.2290 0.1720 0.3995 0.1130 Uiso
H9DD H -0.1005 0.3280 0.2710 0.1130 Uiso
H9FD H -0.1720 0.2710 0.3995 0.1130 Uiso
H9ED H -0.2290 0.3995 0.3280 0.1130 Uiso
H10B H 0.1478 0.2263 0.1229 0.1130 Uiso
H10A H 0.2263 0.1229 0.1478 0.1130 Uiso
H10VD H -0.1229 0.2737 0.1478 0.1130 Uiso
H10SD H -0.1478 0.3771 0.2263 0.1130 Uiso
H10YD H -0.2263 0.3522 0.1229 0.1130 Uiso
H10JE H -0.1229 0.2263 0.3522 0.1130 Uiso
H10FE H -0.1478 0.1229 0.2737 0.1130 Uiso
H10LE H -0.2263 0.1478 0.3771 0.1130 Uiso
H10DD H -0.1229 0.3522 0.2737 0.1130 Uiso
H10FD H -0.1478 0.2737 0.3771 0.1130 Uiso
H10ED H -0.2263 0.3771 0.3522 0.1130 Uiso
C14B C 0.1864(2) 0.21710(18) 0.13907(18) 0.1113 Uani
C14A C 0.21710(18) 0.13907(18) 0.1864(2) 0.1113 Uani
C14VD C -0.13907(18) 0.28290(18) 0.1864(2) 0.1113 Uani
C14SD C -0.1864(2) 0.36093(18) 0.21710(18) 0.1113 Uani
C14YD C -0.21710(18) 0.3136(2) 0.13907(18) 0.1113 Uani
C14JE C -0.13907(18) 0.21710(18) 0.3136(2) 0.1113 Uani
C14FE C -0.1864(2) 0.13907(18) 0.28290(18) 0.1113 Uani
C14LE C -0.21710(18) 0.1864(2) 0.36093(18) 0.1113 Uani
C14DD C -0.13907(18) 0.3136(2) 0.28290(18) 0.1113 Uani
C14FD C -0.1864(2) 0.28290(18) 0.36093(18) 0.1113 Uani
C14ED C -0.21710(18) 0.36093(18) 0.3136(2) 0.1113 Uani
H11B H 0.1788 0.2073 0.1551 0.1670 Uiso
H11A H 0.2073 0.1551 0.1788 0.1670 Uiso
H11VD H -0.1551 0.2927 0.1788 0.1670 Uiso
H11SD H -0.1788 0.3449 0.2073 0.1670 Uiso
H11YD H -0.2073 0.3212 0.1551 0.1670 Uiso
H11JE H -0.1551 0.2073 0.3212 0.1670 Uiso
H11FE H -0.1788 0.1551 0.2927 0.1670 Uiso
H11LE H -0.2073 0.1788 0.3449 0.1670 Uiso
H11DD H -0.1551 0.3212 0.2927 0.1670 Uiso
H11FD H -0.1788 0.2927 0.3449 0.1670 Uiso
H11ED H -0.2073 0.3449 0.3212 0.1670 Uiso
H12B H 0.1910 0.2361 0.1443 0.1670 Uiso
H12A H 0.2361 0.1443 0.1910 0.1670 Uiso
H12VD H -0.1443 0.2639 0.1910 0.1670 Uiso
H12SD H -0.1910 0.3557 0.2361 0.1670 Uiso
H12YD H -0.2361 0.3090 0.1443 0.1670 Uiso
H12JE H -0.1443 0.2361 0.3090 0.1670 Uiso
H12FE H -0.1910 0.1443 0.2639 0.1670 Uiso
H12LE H -0.2361 0.1910 0.3557 0.1670 Uiso
H12DD H -0.1443 0.3090 0.2639 0.1670 Uiso
H12FD H -0.1910 0.2639 0.3557 0.1670 Uiso
H12ED H -0.2361 0.3557 0.3090 0.1670 Uiso
H13B H 0.2031 0.2076 0.1326 0.1670 Uiso
H13A H 0.2076 0.1326 0.2031 0.1670 Uiso
H13VD H -0.1326 0.2924 0.2031 0.1670 Uiso
H13SD H -0.2031 0.3674 0.2076 0.1670 Uiso
H13YD H -0.2076 0.2969 0.1326 0.1670 Uiso
H13JE H -0.1326 0.2076 0.2969 0.1670 Uiso
H13FE H -0.2031 0.1326 0.2924 0.1670 Uiso
H13LE H -0.2076 0.2031 0.3674 0.1670 Uiso
H13DD H -0.1326 0.2969 0.2924 0.1670 Uiso
H13FD H -0.2031 0.2924 0.3674 0.1670 Uiso
H13ED H -0.2076 0.3674 0.2969 0.1670 Uiso
C15FA C 0.0000 0.3241(7) 0.1582(7) 0.3080 Uani
C15DD C 0.0000 0.3418(7) 0.3241(7) 0.3080 Uani
C15PA C 0.0000 0.1759(7) 0.3418(7) 0.3080 Uani
O1 O 0.0875(4) 0.2500 0.2500 0.2810 Uani
O8? O -0.0172(4) 0.1138(4) 0.2379(6) 0.2693 Uani
O9? O 0.0678(11) 0.2613(15) 0.0700(12) 0.5433 Uani
loop_
_atom_site_aniso_label
_atom_site_aniso_U_11
_atom_site_aniso_U_22
_atom_site_aniso_U_33
_atom_site_aniso_U_23
_atom_site_aniso_U_13
_atom_site_aniso_U_12
O2 0.163(17) 0.273(16) 0.273(16) 0.000 0.000 0.000
O3 0.25(2) 0.59(5) 0.27(2) 0.19(3) 0.000 0.000
Cd1 0.0431(5) 0.0598(5) 0.0519(5) 0.0049(3) 0.000 0.000
O4 0.052(2) 0.067(3) 0.082(3) -0.003(2) 0.011(2) 0.001(2)
O5 0.052 0.073 0.057 0 0.0064 -0.0009
O7 0.089(5) 0.122(7) 0.091(5) -0.034(5) 0.000 0.000
C1 0.040(3) 0.060(4) 0.072(4) -0.009(3) 0.006(3) 0.005(3)
C2 0.049(3) 0.065(4) 0.071(4) 0.006(3) 0.006(3) 0.001(3)
C3 0.057(4) 0.067(4) 0.078(4) 0.015(3) 0.021(3) 0.008(3)
C4 0.061(4) 0.064(4) 0.074(4) 0.018(3) 0.017(3) 0.012(3)
C5 0.056(4) 0.063(4) 0.072(4) 0.014(3) 0.011(3) 0.010(3)
C6 0.073(4) 0.069(4) 0.070(4) 0.015(3) 0.014(3) 0.015(3)
C7 0.062(4) 0.059(4) 0.073(4) 0.006(3) 0.004(3) 0.013(3)
C8 0.068(4) 0.069(4) 0.081(5) 0.025(4) 0.025(3) 0.017(3)
C9 0.064(4) 0.065(4) 0.069(4) 0.016(3) 0.015(3) 0.019(3)
C10 0.062 0.065 0.068 0.019 0.017 0.016
C11 0.084(5) 0.093(6) 0.127(7) 0.032(5) 0.016(5) 0.013(4)
C12 0.126(8) 0.122(8) 0.173(11) -0.019(7) 0.018(8) -0.023(6)
C13 0.109(6) 0.095(6) 0.079(5) 0.018(4) 0.021(4) 0.033(5)
C14 0.090(6) 0.142(8) 0.102(6) -0.017(6) -0.002(5) 0.017(6)
C15 0.114(15) 0.39(4) 0.42(5) -0.20(4) 0.000 0.000
Cd1FA 0.0431 0.0519 0.0598 -0.0049 0 0
Cd1PA 0.0431 0.0519 0.0598 -0.0049 0 0
Cd1DD 0.0431 0.0598 0.0519 0.0049 0 0
Cd1B 0.0598 0.0519 0.0431 0 0 0.0049
Cd1W 0.0519 0.0598 0.0431 0 0 -0.0049
Cd1A 0.0519 0.0431 0.0598 0 0.0049 0
Cd1MA 0.0598 0.0431 0.0519 0 -0.0049 0
Cd1CA 0.0598 0.0431 0.0519 0 -0.0049 0
Cd1KA 0.0519 0.0431 0.0598 0 0.0049 0
Cd1YD 0.0519 0.0598 0.0431 0 0 0.0049
Cd1UE 0.0598 0.0519 0.0431 0 0 -0.0049
Cd1FE 0.0598 0.0431 0.0519 0 0.0049 0
Cd1PF 0.0519 0.0431 0.0598 0 -0.0049 0
Cd1UA 0.0519 0.0598 0.0431 0 0 -0.0049
Cd1FD 0.0598 0.0519 0.0431 0 0 0.0049
Cd1J 0.0519 0.0598 0.0431 0 0 -0.0049
Cd1ED 0.0519 0.0431 0.0598 0 0.0049 0
O4PA 0.052 0.082 0.067 0.003 -0.001 0.011
O4PE 0.052 0.067 0.082 -0.003 -0.011 -0.001
O4JE 0.052 0.082 0.067 0.003 0.001 -0.011
O4B 0.067 0.082 0.052 0.011 0.001 -0.003
O4A 0.082 0.052 0.067 0.001 -0.003 0.011
O4FA 0.052 0.082 0.067 0.003 0.001 -0.011
O4VD 0.052 0.082 0.067 0.003 -0.001 0.011
O4DD 0.052 0.067 0.082 -0.003 0.011 0.001
O4JB 0.052 0.067 0.082 -0.003 -0.011 -0.001
O4SD 0.067 0.052 0.082 -0.011 0.003 0.001
O4YD 0.082 0.067 0.052 -0.001 -0.011 -0.003
O4FE 0.067 0.052 0.082 -0.011 -0.003 -0.001
O4LE 0.082 0.067 0.052 -0.001 0.011 0.003
O4FD 0.067 0.082 0.052 0.011 0.001 -0.003
O4ED 0.082 0.052 0.067 0.001 -0.003 0.011
O5PE 0.052 0.073 0.057 0 -0.0064 0.0009
O5VD 0.052 0.057 0.073 0 0.0009 0.0064
O5ND 0.057 0.073 0.052 0.0009 0.0064 0
O5GE 0.073 0.052 0.057 0.0064 0 0.0009
O5FA 0.052 0.057 0.073 0 -0.0009 -0.0064
O5PA 0.052 0.057 0.073 0 0.0009 0.0064
O5JE 0.052 0.057 0.073 0 -0.0009 -0.0064
O5DD 0.052 0.073 0.057 0 0.0064 -0.0009
O5JB 0.052 0.073 0.057 0 -0.0064 0.0009
O5KA 0.057 0.052 0.073 -0.0009 0 0.0064
O5BB 0.073 0.057 0.052 -0.0064 -0.0009 0
O5WB 0.057 0.052 0.073 -0.0009 0 -0.0064
O5PB 0.073 0.057 0.052 -0.0064 0.0009 0
O5J 0.057 0.073 0.052 0.0009 0.0064 0
O5CA 0.073 0.052 0.057 0.0064 0 0.0009
O7FA 0.089 0.091 0.122 0.034 0 0
O7PA 0.089 0.091 0.122 0.034 0 0
O7DD 0.089 0.122 0.091 -0.034 0 0
C1JE 0.04 0.072 0.06 0.009 0.005 -0.006
C1B 0.06 0.072 0.04 0.006 0.005 -0.009
C1A 0.072 0.04 0.06 0.005 -0.009 0.006
C1VD 0.04 0.072 0.06 0.009 -0.005 0.006
C1SD 0.06 0.04 0.072 -0.006 0.009 0.005
C1YD 0.072 0.06 0.04 -0.005 -0.006 -0.009
C1FE 0.06 0.04 0.072 -0.006 -0.009 -0.005
C1LE 0.072 0.06 0.04 -0.005 0.006 0.009
C1DD 0.04 0.06 0.072 -0.009 0.006 0.005
C1FD 0.06 0.072 0.04 0.006 0.005 -0.009
C1ED 0.072 0.04 0.06 0.005 -0.009 0.006
C2B 0.065 0.071 0.049 0.006 0.001 0.006
C2A 0.071 0.049 0.065 0.001 0.006 0.006
C2VD 0.049 0.071 0.065 -0.006 -0.001 0.006
C2SD 0.065 0.049 0.071 -0.006 -0.006 0.001
C2YD 0.071 0.065 0.049 -0.001 -0.006 0.006
C2JE 0.049 0.071 0.065 -0.006 0.001 -0.006
C2FE 0.065 0.049 0.071 -0.006 0.006 -0.001
C2LE 0.071 0.065 0.049 -0.001 0.006 -0.006
C2DD 0.049 0.065 0.071 0.006 0.006 0.001
C2FD 0.065 0.071 0.049 0.006 0.001 0.006
C2ED 0.071 0.049 0.065 0.001 0.006 0.006
C3B 0.067 0.078 0.057 0.021 0.008 0.015
C3A 0.078 0.057 0.067 0.008 0.015 0.021
C3VD 0.057 0.078 0.067 -0.015 -0.008 0.021
C3SD 0.067 0.057 0.078 -0.021 -0.015 0.008
C3YD 0.078 0.067 0.057 -0.008 -0.021 0.015
C3JE 0.057 0.078 0.067 -0.015 0.008 -0.021
C3FE 0.067 0.057 0.078 -0.021 0.015 -0.008
C3LE 0.078 0.067 0.057 -0.008 0.021 -0.015
C3DD 0.057 0.067 0.078 0.015 0.021 0.008
C3FD 0.067 0.078 0.057 0.021 0.008 0.015
C3ED 0.078 0.057 0.067 0.008 0.015 0.021
C4B 0.064 0.074 0.061 0.017 0.012 0.018
C4A 0.074 0.061 0.064 0.012 0.018 0.017
C4VD 0.061 0.074 0.064 -0.018 -0.012 0.017
C4SD 0.064 0.061 0.074 -0.017 -0.018 0.012
C4YD 0.074 0.064 0.061 -0.012 -0.017 0.018
C4JE 0.061 0.074 0.064 -0.018 0.012 -0.017
C4FE 0.064 0.061 0.074 -0.017 0.018 -0.012
C4LE 0.074 0.064 0.061 -0.012 0.017 -0.018
C4DD 0.061 0.064 0.074 0.018 0.017 0.012
C4FD 0.064 0.074 0.061 0.017 0.012 0.018
C4ED 0.074 0.061 0.064 0.012 0.018 0.017
C5A 0.072 0.056 0.063 0.01 0.014 0.011
C5B 0.063 0.072 0.056 0.011 0.01 0.014
C5VD 0.056 0.072 0.063 -0.014 -0.01 0.011
C5YD 0.072 0.063 0.056 -0.01 -0.011 0.014
C5SD 0.063 0.056 0.072 -0.011 -0.014 0.01
C5JE 0.056 0.072 0.063 -0.014 0.01 -0.011
C5LE 0.072 0.063 0.056 -0.01 0.011 -0.014
C5FE 0.063 0.056 0.072 -0.011 0.014 -0.01
C5DD 0.056 0.063 0.072 0.014 0.011 0.01
C5ED 0.072 0.056 0.063 0.01 0.014 0.011
C5FD 0.063 0.072 0.056 0.011 0.01 0.014
C6A 0.07 0.073 0.069 0.015 0.015 0.014
C6B 0.069 0.07 0.073 0.014 0.015 0.015
C6VD 0.073 0.07 0.069 -0.015 -0.015 0.014
C6YD 0.07 0.069 0.073 -0.015 -0.014 0.015
C6SD 0.069 0.073 0.07 -0.014 -0.015 0.015
C6JE 0.073 0.07 0.069 -0.015 0.015 -0.014
C6LE 0.07 0.069 0.073 -0.015 0.014 -0.015
C6FE 0.069 0.073 0.07 -0.014 0.015 -0.015
C6DD 0.073 0.069 0.07 0.015 0.014 0.015
C6ED 0.07 0.073 0.069 0.015 0.015 0.014
C6FD 0.069 0.07 0.073 0.014 0.015 0.015
C7A 0.073 0.062 0.059 0.013 0.006 0.004
C7B 0.059 0.073 0.062 0.004 0.013 0.006
C7VD 0.062 0.073 0.059 -0.006 -0.013 0.004
C7YD 0.073 0.059 0.062 -0.013 -0.004 0.006
C7SD 0.059 0.062 0.073 -0.004 -0.006 0.013
C7JE 0.062 0.073 0.059 -0.006 0.013 -0.004
C7LE 0.073 0.059 0.062 -0.013 0.004 -0.006
C7FE 0.059 0.062 0.073 -0.004 0.006 -0.013
C7DD 0.062 0.059 0.073 0.006 0.004 0.013
C7ED 0.073 0.062 0.059 0.013 0.006 0.004
C7FD 0.059 0.073 0.062 0.004 0.013 0.006
C8B 0.069 0.081 0.068 0.025 0.017 0.025
C8A 0.081 0.068 0.069 0.017 0.025 0.025
C8VD 0.068 0.081 0.069 -0.025 -0.017 0.025
C8SD 0.069 0.068 0.081 -0.025 -0.025 0.017
C8YD 0.081 0.069 0.068 -0.017 -0.025 0.025
C8JE 0.068 0.081 0.069 -0.025 0.017 -0.025
C8FE 0.069 0.068 0.081 -0.025 0.025 -0.017
C8LE 0.081 0.069 0.068 -0.017 0.025 -0.025
C8DD 0.068 0.069 0.081 0.025 0.025 0.017
C8FD 0.069 0.081 0.068 0.025 0.017 0.025
C8ED 0.081 0.068 0.069 0.017 0.025 0.025
C9A 0.069 0.064 0.065 0.019 0.016 0.015
C9B 0.065 0.069 0.064 0.015 0.019 0.016
C9VD 0.064 0.069 0.065 -0.016 -0.019 0.015
C9YD 0.069 0.065 0.064 -0.019 -0.015 0.016
C9SD 0.065 0.064 0.069 -0.015 -0.016 0.019
C9JE 0.064 0.069 0.065 -0.016 0.019 -0.015
C9LE 0.069 0.065 0.064 -0.019 0.015 -0.016
C9FE 0.065 0.064 0.069 -0.015 0.016 -0.019
C9DD 0.064 0.065 0.069 0.016 0.015 0.019
C9ED 0.069 0.064 0.065 0.019 0.016 0.015
C9FD 0.065 0.069 0.064 0.015 0.019 0.016
C10B 0.065(4) 0.068(4) 0.062(4) 0.017(3) 0.016(3) 0.019(3)
C10A 0.068 0.062 0.065 0.016 0.019 0.017
C10VD 0.062 0.068 0.065 -0.019 -0.016 0.017
C10SD 0.065 0.062 0.068 -0.017 -0.019 0.016
C10YD 0.068 0.065 0.062 -0.016 -0.017 0.019
C10JE 0.062 0.068 0.065 -0.019 0.016 -0.017
C10FE 0.065 0.062 0.068 -0.017 0.019 -0.016
C10LE 0.068 0.065 0.062 -0.016 0.017 -0.019
C10DD 0.062 0.065 0.068 0.019 0.017 0.016
C10FD 0.065 0.068 0.062 0.017 0.016 0.019
C10ED 0.068 0.062 0.065 0.016 0.019 0.017
C11B 0.093 0.127 0.084 0.016 0.013 0.032
C11A 0.127 0.084 0.093 0.013 0.032 0.016
C11VD 0.084 0.127 0.093 -0.032 -0.013 0.016
C11SD 0.093 0.084 0.127 -0.016 -0.032 0.013
C11YD 0.127 0.093 0.084 -0.013 -0.016 0.032
C11JE 0.084 0.127 0.093 -0.032 0.013 -0.016
C11FE 0.093 0.084 0.127 -0.016 0.032 -0.013
C11LE 0.127 0.093 0.084 -0.013 0.016 -0.032
C11DD 0.084 0.093 0.127 0.032 0.016 0.013
C11FD 0.093 0.127 0.084 0.016 0.013 0.032
C11ED 0.127 0.084 0.093 0.013 0.032 0.016
C12B 0.122 0.173 0.126 0.018 -0.023 -0.019
C12A 0.173 0.126 0.122 -0.023 -0.019 0.018
C12VD 0.126 0.173 0.122 0.019 0.023 0.018
C12SD 0.122 0.126 0.173 -0.018 0.019 -0.023
C12YD 0.173 0.122 0.126 0.023 -0.018 -0.019
C12JE 0.126 0.173 0.122 0.019 -0.023 -0.018
C12FE 0.122 0.126 0.173 -0.018 -0.019 0.023
C12LE 0.173 0.122 0.126 0.023 0.018 0.019
C12DD 0.126 0.122 0.173 -0.019 0.018 -0.023
C12FD 0.122 0.173 0.126 0.018 -0.023 -0.019
C12ED 0.173 0.126 0.122 -0.023 -0.019 0.018
C13B 0.095 0.079 0.109 0.021 0.033 0.018
C13A 0.079 0.109 0.095 0.033 0.018 0.021
C13VD 0.109 0.079 0.095 -0.018 -0.033 0.021
C13SD 0.095 0.109 0.079 -0.021 -0.018 0.033
C13YD 0.079 0.095 0.109 -0.033 -0.021 0.018
C13JE 0.109 0.079 0.095 -0.018 0.033 -0.021
C13FE 0.095 0.109 0.079 -0.021 0.018 -0.033
C13LE 0.079 0.095 0.109 -0.033 0.021 -0.018
C13DD 0.109 0.095 0.079 0.018 0.021 0.033
C13FD 0.095 0.079 0.109 0.021 0.033 0.018
C13ED 0.079 0.109 0.095 0.033 0.018 0.021
C14B 0.142 0.102 0.09 -0.002 0.017 -0.017
C14A 0.102 0.09 0.142 0.017 -0.017 -0.002
C14VD 0.09 0.102 0.142 0.017 -0.017 -0.002
C14SD 0.142 0.09 0.102 0.002 0.017 0.017
C14YD 0.102 0.142 0.09 -0.017 0.002 -0.017
C14JE 0.09 0.102 0.142 0.017 0.017 0.002
C14FE 0.142 0.09 0.102 0.002 -0.017 -0.017
C14LE 0.102 0.142 0.09 -0.017 -0.002 0.017
C14DD 0.09 0.142 0.102 -0.017 -0.002 0.017
C14FD 0.142 0.102 0.09 -0.002 0.017 -0.017
C14ED 0.102 0.09 0.142 0.017 -0.017 -0.002
C15FA 0.114 0.42 0.39 0.2 0 0
C15DD 0.114 0.39 0.42 -0.2 0 0
C15PA 0.114 0.42 0.39 0.2 0 0
O1 0.103(12) 0.37(2) 0.37(2) 0.000 0.000 0.000
O8? 0.24(2) 0.118(12) 0.45(4) 0.003(18) 0.14(2) 0.037(12)
O9? 0.33(6) 1.00(14) 0.30(5) -0.15(6) -0.03(3) -0.41(8)
loop_
_geom_bond_atom_site_label_1
_geom_bond_atom_site_label_2
_geom_bond_site_symmetry_1
_geom_bond_site_symmetry_2
Cd1 O4 1_555 1_555
O4 C1 1_555 1_555
O5 Cd1 1_555 1_555
O6 Cd1 1_555 1_555
O7 Cd1 1_555 1_555
C1 C2 1_555 1_555
C2 C3 1_555 1_555
C3 H1 1_555 1_555
C4 C3 1_555 1_555
C5 C4 1_555 1_555
C6 C5 1_555 1_555
H2 C6 1_555 1_555
C7 C2 1_555 1_555
H3 C7 1_555 1_555
C8 C4 1_555 1_555
C9 C5 1_555 1_555
C10 C8 1_555 1_555
C11 C8 1_555 1_555
H4 C11 1_555 1_555
H5 C11 1_555 1_555
C12 C11 1_555 1_555
H6 C12 1_555 1_555
H7 C12 1_555 1_555
H8 C12 1_555 1_555
C13 C8 1_555 1_555
H9 C13 1_555 1_555
H10 C13 1_555 1_555
C14 C13 1_555 1_555
H11 C14 1_555 1_555
H12 C14 1_555 1_555
H13 C14 1_555 1_555
C15 O7 1_555 1_555
Cd1FA O4 1_555 1_555
Cd1PA O6 1_555 1_555
Cd1DD O6 1_555 1_555
Cd1B O4B 1_555 1_555
Cd1W O4B 1_555 1_555
Cd1A O4A 1_555 1_555
Cd1MA O4A 1_555 1_555
Cd1CA O4SD 1_555 1_555
Cd1KA O4SD 1_555 1_555
Cd1YD O4YD 1_555 1_555
Cd1UE O4YD 1_555 1_555
Cd1FE O4FE 1_555 1_555
Cd1PF O4FE 1_555 1_555
Cd1UA O4LE 1_555 1_555
Cd1FD O4LE 1_555 1_555
Cd1J O4FD 1_555 1_555
Cd1ED O4ED 1_555 1_555
O4PA Cd1 1_555 1_555
O4PE Cd1 1_555 1_555
O4JE Cd1 1_555 1_555
O4B C1B 1_555 1_555
O4A C1A 1_555 1_555
O4FA Cd1FA 1_555 1_555
O4VD Cd1FA 1_555 1_555
O4DD Cd1PA 1_555 1_555
O4JB Cd1PA 1_555 1_555
O4SD C1SD 1_555 1_555
O4YD C1YD 1_555 1_555
O4FE C1FE 1_555 1_555
O4LE C1LE 1_555 1_555
O4FD Cd1FD 1_555 1_555
O4ED Cd1CA 1_555 1_555
O5PE Cd1 1_555 1_555
O5VD C1 1_555 1_555
O5ND Cd1W 1_555 1_555
O5GE Cd1MA 1_555 1_555
O5FA Cd1FA 1_555 1_555
O5PA Cd1PA 1_555 1_555
O5JE Cd1PA 1_555 1_555
O5DD Cd1DD 1_555 1_555
O5JB Cd1DD 1_555 1_555
O5KA Cd1KA 1_555 1_555
O5BB Cd1UE 1_555 1_555
O5WB Cd1PF 1_555 1_555
O5PB Cd1FD 1_555 1_555
O5J Cd1J 1_555 1_555
O5CA Cd1CA 1_555 1_555
O7FA Cd1FA 1_555 1_555
O7PA Cd1PA 1_555 1_555
O7DD Cd1DD 1_555 1_555
C1JE O5 1_555 1_555
C1B O5ND 1_555 1_555
C1A O5GE 1_555 1_555
C1VD O4VD 1_555 1_555
C1SD O5KA 1_555 1_555
C1YD O5BB 1_555 1_555
C1FE O5WB 1_555 1_555
C1LE O5PB 1_555 1_555
C1DD O4DD 1_555 1_555
C1FD O4FD 1_555 1_555
C1ED O4ED 1_555 1_555
C2B C1B 1_555 1_555
C2A C1A 1_555 1_555
C2VD C1VD 1_555 1_555
C2SD C1SD 1_555 1_555
C2YD C1YD 1_555 1_555
C2JE C1JE 1_555 1_555
C2FE C1FE 1_555 1_555
C2LE C1LE 1_555 1_555
C2DD C1DD 1_555 1_555
C2FD C1FD 1_555 1_555
C2ED C1ED 1_555 1_555
C3B C2B 1_555 1_555
C3A C2A 1_555 1_555
C3VD C2VD 1_555 1_555
C3SD C2SD 1_555 1_555
C3YD C2YD 1_555 1_555
C3JE C2JE 1_555 1_555
C3FE C2FE 1_555 1_555
C3LE C2LE 1_555 1_555
C3DD C2DD 1_555 1_555
C3FD C2FD 1_555 1_555
C3ED C2ED 1_555 1_555
H1B C3B 1_555 1_555
H1A C3A 1_555 1_555
H1VD C3VD 1_555 1_555
H1SD C3SD 1_555 1_555
H1YD C3YD 1_555 1_555
H1JE C3JE 1_555 1_555
H1FE C3FE 1_555 1_555
H1LE C3LE 1_555 1_555
H1DD C3DD 1_555 1_555
H1FD C3FD 1_555 1_555
H1ED C3ED 1_555 1_555
C4B C3B 1_555 1_555
C4A C3A 1_555 1_555
C4VD C3VD 1_555 1_555
C4SD C3SD 1_555 1_555
C4YD C3YD 1_555 1_555
C4JE C3JE 1_555 1_555
C4FE C3FE 1_555 1_555
C4LE C3LE 1_555 1_555
C4DD C3DD 1_555 1_555
C4FD C3FD 1_555 1_555
C4ED C3ED 1_555 1_555
C5A C4A 1_555 1_555
C5B C4B 1_555 1_555
C5VD C4VD 1_555 1_555
C5YD C4YD 1_555 1_555
C5SD C4SD 1_555 1_555
C5JE C4JE 1_555 1_555
C5LE C4LE 1_555 1_555
C5FE C4FE 1_555 1_555
C5DD C4DD 1_555 1_555
C5ED C4ED 1_555 1_555
C5FD C4FD 1_555 1_555
C6A C5A 1_555 1_555
C6B C5B 1_555 1_555
C6VD C5VD 1_555 1_555
C6YD C5YD 1_555 1_555
C6SD C5SD 1_555 1_555
C6JE C5JE 1_555 1_555
C6LE C5LE 1_555 1_555
C6FE C5FE 1_555 1_555
C6DD C5DD 1_555 1_555
C6ED C5ED 1_555 1_555
C6FD C5FD 1_555 1_555
H2A C6A 1_555 1_555
H2B C6B 1_555 1_555
H2VD C6VD 1_555 1_555
H2YD C6YD 1_555 1_555
H2SD C6SD 1_555 1_555
H2JE C6JE 1_555 1_555
H2LE C6LE 1_555 1_555
H2FE C6FE 1_555 1_555
H2DD C6DD 1_555 1_555
H2ED C6ED 1_555 1_555
H2FD C6FD 1_555 1_555
C7A C2A 1_555 1_555
C7B C2B 1_555 1_555
C7VD C2VD 1_555 1_555
C7YD C2YD 1_555 1_555
C7SD C2SD 1_555 1_555
C7JE C2JE 1_555 1_555
C7LE C2LE 1_555 1_555
C7FE C2FE 1_555 1_555
C7DD C2DD 1_555 1_555
C7ED C2ED 1_555 1_555
C7FD C2FD 1_555 1_555
H3A C7A 1_555 1_555
H3B C7B 1_555 1_555
H3VD C7VD 1_555 1_555
H3YD C7YD 1_555 1_555
H3SD C7SD 1_555 1_555
H3JE C7JE 1_555 1_555
H3LE C7LE 1_555 1_555
H3FE C7FE 1_555 1_555
H3DD C7DD 1_555 1_555
H3ED C7ED 1_555 1_555
H3FD C7FD 1_555 1_555
C8B C4B 1_555 1_555
C8A C4A 1_555 1_555
C8VD C4VD 1_555 1_555
C8SD C4SD 1_555 1_555
C8YD C4YD 1_555 1_555
C8JE C4JE 1_555 1_555
C8FE C4FE 1_555 1_555
C8LE C4LE 1_555 1_555
C8DD C4DD 1_555 1_555
C8FD C4FD 1_555 1_555
C8ED C4ED 1_555 1_555
C9A C10 1_555 1_555
C9B C5B 1_555 1_555
C9VD C5VD 1_555 1_555
C9YD C5YD 1_555 1_555
C9SD C5SD 1_555 1_555
C9JE C5JE 1_555 1_555
C9LE C5LE 1_555 1_555
C9FE C5FE 1_555 1_555
C9DD C5DD 1_555 1_555
C9ED C5ED 1_555 1_555
C9FD C5FD 1_555 1_555
C10B C9 1_555 1_555
C10A C8A 1_555 1_555
C10VD C8VD 1_555 1_555
C10SD C8SD 1_555 1_555
C10YD C8YD 1_555 1_555
C10JE C8JE 1_555 1_555
C10FE C8FE 1_555 1_555
C10LE C8LE 1_555 1_555
C10DD C8DD 1_555 1_555
C10FD C8FD 1_555 1_555
C10ED C8ED 1_555 1_555
C11B C8B 1_555 1_555
C11A C8A 1_555 1_555
C11VD C8VD 1_555 1_555
C11SD C8SD 1_555 1_555
C11YD C8YD 1_555 1_555
C11JE C8JE 1_555 1_555
C11FE C8FE 1_555 1_555
C11LE C8LE 1_555 1_555
C11DD C8DD 1_555 1_555
C11FD C8FD 1_555 1_555
C11ED C8ED 1_555 1_555
H4B C11B 1_555 1_555
H4A C11A 1_555 1_555
H4VD C11VD 1_555 1_555
H4SD C11SD 1_555 1_555
H4YD C11YD 1_555 1_555
H4JE C11JE 1_555 1_555
H4FE C11FE 1_555 1_555
H4LE C11LE 1_555 1_555
H4DD C11DD 1_555 1_555
H4FD C11FD 1_555 1_555
H4ED C11ED 1_555 1_555
H5B C11B 1_555 1_555
H5A C11A 1_555 1_555
H5VD C11VD 1_555 1_555
H5SD C11SD 1_555 1_555
H5YD C11YD 1_555 1_555
H5JE C11JE 1_555 1_555
H5FE C11FE 1_555 1_555
H5LE C11LE 1_555 1_555
H5DD C11DD 1_555 1_555
H5FD C11FD 1_555 1_555
H5ED C11ED 1_555 1_555
C12B C11B 1_555 1_555
C12A C11A 1_555 1_555
C12VD C11VD 1_555 1_555
C12SD C11SD 1_555 1_555
C12YD C11YD 1_555 1_555
C12JE C11JE 1_555 1_555
C12FE C11FE 1_555 1_555
C12LE C11LE 1_555 1_555
C12DD C11DD 1_555 1_555
C12FD C11FD 1_555 1_555
C12ED C11ED 1_555 1_555
H6B C12B 1_555 1_555
H6A C12A 1_555 1_555
H6VD C12VD 1_555 1_555
H6SD C12SD 1_555 1_555
H6YD C12YD 1_555 1_555
H6JE C12JE 1_555 1_555
H6FE C12FE 1_555 1_555
H6LE C12LE 1_555 1_555
H6DD C12DD 1_555 1_555
H6FD C12FD 1_555 1_555
H6ED C12ED 1_555 1_555
H7B C12B 1_555 1_555
H7A C12A 1_555 1_555
H7VD C12VD 1_555 1_555
H7SD C12SD 1_555 1_555
H7YD C12YD 1_555 1_555
H7JE C12JE 1_555 1_555
H7FE C12FE 1_555 1_555
H7LE C12LE 1_555 1_555
H7DD C12DD 1_555 1_555
H7FD C12FD 1_555 1_555
H7ED C12ED 1_555 1_555
H8B C12B 1_555 1_555
H8A C12A 1_555 1_555
H8VD C12VD 1_555 1_555
H8SD C12SD 1_555 1_555
H8YD C12YD 1_555 1_555
H8JE C12JE 1_555 1_555
H8FE C12FE 1_555 1_555
H8LE C12LE 1_555 1_555
H8DD C12DD 1_555 1_555
H8FD C12FD 1_555 1_555
H8ED C12ED 1_555 1_555
C13B C8B 1_555 1_555
C13A C8A 1_555 1_555
C13VD C8VD 1_555 1_555
C13SD C8SD 1_555 1_555
C13YD C8YD 1_555 1_555
C13JE C8JE 1_555 1_555
C13FE C8FE 1_555 1_555
C13LE C8LE 1_555 1_555
C13DD C8DD 1_555 1_555
C13FD C8FD 1_555 1_555
C13ED C8ED 1_555 1_555
H9B C13B 1_555 1_555
H9A C13A 1_555 1_555
H9VD C13VD 1_555 1_555
H9SD C13SD 1_555 1_555
H9YD C13YD 1_555 1_555
H9JE C13JE 1_555 1_555
H9FE C13FE 1_555 1_555
H9LE C13LE 1_555 1_555
H9DD C13DD 1_555 1_555
H9FD C13FD 1_555 1_555
H9ED C13ED 1_555 1_555
H10B C13B 1_555 1_555
H10A C13A 1_555 1_555
H10VD C13VD 1_555 1_555
H10SD C13SD 1_555 1_555
H10YD C13YD 1_555 1_555
H10JE C13JE 1_555 1_555
H10FE C13FE 1_555 1_555
H10LE C13LE 1_555 1_555
H10DD C13DD 1_555 1_555
H10FD C13FD 1_555 1_555
H10ED C13ED 1_555 1_555
C14B C13B 1_555 1_555
C14A C13A 1_555 1_555
C14VD C13VD 1_555 1_555
C14SD C13SD 1_555 1_555
C14YD C13YD 1_555 1_555
C14JE C13JE 1_555 1_555
C14FE C13FE 1_555 1_555
C14LE C13LE 1_555 1_555
C14DD C13DD 1_555 1_555
C14FD C13FD 1_555 1_555
C14ED C13ED 1_555 1_555
H11B C14B 1_555 1_555
H11A C14A 1_555 1_555
H11VD C14VD 1_555 1_555
H11SD C14SD 1_555 1_555
H11YD C14YD 1_555 1_555
H11JE C14JE 1_555 1_555
H11FE C14FE 1_555 1_555
H11LE C14LE 1_555 1_555
H11DD C14DD 1_555 1_555
H11FD C14FD 1_555 1_555
H11ED C14ED 1_555 1_555
H12B C14B 1_555 1_555
H12A C14A 1_555 1_555
H12VD C14VD 1_555 1_555
H12SD C14SD 1_555 1_555
H12YD C14YD 1_555 1_555
H12JE C14JE 1_555 1_555
H12FE C14FE 1_555 1_555
H12LE C14LE 1_555 1_555
H12DD C14DD 1_555 1_555
H12FD C14FD 1_555 1_555
H12ED C14ED 1_555 1_555
H13B C14B 1_555 1_555
H13A C14A 1_555 1_555
H13VD C14VD 1_555 1_555
H13SD C14SD 1_555 1_555
H13YD C14YD 1_555 1_555
H13JE C14JE 1_555 1_555
H13FE C14FE 1_555 1_555
H13LE C14LE 1_555 1_555
H13DD C14DD 1_555 1_555
H13FD C14FD 1_555 1_555
H13ED C14ED 1_555 1_555
C15FA O7FA 1_555 1_555
C15DD O7DD 1_555 1_555
C15PA O7PA 1_555 1_555
O6 Cd1FA 1_555 1_555
C6 C7 1_555 1_555
C9 C10 1_555 1_555
Cd1FA O4PE 1_555 1_555
Cd1FA O5VD 1_555 1_555
Cd1PA O4PA 1_555 1_555
Cd1PA O4JE 1_555 1_555
Cd1DD O4FA 1_555 1_555
Cd1DD O4VD 1_555 1_555
Cd1DD O4DD 1_555 1_555
Cd1DD O4JB 1_555 1_555
O4JE C1JE 1_555 1_555
O5PA C1DD 1_555 1_555
O5JB C1VD 1_555 1_555
O5J C1FD 1_555 1_555
O5CA C1ED 1_555 1_555
C5A C9A 1_555 1_555
C6A C7A 1_555 1_555
C6B C7B 1_555 1_555
C6VD C7VD 1_555 1_555
C6YD C7YD 1_555 1_555
C6SD C7SD 1_555 1_555
C6JE C7JE 1_555 1_555
C6LE C7LE 1_555 1_555
C6FE C7FE 1_555 1_555
C6DD C7DD 1_555 1_555
C6ED C7ED 1_555 1_555
C6FD C7FD 1_555 1_555
C8B C10B 1_555 1_555
C9A C10A 1_555 1_555
C9B C10B 1_555 1_555
C9B C10A 1_555 1_555
C9VD C10VD 1_555 1_555
C9VD C10SD 1_555 1_555
C9YD C10VD 1_555 1_555
C9YD C10YD 1_555 1_555
C9SD C10SD 1_555 1_555
C9SD C10YD 1_555 1_555
C9JE C10JE 1_555 1_555
C9JE C10FE 1_555 1_555
C9LE C10JE 1_555 1_555
C9LE C10LE 1_555 1_555
C9FE C10FE 1_555 1_555
C9FE C10LE 1_555 1_555
C9DD C10DD 1_555 1_555
C9DD C10FD 1_555 1_555
C9ED C10DD 1_555 1_555
C9ED C10ED 1_555 1_555
C9FD C10FD 1_555 1_555
C9FD C10ED 1_555 1_555

#END
