
#######################################################################
#
#                 Cambridge Crystallographic Data Centre
#                                CCDC 
#
#######################################################################
#
# If this CIF has been generated from an entry in the Cambridge 
# Structural Database, then it will include bibliographic, chemical, 
# crystal, experimental, refinement or atomic coordinate data resulting 
# from the CCDC's data processing and validation procedures.
#
#######################################################################

data_BUFNIA
_chemical_name_common            
'catena-(Di-lead(ii) bis(oxonium) octakis(mu!6$-5,5,10,10,15,15-hexaethyltruxene-2,7,12-tricarboxylato)-tris(mu!4$-oxo)-dodecaaqua-dodeca-lead(ii) tetrahydrate)'
_chemical_formula_moiety         
'(Pb1 2+)2n,2n(H3 O1 1+),n(C336 H336 O63 Pb12 6-),4n(H2 O1)'
_chemical_name_systematic        
"catena-(Di-lead(ii) bis(oxonium) octakis(\m~6~-5,5,10,10,15,15-hexaethyl-10,15-dihydro-5H-diindeno[1,2-a:1',2'-c]fluorene-2,7,12-tricarboxylato)-tris(\m~4~-oxo)-dodecaaqua-dodeca-lead(ii) tetrahydrate)"
_symmetry_cell_setting           cubic
_symmetry_space_group_name_H-M   'F m -3 c'
_symmetry_Int_Tables_number      226
_space_group_name_Hall           '-F 4a 2 3'
loop_
_symmetry_equiv_pos_site_id
_symmetry_equiv_pos_as_xyz
1 x,y,z
2 1/2-y,1/2+x,1/2+z
3 x,-y,-z
4 z,x,y
5 -x,-y,z
6 1/2+y,1/2+x,1/2-z
7 1/2-x,1/2+z,1/2+y
8 1/2+y,1/2-x,1/2+z
9 -x,y,-z
10 -z,-x,y
11 1/2-y,1/2-x,1/2-z
12 1/2+x,1/2-z,1/2+y
13 z,-x,-y
14 1/2-x,1/2-z,1/2-y
15 -z,x,-y
16 1/2+x,1/2+z,1/2-y
17 y,z,x
18 1/2+z,1/2-y,1/2+x
19 1/2-z,1/2+y,1/2+x
20 1/2+z,1/2+y,1/2-x
21 y,-z,-x
22 1/2-z,1/2-y,1/2-x
23 -y,z,-x
24 -y,-z,x
25 x,1/2+y,1/2+z
26 1/2-y,x,z
27 x,1/2-y,1/2-z
28 z,1/2+x,1/2+y
29 -x,1/2-y,1/2+z
30 1/2+y,x,-z
31 1/2-x,z,y
32 1/2+y,-x,z
33 -x,1/2+y,1/2-z
34 -z,1/2-x,1/2+y
35 1/2-y,-x,-z
36 1/2+x,-z,y
37 z,1/2-x,1/2-y
38 1/2-x,-z,-y
39 -z,1/2+x,1/2-y
40 1/2+x,z,-y
41 y,1/2+z,1/2+x
42 1/2+z,-y,x
43 1/2-z,y,x
44 1/2+z,y,-x
45 y,1/2-z,1/2-x
46 1/2-z,-y,-x
47 -y,1/2+z,1/2-x
48 -y,1/2-z,1/2+x
49 1/2+x,y,1/2+z
50 -y,1/2+x,z
51 1/2+x,-y,1/2-z
52 1/2+z,x,1/2+y
53 1/2-x,-y,1/2+z
54 y,1/2+x,-z
55 -x,1/2+z,y
56 y,1/2-x,z
57 1/2-x,y,1/2-z
58 1/2-z,-x,1/2+y
59 -y,1/2-x,-z
60 x,1/2-z,y
61 1/2+z,-x,1/2-y
62 -x,1/2-z,-y
63 1/2-z,x,1/2-y
64 x,1/2+z,-y
65 1/2+y,z,1/2+x
66 z,1/2-y,x
67 -z,1/2+y,x
68 z,1/2+y,-x
69 1/2+y,-z,1/2-x
70 -z,1/2-y,-x
71 1/2-y,z,1/2-x
72 1/2-y,-z,1/2+x
73 1/2+x,1/2+y,z
74 -y,x,1/2+z
75 1/2+x,1/2-y,-z
76 1/2+z,1/2+x,y
77 1/2-x,1/2-y,z
78 y,x,1/2-z
79 -x,z,1/2+y
80 y,-x,1/2+z
81 1/2-x,1/2+y,-z
82 1/2-z,1/2-x,y
83 -y,-x,1/2-z
84 x,-z,1/2+y
85 1/2+z,1/2-x,-y
86 -x,-z,1/2-y
87 1/2-z,1/2+x,-y
88 x,z,1/2-y
89 1/2+y,1/2+z,x
90 z,-y,1/2+x
91 -z,y,1/2+x
92 z,y,1/2-x
93 1/2+y,1/2-z,-x
94 -z,-y,1/2-x
95 1/2-y,1/2+z,-x
96 1/2-y,1/2-z,x
97 -x,-y,-z
98 1/2+y,1/2-x,1/2-z
99 -x,y,z
100 -z,-x,-y
101 x,y,-z
102 1/2-y,1/2-x,1/2+z
103 1/2+x,1/2-z,1/2-y
104 1/2-y,1/2+x,1/2-z
105 x,-y,z
106 z,x,-y
107 1/2+y,1/2+x,1/2+z
108 1/2-x,1/2+z,1/2-y
109 -z,x,y
110 1/2+x,1/2+z,1/2+y
111 z,-x,y
112 1/2-x,1/2-z,1/2+y
113 -y,-z,-x
114 1/2-z,1/2+y,1/2-x
115 1/2+z,1/2-y,1/2-x
116 1/2-z,1/2-y,1/2+x
117 -y,z,x
118 1/2+z,1/2+y,1/2+x
119 y,-z,x
120 y,z,-x
121 -x,1/2-y,1/2-z
122 1/2+y,-x,-z
123 -x,1/2+y,1/2+z
124 -z,1/2-x,1/2-y
125 x,1/2+y,1/2-z
126 1/2-y,-x,z
127 1/2+x,-z,-y
128 1/2-y,x,-z
129 x,1/2-y,1/2+z
130 z,1/2+x,1/2-y
131 1/2+y,x,z
132 1/2-x,z,-y
133 -z,1/2+x,1/2+y
134 1/2+x,z,y
135 z,1/2-x,1/2+y
136 1/2-x,-z,y
137 -y,1/2-z,1/2-x
138 1/2-z,y,-x
139 1/2+z,-y,-x
140 1/2-z,-y,x
141 -y,1/2+z,1/2+x
142 1/2+z,y,x
143 y,1/2-z,1/2+x
144 y,1/2+z,1/2-x
145 1/2-x,-y,1/2-z
146 y,1/2-x,-z
147 1/2-x,y,1/2+z
148 1/2-z,-x,1/2-y
149 1/2+x,y,1/2-z
150 -y,1/2-x,z
151 x,1/2-z,-y
152 -y,1/2+x,-z
153 1/2+x,-y,1/2+z
154 1/2+z,x,1/2-y
155 y,1/2+x,z
156 -x,1/2+z,-y
157 1/2-z,x,1/2+y
158 x,1/2+z,y
159 1/2+z,-x,1/2+y
160 -x,1/2-z,y
161 1/2-y,-z,1/2-x
162 -z,1/2+y,-x
163 z,1/2-y,-x
164 -z,1/2-y,x
165 1/2-y,z,1/2+x
166 z,1/2+y,x
167 1/2+y,-z,1/2+x
168 1/2+y,z,1/2-x
169 1/2-x,1/2-y,-z
170 y,-x,1/2-z
171 1/2-x,1/2+y,z
172 1/2-z,1/2-x,-y
173 1/2+x,1/2+y,-z
174 -y,-x,1/2+z
175 x,-z,1/2-y
176 -y,x,1/2-z
177 1/2+x,1/2-y,z
178 1/2+z,1/2+x,-y
179 y,x,1/2+z
180 -x,z,1/2-y
181 1/2-z,1/2+x,y
182 x,z,1/2+y
183 1/2+z,1/2-x,y
184 -x,-z,1/2+y
185 1/2-y,1/2-z,-x
186 -z,y,1/2-x
187 z,-y,1/2-x
188 -z,-y,1/2+x
189 1/2-y,1/2+z,x
190 z,y,1/2+x
191 1/2+y,1/2-z,x
192 1/2+y,1/2+z,-x
_cell_length_a                   48.535(6)
_cell_length_b                   48.535(6)
_cell_length_c                   48.535(6)
_cell_angle_alpha                90
_cell_angle_beta                 90
_cell_angle_gamma                90
_cell_volume                     114331
_exptl_crystal_colour            colorless
_exptl_crystal_description       block
_cell_formula_units_Z            8
loop_
_atom_site_label
_atom_site_type_symbol
_atom_site_fract_x
_atom_site_fract_y
_atom_site_fract_z
_atom_site_U_iso_or_equiv
_atom_site_thermal_displace_type
O2 O 0.3453(10) 0.0000 0.1976(9) 0.3470 Uiso
O3 O 0.3135(13) 0.0000 0.0965(14) 0.5100 Uiso
Pb1 Pb 0.280993(15) 0.0000 0.194805(19) 0.1326 Uani
O4 O 0.23974(16) 0.03180(16) 0.19870(19) 0.1150 Uani
O5 O 0.26210(16) 0.03300(15) 0.16022(16) 0.1107 Uani
O6 O 0.2500 0.0000 0.2500 0.0917 Uani
C1 C 0.2434(2) 0.04108(19) 0.1753(2) 0.0947 Uani
C2 C 0.2244(2) 0.0636(2) 0.1652(2) 0.1000 Uani
C3 C 0.2019(2) 0.0716(2) 0.1817(2) 0.1060 Uani
H1 H 0.1983 0.0627 0.1988 0.1270 Uiso
C4 C 0.1853(2) 0.0926(2) 0.1722(2) 0.1007 Uani
C5 C 0.19084(19) 0.1070(2) 0.1484(2) 0.0967 Uani
C6 C 0.2129(2) 0.0982(2) 0.1316(2) 0.1093 Uani
H2 H 0.2167 0.1073 0.1147 0.1310 Uiso
C7 C 0.2288(2) 0.0765(2) 0.1401(2) 0.1013 Uani
H3 H 0.2433 0.0701 0.1286 0.1210 Uiso
C8 C 0.1595(2) 0.1033(2) 0.1870(2) 0.1083 Uani
C9 C 0.1506(2) 0.1272(2) 0.1674(2) 0.0980 Uani
C10 C 0.1701(2) 0.12987(19) 0.1456(2) 0.0953 Uani
C11 C 0.1668(3) 0.1134(3) 0.2149(3) 0.1240 Uani
H4 H 0.1745 0.0978 0.2255 0.1490 Uiso
H5 H 0.1497 0.1193 0.2243 0.1490 Uiso
C12 C 0.1874(3) 0.1371(3) 0.2158(3) 0.1460 Uani
H6 H 0.2028 0.1331 0.2034 0.2180 Uiso
H7 H 0.1943 0.1393 0.2346 0.2180 Uiso
H8 H 0.1783 0.1542 0.2099 0.2180 Uiso
C13 C 0.1377(2) 0.0792(3) 0.1873(3) 0.1247 Uani
H9 H 0.1452 0.0639 0.1984 0.1490 Uiso
H10 H 0.1208 0.0858 0.1966 0.1490 Uiso
C14 C 0.1296(4) 0.0677(3) 0.1587(3) 0.1570 Uani
H11 H 0.1224 0.0827 0.1472 0.2360 Uiso
H12 H 0.1154 0.0535 0.1609 0.2360 Uiso
H13 H 0.1458 0.0596 0.1498 0.2360 Uiso
O7 O 0.3216(5) 0.0000 0.1568(5) 0.2217 Uani
Pb1MC Pb 0.194805(19) 0.0000 0.219007(15) 0.1326 Uani
Pb1DB Pb 0.219007(15) 0.0000 0.305195(19) 0.1326 Uani
Pb1PA Pb 0.305195(19) 0.0000 0.280993(15) 0.1326 Uani
Pb1YB Pb 0.0000 0.280993(15) 0.305195(19) 0.1326 Uani
Pb1P Pb 0.0000 0.194805(19) 0.280993(15) 0.1326 Uani
Pb1IC Pb 0.280993(15) 0.194805(19) 0.5000 0.1326 Uani
Pb1JA Pb 0.194805(19) 0.219007(15) 0.5000 0.1326 Uani
Pb1EB Pb 0.305195(19) -0.280993(15) 0.5000 0.1326 Uani
Pb1EC Pb 0.280993(15) -0.194805(19) 0.5000 0.1326 Uani
Pb1PB Pb 0.5000 -0.194805(19) 0.219007(15) 0.1326 Uani
Pb1E Pb 0.5000 -0.219007(15) 0.305195(19) 0.1326 Uani
Pb1CB Pb 0.0000 0.219007(15) 0.194805(19) 0.1326 Uani
Pb1C Pb 0.194805(19) 0.280993(15) 0.0000 0.1326 Uani
Pb1DA Pb 0.219007(15) 0.194805(19) 0.0000 0.1326 Uani
Pb1EA Pb 0.5000 -0.280993(15) 0.194805(19) 0.1326 Uani
Pb1KA Pb 0.219007(15) -0.194805(19) 0.0000 0.1326 Uani
Pb1HC Pb 0.305195(19) -0.219007(15) 0.0000 0.1326 Uani
O4PA O 0.30130(19) 0.03180(16) 0.23974(16) 0.1150 Uani
O4ZC O 0.23974(16) -0.03180(16) 0.19870(19) 0.1150 Uani
O4IE O 0.30130(19) -0.03180(16) 0.23974(16) 0.1150 Uani
O4DB O 0.26026(16) 0.03180(16) 0.30130(19) 0.1150 Uani
O4MC O 0.19870(19) 0.03180(16) 0.26026(16) 0.1150 Uani
O4NE O 0.26026(16) -0.03180(16) 0.30130(19) 0.1150 Uani
O4DG O 0.19870(19) -0.03180(16) 0.26026(16) 0.1150 Uani
O4YB O 0.03180(16) 0.23974(16) 0.30130(19) 0.1150 Uani
O4IC O 0.23974(16) 0.19870(19) 0.46820(16) 0.1150 Uani
O4QE O 0.30130(19) -0.23974(16) 0.46820(16) 0.1150 Uani
O4DF O 0.46820(16) -0.19870(19) 0.26026(16) 0.1150 Uani
O4P O 0.03180(16) 0.19870(19) 0.23974(16) 0.1150 Uani
O4C O 0.19870(19) 0.23974(16) 0.03180(16) 0.1150 Uani
O4UD O 0.46820(16) -0.23974(16) 0.19870(19) 0.1150 Uani
O4EE O 0.26026(16) -0.19870(19) 0.03180(16) 0.1150 Uani
O5ZC O 0.26210(16) -0.03300(15) 0.16022(16) 0.1107 Uani
O5DB O 0.23790(16) 0.03300(15) 0.33978(16) 0.1107 Uani
O5NE O 0.23790(16) -0.03300(15) 0.33978(16) 0.1107 Uani
O5PA O 0.33978(16) 0.03300(15) 0.26210(16) 0.1107 Uani
O5IE O 0.33978(16) -0.03300(15) 0.26210(16) 0.1107 Uani
O5MC O 0.16022(16) 0.03300(15) 0.23790(16) 0.1107 Uani
O5DG O 0.16022(16) -0.03300(15) 0.23790(16) 0.1107 Uani
O5YB O 0.03300(15) 0.26210(16) 0.33978(16) 0.1107 Uani
O5IC O 0.26210(16) 0.16022(16) 0.46700(15) 0.1107 Uani
O5QE O 0.33978(16) -0.26210(16) 0.46700(15) 0.1107 Uani
O5DF O 0.46700(15) -0.16022(16) 0.23790(16) 0.1107 Uani
O5P O 0.03300(15) 0.16022(16) 0.26210(16) 0.1107 Uani
O5C O 0.16022(16) 0.26210(16) 0.03300(15) 0.1107 Uani
O5UD O 0.46700(15) -0.26210(16) 0.16022(16) 0.1107 Uani
O5EE O 0.23790(16) -0.16022(16) 0.03300(15) 0.1107 Uani
C1MC C 0.1753(2) 0.04108(19) 0.2566(2) 0.0947 Uani
C1YB C 0.04108(19) 0.2434(2) 0.3247(2) 0.0947 Uani
C1IC C 0.2434(2) 0.1753(2) 0.45892(19) 0.0947 Uani
C1NE C 0.2566(2) -0.04108(19) 0.3247(2) 0.0947 Uani
C1QE C 0.3247(2) -0.2434(2) 0.45892(19) 0.0947 Uani
C1DF C 0.45892(19) -0.1753(2) 0.2566(2) 0.0947 Uani
C1P C 0.04108(19) 0.1753(2) 0.2434(2) 0.0947 Uani
C1C C 0.1753(2) 0.2434(2) 0.04108(19) 0.0947 Uani
C1IE C 0.3247(2) -0.04108(19) 0.2434(2) 0.0947 Uani
C1UD C 0.45892(19) -0.2434(2) 0.1753(2) 0.0947 Uani
C1EE C 0.2566(2) -0.1753(2) 0.04108(19) 0.0947 Uani
C2MC C 0.1652(2) 0.0636(2) 0.2756(2) 0.1000 Uani
C2YB C 0.0636(2) 0.2244(2) 0.3348(2) 0.1000 Uani
C2IC C 0.2244(2) 0.1652(2) 0.4364(2) 0.1000 Uani
C2NE C 0.2756(2) -0.0636(2) 0.3348(2) 0.1000 Uani
C2QE C 0.3348(2) -0.2244(2) 0.4364(2) 0.1000 Uani
C2DF C 0.4364(2) -0.1652(2) 0.2756(2) 0.1000 Uani
C2P C 0.0636(2) 0.1652(2) 0.2244(2) 0.1000 Uani
C2C C 0.1652(2) 0.2244(2) 0.0636(2) 0.1000 Uani
C2IE C 0.3348(2) -0.0636(2) 0.2244(2) 0.1000 Uani
C2UD C 0.4364(2) -0.2244(2) 0.1652(2) 0.1000 Uani
C2EE C 0.2756(2) -0.1652(2) 0.0636(2) 0.1000 Uani
C3MC C 0.1817(2) 0.0716(2) 0.2981(2) 0.1060 Uani
C3YB C 0.0716(2) 0.2019(2) 0.3183(2) 0.1060 Uani
C3IC C 0.2019(2) 0.1817(2) 0.4284(2) 0.1060 Uani
C3NE C 0.2981(2) -0.0716(2) 0.3183(2) 0.1060 Uani
C3QE C 0.3183(2) -0.2019(2) 0.4284(2) 0.1060 Uani
C3DF C 0.4284(2) -0.1817(2) 0.2981(2) 0.1060 Uani
C3P C 0.0716(2) 0.1817(2) 0.2019(2) 0.1060 Uani
C3C C 0.1817(2) 0.2019(2) 0.0716(2) 0.1060 Uani
C3IE C 0.3183(2) -0.0716(2) 0.2019(2) 0.1060 Uani
C3UD C 0.4284(2) -0.2019(2) 0.1817(2) 0.1060 Uani
C3EE C 0.2981(2) -0.1817(2) 0.0716(2) 0.1060 Uani
H1MC H 0.1988 0.0627 0.3017 0.1270 Uiso
H1YB H 0.0627 0.1983 0.3012 0.1270 Uiso
H1IC H 0.1983 0.1988 0.4373 0.1270 Uiso
H1NE H 0.3017 -0.0627 0.3012 0.1270 Uiso
H1QE H 0.3012 -0.1983 0.4373 0.1270 Uiso
H1DF H 0.4373 -0.1988 0.3017 0.1270 Uiso
H1P H 0.0627 0.1988 0.1983 0.1270 Uiso
H1C H 0.1988 0.1983 0.0627 0.1270 Uiso
H1IE H 0.3012 -0.0627 0.1983 0.1270 Uiso
H1UD H 0.4373 -0.1983 0.1988 0.1270 Uiso
H1EE H 0.3017 -0.1988 0.0627 0.1270 Uiso
C4MC C 0.1722(2) 0.0926(2) 0.3147(2) 0.1007 Uani
C4YB C 0.0926(2) 0.1853(2) 0.3278(2) 0.1007 Uani
C4IC C 0.1853(2) 0.1722(2) 0.4074(2) 0.1007 Uani
C4NE C 0.3147(2) -0.0926(2) 0.3278(2) 0.1007 Uani
C4QE C 0.3278(2) -0.1853(2) 0.4074(2) 0.1007 Uani
C4DF C 0.4074(2) -0.1722(2) 0.3147(2) 0.1007 Uani
C4P C 0.0926(2) 0.1722(2) 0.1853(2) 0.1007 Uani
C4C C 0.1722(2) 0.1853(2) 0.0926(2) 0.1007 Uani
C4IE C 0.3278(2) -0.0926(2) 0.1853(2) 0.1007 Uani
C4UD C 0.4074(2) -0.1853(2) 0.1722(2) 0.1007 Uani
C4EE C 0.3147(2) -0.1722(2) 0.0926(2) 0.1007 Uani
C5MC C 0.1484(2) 0.1070(2) 0.30916(19) 0.0967 Uani
C5IC C 0.19084(19) 0.1484(2) 0.3930(2) 0.0967 Uani
C5YB C 0.1070(2) 0.19084(19) 0.3516(2) 0.0967 Uani
C5NE C 0.30916(19) -0.1070(2) 0.3516(2) 0.0967 Uani
C5DF C 0.3930(2) -0.1484(2) 0.30916(19) 0.0967 Uani
C5QE C 0.3516(2) -0.19084(19) 0.3930(2) 0.0967 Uani
C5P C 0.1070(2) 0.1484(2) 0.19084(19) 0.0967 Uani
C5C C 0.1484(2) 0.19084(19) 0.1070(2) 0.0967 Uani
C5IE C 0.3516(2) -0.1070(2) 0.19084(19) 0.0967 Uani
C5EE C 0.30916(19) -0.1484(2) 0.1070(2) 0.0967 Uani
C5UD C 0.3930(2) -0.19084(19) 0.1484(2) 0.0967 Uani
C6MC C 0.1316(2) 0.0982(2) 0.2871(2) 0.1093 Uani
C6IC C 0.2129(2) 0.1316(2) 0.4018(2) 0.1093 Uani
C6YB C 0.0982(2) 0.2129(2) 0.3684(2) 0.1093 Uani
C6NE C 0.2871(2) -0.0982(2) 0.3684(2) 0.1093 Uani
C6DF C 0.4018(2) -0.1316(2) 0.2871(2) 0.1093 Uani
C6QE C 0.3684(2) -0.2129(2) 0.4018(2) 0.1093 Uani
C6P C 0.0982(2) 0.1316(2) 0.2129(2) 0.1093 Uani
C6C C 0.1316(2) 0.2129(2) 0.0982(2) 0.1093 Uani
C6IE C 0.3684(2) -0.0982(2) 0.2129(2) 0.1093 Uani
C6EE C 0.2871(2) -0.1316(2) 0.0982(2) 0.1093 Uani
C6UD C 0.4018(2) -0.2129(2) 0.1316(2) 0.1093 Uani
H2MC H 0.1147 0.1073 0.2833 0.1310 Uiso
H2IC H 0.2167 0.1147 0.3927 0.1310 Uiso
H2YB H 0.1073 0.2167 0.3853 0.1310 Uiso
H2NE H 0.2833 -0.1073 0.3853 0.1310 Uiso
H2DF H 0.3927 -0.1147 0.2833 0.1310 Uiso
H2QE H 0.3853 -0.2167 0.3927 0.1310 Uiso
H2P H 0.1073 0.1147 0.2167 0.1310 Uiso
H2C H 0.1147 0.2167 0.1073 0.1310 Uiso
H2IE H 0.3853 -0.1073 0.2167 0.1310 Uiso
H2EE H 0.2833 -0.1147 0.1073 0.1310 Uiso
H2UD H 0.3927 -0.2167 0.1147 0.1310 Uiso
C7MC C 0.1401(2) 0.0765(2) 0.2712(2) 0.1013 Uani
C7IC C 0.2288(2) 0.1401(2) 0.4235(2) 0.1013 Uani
C7YB C 0.0765(2) 0.2288(2) 0.3599(2) 0.1013 Uani
C7NE C 0.2712(2) -0.0765(2) 0.3599(2) 0.1013 Uani
C7DF C 0.4235(2) -0.1401(2) 0.2712(2) 0.1013 Uani
C7QE C 0.3599(2) -0.2288(2) 0.4235(2) 0.1013 Uani
C7P C 0.0765(2) 0.1401(2) 0.2288(2) 0.1013 Uani
C7C C 0.1401(2) 0.2288(2) 0.0765(2) 0.1013 Uani
C7IE C 0.3599(2) -0.0765(2) 0.2288(2) 0.1013 Uani
C7EE C 0.2712(2) -0.1401(2) 0.0765(2) 0.1013 Uani
C7UD C 0.4235(2) -0.2288(2) 0.1401(2) 0.1013 Uani
H3MC H 0.1286 0.0701 0.2567 0.1210 Uiso
H3IC H 0.2433 0.1286 0.4299 0.1210 Uiso
H3YB H 0.0701 0.2433 0.3714 0.1210 Uiso
H3NE H 0.2567 -0.0701 0.3714 0.1210 Uiso
H3DF H 0.4299 -0.1286 0.2567 0.1210 Uiso
H3QE H 0.3714 -0.2433 0.4299 0.1210 Uiso
H3P H 0.0701 0.1286 0.2433 0.1210 Uiso
H3C H 0.1286 0.2433 0.0701 0.1210 Uiso
H3IE H 0.3714 -0.0701 0.2433 0.1210 Uiso
H3EE H 0.2567 -0.1286 0.0701 0.1210 Uiso
H3UD H 0.4299 -0.2433 0.1286 0.1210 Uiso
C8MC C 0.1870(2) 0.1033(2) 0.3405(2) 0.1083 Uani
C8YB C 0.1033(2) 0.1595(2) 0.3130(2) 0.1083 Uani
C8IC C 0.1595(2) 0.1870(2) 0.3967(2) 0.1083 Uani
C8NE C 0.3405(2) -0.1033(2) 0.3130(2) 0.1083 Uani
C8QE C 0.3130(2) -0.1595(2) 0.3967(2) 0.1083 Uani
C8DF C 0.3967(2) -0.1870(2) 0.3405(2) 0.1083 Uani
C8C C 0.1870(2) 0.1595(2) 0.1033(2) 0.1083 Uani
C8P C 0.1033(2) 0.1870(2) 0.1595(2) 0.1083 Uani
C8IE C 0.3130(2) -0.1033(2) 0.1595(2) 0.1083 Uani
C8UD C 0.3967(2) -0.1595(2) 0.1870(2) 0.1083 Uani
C8EE C 0.3405(2) -0.1870(2) 0.1033(2) 0.1083 Uani
C9C C 0.1674(2) 0.1506(2) 0.1272(2) 0.0980 Uani
C9MC C 0.1674(2) 0.1272(2) 0.3494(2) 0.0980 Uani
C9YB C 0.1272(2) 0.1506(2) 0.3326(2) 0.0980 Uani
C9IC C 0.1506(2) 0.1674(2) 0.3728(2) 0.0980 Uani
C9NE C 0.3494(2) -0.1272(2) 0.3326(2) 0.0980 Uani
C9QE C 0.3326(2) -0.1506(2) 0.3728(2) 0.0980 Uani
C9DF C 0.3728(2) -0.1674(2) 0.3494(2) 0.0980 Uani
C9P C 0.1272(2) 0.1674(2) 0.1506(2) 0.0980 Uani
C9IE C 0.3326(2) -0.1272(2) 0.1506(2) 0.0980 Uani
C9UD C 0.3728(2) -0.1506(2) 0.1674(2) 0.0980 Uani
C9EE C 0.3494(2) -0.1674(2) 0.1272(2) 0.0980 Uani
C10P C 0.12987(19) 0.1456(2) 0.1701(2) 0.0953 Uani
C10MC C 0.1456(2) 0.12987(19) 0.3299(2) 0.0953 Uani
C10IC C 0.1701(2) 0.1456(2) 0.37013(19) 0.0953 Uani
C10YB C 0.12987(19) 0.1701(2) 0.3544(2) 0.0953 Uani
C10NE C 0.3299(2) -0.12987(19) 0.3544(2) 0.0953 Uani
C10DF C 0.37013(19) -0.1456(2) 0.3299(2) 0.0953 Uani
C10QE C 0.3544(2) -0.1701(2) 0.37013(19) 0.0953 Uani
C10C C 0.1456(2) 0.1701(2) 0.12987(19) 0.0953 Uani
C10IE C 0.3544(2) -0.12987(19) 0.1701(2) 0.0953 Uani
C10EE C 0.3299(2) -0.1456(2) 0.12987(19) 0.0953 Uani
C10UD C 0.37013(19) -0.1701(2) 0.1456(2) 0.0953 Uani
C11MC C 0.2149(3) 0.1134(3) 0.3332(3) 0.1240 Uani
C11YB C 0.1134(3) 0.1668(3) 0.2851(3) 0.1240 Uani
C11IC C 0.1668(3) 0.2149(3) 0.3866(3) 0.1240 Uani
C11NE C 0.3332(3) -0.1134(3) 0.2851(3) 0.1240 Uani
C11QE C 0.2851(3) -0.1668(3) 0.3866(3) 0.1240 Uani
C11DF C 0.3866(3) -0.2149(3) 0.3332(3) 0.1240 Uani
C11C C 0.2149(3) 0.1668(3) 0.1134(3) 0.1240 Uani
C11P C 0.1134(3) 0.2149(3) 0.1668(3) 0.1240 Uani
C11IE C 0.2851(3) -0.1134(3) 0.1668(3) 0.1240 Uani
C11UD C 0.3866(3) -0.1668(3) 0.2149(3) 0.1240 Uani
C11EE C 0.3332(3) -0.2149(3) 0.1134(3) 0.1240 Uani
H4MC H 0.2255 0.0978 0.3255 0.1490 Uiso
H4YB H 0.0978 0.1745 0.2745 0.1490 Uiso
H4IC H 0.1745 0.2255 0.4022 0.1490 Uiso
H4NE H 0.3255 -0.0978 0.2745 0.1490 Uiso
H4QE H 0.2745 -0.1745 0.4022 0.1490 Uiso
H4DF H 0.4022 -0.2255 0.3255 0.1490 Uiso
H4C H 0.2255 0.1745 0.0978 0.1490 Uiso
H4P H 0.0978 0.2255 0.1745 0.1490 Uiso
H4IE H 0.2745 -0.0978 0.1745 0.1490 Uiso
H4UD H 0.4022 -0.1745 0.2255 0.1490 Uiso
H4EE H 0.3255 -0.2255 0.0978 0.1490 Uiso
H5MC H 0.2243 0.1193 0.3503 0.1490 Uiso
H5YB H 0.1193 0.1497 0.2757 0.1490 Uiso
H5IC H 0.1497 0.2243 0.3807 0.1490 Uiso
H5NE H 0.3503 -0.1193 0.2757 0.1490 Uiso
H5QE H 0.2757 -0.1497 0.3807 0.1490 Uiso
H5DF H 0.3807 -0.2243 0.3503 0.1490 Uiso
H5C H 0.2243 0.1497 0.1193 0.1490 Uiso
H5P H 0.1193 0.2243 0.1497 0.1490 Uiso
H5IE H 0.2757 -0.1193 0.1497 0.1490 Uiso
H5UD H 0.3807 -0.1497 0.2243 0.1490 Uiso
H5EE H 0.3503 -0.2243 0.1193 0.1490 Uiso
C12MC C 0.2158(3) 0.1371(3) 0.3126(3) 0.1460 Uani
C12YB C 0.1371(3) 0.1874(3) 0.2842(3) 0.1460 Uani
C12IC C 0.1874(3) 0.2158(3) 0.3629(3) 0.1460 Uani
C12NE C 0.3126(3) -0.1371(3) 0.2842(3) 0.1460 Uani
C12QE C 0.2842(3) -0.1874(3) 0.3629(3) 0.1460 Uani
C12DF C 0.3629(3) -0.2158(3) 0.3126(3) 0.1460 Uani
C12C C 0.2158(3) 0.1874(3) 0.1371(3) 0.1460 Uani
C12P C 0.1371(3) 0.2158(3) 0.1874(3) 0.1460 Uani
C12IE C 0.2842(3) -0.1371(3) 0.1874(3) 0.1460 Uani
C12UD C 0.3629(3) -0.1874(3) 0.2158(3) 0.1460 Uani
C12EE C 0.3126(3) -0.2158(3) 0.1371(3) 0.1460 Uani
H6MC H 0.2034 0.1331 0.2972 0.2180 Uiso
H6YB H 0.1331 0.2028 0.2966 0.2180 Uiso
H6IC H 0.2028 0.2034 0.3669 0.2180 Uiso
H6NE H 0.2972 -0.1331 0.2966 0.2180 Uiso
H6QE H 0.2966 -0.2028 0.3669 0.2180 Uiso
H6DF H 0.3669 -0.2034 0.2972 0.2180 Uiso
H6C H 0.2034 0.2028 0.1331 0.2180 Uiso
H6P H 0.1331 0.2034 0.2028 0.2180 Uiso
H6IE H 0.2966 -0.1331 0.2028 0.2180 Uiso
H6UD H 0.3669 -0.2028 0.2034 0.2180 Uiso
H6EE H 0.2972 -0.2034 0.1331 0.2180 Uiso
H7MC H 0.2346 0.1393 0.3057 0.2180 Uiso
H7YB H 0.1393 0.1943 0.2654 0.2180 Uiso
H7IC H 0.1943 0.2346 0.3607 0.2180 Uiso
H7NE H 0.3057 -0.1393 0.2654 0.2180 Uiso
H7QE H 0.2654 -0.1943 0.3607 0.2180 Uiso
H7DF H 0.3607 -0.2346 0.3057 0.2180 Uiso
H7C H 0.2346 0.1943 0.1393 0.2180 Uiso
H7P H 0.1393 0.2346 0.1943 0.2180 Uiso
H7IE H 0.2654 -0.1393 0.1943 0.2180 Uiso
H7UD H 0.3607 -0.1943 0.2346 0.2180 Uiso
H7EE H 0.3057 -0.2346 0.1393 0.2180 Uiso
H8MC H 0.2099 0.1542 0.3217 0.2180 Uiso
H8YB H 0.1542 0.1783 0.2901 0.2180 Uiso
H8IC H 0.1783 0.2099 0.3458 0.2180 Uiso
H8NE H 0.3217 -0.1542 0.2901 0.2180 Uiso
H8QE H 0.2901 -0.1783 0.3458 0.2180 Uiso
H8DF H 0.3458 -0.2099 0.3217 0.2180 Uiso
H8C H 0.2099 0.1783 0.1542 0.2180 Uiso
H8P H 0.1542 0.2099 0.1783 0.2180 Uiso
H8IE H 0.2901 -0.1542 0.1783 0.2180 Uiso
H8UD H 0.3458 -0.1783 0.2099 0.2180 Uiso
H8EE H 0.3217 -0.2099 0.1542 0.2180 Uiso
C13MC C 0.1873(3) 0.0792(3) 0.3623(2) 0.1247 Uani
C13YB C 0.0792(3) 0.1377(2) 0.3127(3) 0.1247 Uani
C13IC C 0.1377(2) 0.1873(3) 0.4208(3) 0.1247 Uani
C13NE C 0.3623(2) -0.0792(3) 0.3127(3) 0.1247 Uani
C13QE C 0.3127(3) -0.1377(2) 0.4208(3) 0.1247 Uani
C13DF C 0.4208(3) -0.1873(3) 0.3623(2) 0.1247 Uani
C13C C 0.1873(3) 0.1377(2) 0.0792(3) 0.1247 Uani
C13P C 0.0792(3) 0.1873(3) 0.1377(2) 0.1247 Uani
C13IE C 0.3127(3) -0.0792(3) 0.1377(2) 0.1247 Uani
C13UD C 0.4208(3) -0.1377(2) 0.1873(3) 0.1247 Uani
C13EE C 0.3623(2) -0.1873(3) 0.0792(3) 0.1247 Uani
H9MC H 0.1984 0.0639 0.3548 0.1490 Uiso
H9YB H 0.0639 0.1452 0.3016 0.1490 Uiso
H9IC H 0.1452 0.1984 0.4361 0.1490 Uiso
H9NE H 0.3548 -0.0639 0.3016 0.1490 Uiso
H9QE H 0.3016 -0.1452 0.4361 0.1490 Uiso
H9DF H 0.4361 -0.1984 0.3548 0.1490 Uiso
H9C H 0.1984 0.1452 0.0639 0.1490 Uiso
H9P H 0.0639 0.1984 0.1452 0.1490 Uiso
H9IE H 0.3016 -0.0639 0.1452 0.1490 Uiso
H9UD H 0.4361 -0.1452 0.1984 0.1490 Uiso
H9EE H 0.3548 -0.1984 0.0639 0.1490 Uiso
H10MC H 0.1966 0.0858 0.3792 0.1490 Uiso
H10YB H 0.0858 0.1208 0.3034 0.1490 Uiso
H10IC H 0.1208 0.1966 0.4142 0.1490 Uiso
H10NE H 0.3792 -0.0858 0.3034 0.1490 Uiso
H10QE H 0.3034 -0.1208 0.4142 0.1490 Uiso
H10DF H 0.4142 -0.1966 0.3792 0.1490 Uiso
H10C H 0.1966 0.1208 0.0858 0.1490 Uiso
H10P H 0.0858 0.1966 0.1208 0.1490 Uiso
H10IE H 0.3034 -0.0858 0.1208 0.1490 Uiso
H10UD H 0.4142 -0.1208 0.1966 0.1490 Uiso
H10EE H 0.3792 -0.1966 0.0858 0.1490 Uiso
C14MC C 0.1587(3) 0.0677(3) 0.3704(4) 0.1570 Uani
C14YB C 0.0677(3) 0.1296(4) 0.3413(3) 0.1570 Uani
C14IC C 0.1296(4) 0.1587(3) 0.4323(3) 0.1570 Uani
C14NE C 0.3704(4) -0.0677(3) 0.3413(3) 0.1570 Uani
C14QE C 0.3413(3) -0.1296(4) 0.4323(3) 0.1570 Uani
C14DF C 0.4323(3) -0.1587(3) 0.3704(4) 0.1570 Uani
C14C C 0.1587(3) 0.1296(4) 0.0677(3) 0.1570 Uani
C14P C 0.0677(3) 0.1587(3) 0.1296(4) 0.1570 Uani
C14IE C 0.3413(3) -0.0677(3) 0.1296(4) 0.1570 Uani
C14UD C 0.4323(3) -0.1296(4) 0.1587(3) 0.1570 Uani
C14EE C 0.3704(4) -0.1587(3) 0.0677(3) 0.1570 Uani
H11MC H 0.1472 0.0827 0.3776 0.2360 Uiso
H11YB H 0.0827 0.1224 0.3528 0.2360 Uiso
H11IC H 0.1224 0.1472 0.4173 0.2360 Uiso
H11NE H 0.3776 -0.0827 0.3528 0.2360 Uiso
H11QE H 0.3528 -0.1224 0.4173 0.2360 Uiso
H11DF H 0.4173 -0.1472 0.3776 0.2360 Uiso
H11C H 0.1472 0.1224 0.0827 0.2360 Uiso
H11P H 0.0827 0.1472 0.1224 0.2360 Uiso
H11IE H 0.3528 -0.0827 0.1224 0.2360 Uiso
H11UD H 0.4173 -0.1224 0.1472 0.2360 Uiso
H11EE H 0.3776 -0.1472 0.0827 0.2360 Uiso
H12MC H 0.1609 0.0535 0.3846 0.2360 Uiso
H12YB H 0.0535 0.1154 0.3391 0.2360 Uiso
H12IC H 0.1154 0.1609 0.4465 0.2360 Uiso
H12NE H 0.3846 -0.0535 0.3391 0.2360 Uiso
H12QE H 0.3391 -0.1154 0.4465 0.2360 Uiso
H12DF H 0.4465 -0.1609 0.3846 0.2360 Uiso
H12C H 0.1609 0.1154 0.0535 0.2360 Uiso
H12P H 0.0535 0.1609 0.1154 0.2360 Uiso
H12IE H 0.3391 -0.0535 0.1154 0.2360 Uiso
H12UD H 0.4465 -0.1154 0.1609 0.2360 Uiso
H12EE H 0.3846 -0.1609 0.0535 0.2360 Uiso
H13MC H 0.1498 0.0596 0.3542 0.2360 Uiso
H13YB H 0.0596 0.1458 0.3502 0.2360 Uiso
H13IC H 0.1458 0.1498 0.4404 0.2360 Uiso
H13NE H 0.3542 -0.0596 0.3502 0.2360 Uiso
H13QE H 0.3502 -0.1458 0.4404 0.2360 Uiso
H13DF H 0.4404 -0.1498 0.3542 0.2360 Uiso
H13C H 0.1498 0.1458 0.0596 0.2360 Uiso
H13P H 0.0596 0.1498 0.1458 0.2360 Uiso
H13IE H 0.3502 -0.0596 0.1458 0.2360 Uiso
H13UD H 0.4404 -0.1458 0.1498 0.2360 Uiso
H13EE H 0.3542 -0.1498 0.0596 0.2360 Uiso
O7DB O 0.1784(5) 0.0000 0.3432(5) 0.2217 Uani
O7PA O 0.3432(5) 0.0000 0.3216(5) 0.2217 Uani
O7MC O 0.1568(5) 0.0000 0.1784(5) 0.2217 Uani
O1 O 0.25321(13) 0.0000 0.11913(10) 0.0507 Uani
O8? O 0.2716(6) 0.0000 0.1174(6) 0.2340 Uiso
O9? O 0.3677(9) 0.0000 0.1658(9) 0.3730 Uiso
loop_
_atom_site_aniso_label
_atom_site_aniso_U_11
_atom_site_aniso_U_22
_atom_site_aniso_U_33
_atom_site_aniso_U_23
_atom_site_aniso_U_13
_atom_site_aniso_U_12
Pb1 0.1169(7) 0.0837(6) 0.1973(9) 0.000 -0.0444(4) 0.000
O4 0.105(5) 0.094(5) 0.146(7) 0.016(4) 0.010(4) 0.011(3)
O5 0.112(5) 0.095(4) 0.125(5) 0.021(4) 0.011(4) 0.015(4)
O6 0.095(6) 0.085(10) 0.095(6) 0.000 0.000 0.000
C1 0.091(6) 0.078(6) 0.115(8) 0.008(5) 0.011(6) -0.008(5)
C2 0.094(6) 0.080(6) 0.126(8) 0.014(5) 0.000(6) 0.001(5)
C3 0.107(7) 0.081(6) 0.130(8) 0.025(5) 0.021(6) 0.010(5)
C4 0.087(6) 0.089(6) 0.126(8) 0.011(6) 0.016(5) 0.010(5)
C5 0.087(6) 0.098(6) 0.105(7) 0.012(5) 0.012(5) 0.010(5)
C6 0.109(7) 0.115(8) 0.104(7) 0.015(6) 0.022(6) 0.021(6)
C7 0.092(6) 0.096(6) 0.116(7) 0.003(6) 0.009(5) 0.007(5)
C8 0.116(8) 0.102(7) 0.107(7) 0.030(6) 0.026(6) 0.031(6)
C9 0.094 0.098 0.102 0.015 0.014 0.009
C10 0.104(6) 0.085(6) 0.097(6) 0.018(5) 0.013(5) 0.014(5)
C11 0.125(9) 0.127(9) 0.120(9) 0.032(7) 0.022(7) 0.029(7)
C12 0.173(13) 0.144(12) 0.121(9) -0.019(8) -0.026(9) 0.021(10)
C13 0.102(7) 0.118(8) 0.154(11) 0.021(7) 0.022(7) 0.011(7)
C14 0.154(12) 0.152(12) 0.165(13) 0.003(10) -0.017(10) -0.030(10)
O7 0.25(2) 0.125(10) 0.29(2) 0.000 0.137(19) 0.000
Pb1MC 0.1973 0.0837 0.1169 0 0.0444 0
Pb1DB 0.1169 0.0837 0.1973 0 -0.0444 0
Pb1PA 0.1973 0.0837 0.1169 0 0.0444 0
Pb1YB 0.0837 0.1169 0.1973 0.0444 0 0
Pb1P 0.0837 0.1973 0.1169 -0.0444 0 0
Pb1IC 0.1169 0.1973 0.0837 0 0 -0.0444
Pb1JA 0.1973 0.1169 0.0837 0 0 0.0444
Pb1EB 0.1973 0.1169 0.0837 0 0 -0.0444
Pb1EC 0.1169 0.1973 0.0837 0 0 0.0444
Pb1PB 0.0837 0.1973 0.1169 -0.0444 0 0
Pb1E 0.0837 0.1169 0.1973 0.0444 0 0
Pb1CB 0.0837 0.1169 0.1973 0.0444 0 0
Pb1C 0.1973 0.1169 0.0837 0 0 -0.0444
Pb1DA 0.1169 0.1973 0.0837 0 0 0.0444
Pb1EA 0.0837 0.1169 0.1973 0.0444 0 0
Pb1KA 0.1169 0.1973 0.0837 0 0 -0.0444
Pb1HC 0.1973 0.1169 0.0837 0 0 0.0444
O4PA 0.146 0.094 0.105 0.011 -0.01 -0.016
O4ZC 0.105 0.094 0.146 -0.016 0.01 -0.011
O4IE 0.146 0.094 0.105 -0.011 -0.01 0.016
O4DB 0.105 0.094 0.146 -0.016 0.01 -0.011
O4MC 0.146 0.094 0.105 -0.011 -0.01 0.016
O4NE 0.105 0.094 0.146 0.016 0.01 0.011
O4DG 0.146 0.094 0.105 0.011 -0.01 -0.016
O4YB 0.094 0.105 0.146 -0.01 -0.016 0.011
O4IC 0.105 0.146 0.094 -0.016 -0.011 0.01
O4QE 0.146 0.105 0.094 0.011 0.016 0.01
O4DF 0.094 0.146 0.105 0.01 0.011 0.016
O4P 0.094 0.146 0.105 0.01 0.011 0.016
O4C 0.146 0.105 0.094 0.011 0.016 0.01
O4UD 0.094 0.105 0.146 -0.01 -0.016 0.011
O4EE 0.105 0.146 0.094 -0.016 -0.011 0.01
O5ZC 0.112 0.095 0.125 -0.021 0.011 -0.015
O5DB 0.112 0.095 0.125 -0.021 0.011 -0.015
O5NE 0.112 0.095 0.125 0.021 0.011 0.015
O5PA 0.125 0.095 0.112 0.015 -0.011 -0.021
O5IE 0.125 0.095 0.112 -0.015 -0.011 0.021
O5MC 0.125 0.095 0.112 -0.015 -0.011 0.021
O5DG 0.125 0.095 0.112 0.015 -0.011 -0.021
O5YB 0.095 0.112 0.125 -0.011 -0.021 0.015
O5IC 0.112 0.125 0.095 -0.021 -0.015 0.011
O5QE 0.125 0.112 0.095 0.015 0.021 0.011
O5DF 0.095 0.125 0.112 0.011 0.015 0.021
O5P 0.095 0.125 0.112 0.011 0.015 0.021
O5C 0.125 0.112 0.095 0.015 0.021 0.011
O5UD 0.095 0.112 0.125 -0.011 -0.021 0.015
O5EE 0.112 0.125 0.095 -0.021 -0.015 0.011
C1MC 0.115 0.078 0.091 0.008 -0.011 0.008
C1YB 0.078 0.091 0.115 -0.011 -0.008 -0.008
C1IC 0.091 0.115 0.078 -0.008 0.008 0.011
C1NE 0.091 0.078 0.115 0.008 0.011 -0.008
C1QE 0.115 0.091 0.078 -0.008 0.008 0.011
C1DF 0.078 0.115 0.091 0.011 -0.008 0.008
C1P 0.078 0.115 0.091 0.011 -0.008 0.008
C1C 0.115 0.091 0.078 -0.008 0.008 0.011
C1IE 0.115 0.078 0.091 0.008 -0.011 0.008
C1UD 0.078 0.091 0.115 -0.011 -0.008 -0.008
C1EE 0.091 0.115 0.078 -0.008 0.008 0.011
C2MC 0.126 0.08 0.094 -0.001 0 0.014
C2YB 0.08 0.094 0.126 0 -0.014 0.001
C2IC 0.094 0.126 0.08 -0.014 -0.001 0
C2NE 0.094 0.08 0.126 0.014 0 0.001
C2QE 0.126 0.094 0.08 0.001 0.014 0
C2DF 0.08 0.126 0.094 0 0.001 0.014
C2P 0.08 0.126 0.094 0 0.001 0.014
C2C 0.126 0.094 0.08 0.001 0.014 0
C2IE 0.126 0.08 0.094 -0.001 0 0.014
C2UD 0.08 0.094 0.126 0 -0.014 0.001
C2EE 0.094 0.126 0.08 -0.014 -0.001 0
C3MC 0.13 0.081 0.107 -0.01 -0.021 0.025
C3YB 0.081 0.107 0.13 -0.021 -0.025 0.01
C3IC 0.107 0.13 0.081 -0.025 -0.01 0.021
C3NE 0.107 0.081 0.13 0.025 0.021 0.01
C3QE 0.13 0.107 0.081 0.01 0.025 0.021
C3DF 0.081 0.13 0.107 0.021 0.01 0.025
C3P 0.081 0.13 0.107 0.021 0.01 0.025
C3C 0.13 0.107 0.081 0.01 0.025 0.021
C3IE 0.13 0.081 0.107 -0.01 -0.021 0.025
C3UD 0.081 0.107 0.13 -0.021 -0.025 0.01
C3EE 0.107 0.13 0.081 -0.025 -0.01 0.021
C4MC 0.126 0.089 0.087 -0.01 -0.016 0.011
C4YB 0.089 0.087 0.126 -0.016 -0.011 0.01
C4IC 0.087 0.126 0.089 -0.011 -0.01 0.016
C4NE 0.087 0.089 0.126 0.011 0.016 0.01
C4QE 0.126 0.087 0.089 0.01 0.011 0.016
C4DF 0.089 0.126 0.087 0.016 0.01 0.011
C4P 0.089 0.126 0.087 0.016 0.01 0.011
C4C 0.126 0.087 0.089 0.01 0.011 0.016
C4IE 0.126 0.089 0.087 -0.01 -0.016 0.011
C4UD 0.089 0.087 0.126 -0.016 -0.011 0.01
C4EE 0.087 0.126 0.089 -0.011 -0.01 0.016
C5MC 0.105 0.098 0.087 -0.01 -0.012 0.012
C5IC 0.087 0.105 0.098 -0.012 -0.01 0.012
C5YB 0.098 0.087 0.105 -0.012 -0.012 0.01
C5NE 0.087 0.098 0.105 0.012 0.012 0.01
C5DF 0.098 0.105 0.087 0.012 0.01 0.012
C5QE 0.105 0.087 0.098 0.01 0.012 0.012
C5P 0.098 0.105 0.087 0.012 0.01 0.012
C5C 0.105 0.087 0.098 0.01 0.012 0.012
C5IE 0.105 0.098 0.087 -0.01 -0.012 0.012
C5EE 0.087 0.105 0.098 -0.012 -0.01 0.012
C5UD 0.098 0.087 0.105 -0.012 -0.012 0.01
C6MC 0.104 0.115 0.109 -0.021 -0.022 0.015
C6IC 0.109 0.104 0.115 -0.015 -0.021 0.022
C6YB 0.115 0.109 0.104 -0.022 -0.015 0.021
C6NE 0.109 0.115 0.104 0.015 0.022 0.021
C6DF 0.115 0.104 0.109 0.022 0.021 0.015
C6QE 0.104 0.109 0.115 0.021 0.015 0.022
C6P 0.115 0.104 0.109 0.022 0.021 0.015
C6C 0.104 0.109 0.115 0.021 0.015 0.022
C6IE 0.104 0.115 0.109 -0.021 -0.022 0.015
C6EE 0.109 0.104 0.115 -0.015 -0.021 0.022
C6UD 0.115 0.109 0.104 -0.022 -0.015 0.021
C7MC 0.116 0.096 0.092 -0.007 -0.009 0.003
C7IC 0.092 0.116 0.096 -0.003 -0.007 0.009
C7YB 0.096 0.092 0.116 -0.009 -0.003 0.007
C7NE 0.092 0.096 0.116 0.003 0.009 0.007
C7DF 0.096 0.116 0.092 0.009 0.007 0.003
C7QE 0.116 0.092 0.096 0.007 0.003 0.009
C7P 0.096 0.116 0.092 0.009 0.007 0.003
C7C 0.116 0.092 0.096 0.007 0.003 0.009
C7IE 0.116 0.096 0.092 -0.007 -0.009 0.003
C7EE 0.092 0.116 0.096 -0.003 -0.007 0.009
C7UD 0.096 0.092 0.116 -0.009 -0.003 0.007
C8MC 0.107 0.102 0.116 -0.031 -0.026 0.03
C8YB 0.102 0.116 0.107 -0.026 -0.03 0.031
C8IC 0.116 0.107 0.102 -0.03 -0.031 0.026
C8NE 0.116 0.102 0.107 0.03 0.026 0.031
C8QE 0.107 0.116 0.102 0.031 0.03 0.026
C8DF 0.102 0.107 0.116 0.026 0.031 0.03
C8C 0.107 0.116 0.102 0.031 0.03 0.026
C8P 0.102 0.107 0.116 0.026 0.031 0.03
C8IE 0.107 0.102 0.116 -0.031 -0.026 0.03
C8UD 0.102 0.116 0.107 -0.026 -0.03 0.031
C8EE 0.116 0.107 0.102 -0.03 -0.031 0.026
C9C 0.102(6) 0.094(6) 0.098(6) 0.009(5) 0.015(5) 0.014(5)
C9MC 0.102 0.098 0.094 -0.009 -0.014 0.015
C9YB 0.098 0.094 0.102 -0.014 -0.015 0.009
C9IC 0.094 0.102 0.098 -0.015 -0.009 0.014
C9NE 0.094 0.098 0.102 0.015 0.014 0.009
C9QE 0.102 0.094 0.098 0.009 0.015 0.014
C9DF 0.098 0.102 0.094 0.014 0.009 0.015
C9P 0.098 0.102 0.094 0.014 0.009 0.015
C9IE 0.102 0.098 0.094 -0.009 -0.014 0.015
C9UD 0.098 0.094 0.102 -0.014 -0.015 0.009
C9EE 0.094 0.102 0.098 -0.015 -0.009 0.014
C10P 0.085 0.097 0.104 0.013 0.014 0.018
C10MC 0.097 0.085 0.104 -0.014 -0.013 0.018
C10IC 0.104 0.097 0.085 -0.018 -0.014 0.013
C10YB 0.085 0.104 0.097 -0.013 -0.018 0.014
C10NE 0.104 0.085 0.097 0.018 0.013 0.014
C10DF 0.085 0.097 0.104 0.013 0.014 0.018
C10QE 0.097 0.104 0.085 0.014 0.018 0.013
C10C 0.097 0.104 0.085 0.014 0.018 0.013
C10IE 0.097 0.085 0.104 -0.014 -0.013 0.018
C10EE 0.104 0.097 0.085 -0.018 -0.014 0.013
C10UD 0.085 0.104 0.097 -0.013 -0.018 0.014
C11MC 0.12 0.127 0.125 -0.029 -0.022 0.032
C11YB 0.127 0.125 0.12 -0.022 -0.032 0.029
C11IC 0.125 0.12 0.127 -0.032 -0.029 0.022
C11NE 0.125 0.127 0.12 0.032 0.022 0.029
C11QE 0.12 0.125 0.127 0.029 0.032 0.022
C11DF 0.127 0.12 0.125 0.022 0.029 0.032
C11C 0.12 0.125 0.127 0.029 0.032 0.022
C11P 0.127 0.12 0.125 0.022 0.029 0.032
C11IE 0.12 0.127 0.125 -0.029 -0.022 0.032
C11UD 0.127 0.125 0.12 -0.022 -0.032 0.029
C11EE 0.125 0.12 0.127 -0.032 -0.029 0.022
C12MC 0.121 0.144 0.173 -0.021 0.026 -0.019
C12YB 0.144 0.173 0.121 0.026 0.019 0.021
C12IC 0.173 0.121 0.144 0.019 -0.021 -0.026
C12NE 0.173 0.144 0.121 -0.019 -0.026 0.021
C12QE 0.121 0.173 0.144 0.021 -0.019 -0.026
C12DF 0.144 0.121 0.173 -0.026 0.021 -0.019
C12C 0.121 0.173 0.144 0.021 -0.019 -0.026
C12P 0.144 0.121 0.173 -0.026 0.021 -0.019
C12IE 0.121 0.144 0.173 -0.021 0.026 -0.019
C12UD 0.144 0.173 0.121 0.026 0.019 0.021
C12EE 0.173 0.121 0.144 0.019 -0.021 -0.026
C13MC 0.154 0.118 0.102 -0.011 -0.022 0.021
C13YB 0.118 0.102 0.154 -0.022 -0.021 0.011
C13IC 0.102 0.154 0.118 -0.021 -0.011 0.022
C13NE 0.102 0.118 0.154 0.021 0.022 0.011
C13QE 0.154 0.102 0.118 0.011 0.021 0.022
C13DF 0.118 0.154 0.102 0.022 0.011 0.021
C13C 0.154 0.102 0.118 0.011 0.021 0.022
C13P 0.118 0.154 0.102 0.022 0.011 0.021
C13IE 0.154 0.118 0.102 -0.011 -0.022 0.021
C13UD 0.118 0.102 0.154 -0.022 -0.021 0.011
C13EE 0.102 0.154 0.118 -0.021 -0.011 0.022
C14MC 0.165 0.152 0.154 0.03 0.017 0.003
C14YB 0.152 0.154 0.165 0.017 -0.003 -0.03
C14IC 0.154 0.165 0.152 -0.003 0.03 -0.017
C14NE 0.154 0.152 0.165 0.003 -0.017 -0.03
C14QE 0.165 0.154 0.152 -0.03 0.003 -0.017
C14DF 0.152 0.165 0.154 -0.017 -0.03 0.003
C14C 0.165 0.154 0.152 -0.03 0.003 -0.017
C14P 0.152 0.165 0.154 -0.017 -0.03 0.003
C14IE 0.165 0.152 0.154 0.03 0.017 0.003
C14UD 0.152 0.154 0.165 0.017 -0.003 -0.03
C14EE 0.154 0.165 0.152 -0.003 0.03 -0.017
O7DB 0.25 0.125 0.29 0 0.137 0
O7PA 0.29 0.125 0.25 0 -0.137 0
O7MC 0.29 0.125 0.25 0 -0.137 0
O1 0.055(3) 0.057(3) 0.040(3) 0.000 0.000(2) 0.000
loop_
_geom_bond_atom_site_label_1
_geom_bond_atom_site_label_2
_geom_bond_site_symmetry_1
_geom_bond_site_symmetry_2
Pb1 O4 1_555 1_555
O4 C1 1_555 1_555
O5 Pb1 1_555 1_555
O6 Pb1 1_555 1_555
C1 O5 1_555 1_555
C2 C1 1_555 1_555
C3 C2 1_555 1_555
H1 C3 1_555 1_555
C4 C3 1_555 1_555
C5 C4 1_555 1_555
C6 C5 1_555 1_555
H2 C6 1_555 1_555
C7 C2 1_555 1_555
H3 C7 1_555 1_555
C8 C4 1_555 1_555
C9 C8 1_555 1_555
C10 C5 1_555 1_555
C11 C8 1_555 1_555
H4 C11 1_555 1_555
H5 C11 1_555 1_555
C12 C11 1_555 1_555
H6 C12 1_555 1_555
H7 C12 1_555 1_555
H8 C12 1_555 1_555
C13 C8 1_555 1_555
H9 C13 1_555 1_555
H10 C13 1_555 1_555
C14 C13 1_555 1_555
H11 C14 1_555 1_555
H12 C14 1_555 1_555
H13 C14 1_555 1_555
O7 Pb1 1_555 1_555
Pb1MC O4 1_555 1_555
Pb1DB O6 1_555 1_555
Pb1PA O6 1_555 1_555
Pb1YB O4YB 1_555 1_555
Pb1P O4YB 1_555 1_555
Pb1IC O4IC 1_555 1_555
Pb1JA O4IC 1_555 1_555
Pb1EB O4QE 1_555 1_555
Pb1EC O4QE 1_555 1_555
Pb1PB O4DF 1_555 1_555
Pb1E O4DF 1_555 1_555
Pb1CB O4P 1_555 1_555
Pb1C O4C 1_555 1_555
Pb1DA O4C 1_555 1_555
Pb1EA O4UD 1_555 1_555
Pb1KA O4EE 1_555 1_555
Pb1HC O4EE 1_555 1_555
O4PA Pb1 1_555 1_555
O4ZC Pb1 1_555 1_555
O4IE Pb1 1_555 1_555
O4DB Pb1DB 1_555 1_555
O4MC Pb1MC 1_555 1_555
O4NE Pb1DB 1_555 1_555
O4DG Pb1MC 1_555 1_555
O4YB C1YB 1_555 1_555
O4IC C1IC 1_555 1_555
O4QE C1QE 1_555 1_555
O4DF C1DF 1_555 1_555
O4P Pb1P 1_555 1_555
O4C C1C 1_555 1_555
O4UD Pb1PB 1_555 1_555
O4EE C1EE 1_555 1_555
O5ZC Pb1 1_555 1_555
O5DB Pb1DB 1_555 1_555
O5NE Pb1DB 1_555 1_555
O5PA Pb1PA 1_555 1_555
O5IE Pb1PA 1_555 1_555
O5MC Pb1MC 1_555 1_555
O5DG Pb1MC 1_555 1_555
O5YB Pb1YB 1_555 1_555
O5IC Pb1IC 1_555 1_555
O5QE Pb1EB 1_555 1_555
O5DF Pb1PB 1_555 1_555
O5P Pb1P 1_555 1_555
O5C Pb1C 1_555 1_555
O5UD Pb1EA 1_555 1_555
O5EE Pb1KA 1_555 1_555
C1MC O4MC 1_555 1_555
C1YB O5YB 1_555 1_555
C1IC O5IC 1_555 1_555
C1NE O4NE 1_555 1_555
C1QE O5QE 1_555 1_555
C1DF O5DF 1_555 1_555
C1P O4P 1_555 1_555
C1C O5C 1_555 1_555
C1IE O4IE 1_555 1_555
C1UD O4UD 1_555 1_555
C1EE O5EE 1_555 1_555
C2MC C1MC 1_555 1_555
C2YB C1YB 1_555 1_555
C2IC C1IC 1_555 1_555
C2NE C1NE 1_555 1_555
C2QE C1QE 1_555 1_555
C2DF C1DF 1_555 1_555
C2P C1P 1_555 1_555
C2C C1C 1_555 1_555
C2IE C1IE 1_555 1_555
C2UD C1UD 1_555 1_555
C2EE C1EE 1_555 1_555
C3MC C2MC 1_555 1_555
C3YB C2YB 1_555 1_555
C3IC C2IC 1_555 1_555
C3NE C2NE 1_555 1_555
C3QE C2QE 1_555 1_555
C3DF C2DF 1_555 1_555
C3P C2P 1_555 1_555
C3C C2C 1_555 1_555
C3IE C2IE 1_555 1_555
C3UD C2UD 1_555 1_555
C3EE C2EE 1_555 1_555
H1MC C3MC 1_555 1_555
H1YB C3YB 1_555 1_555
H1IC C3IC 1_555 1_555
H1NE C3NE 1_555 1_555
H1QE C3QE 1_555 1_555
H1DF C3DF 1_555 1_555
H1P C3P 1_555 1_555
H1C C3C 1_555 1_555
H1IE C3IE 1_555 1_555
H1UD C3UD 1_555 1_555
H1EE C3EE 1_555 1_555
C4MC C3MC 1_555 1_555
C4YB C3YB 1_555 1_555
C4IC C3IC 1_555 1_555
C4NE C3NE 1_555 1_555
C4QE C3QE 1_555 1_555
C4DF C3DF 1_555 1_555
C4P C3P 1_555 1_555
C4C C3C 1_555 1_555
C4IE C3IE 1_555 1_555
C4UD C3UD 1_555 1_555
C4EE C3EE 1_555 1_555
C5MC C4MC 1_555 1_555
C5IC C4IC 1_555 1_555
C5YB C4YB 1_555 1_555
C5NE C4NE 1_555 1_555
C5DF C4DF 1_555 1_555
C5QE C4QE 1_555 1_555
C5P C4P 1_555 1_555
C5C C4C 1_555 1_555
C5IE C4IE 1_555 1_555
C5EE C4EE 1_555 1_555
C5UD C4UD 1_555 1_555
C6MC C5MC 1_555 1_555
C6IC C5IC 1_555 1_555
C6YB C5YB 1_555 1_555
C6NE C5NE 1_555 1_555
C6DF C5DF 1_555 1_555
C6QE C5QE 1_555 1_555
C6P C5P 1_555 1_555
C6C C5C 1_555 1_555
C6IE C5IE 1_555 1_555
C6EE C5EE 1_555 1_555
C6UD C5UD 1_555 1_555
H2MC C6MC 1_555 1_555
H2IC C6IC 1_555 1_555
H2YB C6YB 1_555 1_555
H2NE C6NE 1_555 1_555
H2DF C6DF 1_555 1_555
H2QE C6QE 1_555 1_555
H2P C6P 1_555 1_555
H2C C6C 1_555 1_555
H2IE C6IE 1_555 1_555
H2EE C6EE 1_555 1_555
H2UD C6UD 1_555 1_555
C7MC C2MC 1_555 1_555
C7IC C2IC 1_555 1_555
C7YB C2YB 1_555 1_555
C7NE C2NE 1_555 1_555
C7DF C2DF 1_555 1_555
C7QE C2QE 1_555 1_555
C7P C2P 1_555 1_555
C7C C2C 1_555 1_555
C7IE C2IE 1_555 1_555
C7EE C2EE 1_555 1_555
C7UD C2UD 1_555 1_555
H3MC C7MC 1_555 1_555
H3IC C7IC 1_555 1_555
H3YB C7YB 1_555 1_555
H3NE C7NE 1_555 1_555
H3DF C7DF 1_555 1_555
H3QE C7QE 1_555 1_555
H3P C7P 1_555 1_555
H3C C7C 1_555 1_555
H3IE C7IE 1_555 1_555
H3EE C7EE 1_555 1_555
H3UD C7UD 1_555 1_555
C8MC C4MC 1_555 1_555
C8YB C4YB 1_555 1_555
C8IC C4IC 1_555 1_555
C8NE C4NE 1_555 1_555
C8QE C4QE 1_555 1_555
C8DF C4DF 1_555 1_555
C8C C4C 1_555 1_555
C8P C4P 1_555 1_555
C8IE C4IE 1_555 1_555
C8UD C4UD 1_555 1_555
C8EE C4EE 1_555 1_555
C9C C10 1_555 1_555
C9MC C8MC 1_555 1_555
C9YB C8YB 1_555 1_555
C9IC C8IC 1_555 1_555
C9NE C8NE 1_555 1_555
C9QE C8QE 1_555 1_555
C9DF C8DF 1_555 1_555
C9P C8P 1_555 1_555
C9IE C8IE 1_555 1_555
C9UD C8UD 1_555 1_555
C9EE C8EE 1_555 1_555
C10P C9 1_555 1_555
C10MC C5MC 1_555 1_555
C10IC C5IC 1_555 1_555
C10YB C5YB 1_555 1_555
C10NE C5NE 1_555 1_555
C10DF C5DF 1_555 1_555
C10QE C5QE 1_555 1_555
C10C C5C 1_555 1_555
C10IE C5IE 1_555 1_555
C10EE C5EE 1_555 1_555
C10UD C5UD 1_555 1_555
C11MC C8MC 1_555 1_555
C11YB C8YB 1_555 1_555
C11IC C8IC 1_555 1_555
C11NE C8NE 1_555 1_555
C11QE C8QE 1_555 1_555
C11DF C8DF 1_555 1_555
C11C C8C 1_555 1_555
C11P C8P 1_555 1_555
C11IE C8IE 1_555 1_555
C11UD C8UD 1_555 1_555
C11EE C8EE 1_555 1_555
H4MC C11MC 1_555 1_555
H4YB C11YB 1_555 1_555
H4IC C11IC 1_555 1_555
H4NE C11NE 1_555 1_555
H4QE C11QE 1_555 1_555
H4DF C11DF 1_555 1_555
H4C C11C 1_555 1_555
H4P C11P 1_555 1_555
H4IE C11IE 1_555 1_555
H4UD C11UD 1_555 1_555
H4EE C11EE 1_555 1_555
H5MC C11MC 1_555 1_555
H5YB C11YB 1_555 1_555
H5IC C11IC 1_555 1_555
H5NE C11NE 1_555 1_555
H5QE C11QE 1_555 1_555
H5DF C11DF 1_555 1_555
H5C C11C 1_555 1_555
H5P C11P 1_555 1_555
H5IE C11IE 1_555 1_555
H5UD C11UD 1_555 1_555
H5EE C11EE 1_555 1_555
C12MC C11MC 1_555 1_555
C12YB C11YB 1_555 1_555
C12IC C11IC 1_555 1_555
C12NE C11NE 1_555 1_555
C12QE C11QE 1_555 1_555
C12DF C11DF 1_555 1_555
C12C C11C 1_555 1_555
C12P C11P 1_555 1_555
C12IE C11IE 1_555 1_555
C12UD C11UD 1_555 1_555
C12EE C11EE 1_555 1_555
H6MC C12MC 1_555 1_555
H6YB C12YB 1_555 1_555
H6IC C12IC 1_555 1_555
H6NE C12NE 1_555 1_555
H6QE C12QE 1_555 1_555
H6DF C12DF 1_555 1_555
H6C C12C 1_555 1_555
H6P C12P 1_555 1_555
H6IE C12IE 1_555 1_555
H6UD C12UD 1_555 1_555
H6EE C12EE 1_555 1_555
H7MC C12MC 1_555 1_555
H7YB C12YB 1_555 1_555
H7IC C12IC 1_555 1_555
H7NE C12NE 1_555 1_555
H7QE C12QE 1_555 1_555
H7DF C12DF 1_555 1_555
H7C C12C 1_555 1_555
H7P C12P 1_555 1_555
H7IE C12IE 1_555 1_555
H7UD C12UD 1_555 1_555
H7EE C12EE 1_555 1_555
H8MC C12MC 1_555 1_555
H8YB C12YB 1_555 1_555
H8IC C12IC 1_555 1_555
H8NE C12NE 1_555 1_555
H8QE C12QE 1_555 1_555
H8DF C12DF 1_555 1_555
H8C C12C 1_555 1_555
H8P C12P 1_555 1_555
H8IE C12IE 1_555 1_555
H8UD C12UD 1_555 1_555
H8EE C12EE 1_555 1_555
C13MC C8MC 1_555 1_555
C13YB C8YB 1_555 1_555
C13IC C8IC 1_555 1_555
C13NE C8NE 1_555 1_555
C13QE C8QE 1_555 1_555
C13DF C8DF 1_555 1_555
C13C C8C 1_555 1_555
C13P C8P 1_555 1_555
C13IE C8IE 1_555 1_555
C13UD C8UD 1_555 1_555
C13EE C8EE 1_555 1_555
H9MC C13MC 1_555 1_555
H9YB C13YB 1_555 1_555
H9IC C13IC 1_555 1_555
H9NE C13NE 1_555 1_555
H9QE C13QE 1_555 1_555
H9DF C13DF 1_555 1_555
H9C C13C 1_555 1_555
H9P C13P 1_555 1_555
H9IE C13IE 1_555 1_555
H9UD C13UD 1_555 1_555
H9EE C13EE 1_555 1_555
H10MC C13MC 1_555 1_555
H10YB C13YB 1_555 1_555
H10IC C13IC 1_555 1_555
H10NE C13NE 1_555 1_555
H10QE C13QE 1_555 1_555
H10DF C13DF 1_555 1_555
H10C C13C 1_555 1_555
H10P C13P 1_555 1_555
H10IE C13IE 1_555 1_555
H10UD C13UD 1_555 1_555
H10EE C13EE 1_555 1_555
C14MC C13MC 1_555 1_555
C14YB C13YB 1_555 1_555
C14IC C13IC 1_555 1_555
C14NE C13NE 1_555 1_555
C14QE C13QE 1_555 1_555
C14DF C13DF 1_555 1_555
C14C C13C 1_555 1_555
C14P C13P 1_555 1_555
C14IE C13IE 1_555 1_555
C14UD C13UD 1_555 1_555
C14EE C13EE 1_555 1_555
H11MC C14MC 1_555 1_555
H11YB C14YB 1_555 1_555
H11IC C14IC 1_555 1_555
H11NE C14NE 1_555 1_555
H11QE C14QE 1_555 1_555
H11DF C14DF 1_555 1_555
H11C C14C 1_555 1_555
H11P C14P 1_555 1_555
H11IE C14IE 1_555 1_555
H11UD C14UD 1_555 1_555
H11EE C14EE 1_555 1_555
H12MC C14MC 1_555 1_555
H12YB C14YB 1_555 1_555
H12IC C14IC 1_555 1_555
H12NE C14NE 1_555 1_555
H12QE C14QE 1_555 1_555
H12DF C14DF 1_555 1_555
H12C C14C 1_555 1_555
H12P C14P 1_555 1_555
H12IE C14IE 1_555 1_555
H12UD C14UD 1_555 1_555
H12EE C14EE 1_555 1_555
H13MC C14MC 1_555 1_555
H13YB C14YB 1_555 1_555
H13IC C14IC 1_555 1_555
H13NE C14NE 1_555 1_555
H13QE C14QE 1_555 1_555
H13DF C14DF 1_555 1_555
H13C C14C 1_555 1_555
H13P C14P 1_555 1_555
H13IE C14IE 1_555 1_555
H13UD C14UD 1_555 1_555
H13EE C14EE 1_555 1_555
O7DB Pb1DB 1_555 1_555
O7PA Pb1PA 1_555 1_555
O7MC Pb1MC 1_555 1_555
O6 Pb1MC 1_555 1_555
C6 C7 1_555 1_555
C9 C10 1_555 1_555
Pb1MC O4ZC 1_555 1_555
Pb1DB O4MC 1_555 1_555
Pb1DB O4DG 1_555 1_555
Pb1PA O4PA 1_555 1_555
Pb1PA O4IE 1_555 1_555
Pb1PA O4DB 1_555 1_555
Pb1PA O4NE 1_555 1_555
O5NE C1NE 1_555 1_555
O5IE C1IE 1_555 1_555
O5MC C1MC 1_555 1_555
O5P C1P 1_555 1_555
O5UD C1UD 1_555 1_555
C5P C10P 1_555 1_555
C6MC C7MC 1_555 1_555
C6IC C7IC 1_555 1_555
C6YB C7YB 1_555 1_555
C6NE C7NE 1_555 1_555
C6DF C7DF 1_555 1_555
C6QE C7QE 1_555 1_555
C6P C7P 1_555 1_555
C6C C7C 1_555 1_555
C6IE C7IE 1_555 1_555
C6EE C7EE 1_555 1_555
C6UD C7UD 1_555 1_555
C8C C9C 1_555 1_555
C9C C10C 1_555 1_555
C9MC C10MC 1_555 1_555
C9MC C10IC 1_555 1_555
C9YB C10MC 1_555 1_555
C9YB C10YB 1_555 1_555
C9IC C10IC 1_555 1_555
C9IC C10YB 1_555 1_555
C9NE C10NE 1_555 1_555
C9NE C10DF 1_555 1_555
C9QE C10NE 1_555 1_555
C9QE C10QE 1_555 1_555
C9DF C10DF 1_555 1_555
C9DF C10QE 1_555 1_555
C9P C10P 1_555 1_555
C9P C10C 1_555 1_555
C9IE C10IE 1_555 1_555
C9IE C10EE 1_555 1_555
C9UD C10IE 1_555 1_555
C9UD C10UD 1_555 1_555
C9EE C10EE 1_555 1_555
C9EE C10UD 1_555 1_555

#END
