
#######################################################################
#
#                 Cambridge Crystallographic Data Centre
#                                CCDC 
#
#######################################################################
#
# If this CIF has been generated from an entry in the Cambridge 
# Structural Database, then it will include bibliographic, chemical, 
# crystal, experimental, refinement or atomic coordinate data resulting 
# from the CCDC's data processing and validation procedures.
#
#######################################################################

data_BUFNUM02
_chemical_name_common            
'catena-(Sesqui-cadmium(ii) tris(oxonium) octakis(mu!6$-5,5,10,10,15,15-hexaethyltruxene-2,7,12-tricarboxylato)-tris(mu!4$-oxo)-dodeca-cadmium(ii) hexahydrate)'
_chemical_formula_moiety         
'(Cd1 2+)1.5n,3n(H3 O1 1+),n(C336 H312 Cd12 O51 6-),6n(H2 O1)'
_chemical_name_systematic        
"catena-(Sesqui-cadmium(ii) tris(oxonium) octakis(\m~6~-5,5,10,10,15,15-hexaethyl-10,15-dihydro-5H-diindeno[1,2-a:1',2'-c]fluorene-2,7,12-tricarboxylato)-tris(\m~4~-oxo)-dodeca-cadmium(ii) hexahydrate)"
_symmetry_cell_setting           cubic
_symmetry_space_group_name_H-M   'F m -3 c'
_symmetry_Int_Tables_number      226
_space_group_name_Hall           '-F 4a 2 3'
loop_
_symmetry_equiv_pos_site_id
_symmetry_equiv_pos_as_xyz
1 x,y,z
2 z,x,y
3 y,z,x
4 1/2+y,1/2+x,1/2-z
5 1/2+y,1/2-x,1/2+z
6 1/2-y,1/2+x,1/2+z
7 1/2+x,1/2+z,1/2-y
8 1/2-x,1/2+z,1/2+y
9 1/2+x,1/2-z,1/2+y
10 1/2+z,1/2+y,1/2-x
11 1/2+z,1/2-y,1/2+x
12 1/2-z,1/2+y,1/2+x
13 x,1/2+y,1/2+z
14 z,1/2+x,1/2+y
15 y,1/2+z,1/2+x
16 1/2+y,x,-z
17 1/2+y,-x,z
18 1/2-y,x,z
19 1/2+x,z,-y
20 1/2-x,z,y
21 1/2+x,-z,y
22 1/2+z,y,-x
23 1/2+z,-y,x
24 1/2-z,y,x
25 1/2+x,y,1/2+z
26 1/2+z,x,1/2+y
27 1/2+y,z,1/2+x
28 y,1/2+x,-z
29 y,1/2-x,z
30 -y,1/2+x,z
31 x,1/2+z,-y
32 -x,1/2+z,y
33 x,1/2-z,y
34 z,1/2+y,-x
35 z,1/2-y,x
36 -z,1/2+y,x
37 1/2+x,1/2+y,z
38 1/2+z,1/2+x,y
39 1/2+y,1/2+z,x
40 y,x,1/2-z
41 y,-x,1/2+z
42 -y,x,1/2+z
43 x,z,1/2-y
44 -x,z,1/2+y
45 x,-z,1/2+y
46 z,y,1/2-x
47 z,-y,1/2+x
48 -z,y,1/2+x
49 -x,-y,z
50 -x,y,-z
51 x,-y,-z
52 z,-x,-y
53 -z,-x,y
54 -z,x,-y
55 -y,z,-x
56 y,-z,-x
57 -y,-z,x
58 1/2-y,1/2-x,1/2-z
59 1/2-x,1/2-z,1/2-y
60 1/2-z,1/2-y,1/2-x
61 -x,1/2-y,1/2+z
62 -x,1/2+y,1/2-z
63 x,1/2-y,1/2-z
64 z,1/2-x,1/2-y
65 -z,1/2-x,1/2+y
66 -z,1/2+x,1/2-y
67 -y,1/2+z,1/2-x
68 y,1/2-z,1/2-x
69 -y,1/2-z,1/2+x
70 1/2-y,-x,-z
71 1/2-x,-z,-y
72 1/2-z,-y,-x
73 1/2-x,-y,1/2+z
74 1/2-x,y,1/2-z
75 1/2+x,-y,1/2-z
76 1/2+z,-x,1/2-y
77 1/2-z,-x,1/2+y
78 1/2-z,x,1/2-y
79 1/2-y,z,1/2-x
80 1/2+y,-z,1/2-x
81 1/2-y,-z,1/2+x
82 -y,1/2-x,-z
83 -x,1/2-z,-y
84 -z,1/2-y,-x
85 1/2-x,1/2-y,z
86 1/2-x,1/2+y,-z
87 1/2+x,1/2-y,-z
88 1/2+z,1/2-x,-y
89 1/2-z,1/2-x,y
90 1/2-z,1/2+x,-y
91 1/2-y,1/2+z,-x
92 1/2+y,1/2-z,-x
93 1/2-y,1/2-z,x
94 -y,-x,1/2-z
95 -x,-z,1/2-y
96 -z,-y,1/2-x
97 -x,-y,-z
98 -z,-x,-y
99 -y,-z,-x
100 1/2-y,1/2-x,1/2+z
101 1/2-y,1/2+x,1/2-z
102 1/2+y,1/2-x,1/2-z
103 1/2-x,1/2-z,1/2+y
104 1/2+x,1/2-z,1/2-y
105 1/2-x,1/2+z,1/2-y
106 1/2-z,1/2-y,1/2+x
107 1/2-z,1/2+y,1/2-x
108 1/2+z,1/2-y,1/2-x
109 -x,1/2-y,1/2-z
110 -z,1/2-x,1/2-y
111 -y,1/2-z,1/2-x
112 1/2-y,-x,z
113 1/2-y,x,-z
114 1/2+y,-x,-z
115 1/2-x,-z,y
116 1/2+x,-z,-y
117 1/2-x,z,-y
118 1/2-z,-y,x
119 1/2-z,y,-x
120 1/2+z,-y,-x
121 1/2-x,-y,1/2-z
122 1/2-z,-x,1/2-y
123 1/2-y,-z,1/2-x
124 -y,1/2-x,z
125 -y,1/2+x,-z
126 y,1/2-x,-z
127 -x,1/2-z,y
128 x,1/2-z,-y
129 -x,1/2+z,-y
130 -z,1/2-y,x
131 -z,1/2+y,-x
132 z,1/2-y,-x
133 1/2-x,1/2-y,-z
134 1/2-z,1/2-x,-y
135 1/2-y,1/2-z,-x
136 -y,-x,1/2+z
137 -y,x,1/2-z
138 y,-x,1/2-z
139 -x,-z,1/2+y
140 x,-z,1/2-y
141 -x,z,1/2-y
142 -z,-y,1/2+x
143 -z,y,1/2-x
144 z,-y,1/2-x
145 x,y,-z
146 x,-y,z
147 -x,y,z
148 -z,x,y
149 z,x,-y
150 z,-x,y
151 y,-z,x
152 -y,z,x
153 y,z,-x
154 1/2+y,1/2+x,1/2+z
155 1/2+x,1/2+z,1/2+y
156 1/2+z,1/2+y,1/2+x
157 x,1/2+y,1/2-z
158 x,1/2-y,1/2+z
159 -x,1/2+y,1/2+z
160 -z,1/2+x,1/2+y
161 z,1/2+x,1/2-y
162 z,1/2-x,1/2+y
163 y,1/2-z,1/2+x
164 -y,1/2+z,1/2+x
165 y,1/2+z,1/2-x
166 1/2+y,x,z
167 1/2+x,z,y
168 1/2+z,y,x
169 1/2+x,y,1/2-z
170 1/2+x,-y,1/2+z
171 1/2-x,y,1/2+z
172 1/2-z,x,1/2+y
173 1/2+z,x,1/2-y
174 1/2+z,-x,1/2+y
175 1/2+y,-z,1/2+x
176 1/2-y,z,1/2+x
177 1/2+y,z,1/2-x
178 y,1/2+x,z
179 x,1/2+z,y
180 z,1/2+y,x
181 1/2+x,1/2+y,-z
182 1/2+x,1/2-y,z
183 1/2-x,1/2+y,z
184 1/2-z,1/2+x,y
185 1/2+z,1/2+x,-y
186 1/2+z,1/2-x,y
187 1/2+y,1/2-z,x
188 1/2-y,1/2+z,x
189 1/2+y,1/2+z,-x
190 y,x,1/2+z
191 x,z,1/2+y
192 z,y,1/2+x
_cell_length_a                   48.827(6)
_cell_length_b                   48.827(6)
_cell_length_c                   48.827(6)
_cell_angle_alpha                90
_cell_angle_beta                 90
_cell_angle_gamma                90
_cell_volume                     116407
_exptl_crystal_colour            colorless
_exptl_crystal_description       block
_cell_formula_units_Z            8
_exptl_crystal_preparation       
'crystal soaked in Pb(NO3)2 solution for 30 mins'
loop_
_atom_site_label
_atom_site_type_symbol
_atom_site_fract_x
_atom_site_fract_y
_atom_site_fract_z
_atom_site_U_iso_or_equiv
_atom_site_thermal_displace_type
O2 O 0.2974(6) 0.5000 0.1271(6) 0.3580 Uiso
O3 O 0.2500 0.4517(5) 0.2500 0.2390 Uiso
Cd1 Cd 0.22247(13) 0.5000 0.19975(13) 0.0885 Uani
O4 O 0.26209(15) 0.53099(13) 0.19852(19) 0.1683 Uani
O5 O 0.23733(15) 0.53467(13) 0.16177(15) 0.1557 Uani
O6 O 0.2500 0.5000 0.2500 0.1820 Uani
C1 C 0.2574(2) 0.54197(16) 0.1753(2) 0.1363 Uani
C2 C 0.27610(16) 0.56441(16) 0.1662(2) 0.1273 Uani
C3 C 0.29766(17) 0.57237(16) 0.18201(19) 0.1297 Uani
H1 H 0.3013 0.5633 0.1989 0.1560 Uiso
C4 C 0.31445(17) 0.59396(17) 0.17329(19) 0.1313 Uani
C5 C 0.30848(15) 0.60887(15) 0.14912(17) 0.1193 Uani
C6 C 0.28632(16) 0.59994(17) 0.13344(18) 0.1277 Uani
H2 H 0.2820 0.6091 0.1168 0.1530 Uiso
C7 C 0.27054(17) 0.57792(17) 0.14183(19) 0.1327 Uani
H3 H 0.2557 0.5720 0.1307 0.1590 Uiso
C8 C 0.34035(17) 0.60434(19) 0.18733(19) 0.1340 Uani
C9 C 0.34802(15) 0.62806(16) 0.16794(17) 0.1237 Uani
C10 C 0.32917(15) 0.63016(15) 0.14663(15) 0.1150 Uani
C11 C 0.3331(2) 0.6144(2) 0.2166(2) 0.1627 Uani
H4 H 0.3502 0.6204 0.2257 0.1950 Uiso
H5 H 0.3257 0.5987 0.2271 0.1950 Uiso
C12 C 0.3116(3) 0.6386(3) 0.2177(2) 0.1833 Uani
H6 H 0.3046 0.6405 0.2364 0.2740 Uiso
H7 H 0.2964 0.6346 0.2052 0.2740 Uiso
H8 H 0.3205 0.6557 0.2121 0.2740 Uiso
C13 C 0.3617(2) 0.5805(2) 0.1860(3) 0.1633 Uani
H9 H 0.3546 0.5648 0.1967 0.1960 Uiso
H10 H 0.3789 0.5867 0.1949 0.1960 Uiso
C14 C 0.3688(3) 0.5702(3) 0.1563(3) 0.2077 Uani
H11 H 0.3544 0.5578 0.1499 0.3120 Uiso
H12 H 0.3864 0.5604 0.1566 0.3120 Uiso
H13 H 0.3701 0.5859 0.1439 0.3120 Uiso
Cd1W Cd 0.30025(13) 0.5000 0.22247(13) 0.0885 Uani
Cd1SA Cd 0.19975(13) 0.5000 0.27753(13) 0.0885 Uani
Cd1PD Cd 0.27753(13) 0.5000 0.30025(13) 0.0885 Uani
Cd1HF Cd 0.5000 0.69975(13) 0.27753(13) 0.0885 Uani
Cd1CA Cd 0.5000 0.72247(13) 0.19975(13) 0.0885 Uani
Cd1QD Cd 0.30025(13) 0.77753(13) 0.0000 0.0885 Uani
Cd1G Cd 0.27753(13) 0.69975(13) 0.0000 0.0885 Uani
Cd1GE Cd 0.5000 0.77753(13) 0.30025(13) 0.0885 Uani
Cd1DA Cd 0.22247(13) 0.69975(13) 0.5000 0.0885 Uani
Cd1AG Cd 0.30025(13) 0.72247(13) 0.5000 0.0885 Uani
Cd1A Cd 0.19975(13) 0.22247(13) 0.5000 0.0885 Uani
Cd1FA Cd 0.22247(13) 0.30025(13) 0.5000 0.0885 Uani
Cd1DG Cd 0.0000 0.30025(13) 0.22247(13) 0.0885 Uani
Cd1WC Cd 0.0000 0.27753(13) 0.30025(13) 0.0885 Uani
Cd1Q Cd 0.0000 0.22247(13) 0.19975(13) 0.0885 Uani
Cd1XC Cd 0.27753(13) 0.30025(13) 0.0000 0.0885 Uani
Cd1EF Cd 0.19975(13) 0.27753(13) 0.0000 0.0885 Uani
O4SA O 0.19852(19) 0.53099(13) 0.23791(15) 0.1683 Uani
O4OE O 0.26209(15) 0.46901(13) 0.19852(19) 0.1683 Uani
O4ME O 0.19852(19) 0.46901(13) 0.23791(15) 0.1683 Uani
O4W O 0.30148(19) 0.53099(13) 0.26209(15) 0.1683 Uani
O4MD O 0.30148(19) 0.46901(13) 0.26209(15) 0.1683 Uani
O4PD O 0.23791(15) 0.46901(13) 0.30148(19) 0.1683 Uani
O4UB O 0.23791(15) 0.53099(13) 0.30148(19) 0.1683 Uani
O4NB O 0.46901(13) 0.69852(19) 0.23791(15) 0.1683 Uani
O4XB O 0.30148(19) 0.73791(15) 0.03099(13) 0.1683 Uani
O4OC O 0.46901(13) 0.73791(15) 0.30148(19) 0.1683 Uani
O4DA O 0.26209(15) 0.69852(19) 0.46901(13) 0.1683 Uani
O4RE O 0.19852(19) 0.26209(15) 0.46901(13) 0.1683 Uani
O4DG O 0.03099(13) 0.30148(19) 0.26209(15) 0.1683 Uani
O4IF O 0.03099(13) 0.26209(15) 0.19852(19) 0.1683 Uani
O4XC O 0.23791(15) 0.30148(19) 0.03099(13) 0.1683 Uani
O5OE O 0.23733(15) 0.46533(13) 0.16177(15) 0.1557 Uani
O5W O 0.33823(15) 0.53467(13) 0.23733(15) 0.1557 Uani
O5MD O 0.33823(15) 0.46533(13) 0.23733(15) 0.1557 Uani
O5PD O 0.26267(15) 0.46533(13) 0.33823(15) 0.1557 Uani
O5UB O 0.26267(15) 0.53467(13) 0.33823(15) 0.1557 Uani
O5SA O 0.16177(15) 0.53467(13) 0.26267(15) 0.1557 Uani
O5ME O 0.16177(15) 0.46533(13) 0.26267(15) 0.1557 Uani
O5NB O 0.46533(13) 0.66177(15) 0.26267(15) 0.1557 Uani
O5XB O 0.33823(15) 0.76267(15) 0.03467(13) 0.1557 Uani
O5OC O 0.46533(13) 0.76267(15) 0.33823(15) 0.1557 Uani
O5DA O 0.23733(15) 0.66177(15) 0.46533(13) 0.1557 Uani
O5RE O 0.16177(15) 0.23733(15) 0.46533(13) 0.1557 Uani
O5DG O 0.03467(13) 0.33823(15) 0.23733(15) 0.1557 Uani
O5IF O 0.03467(13) 0.23733(15) 0.16177(15) 0.1557 Uani
O5XC O 0.26267(15) 0.33823(15) 0.03467(13) 0.1557 Uani
C1W C 0.3247(2) 0.54197(16) 0.2574(2) 0.1363 Uani
C1PD C 0.2426(2) 0.45803(16) 0.3247(2) 0.1363 Uani
C1ME C 0.1753(2) 0.45803(16) 0.2426(2) 0.1363 Uani
C1NB C 0.45803(16) 0.6753(2) 0.2426(2) 0.1363 Uani
C1XB C 0.3247(2) 0.7426(2) 0.04197(16) 0.1363 Uani
C1OC C 0.45803(16) 0.7426(2) 0.3247(2) 0.1363 Uani
C1DA C 0.2574(2) 0.6753(2) 0.45803(16) 0.1363 Uani
C1RE C 0.1753(2) 0.2574(2) 0.45803(16) 0.1363 Uani
C1DG C 0.04197(16) 0.3247(2) 0.2574(2) 0.1363 Uani
C1IF C 0.04197(16) 0.2574(2) 0.1753(2) 0.1363 Uani
C1XC C 0.2426(2) 0.3247(2) 0.04197(16) 0.1363 Uani
C2W C 0.3338(2) 0.56441(16) 0.27610(16) 0.1273 Uani
C2PD C 0.22390(16) 0.43559(16) 0.3338(2) 0.1273 Uani
C2ME C 0.1662(2) 0.43559(16) 0.22390(16) 0.1273 Uani
C2NB C 0.43559(16) 0.6662(2) 0.22390(16) 0.1273 Uani
C2XB C 0.3338(2) 0.72390(16) 0.06441(16) 0.1273 Uani
C2OC C 0.43559(16) 0.72390(16) 0.3338(2) 0.1273 Uani
C2DA C 0.27610(16) 0.6662(2) 0.43559(16) 0.1273 Uani
C2RE C 0.1662(2) 0.27610(16) 0.43559(16) 0.1273 Uani
C2DG C 0.06441(16) 0.3338(2) 0.27610(16) 0.1273 Uani
C2IF C 0.06441(16) 0.27610(16) 0.1662(2) 0.1273 Uani
C2XC C 0.22390(16) 0.3338(2) 0.06441(16) 0.1273 Uani
C3W C 0.31799(19) 0.57237(16) 0.29766(17) 0.1297 Uani
C3PD C 0.20234(17) 0.42763(16) 0.31799(19) 0.1297 Uani
C3ME C 0.18201(19) 0.42763(16) 0.20234(17) 0.1297 Uani
C3NB C 0.42763(16) 0.68201(19) 0.20234(17) 0.1297 Uani
C3XB C 0.31799(19) 0.70234(17) 0.07237(16) 0.1297 Uani
C3OC C 0.42763(16) 0.70234(17) 0.31799(19) 0.1297 Uani
C3DA C 0.29766(17) 0.68201(19) 0.42763(16) 0.1297 Uani
C3RE C 0.18201(19) 0.29766(17) 0.42763(16) 0.1297 Uani
C3DG C 0.07237(16) 0.31799(19) 0.29766(17) 0.1297 Uani
C3IF C 0.07237(16) 0.29766(17) 0.18201(19) 0.1297 Uani
C3XC C 0.20234(17) 0.31799(19) 0.07237(16) 0.1297 Uani
H1W H 0.3011 0.5633 0.3013 0.1560 Uiso
H1PD H 0.1987 0.4367 0.3011 0.1560 Uiso
H1ME H 0.1989 0.4367 0.1987 0.1560 Uiso
H1NB H 0.4367 0.6989 0.1987 0.1560 Uiso
H1XB H 0.3011 0.6987 0.0633 0.1560 Uiso
H1OC H 0.4367 0.6987 0.3011 0.1560 Uiso
H1DA H 0.3013 0.6989 0.4367 0.1560 Uiso
H1RE H 0.1989 0.3013 0.4367 0.1560 Uiso
H1DG H 0.0633 0.3011 0.3013 0.1560 Uiso
H1IF H 0.0633 0.3013 0.1989 0.1560 Uiso
H1XC H 0.1987 0.3011 0.0633 0.1560 Uiso
C4NB C 0.40604(17) 0.67329(19) 0.18555(17) 0.1313 Uani
C4XB C 0.32671(19) 0.68555(17) 0.09396(17) 0.1313 Uani
C4W C 0.32671(19) 0.59396(17) 0.31445(17) 0.1313 Uani
C4PD C 0.18555(17) 0.40604(17) 0.32671(19) 0.1313 Uani
C4ME C 0.17329(19) 0.40604(17) 0.18555(17) 0.1313 Uani
C4OC C 0.40604(17) 0.68555(17) 0.32671(19) 0.1313 Uani
C4DA C 0.31445(17) 0.67329(19) 0.40604(17) 0.1313 Uani
C4RE C 0.17329(19) 0.31445(17) 0.40604(17) 0.1313 Uani
C4DG C 0.09396(17) 0.32671(19) 0.31445(17) 0.1313 Uani
C4IF C 0.09396(17) 0.31445(17) 0.17329(19) 0.1313 Uani
C4XC C 0.18555(17) 0.32671(19) 0.09396(17) 0.1313 Uani
C5NB C 0.39113(15) 0.64912(17) 0.19152(15) 0.1193 Uani
C5XB C 0.35088(17) 0.69152(15) 0.10887(15) 0.1193 Uani
C5W C 0.35088(17) 0.60887(15) 0.30848(15) 0.1193 Uani
C5PD C 0.19152(15) 0.39113(15) 0.35088(17) 0.1193 Uani
C5ME C 0.14912(17) 0.39113(15) 0.19152(15) 0.1193 Uani
C5DA C 0.30848(15) 0.64912(17) 0.39113(15) 0.1193 Uani
C5DG C 0.10887(15) 0.35088(17) 0.30848(15) 0.1193 Uani
C5XC C 0.19152(15) 0.35088(17) 0.10887(15) 0.1193 Uani
C5OC C 0.39113(15) 0.69152(15) 0.35088(17) 0.1193 Uani
C5RE C 0.14912(17) 0.30848(15) 0.39113(15) 0.1193 Uani
C5IF C 0.10887(15) 0.30848(15) 0.14912(17) 0.1193 Uani
C6NB C 0.40006(17) 0.63344(18) 0.21368(16) 0.1277 Uani
C6XB C 0.36656(18) 0.71368(16) 0.09994(17) 0.1277 Uani
C6W C 0.36656(18) 0.59994(17) 0.28632(16) 0.1277 Uani
C6PD C 0.21368(16) 0.40006(17) 0.36656(18) 0.1277 Uani
C6ME C 0.13344(18) 0.40006(17) 0.21368(16) 0.1277 Uani
C6DA C 0.28632(16) 0.63344(18) 0.40006(17) 0.1277 Uani
C6DG C 0.09994(17) 0.36656(18) 0.28632(16) 0.1277 Uani
C6XC C 0.21368(16) 0.36656(18) 0.09994(17) 0.1277 Uani
C6OC C 0.40006(17) 0.71368(16) 0.36656(18) 0.1277 Uani
C6RE C 0.13344(18) 0.28632(16) 0.40006(17) 0.1277 Uani
C6IF C 0.09994(17) 0.28632(16) 0.13344(18) 0.1277 Uani
H2NB H 0.3909 0.6168 0.2180 0.1530 Uiso
H2XB H 0.3832 0.7180 0.1091 0.1530 Uiso
H2W H 0.3832 0.6091 0.2820 0.1530 Uiso
H2PD H 0.2180 0.3909 0.3832 0.1530 Uiso
H2ME H 0.1168 0.3909 0.2180 0.1530 Uiso
H2DA H 0.2820 0.6168 0.3909 0.1530 Uiso
H2DG H 0.1091 0.3832 0.2820 0.1530 Uiso
H2XC H 0.2180 0.3832 0.1091 0.1530 Uiso
H2OC H 0.3909 0.7180 0.3832 0.1530 Uiso
H2RE H 0.1168 0.2820 0.3909 0.1530 Uiso
H2IF H 0.1091 0.2820 0.1168 0.1530 Uiso
C7W C 0.35817(19) 0.57792(17) 0.27054(17) 0.1327 Uani
C7PD C 0.22946(17) 0.42208(17) 0.35817(19) 0.1327 Uani
C7ME C 0.14183(19) 0.42208(17) 0.22946(17) 0.1327 Uani
C7NB C 0.42208(17) 0.64183(19) 0.22946(17) 0.1327 Uani
C7XB C 0.35817(19) 0.72946(17) 0.07792(17) 0.1327 Uani
C7DA C 0.27054(17) 0.64183(19) 0.42208(17) 0.1327 Uani
C7DG C 0.07792(17) 0.35817(19) 0.27054(17) 0.1327 Uani
C7XC C 0.22946(17) 0.35817(19) 0.07792(17) 0.1327 Uani
C7OC C 0.42208(17) 0.72946(17) 0.35817(19) 0.1327 Uani
C7RE C 0.14183(19) 0.27054(17) 0.42208(17) 0.1327 Uani
C7IF C 0.07792(17) 0.27054(17) 0.14183(19) 0.1327 Uani
H3W H 0.3693 0.5720 0.2557 0.1590 Uiso
H3PD H 0.2443 0.4280 0.3693 0.1590 Uiso
H3ME H 0.1307 0.4280 0.2443 0.1590 Uiso
H3NB H 0.4280 0.6307 0.2443 0.1590 Uiso
H3XB H 0.3693 0.7443 0.0720 0.1590 Uiso
H3DA H 0.2557 0.6307 0.4280 0.1590 Uiso
H3DG H 0.0720 0.3693 0.2557 0.1590 Uiso
H3XC H 0.2443 0.3693 0.0720 0.1590 Uiso
H3OC H 0.4280 0.7443 0.3693 0.1590 Uiso
H3RE H 0.1307 0.2557 0.4280 0.1590 Uiso
H3IF H 0.0720 0.2557 0.1307 0.1590 Uiso
C8XB C 0.31267(19) 0.65965(17) 0.10434(19) 0.1340 Uani
C8NB C 0.39566(19) 0.68733(19) 0.15965(17) 0.1340 Uani
C8W C 0.31267(19) 0.60434(19) 0.34035(17) 0.1340 Uani
C8PD C 0.15965(17) 0.39566(19) 0.31267(19) 0.1340 Uani
C8ME C 0.18733(19) 0.39566(19) 0.15965(17) 0.1340 Uani
C8OC C 0.39566(19) 0.65965(17) 0.31267(19) 0.1340 Uani
C8RE C 0.18733(19) 0.34035(17) 0.39566(19) 0.1340 Uani
C8IF C 0.10434(19) 0.34035(17) 0.18733(19) 0.1340 Uani
C8DA C 0.34035(17) 0.68733(19) 0.39566(19) 0.1340 Uani
C8DG C 0.10434(19) 0.31267(19) 0.34035(17) 0.1340 Uani
C8XC C 0.15965(17) 0.31267(19) 0.10434(19) 0.1340 Uani
C9XB C 0.33206(17) 0.65198(15) 0.12806(16) 0.1237 Uani
C9NB C 0.37194(16) 0.66794(17) 0.15198(15) 0.1237 Uani
C9W C 0.33206(17) 0.62806(16) 0.34802(15) 0.1237 Uani
C9PD C 0.15198(15) 0.37194(16) 0.33206(17) 0.1237 Uani
C9ME C 0.16794(17) 0.37194(16) 0.15198(15) 0.1237 Uani
C9OC C 0.37194(16) 0.65198(15) 0.33206(17) 0.1237 Uani
C9RE C 0.16794(17) 0.34802(15) 0.37194(16) 0.1237 Uani
C9IF C 0.12806(16) 0.34802(15) 0.16794(17) 0.1237 Uani
C9DA C 0.34802(15) 0.66794(17) 0.37194(16) 0.1237 Uani
C9DG C 0.12806(16) 0.33206(17) 0.34802(15) 0.1237 Uani
C9XC C 0.15198(15) 0.33206(17) 0.12806(16) 0.1237 Uani
C10NB C 0.36984(15) 0.64663(15) 0.17083(15) 0.1150 Uani
C10XB C 0.35337(15) 0.67083(15) 0.13016(15) 0.1150 Uani
C10W C 0.35337(15) 0.63016(15) 0.32917(15) 0.1150 Uani
C10PD C 0.17083(15) 0.36984(15) 0.35337(15) 0.1150 Uani
C10ME C 0.14663(15) 0.36984(15) 0.17083(15) 0.1150 Uani
C10DA C 0.32917(15) 0.64663(15) 0.36984(15) 0.1150 Uani
C10DG C 0.13016(15) 0.35337(15) 0.32917(15) 0.1150 Uani
C10XC C 0.17083(15) 0.35337(15) 0.13016(15) 0.1150 Uani
C10OC C 0.36984(15) 0.67083(15) 0.35337(15) 0.1150 Uani
C10RE C 0.14663(15) 0.32917(15) 0.36984(15) 0.1150 Uani
C10IF C 0.13016(15) 0.32917(15) 0.14663(15) 0.1150 Uani
C11XB C 0.2834(2) 0.6669(2) 0.1144(2) 0.1627 Uani
C11NB C 0.3856(2) 0.7166(2) 0.1669(2) 0.1627 Uani
C11W C 0.2834(2) 0.6144(2) 0.3331(2) 0.1627 Uani
C11PD C 0.1669(2) 0.3856(2) 0.2834(2) 0.1627 Uani
C11ME C 0.2166(2) 0.3856(2) 0.1669(2) 0.1627 Uani
C11OC C 0.3856(2) 0.6669(2) 0.2834(2) 0.1627 Uani
C11RE C 0.2166(2) 0.3331(2) 0.3856(2) 0.1627 Uani
C11IF C 0.1144(2) 0.3331(2) 0.2166(2) 0.1627 Uani
C11DA C 0.3331(2) 0.7166(2) 0.3856(2) 0.1627 Uani
C11DG C 0.1144(2) 0.2834(2) 0.3331(2) 0.1627 Uani
C11XC C 0.1669(2) 0.2834(2) 0.1144(2) 0.1627 Uani
H4XB H 0.2743 0.6498 0.1204 0.1950 Uiso
H4NB H 0.3796 0.7257 0.1498 0.1950 Uiso
H4W H 0.2743 0.6204 0.3502 0.1950 Uiso
H4PD H 0.1498 0.3796 0.2743 0.1950 Uiso
H4ME H 0.2257 0.3796 0.1498 0.1950 Uiso
H4OC H 0.3796 0.6498 0.2743 0.1950 Uiso
H4RE H 0.2257 0.3502 0.3796 0.1950 Uiso
H4IF H 0.1204 0.3502 0.2257 0.1950 Uiso
H4DA H 0.3502 0.7257 0.3796 0.1950 Uiso
H4DG H 0.1204 0.2743 0.3502 0.1950 Uiso
H4XC H 0.1498 0.2743 0.1204 0.1950 Uiso
H5XB H 0.2729 0.6743 0.0987 0.1950 Uiso
H5NB H 0.4013 0.7271 0.1743 0.1950 Uiso
H5W H 0.2729 0.5987 0.3257 0.1950 Uiso
H5PD H 0.1743 0.4013 0.2729 0.1950 Uiso
H5ME H 0.2271 0.4013 0.1743 0.1950 Uiso
H5OC H 0.4013 0.6743 0.2729 0.1950 Uiso
H5RE H 0.2271 0.3257 0.4013 0.1950 Uiso
H5IF H 0.0987 0.3257 0.2271 0.1950 Uiso
H5DA H 0.3257 0.7271 0.4013 0.1950 Uiso
H5DG H 0.0987 0.2729 0.3257 0.1950 Uiso
H5XC H 0.1743 0.2729 0.0987 0.1950 Uiso
C12XB C 0.2823(2) 0.6884(3) 0.1386(3) 0.1833 Uani
C12NB C 0.3614(3) 0.7177(2) 0.1884(3) 0.1833 Uani
C12W C 0.2823(2) 0.6386(3) 0.3116(3) 0.1833 Uani
C12PD C 0.1884(3) 0.3614(3) 0.2823(2) 0.1833 Uani
C12ME C 0.2177(2) 0.3614(3) 0.1884(3) 0.1833 Uani
C12OC C 0.3614(3) 0.6884(3) 0.2823(2) 0.1833 Uani
C12RE C 0.2177(2) 0.3116(3) 0.3614(3) 0.1833 Uani
C12IF C 0.1386(3) 0.3116(3) 0.2177(2) 0.1833 Uani
C12DA C 0.3116(3) 0.7177(2) 0.3614(3) 0.1833 Uani
C12DG C 0.1386(3) 0.2823(2) 0.3116(3) 0.1833 Uani
C12XC C 0.1884(3) 0.2823(2) 0.1386(3) 0.1833 Uani
H6XB H 0.2636 0.6954 0.1405 0.2740 Uiso
H6NB H 0.3595 0.7364 0.1954 0.2740 Uiso
H6W H 0.2636 0.6405 0.3046 0.2740 Uiso
H6PD H 0.1954 0.3595 0.2636 0.2740 Uiso
H6ME H 0.2364 0.3595 0.1954 0.2740 Uiso
H6OC H 0.3595 0.6954 0.2636 0.2740 Uiso
H6RE H 0.2364 0.3046 0.3595 0.2740 Uiso
H6IF H 0.1405 0.3046 0.2364 0.2740 Uiso
H6DA H 0.3046 0.7364 0.3595 0.2740 Uiso
H6DG H 0.1405 0.2636 0.3046 0.2740 Uiso
H6XC H 0.1954 0.2636 0.1405 0.2740 Uiso
H7XB H 0.2948 0.7036 0.1346 0.2740 Uiso
H7NB H 0.3654 0.7052 0.2036 0.2740 Uiso
H7W H 0.2948 0.6346 0.2964 0.2740 Uiso
H7PD H 0.2036 0.3654 0.2948 0.2740 Uiso
H7ME H 0.2052 0.3654 0.2036 0.2740 Uiso
H7OC H 0.3654 0.7036 0.2948 0.2740 Uiso
H7RE H 0.2052 0.2964 0.3654 0.2740 Uiso
H7IF H 0.1346 0.2964 0.2052 0.2740 Uiso
H7DA H 0.2964 0.7052 0.3654 0.2740 Uiso
H7DG H 0.1346 0.2948 0.2964 0.2740 Uiso
H7XC H 0.2036 0.2948 0.1346 0.2740 Uiso
H8XB H 0.2879 0.6795 0.1557 0.2740 Uiso
H8NB H 0.3443 0.7121 0.1795 0.2740 Uiso
H8W H 0.2879 0.6557 0.3205 0.2740 Uiso
H8PD H 0.1795 0.3443 0.2879 0.2740 Uiso
H8ME H 0.2121 0.3443 0.1795 0.2740 Uiso
H8OC H 0.3443 0.6795 0.2879 0.2740 Uiso
H8RE H 0.2121 0.3205 0.3443 0.2740 Uiso
H8IF H 0.1557 0.3205 0.2121 0.2740 Uiso
H8DA H 0.3205 0.7121 0.3443 0.2740 Uiso
H8DG H 0.1557 0.2879 0.3205 0.2740 Uiso
H8XC H 0.1795 0.2879 0.1557 0.2740 Uiso
C13XB C 0.3140(3) 0.6383(2) 0.0805(2) 0.1633 Uani
C13NB C 0.4195(2) 0.6860(3) 0.1383(2) 0.1633 Uani
C13W C 0.3140(3) 0.5805(2) 0.3617(2) 0.1633 Uani
C13PD C 0.1383(2) 0.4195(2) 0.3140(3) 0.1633 Uani
C13ME C 0.1860(3) 0.4195(2) 0.1383(2) 0.1633 Uani
C13OC C 0.4195(2) 0.6383(2) 0.3140(3) 0.1633 Uani
C13RE C 0.1860(3) 0.3617(2) 0.4195(2) 0.1633 Uani
C13IF C 0.0805(2) 0.3617(2) 0.1860(3) 0.1633 Uani
C13DA C 0.3617(2) 0.6860(3) 0.4195(2) 0.1633 Uani
C13DG C 0.0805(2) 0.3140(3) 0.3617(2) 0.1633 Uani
C13XC C 0.1383(2) 0.3140(3) 0.0805(2) 0.1633 Uani
H9XB H 0.3033 0.6454 0.0648 0.1960 Uiso
H9NB H 0.4352 0.6967 0.1454 0.1960 Uiso
H9W H 0.3033 0.5648 0.3546 0.1960 Uiso
H9PD H 0.1454 0.4352 0.3033 0.1960 Uiso
H9ME H 0.1967 0.4352 0.1454 0.1960 Uiso
H9OC H 0.4352 0.6454 0.3033 0.1960 Uiso
H9RE H 0.1967 0.3546 0.4352 0.1960 Uiso
H9IF H 0.0648 0.3546 0.1967 0.1960 Uiso
H9DA H 0.3546 0.6967 0.4352 0.1960 Uiso
H9DG H 0.0648 0.3033 0.3546 0.1960 Uiso
H9XC H 0.1454 0.3033 0.0648 0.1960 Uiso
H10XB H 0.3051 0.6211 0.0867 0.1960 Uiso
H10NB H 0.4133 0.6949 0.1211 0.1960 Uiso
H10W H 0.3051 0.5867 0.3789 0.1960 Uiso
H10PD H 0.1211 0.4133 0.3051 0.1960 Uiso
H10ME H 0.1949 0.4133 0.1211 0.1960 Uiso
H10OC H 0.4133 0.6211 0.3051 0.1960 Uiso
H10RE H 0.1949 0.3789 0.4133 0.1960 Uiso
H10IF H 0.0867 0.3789 0.1949 0.1960 Uiso
H10DA H 0.3789 0.6949 0.4133 0.1960 Uiso
H10DG H 0.0867 0.3051 0.3789 0.1960 Uiso
H10XC H 0.1211 0.3051 0.0867 0.1960 Uiso
C14XB C 0.3437(3) 0.6312(3) 0.0702(3) 0.2077 Uani
C14NB C 0.4298(3) 0.6563(3) 0.1312(3) 0.2077 Uani
C14W C 0.3437(3) 0.5702(3) 0.3688(3) 0.2077 Uani
C14PD C 0.1312(3) 0.4298(3) 0.3437(3) 0.2077 Uani
C14ME C 0.1563(3) 0.4298(3) 0.1312(3) 0.2077 Uani
C14OC C 0.4298(3) 0.6312(3) 0.3437(3) 0.2077 Uani
C14RE C 0.1563(3) 0.3688(3) 0.4298(3) 0.2077 Uani
C14IF C 0.0702(3) 0.3688(3) 0.1563(3) 0.2077 Uani
C14DA C 0.3688(3) 0.6563(3) 0.4298(3) 0.2077 Uani
C14DG C 0.0702(3) 0.3437(3) 0.3688(3) 0.2077 Uani
C14XC C 0.1312(3) 0.3437(3) 0.0702(3) 0.2077 Uani
H11XB H 0.3501 0.6456 0.0578 0.3120 Uiso
H11NB H 0.4422 0.6499 0.1456 0.3120 Uiso
H11W H 0.3501 0.5578 0.3544 0.3120 Uiso
H11PD H 0.1456 0.4422 0.3501 0.3120 Uiso
H11ME H 0.1499 0.4422 0.1456 0.3120 Uiso
H11OC H 0.4422 0.6456 0.3501 0.3120 Uiso
H11RE H 0.1499 0.3544 0.4422 0.3120 Uiso
H11IF H 0.0578 0.3544 0.1499 0.3120 Uiso
H11DA H 0.3544 0.6499 0.4422 0.3120 Uiso
H11DG H 0.0578 0.3501 0.3544 0.3120 Uiso
H11XC H 0.1456 0.3501 0.0578 0.3120 Uiso
H12XB H 0.3434 0.6136 0.0604 0.3120 Uiso
H12NB H 0.4396 0.6566 0.1136 0.3120 Uiso
H12W H 0.3434 0.5604 0.3864 0.3120 Uiso
H12PD H 0.1136 0.4396 0.3434 0.3120 Uiso
H12ME H 0.1566 0.4396 0.1136 0.3120 Uiso
H12OC H 0.4396 0.6136 0.3434 0.3120 Uiso
H12RE H 0.1566 0.3864 0.4396 0.3120 Uiso
H12IF H 0.0604 0.3864 0.1566 0.3120 Uiso
H12DA H 0.3864 0.6566 0.4396 0.3120 Uiso
H12DG H 0.0604 0.3434 0.3864 0.3120 Uiso
H12XC H 0.1136 0.3434 0.0604 0.3120 Uiso
H13XB H 0.3561 0.6299 0.0859 0.3120 Uiso
H13NB H 0.4141 0.6439 0.1299 0.3120 Uiso
H13W H 0.3561 0.5859 0.3701 0.3120 Uiso
H13PD H 0.1299 0.4141 0.3561 0.3120 Uiso
H13ME H 0.1439 0.4141 0.1299 0.3120 Uiso
H13OC H 0.4141 0.6299 0.3561 0.3120 Uiso
H13RE H 0.1439 0.3701 0.4141 0.3120 Uiso
H13IF H 0.0859 0.3701 0.1439 0.3120 Uiso
H13DA H 0.3701 0.6439 0.4141 0.3120 Uiso
H13DG H 0.0859 0.3561 0.3701 0.3120 Uiso
H13XC H 0.1299 0.3561 0.0859 0.3120 Uiso
O1 O 0.2153(9) 0.5000 0.1066(10) 0.2980 Uiso
Pb1? Pb 0.21664(19) 0.5000 0.1871(2) 0.1105 Uani
Pb2? Pb 0.30668(13) 0.5000 0.22701(16) 0.0716 Uani
O7? O 0.1924(7) 0.5000 0.1290(8) 0.2440 Uiso
O8? O 0.1445(8) 0.5000 0.1728(9) 0.4680 Uiso
loop_
_atom_site_aniso_label
_atom_site_aniso_U_11
_atom_site_aniso_U_22
_atom_site_aniso_U_33
_atom_site_aniso_U_23
_atom_site_aniso_U_13
_atom_site_aniso_U_12
Cd1 0.087(3) 0.0845(10) 0.094(3) 0.000 0.0312(15) 0.000
O4 0.153(5) 0.118(4) 0.234(7) 0.040(5) -0.012(5) -0.010(4)
O5 0.140(5) 0.139(4) 0.188(6) 0.011(4) -0.007(4) -0.029(4)
O6 0.078(4) 0.39(3) 0.078(4) 0.000 0.000 0.000
C1 0.131(7) 0.096(5) 0.182(8) 0.024(5) 0.009(6) 0.012(5)
C2 0.115(5) 0.111(5) 0.156(7) 0.014(5) 0.002(5) 0.003(4)
C3 0.120(5) 0.114(5) 0.155(6) 0.023(5) -0.006(5) 0.005(4)
C4 0.128(5) 0.114(5) 0.152(6) 0.021(5) -0.003(5) -0.010(4)
C5 0.122(5) 0.107(4) 0.129(5) 0.012(4) -0.005(4) -0.001(4)
C6 0.124(5) 0.128(6) 0.131(6) 0.008(4) -0.015(4) -0.013(5)
C7 0.121(5) 0.123(5) 0.154(7) 0.005(5) -0.014(5) -0.011(4)
C8 0.119(5) 0.131(6) 0.152(7) 0.029(5) -0.018(5) -0.013(5)
C9 0.116(5) 0.122(5) 0.133(5) 0.020(4) -0.013(4) -0.016(4)
C10 0.117(5) 0.112(5) 0.116(5) 0.016(4) -0.015(4) -0.008(4)
C11 0.174(9) 0.177(9) 0.137(7) 0.038(6) -0.015(6) -0.011(7)
C12 0.207(11) 0.201(12) 0.142(8) -0.006(7) 0.010(7) -0.006(9)
C13 0.142(7) 0.135(6) 0.213(11) 0.022(7) -0.035(7) 0.001(6)
C14 0.169(10) 0.218(12) 0.236(15) -0.039(11) 0.017(9) 0.012(9)
Cd1W 0.094 0.0845 0.087 0 -0.0312 0
Cd1SA 0.094 0.0845 0.087 0 -0.0312 0
Cd1PD 0.087 0.0845 0.094 0 0.0312 0
Cd1HF 0.0845 0.094 0.087 -0.0312 0 0
Cd1CA 0.0845 0.087 0.094 0.0312 0 0
Cd1QD 0.094 0.087 0.0845 0 0 0.0312
Cd1G 0.087 0.094 0.0845 0 0 -0.0312
Cd1GE 0.0845 0.087 0.094 0.0312 0 0
Cd1DA 0.087 0.094 0.0845 0 0 0.0312
Cd1AG 0.094 0.087 0.0845 0 0 -0.0312
Cd1A 0.094 0.087 0.0845 0 0 0.0312
Cd1FA 0.087 0.094 0.0845 0 0 -0.0312
Cd1DG 0.0845 0.094 0.087 -0.0312 0 0
Cd1WC 0.0845 0.087 0.094 0.0312 0 0
Cd1Q 0.0845 0.087 0.094 0.0312 0 0
Cd1XC 0.087 0.094 0.0845 0 0 0.0312
Cd1EF 0.094 0.087 0.0845 0 0 -0.0312
O4SA 0.234 0.118 0.153 0.01 0.012 0.04
O4OE 0.153 0.118 0.234 -0.04 -0.012 0.01
O4ME 0.234 0.118 0.153 -0.01 0.012 -0.04
O4W 0.234 0.118 0.153 -0.01 0.012 -0.04
O4MD 0.234 0.118 0.153 0.01 0.012 0.04
O4PD 0.153 0.118 0.234 0.04 -0.012 -0.01
O4UB 0.153 0.118 0.234 -0.04 -0.012 0.01
O4NB 0.118 0.234 0.153 0.012 -0.01 -0.04
O4XB 0.234 0.153 0.118 0.01 -0.04 -0.012
O4OC 0.118 0.153 0.234 -0.012 0.04 -0.01
O4DA 0.153 0.234 0.118 -0.04 0.01 -0.012
O4RE 0.234 0.153 0.118 0.01 -0.04 -0.012
O4DG 0.118 0.234 0.153 0.012 -0.01 -0.04
O4IF 0.118 0.153 0.234 -0.012 0.04 -0.01
O4XC 0.153 0.234 0.118 -0.04 0.01 -0.012
O5OE 0.14 0.139 0.188 -0.011 -0.007 0.029
O5W 0.188 0.139 0.14 -0.029 0.007 -0.011
O5MD 0.188 0.139 0.14 0.029 0.007 0.011
O5PD 0.14 0.139 0.188 0.011 -0.007 -0.029
O5UB 0.14 0.139 0.188 -0.011 -0.007 0.029
O5SA 0.188 0.139 0.14 0.029 0.007 0.011
O5ME 0.188 0.139 0.14 -0.029 0.007 -0.011
O5NB 0.139 0.188 0.14 0.007 -0.029 -0.011
O5XB 0.188 0.14 0.139 0.029 -0.011 -0.007
O5OC 0.139 0.14 0.188 -0.007 0.011 -0.029
O5DA 0.14 0.188 0.139 -0.011 0.029 -0.007
O5RE 0.188 0.14 0.139 0.029 -0.011 -0.007
O5DG 0.139 0.188 0.14 0.007 -0.029 -0.011
O5IF 0.139 0.14 0.188 -0.007 0.011 -0.029
O5XC 0.14 0.188 0.139 -0.011 0.029 -0.007
C1W 0.182 0.096 0.131 0.012 -0.009 -0.024
C1PD 0.131 0.096 0.182 0.024 0.009 0.012
C1ME 0.182 0.096 0.131 0.012 -0.009 -0.024
C1NB 0.096 0.182 0.131 -0.009 0.012 -0.024
C1XB 0.182 0.131 0.096 -0.012 -0.024 0.009
C1OC 0.096 0.131 0.182 0.009 0.024 0.012
C1DA 0.131 0.182 0.096 -0.024 -0.012 0.009
C1RE 0.182 0.131 0.096 -0.012 -0.024 0.009
C1DG 0.096 0.182 0.131 -0.009 0.012 -0.024
C1IF 0.096 0.131 0.182 0.009 0.024 0.012
C1XC 0.131 0.182 0.096 -0.024 -0.012 0.009
C2W 0.156 0.111 0.115 0.003 -0.002 -0.014
C2PD 0.115 0.111 0.156 0.014 0.002 0.003
C2ME 0.156 0.111 0.115 0.003 -0.002 -0.014
C2NB 0.111 0.156 0.115 -0.002 0.003 -0.014
C2XB 0.156 0.115 0.111 -0.003 -0.014 0.002
C2OC 0.111 0.115 0.156 0.002 0.014 0.003
C2DA 0.115 0.156 0.111 -0.014 -0.003 0.002
C2RE 0.156 0.115 0.111 -0.003 -0.014 0.002
C2DG 0.111 0.156 0.115 -0.002 0.003 -0.014
C2IF 0.111 0.115 0.156 0.002 0.014 0.003
C2XC 0.115 0.156 0.111 -0.014 -0.003 0.002
C3W 0.155 0.114 0.12 0.005 0.006 -0.023
C3PD 0.12 0.114 0.155 0.023 -0.006 0.005
C3ME 0.155 0.114 0.12 0.005 0.006 -0.023
C3NB 0.114 0.155 0.12 0.006 0.005 -0.023
C3XB 0.155 0.12 0.114 -0.005 -0.023 -0.006
C3OC 0.114 0.12 0.155 -0.006 0.023 0.005
C3DA 0.12 0.155 0.114 -0.023 -0.005 -0.006
C3RE 0.155 0.12 0.114 -0.005 -0.023 -0.006
C3DG 0.114 0.155 0.12 0.006 0.005 -0.023
C3IF 0.114 0.12 0.155 -0.006 0.023 0.005
C3XC 0.12 0.155 0.114 -0.023 -0.005 -0.006
C4NB 0.114 0.152 0.128 0.003 -0.01 -0.021
C4XB 0.152 0.128 0.114 0.01 -0.021 -0.003
C4W 0.152 0.114 0.128 -0.01 0.003 -0.021
C4PD 0.128 0.114 0.152 0.021 -0.003 -0.01
C4ME 0.152 0.114 0.128 -0.01 0.003 -0.021
C4OC 0.114 0.128 0.152 -0.003 0.021 -0.01
C4DA 0.128 0.152 0.114 -0.021 0.01 -0.003
C4RE 0.152 0.128 0.114 0.01 -0.021 -0.003
C4DG 0.114 0.152 0.128 0.003 -0.01 -0.021
C4IF 0.114 0.128 0.152 -0.003 0.021 -0.01
C4XC 0.128 0.152 0.114 -0.021 0.01 -0.003
C5NB 0.107 0.129 0.122 0.005 -0.001 -0.012
C5XB 0.129 0.122 0.107 0.001 -0.012 -0.005
C5W 0.129 0.107 0.122 -0.001 0.005 -0.012
C5PD 0.122 0.107 0.129 0.012 -0.005 -0.001
C5ME 0.129 0.107 0.122 -0.001 0.005 -0.012
C5DA 0.122 0.129 0.107 -0.012 0.001 -0.005
C5DG 0.107 0.129 0.122 0.005 -0.001 -0.012
C5XC 0.122 0.129 0.107 -0.012 0.001 -0.005
C5OC 0.107 0.122 0.129 -0.005 0.012 -0.001
C5RE 0.129 0.122 0.107 0.001 -0.012 -0.005
C5IF 0.107 0.122 0.129 -0.005 0.012 -0.001
C6NB 0.128 0.131 0.124 0.015 -0.013 -0.008
C6XB 0.131 0.124 0.128 0.013 -0.008 -0.015
C6W 0.131 0.128 0.124 -0.013 0.015 -0.008
C6PD 0.124 0.128 0.131 0.008 -0.015 -0.013
C6ME 0.131 0.128 0.124 -0.013 0.015 -0.008
C6DA 0.124 0.131 0.128 -0.008 0.013 -0.015
C6DG 0.128 0.131 0.124 0.015 -0.013 -0.008
C6XC 0.124 0.131 0.128 -0.008 0.013 -0.015
C6OC 0.128 0.124 0.131 -0.015 0.008 -0.013
C6RE 0.131 0.124 0.128 0.013 -0.008 -0.015
C6IF 0.128 0.124 0.131 -0.015 0.008 -0.013
C7W 0.154 0.123 0.121 -0.011 0.014 -0.005
C7PD 0.121 0.123 0.154 0.005 -0.014 -0.011
C7ME 0.154 0.123 0.121 -0.011 0.014 -0.005
C7NB 0.123 0.154 0.121 0.014 -0.011 -0.005
C7XB 0.154 0.121 0.123 0.011 -0.005 -0.014
C7DA 0.121 0.154 0.123 -0.005 0.011 -0.014
C7DG 0.123 0.154 0.121 0.014 -0.011 -0.005
C7XC 0.121 0.154 0.123 -0.005 0.011 -0.014
C7OC 0.123 0.121 0.154 -0.014 0.005 -0.011
C7RE 0.154 0.121 0.123 0.011 -0.005 -0.014
C7IF 0.123 0.121 0.154 -0.014 0.005 -0.011
C8XB 0.152 0.119 0.131 0.013 -0.029 -0.018
C8NB 0.131 0.152 0.119 0.018 -0.013 -0.029
C8W 0.152 0.131 0.119 -0.013 0.018 -0.029
C8PD 0.119 0.131 0.152 0.029 -0.018 -0.013
C8ME 0.152 0.131 0.119 -0.013 0.018 -0.029
C8OC 0.131 0.119 0.152 -0.018 0.029 -0.013
C8RE 0.152 0.119 0.131 0.013 -0.029 -0.018
C8IF 0.131 0.119 0.152 -0.018 0.029 -0.013
C8DA 0.119 0.152 0.131 -0.029 0.013 -0.018
C8DG 0.131 0.152 0.119 0.018 -0.013 -0.029
C8XC 0.119 0.152 0.131 -0.029 0.013 -0.018
C9XB 0.133 0.116 0.122 0.016 -0.02 -0.013
C9NB 0.122 0.133 0.116 0.013 -0.016 -0.02
C9W 0.133 0.122 0.116 -0.016 0.013 -0.02
C9PD 0.116 0.122 0.133 0.02 -0.013 -0.016
C9ME 0.133 0.122 0.116 -0.016 0.013 -0.02
C9OC 0.122 0.116 0.133 -0.013 0.02 -0.016
C9RE 0.133 0.116 0.122 0.016 -0.02 -0.013
C9IF 0.122 0.116 0.133 -0.013 0.02 -0.016
C9DA 0.116 0.133 0.122 -0.02 0.016 -0.013
C9DG 0.122 0.133 0.116 0.013 -0.016 -0.02
C9XC 0.116 0.133 0.122 -0.02 0.016 -0.013
C10NB 0.112 0.116 0.117 0.015 -0.008 -0.016
C10XB 0.116 0.117 0.112 0.008 -0.016 -0.015
C10W 0.116 0.112 0.117 -0.008 0.015 -0.016
C10PD 0.117 0.112 0.116 0.016 -0.015 -0.008
C10ME 0.116 0.112 0.117 -0.008 0.015 -0.016
C10DA 0.117 0.116 0.112 -0.016 0.008 -0.015
C10DG 0.112 0.116 0.117 0.015 -0.008 -0.016
C10XC 0.117 0.116 0.112 -0.016 0.008 -0.015
C10OC 0.112 0.117 0.116 -0.015 0.016 -0.008
C10RE 0.116 0.117 0.112 0.008 -0.016 -0.015
C10IF 0.112 0.117 0.116 -0.015 0.016 -0.008
C11XB 0.137 0.174 0.177 0.011 -0.038 -0.015
C11NB 0.177 0.137 0.174 0.015 -0.011 -0.038
C11W 0.137 0.177 0.174 -0.011 0.015 -0.038
C11PD 0.174 0.177 0.137 0.038 -0.015 -0.011
C11ME 0.137 0.177 0.174 -0.011 0.015 -0.038
C11OC 0.177 0.174 0.137 -0.015 0.038 -0.011
C11RE 0.137 0.174 0.177 0.011 -0.038 -0.015
C11IF 0.177 0.174 0.137 -0.015 0.038 -0.011
C11DA 0.174 0.137 0.177 -0.038 0.011 -0.015
C11DG 0.177 0.137 0.174 0.015 -0.011 -0.038
C11XC 0.174 0.137 0.177 -0.038 0.011 -0.015
C12XB 0.142 0.207 0.201 0.006 0.006 0.01
C12NB 0.201 0.142 0.207 -0.01 -0.006 0.006
C12W 0.142 0.201 0.207 -0.006 -0.01 0.006
C12PD 0.207 0.201 0.142 -0.006 0.01 -0.006
C12ME 0.142 0.201 0.207 -0.006 -0.01 0.006
C12OC 0.201 0.207 0.142 0.01 -0.006 -0.006
C12RE 0.142 0.207 0.201 0.006 0.006 0.01
C12IF 0.201 0.207 0.142 0.01 -0.006 -0.006
C12DA 0.207 0.142 0.201 0.006 0.006 0.01
C12DG 0.201 0.142 0.207 -0.01 -0.006 0.006
C12XC 0.207 0.142 0.201 0.006 0.006 0.01
C13XB 0.213 0.142 0.135 -0.001 -0.022 -0.035
C13NB 0.135 0.213 0.142 0.035 0.001 -0.022
C13W 0.213 0.135 0.142 0.001 0.035 -0.022
C13PD 0.142 0.135 0.213 0.022 -0.035 0.001
C13ME 0.213 0.135 0.142 0.001 0.035 -0.022
C13OC 0.135 0.142 0.213 -0.035 0.022 0.001
C13RE 0.213 0.142 0.135 -0.001 -0.022 -0.035
C13IF 0.135 0.142 0.213 -0.035 0.022 0.001
C13DA 0.142 0.213 0.135 -0.022 -0.001 -0.035
C13DG 0.135 0.213 0.142 0.035 0.001 -0.022
C13XC 0.142 0.213 0.135 -0.022 -0.001 -0.035
C14XB 0.236 0.169 0.218 -0.012 0.039 0.017
C14NB 0.218 0.236 0.169 -0.017 0.012 0.039
C14W 0.236 0.218 0.169 0.012 -0.017 0.039
C14PD 0.169 0.218 0.236 -0.039 0.017 0.012
C14ME 0.236 0.218 0.169 0.012 -0.017 0.039
C14OC 0.218 0.169 0.236 0.017 -0.039 0.012
C14RE 0.236 0.169 0.218 -0.012 0.039 0.017
C14IF 0.218 0.169 0.236 0.017 -0.039 0.012
C14DA 0.169 0.236 0.218 0.039 -0.012 0.017
C14DG 0.218 0.236 0.169 -0.017 0.012 0.039
C14XC 0.169 0.236 0.218 0.039 -0.012 0.017
Pb1? 0.132(4) 0.0844(18) 0.115(5) 0.000 -0.020(2) 0.000
Pb2? 0.071 0.0779 0.066 0 -0.021 0
loop_
_geom_bond_atom_site_label_1
_geom_bond_atom_site_label_2
_geom_bond_site_symmetry_1
_geom_bond_site_symmetry_2
Cd1 O4 1_555 1_555
O4 C1 1_555 1_555
O5 Cd1 1_555 1_555
O6 Cd1 1_555 1_555
C1 O5 1_555 1_555
C2 C1 1_555 1_555
C3 C2 1_555 1_555
H1 C3 1_555 1_555
C4 C3 1_555 1_555
C5 C4 1_555 1_555
C6 C5 1_555 1_555
H2 C6 1_555 1_555
C7 C2 1_555 1_555
H3 C7 1_555 1_555
C8 C4 1_555 1_555
C9 C8 1_555 1_555
C10 C5 1_555 1_555
C11 C8 1_555 1_555
H4 C11 1_555 1_555
H5 C11 1_555 1_555
C12 C11 1_555 1_555
H6 C12 1_555 1_555
H7 C12 1_555 1_555
H8 C12 1_555 1_555
C13 C8 1_555 1_555
H9 C13 1_555 1_555
H10 C13 1_555 1_555
C14 C13 1_555 1_555
H11 C14 1_555 1_555
H12 C14 1_555 1_555
H13 C14 1_555 1_555
Cd1W O4 1_555 1_555
Cd1SA O6 1_555 1_555
Cd1PD O6 1_555 1_555
Cd1HF O4NB 1_555 1_555
Cd1CA O4NB 1_555 1_555
Cd1QD O4XB 1_555 1_555
Cd1G O4XB 1_555 1_555
Cd1GE O4OC 1_555 1_555
Cd1DA O4DA 1_555 1_555
Cd1AG O4DA 1_555 1_555
Cd1A O4RE 1_555 1_555
Cd1FA O4RE 1_555 1_555
Cd1DG O4DG 1_555 1_555
Cd1WC O4DG 1_555 1_555
Cd1Q O4IF 1_555 1_555
Cd1XC O4XC 1_555 1_555
Cd1EF O4XC 1_555 1_555
O4SA Cd1 1_555 1_555
O4OE Cd1 1_555 1_555
O4ME Cd1 1_555 1_555
O4W Cd1W 1_555 1_555
O4MD Cd1W 1_555 1_555
O4PD Cd1SA 1_555 1_555
O4UB Cd1SA 1_555 1_555
O4NB C1NB 1_555 1_555
O4XB C1XB 1_555 1_555
O4OC Cd1HF 1_555 1_555
O4DA C1DA 1_555 1_555
O4RE C1RE 1_555 1_555
O4DG C1DG 1_555 1_555
O4IF Cd1DG 1_555 1_555
O4XC C1XC 1_555 1_555
O5OE Cd1 1_555 1_555
O5W Cd1W 1_555 1_555
O5MD Cd1W 1_555 1_555
O5PD Cd1PD 1_555 1_555
O5UB Cd1PD 1_555 1_555
O5SA Cd1SA 1_555 1_555
O5ME Cd1SA 1_555 1_555
O5NB Cd1HF 1_555 1_555
O5XB Cd1QD 1_555 1_555
O5OC Cd1GE 1_555 1_555
O5DA Cd1DA 1_555 1_555
O5RE Cd1A 1_555 1_555
O5DG Cd1DG 1_555 1_555
O5IF Cd1Q 1_555 1_555
O5XC Cd1XC 1_555 1_555
C1W O4W 1_555 1_555
C1PD O4PD 1_555 1_555
C1ME O4ME 1_555 1_555
C1NB O5NB 1_555 1_555
C1XB O5XB 1_555 1_555
C1OC O4OC 1_555 1_555
C1DA O5DA 1_555 1_555
C1RE O5RE 1_555 1_555
C1DG O5DG 1_555 1_555
C1IF O4IF 1_555 1_555
C1XC O5XC 1_555 1_555
C2W C1W 1_555 1_555
C2PD C1PD 1_555 1_555
C2ME C1ME 1_555 1_555
C2NB C1NB 1_555 1_555
C2XB C1XB 1_555 1_555
C2OC C1OC 1_555 1_555
C2DA C1DA 1_555 1_555
C2RE C1RE 1_555 1_555
C2DG C1DG 1_555 1_555
C2IF C1IF 1_555 1_555
C2XC C1XC 1_555 1_555
C3W C2W 1_555 1_555
C3PD C2PD 1_555 1_555
C3ME C2ME 1_555 1_555
C3NB C2NB 1_555 1_555
C3XB C2XB 1_555 1_555
C3OC C2OC 1_555 1_555
C3DA C2DA 1_555 1_555
C3RE C2RE 1_555 1_555
C3DG C2DG 1_555 1_555
C3IF C2IF 1_555 1_555
C3XC C2XC 1_555 1_555
H1W C3W 1_555 1_555
H1PD C3PD 1_555 1_555
H1ME C3ME 1_555 1_555
H1NB C3NB 1_555 1_555
H1XB C3XB 1_555 1_555
H1OC C3OC 1_555 1_555
H1DA C3DA 1_555 1_555
H1RE C3RE 1_555 1_555
H1DG C3DG 1_555 1_555
H1IF C3IF 1_555 1_555
H1XC C3XC 1_555 1_555
C4NB C3NB 1_555 1_555
C4XB C3XB 1_555 1_555
C4W C3W 1_555 1_555
C4PD C3PD 1_555 1_555
C4ME C3ME 1_555 1_555
C4OC C3OC 1_555 1_555
C4DA C3DA 1_555 1_555
C4RE C3RE 1_555 1_555
C4DG C3DG 1_555 1_555
C4IF C3IF 1_555 1_555
C4XC C3XC 1_555 1_555
C5NB C4NB 1_555 1_555
C5XB C4XB 1_555 1_555
C5W C4W 1_555 1_555
C5PD C4PD 1_555 1_555
C5ME C4ME 1_555 1_555
C5DA C4DA 1_555 1_555
C5DG C4DG 1_555 1_555
C5XC C4XC 1_555 1_555
C5OC C4OC 1_555 1_555
C5RE C4RE 1_555 1_555
C5IF C4IF 1_555 1_555
C6NB C5NB 1_555 1_555
C6XB C5XB 1_555 1_555
C6W C5W 1_555 1_555
C6PD C5PD 1_555 1_555
C6ME C5ME 1_555 1_555
C6DA C5DA 1_555 1_555
C6DG C5DG 1_555 1_555
C6XC C5XC 1_555 1_555
C6OC C5OC 1_555 1_555
C6RE C5RE 1_555 1_555
C6IF C5IF 1_555 1_555
H2NB C6NB 1_555 1_555
H2XB C6XB 1_555 1_555
H2W C6W 1_555 1_555
H2PD C6PD 1_555 1_555
H2ME C6ME 1_555 1_555
H2DA C6DA 1_555 1_555
H2DG C6DG 1_555 1_555
H2XC C6XC 1_555 1_555
H2OC C6OC 1_555 1_555
H2RE C6RE 1_555 1_555
H2IF C6IF 1_555 1_555
C7W C2W 1_555 1_555
C7PD C2PD 1_555 1_555
C7ME C2ME 1_555 1_555
C7NB C2NB 1_555 1_555
C7XB C2XB 1_555 1_555
C7DA C2DA 1_555 1_555
C7DG C2DG 1_555 1_555
C7XC C2XC 1_555 1_555
C7OC C2OC 1_555 1_555
C7RE C2RE 1_555 1_555
C7IF C2IF 1_555 1_555
H3W C7W 1_555 1_555
H3PD C7PD 1_555 1_555
H3ME C7ME 1_555 1_555
H3NB C7NB 1_555 1_555
H3XB C7XB 1_555 1_555
H3DA C7DA 1_555 1_555
H3DG C7DG 1_555 1_555
H3XC C7XC 1_555 1_555
H3OC C7OC 1_555 1_555
H3RE C7RE 1_555 1_555
H3IF C7IF 1_555 1_555
C8XB C4XB 1_555 1_555
C8NB C4NB 1_555 1_555
C8W C4W 1_555 1_555
C8PD C4PD 1_555 1_555
C8ME C4ME 1_555 1_555
C8OC C4OC 1_555 1_555
C8RE C4RE 1_555 1_555
C8IF C4IF 1_555 1_555
C8DA C4DA 1_555 1_555
C8DG C4DG 1_555 1_555
C8XC C4XC 1_555 1_555
C9XB C10 1_555 1_555
C9NB C8NB 1_555 1_555
C9W C8W 1_555 1_555
C9PD C8PD 1_555 1_555
C9ME C8ME 1_555 1_555
C9OC C8OC 1_555 1_555
C9RE C8RE 1_555 1_555
C9IF C8IF 1_555 1_555
C9DA C8DA 1_555 1_555
C9DG C8DG 1_555 1_555
C9XC C8XC 1_555 1_555
C10NB C9 1_555 1_555
C10XB C5XB 1_555 1_555
C10W C5W 1_555 1_555
C10PD C5PD 1_555 1_555
C10ME C5ME 1_555 1_555
C10DA C5DA 1_555 1_555
C10DG C5DG 1_555 1_555
C10XC C5XC 1_555 1_555
C10OC C5OC 1_555 1_555
C10RE C5RE 1_555 1_555
C10IF C5IF 1_555 1_555
C11XB C8XB 1_555 1_555
C11NB C8NB 1_555 1_555
C11W C8W 1_555 1_555
C11PD C8PD 1_555 1_555
C11ME C8ME 1_555 1_555
C11OC C8OC 1_555 1_555
C11RE C8RE 1_555 1_555
C11IF C8IF 1_555 1_555
C11DA C8DA 1_555 1_555
C11DG C8DG 1_555 1_555
C11XC C8XC 1_555 1_555
H4XB C11XB 1_555 1_555
H4NB C11NB 1_555 1_555
H4W C11W 1_555 1_555
H4PD C11PD 1_555 1_555
H4ME C11ME 1_555 1_555
H4OC C11OC 1_555 1_555
H4RE C11RE 1_555 1_555
H4IF C11IF 1_555 1_555
H4DA C11DA 1_555 1_555
H4DG C11DG 1_555 1_555
H4XC C11XC 1_555 1_555
H5XB C11XB 1_555 1_555
H5NB C11NB 1_555 1_555
H5W C11W 1_555 1_555
H5PD C11PD 1_555 1_555
H5ME C11ME 1_555 1_555
H5OC C11OC 1_555 1_555
H5RE C11RE 1_555 1_555
H5IF C11IF 1_555 1_555
H5DA C11DA 1_555 1_555
H5DG C11DG 1_555 1_555
H5XC C11XC 1_555 1_555
C12XB C11XB 1_555 1_555
C12NB C11NB 1_555 1_555
C12W C11W 1_555 1_555
C12PD C11PD 1_555 1_555
C12ME C11ME 1_555 1_555
C12OC C11OC 1_555 1_555
C12RE C11RE 1_555 1_555
C12IF C11IF 1_555 1_555
C12DA C11DA 1_555 1_555
C12DG C11DG 1_555 1_555
C12XC C11XC 1_555 1_555
H6XB C12XB 1_555 1_555
H6NB C12NB 1_555 1_555
H6W C12W 1_555 1_555
H6PD C12PD 1_555 1_555
H6ME C12ME 1_555 1_555
H6OC C12OC 1_555 1_555
H6RE C12RE 1_555 1_555
H6IF C12IF 1_555 1_555
H6DA C12DA 1_555 1_555
H6DG C12DG 1_555 1_555
H6XC C12XC 1_555 1_555
H7XB C12XB 1_555 1_555
H7NB C12NB 1_555 1_555
H7W C12W 1_555 1_555
H7PD C12PD 1_555 1_555
H7ME C12ME 1_555 1_555
H7OC C12OC 1_555 1_555
H7RE C12RE 1_555 1_555
H7IF C12IF 1_555 1_555
H7DA C12DA 1_555 1_555
H7DG C12DG 1_555 1_555
H7XC C12XC 1_555 1_555
H8XB C12XB 1_555 1_555
H8NB C12NB 1_555 1_555
H8W C12W 1_555 1_555
H8PD C12PD 1_555 1_555
H8ME C12ME 1_555 1_555
H8OC C12OC 1_555 1_555
H8RE C12RE 1_555 1_555
H8IF C12IF 1_555 1_555
H8DA C12DA 1_555 1_555
H8DG C12DG 1_555 1_555
H8XC C12XC 1_555 1_555
C13XB C8XB 1_555 1_555
C13NB C8NB 1_555 1_555
C13W C8W 1_555 1_555
C13PD C8PD 1_555 1_555
C13ME C8ME 1_555 1_555
C13OC C8OC 1_555 1_555
C13RE C8RE 1_555 1_555
C13IF C8IF 1_555 1_555
C13DA C8DA 1_555 1_555
C13DG C8DG 1_555 1_555
C13XC C8XC 1_555 1_555
H9XB C13XB 1_555 1_555
H9NB C13NB 1_555 1_555
H9W C13W 1_555 1_555
H9PD C13PD 1_555 1_555
H9ME C13ME 1_555 1_555
H9OC C13OC 1_555 1_555
H9RE C13RE 1_555 1_555
H9IF C13IF 1_555 1_555
H9DA C13DA 1_555 1_555
H9DG C13DG 1_555 1_555
H9XC C13XC 1_555 1_555
H10XB C13XB 1_555 1_555
H10NB C13NB 1_555 1_555
H10W C13W 1_555 1_555
H10PD C13PD 1_555 1_555
H10ME C13ME 1_555 1_555
H10OC C13OC 1_555 1_555
H10RE C13RE 1_555 1_555
H10IF C13IF 1_555 1_555
H10DA C13DA 1_555 1_555
H10DG C13DG 1_555 1_555
H10XC C13XC 1_555 1_555
C14XB C13XB 1_555 1_555
C14NB C13NB 1_555 1_555
C14W C13W 1_555 1_555
C14PD C13PD 1_555 1_555
C14ME C13ME 1_555 1_555
C14OC C13OC 1_555 1_555
C14RE C13RE 1_555 1_555
C14IF C13IF 1_555 1_555
C14DA C13DA 1_555 1_555
C14DG C13DG 1_555 1_555
C14XC C13XC 1_555 1_555
H11XB C14XB 1_555 1_555
H11NB C14NB 1_555 1_555
H11W C14W 1_555 1_555
H11PD C14PD 1_555 1_555
H11ME C14ME 1_555 1_555
H11OC C14OC 1_555 1_555
H11RE C14RE 1_555 1_555
H11IF C14IF 1_555 1_555
H11DA C14DA 1_555 1_555
H11DG C14DG 1_555 1_555
H11XC C14XC 1_555 1_555
H12XB C14XB 1_555 1_555
H12NB C14NB 1_555 1_555
H12W C14W 1_555 1_555
H12PD C14PD 1_555 1_555
H12ME C14ME 1_555 1_555
H12OC C14OC 1_555 1_555
H12RE C14RE 1_555 1_555
H12IF C14IF 1_555 1_555
H12DA C14DA 1_555 1_555
H12DG C14DG 1_555 1_555
H12XC C14XC 1_555 1_555
H13XB C14XB 1_555 1_555
H13NB C14NB 1_555 1_555
H13W C14W 1_555 1_555
H13PD C14PD 1_555 1_555
H13ME C14ME 1_555 1_555
H13OC C14OC 1_555 1_555
H13RE C14RE 1_555 1_555
H13IF C14IF 1_555 1_555
H13DA C14DA 1_555 1_555
H13DG C14DG 1_555 1_555
H13XC C14XC 1_555 1_555
O6 Cd1W 1_555 1_555
C6 C7 1_555 1_555
C9 C10 1_555 1_555
Cd1W O4OE 1_555 1_555
Cd1SA O4SA 1_555 1_555
Cd1SA O4ME 1_555 1_555
Cd1PD O4W 1_555 1_555
Cd1PD O4MD 1_555 1_555
Cd1PD O4PD 1_555 1_555
Cd1PD O4UB 1_555 1_555
O5W C1W 1_555 1_555
O5PD C1PD 1_555 1_555
O5ME C1ME 1_555 1_555
O5OC C1OC 1_555 1_555
O5IF C1IF 1_555 1_555
C5NB C10NB 1_555 1_555
C6NB C7NB 1_555 1_555
C6XB C7XB 1_555 1_555
C6W C7W 1_555 1_555
C6PD C7PD 1_555 1_555
C6ME C7ME 1_555 1_555
C6DA C7DA 1_555 1_555
C6DG C7DG 1_555 1_555
C6XC C7XC 1_555 1_555
C6OC C7OC 1_555 1_555
C6RE C7RE 1_555 1_555
C6IF C7IF 1_555 1_555
C8XB C9XB 1_555 1_555
C9XB C10XB 1_555 1_555
C9NB C10NB 1_555 1_555
C9NB C10XB 1_555 1_555
C9W C10W 1_555 1_555
C9W C10DA 1_555 1_555
C9PD C10PD 1_555 1_555
C9PD C10DG 1_555 1_555
C9ME C10ME 1_555 1_555
C9ME C10XC 1_555 1_555
C9OC C10W 1_555 1_555
C9OC C10OC 1_555 1_555
C9RE C10PD 1_555 1_555
C9RE C10RE 1_555 1_555
C9IF C10ME 1_555 1_555
C9IF C10IF 1_555 1_555
C9DA C10DA 1_555 1_555
C9DA C10OC 1_555 1_555
C9DG C10DG 1_555 1_555
C9DG C10RE 1_555 1_555
C9XC C10XC 1_555 1_555
C9XC C10IF 1_555 1_555

#END
