
#######################################################################
#
#                 Cambridge Crystallographic Data Centre
#                                CCDC 
#
#######################################################################
#
# If this CIF has been generated from an entry in the Cambridge 
# Structural Database, then it will include bibliographic, chemical, 
# crystal, experimental, refinement or atomic coordinate data resulting 
# from the CCDC's data processing and validation procedures.
#
#######################################################################

data_BUFNUM01
_chemical_name_common            
'catena-(Sesqui-cadmium(ii) tris(oxonium) octakis(mu!6$-5,5,10,10,15,15-hexaethyltruxene-2,7,12-tricarboxylato)-tris(mu!4$-oxo)-dodeca-cadmium(ii) hexahydrate)'
_chemical_formula_moiety         
'(Cd1 2+)1.5n,3n(H3 O1 1+),n(C336 H312 Cd12 O51 6-),6n(H2 O1)'
_chemical_name_systematic        
"catena-(Sesqui-cadmium(ii) tris(oxonium) octakis(\m~6~-5,5,10,10,15,15-hexaethyl-10,15-dihydro-5H-diindeno[1,2-a:1',2'-c]fluorene-2,7,12-tricarboxylato)-tris(\m~4~-oxo)-dodeca-cadmium(ii) hexahydrate)"
_symmetry_cell_setting           cubic
_symmetry_space_group_name_H-M   'F m -3 c'
_symmetry_Int_Tables_number      226
_space_group_name_Hall           '-F 4a 2 3'
loop_
_symmetry_equiv_pos_site_id
_symmetry_equiv_pos_as_xyz
1 x,y,z
2 z,x,y
3 y,z,x
4 1/2+y,1/2+x,1/2-z
5 1/2+y,1/2-x,1/2+z
6 1/2-y,1/2+x,1/2+z
7 1/2+x,1/2+z,1/2-y
8 1/2-x,1/2+z,1/2+y
9 1/2+x,1/2-z,1/2+y
10 1/2+z,1/2+y,1/2-x
11 1/2+z,1/2-y,1/2+x
12 1/2-z,1/2+y,1/2+x
13 x,1/2+y,1/2+z
14 z,1/2+x,1/2+y
15 y,1/2+z,1/2+x
16 1/2+y,x,-z
17 1/2+y,-x,z
18 1/2-y,x,z
19 1/2+x,z,-y
20 1/2-x,z,y
21 1/2+x,-z,y
22 1/2+z,y,-x
23 1/2+z,-y,x
24 1/2-z,y,x
25 1/2+x,y,1/2+z
26 1/2+z,x,1/2+y
27 1/2+y,z,1/2+x
28 y,1/2+x,-z
29 y,1/2-x,z
30 -y,1/2+x,z
31 x,1/2+z,-y
32 -x,1/2+z,y
33 x,1/2-z,y
34 z,1/2+y,-x
35 z,1/2-y,x
36 -z,1/2+y,x
37 1/2+x,1/2+y,z
38 1/2+z,1/2+x,y
39 1/2+y,1/2+z,x
40 y,x,1/2-z
41 y,-x,1/2+z
42 -y,x,1/2+z
43 x,z,1/2-y
44 -x,z,1/2+y
45 x,-z,1/2+y
46 z,y,1/2-x
47 z,-y,1/2+x
48 -z,y,1/2+x
49 -x,-y,z
50 -x,y,-z
51 x,-y,-z
52 z,-x,-y
53 -z,-x,y
54 -z,x,-y
55 -y,z,-x
56 y,-z,-x
57 -y,-z,x
58 1/2-y,1/2-x,1/2-z
59 1/2-x,1/2-z,1/2-y
60 1/2-z,1/2-y,1/2-x
61 -x,1/2-y,1/2+z
62 -x,1/2+y,1/2-z
63 x,1/2-y,1/2-z
64 z,1/2-x,1/2-y
65 -z,1/2-x,1/2+y
66 -z,1/2+x,1/2-y
67 -y,1/2+z,1/2-x
68 y,1/2-z,1/2-x
69 -y,1/2-z,1/2+x
70 1/2-y,-x,-z
71 1/2-x,-z,-y
72 1/2-z,-y,-x
73 1/2-x,-y,1/2+z
74 1/2-x,y,1/2-z
75 1/2+x,-y,1/2-z
76 1/2+z,-x,1/2-y
77 1/2-z,-x,1/2+y
78 1/2-z,x,1/2-y
79 1/2-y,z,1/2-x
80 1/2+y,-z,1/2-x
81 1/2-y,-z,1/2+x
82 -y,1/2-x,-z
83 -x,1/2-z,-y
84 -z,1/2-y,-x
85 1/2-x,1/2-y,z
86 1/2-x,1/2+y,-z
87 1/2+x,1/2-y,-z
88 1/2+z,1/2-x,-y
89 1/2-z,1/2-x,y
90 1/2-z,1/2+x,-y
91 1/2-y,1/2+z,-x
92 1/2+y,1/2-z,-x
93 1/2-y,1/2-z,x
94 -y,-x,1/2-z
95 -x,-z,1/2-y
96 -z,-y,1/2-x
97 -x,-y,-z
98 -z,-x,-y
99 -y,-z,-x
100 1/2-y,1/2-x,1/2+z
101 1/2-y,1/2+x,1/2-z
102 1/2+y,1/2-x,1/2-z
103 1/2-x,1/2-z,1/2+y
104 1/2+x,1/2-z,1/2-y
105 1/2-x,1/2+z,1/2-y
106 1/2-z,1/2-y,1/2+x
107 1/2-z,1/2+y,1/2-x
108 1/2+z,1/2-y,1/2-x
109 -x,1/2-y,1/2-z
110 -z,1/2-x,1/2-y
111 -y,1/2-z,1/2-x
112 1/2-y,-x,z
113 1/2-y,x,-z
114 1/2+y,-x,-z
115 1/2-x,-z,y
116 1/2+x,-z,-y
117 1/2-x,z,-y
118 1/2-z,-y,x
119 1/2-z,y,-x
120 1/2+z,-y,-x
121 1/2-x,-y,1/2-z
122 1/2-z,-x,1/2-y
123 1/2-y,-z,1/2-x
124 -y,1/2-x,z
125 -y,1/2+x,-z
126 y,1/2-x,-z
127 -x,1/2-z,y
128 x,1/2-z,-y
129 -x,1/2+z,-y
130 -z,1/2-y,x
131 -z,1/2+y,-x
132 z,1/2-y,-x
133 1/2-x,1/2-y,-z
134 1/2-z,1/2-x,-y
135 1/2-y,1/2-z,-x
136 -y,-x,1/2+z
137 -y,x,1/2-z
138 y,-x,1/2-z
139 -x,-z,1/2+y
140 x,-z,1/2-y
141 -x,z,1/2-y
142 -z,-y,1/2+x
143 -z,y,1/2-x
144 z,-y,1/2-x
145 x,y,-z
146 x,-y,z
147 -x,y,z
148 -z,x,y
149 z,x,-y
150 z,-x,y
151 y,-z,x
152 -y,z,x
153 y,z,-x
154 1/2+y,1/2+x,1/2+z
155 1/2+x,1/2+z,1/2+y
156 1/2+z,1/2+y,1/2+x
157 x,1/2+y,1/2-z
158 x,1/2-y,1/2+z
159 -x,1/2+y,1/2+z
160 -z,1/2+x,1/2+y
161 z,1/2+x,1/2-y
162 z,1/2-x,1/2+y
163 y,1/2-z,1/2+x
164 -y,1/2+z,1/2+x
165 y,1/2+z,1/2-x
166 1/2+y,x,z
167 1/2+x,z,y
168 1/2+z,y,x
169 1/2+x,y,1/2-z
170 1/2+x,-y,1/2+z
171 1/2-x,y,1/2+z
172 1/2-z,x,1/2+y
173 1/2+z,x,1/2-y
174 1/2+z,-x,1/2+y
175 1/2+y,-z,1/2+x
176 1/2-y,z,1/2+x
177 1/2+y,z,1/2-x
178 y,1/2+x,z
179 x,1/2+z,y
180 z,1/2+y,x
181 1/2+x,1/2+y,-z
182 1/2+x,1/2-y,z
183 1/2-x,1/2+y,z
184 1/2-z,1/2+x,y
185 1/2+z,1/2+x,-y
186 1/2+z,1/2-x,y
187 1/2+y,1/2-z,x
188 1/2-y,1/2+z,x
189 1/2+y,1/2+z,-x
190 y,x,1/2+z
191 x,z,1/2+y
192 z,y,1/2+x
_cell_length_a                   48.673(6)
_cell_length_b                   48.673(6)
_cell_length_c                   48.673(6)
_cell_angle_alpha                90
_cell_angle_beta                 90
_cell_angle_gamma                90
_cell_volume                     115309
_exptl_crystal_colour            colorless
_exptl_crystal_description       block
_cell_formula_units_Z            8
_exptl_crystal_preparation       
'crystal soaked in Pb(NO3)2 solution for 20 mins'
loop_
_atom_site_label
_atom_site_type_symbol
_atom_site_fract_x
_atom_site_fract_y
_atom_site_fract_z
O2 O 0.0000 0.1991(8) 0.1338(8)
O3 O 0.0000 0.3092(7) 0.1282(8)
Cd1 Cd 0.0000 0.19897(15) 0.22481(4)
O4 O 0.03463(11) 0.16144(13) 0.23731(14)
O5 O 0.03084(11) 0.19896(12) 0.26094(15)
O6 O 0.0000 0.2500 0.2500
C1 C 0.04199(13) 0.17506(16) 0.25733(17)
C2 C 0.06409(13) 0.16602(12) 0.27554(18)
C3 C 0.07217(14) 0.18249(15) 0.29777(17)
H1 H 0.0632 0.1995 0.3014
C4 C 0.09375(13) 0.17332(13) 0.31448(15)
C5 C 0.10795(13) 0.14925(12) 0.30866(14)
C6 C 0.09898(14) 0.13331(13) 0.28683(15)
H2 H 0.1078 0.1163 0.2830
C7 C 0.07752(13) 0.14185(14) 0.27067(16)
H3 H 0.0718 0.1307 0.2557
C8 C 0.10416(15) 0.18724(14) 0.33989(15)
C9 C 0.12787(13) 0.16844(13) 0.34789(14)
C10 C 0.13024(12) 0.14664(13) 0.32927(12)
C11 C 0.11397(19) 0.21593(18) 0.33290(18)
H4 H 0.1195 0.2252 0.3501
H5 H 0.0984 0.2263 0.3251
C12 C 0.1386(2) 0.2174(3) 0.3122(2)
H6 H 0.1540 0.2066 0.3194
H7 H 0.1443 0.2366 0.3100
H8 H 0.1328 0.2100 0.2944
C13 C 0.08020(17) 0.18670(18) 0.3618(2)
H9 H 0.0866 0.1959 0.3787
H10 H 0.0645 0.1973 0.3546
C14 C 0.0700(2) 0.1569(2) 0.3694(2)
H11 H 0.0629 0.1479 0.3529
H12 H 0.0555 0.1581 0.3833
H13 H 0.0854 0.1463 0.3767
Cd1FA Cd 0.0000 0.27519(4) 0.19897(15)
Cd1PA Cd 0.0000 0.22481(4) 0.30103(15)
Cd1DD Cd 0.0000 0.30103(15) 0.27519(4)
Cd1FF Cd 0.19897(15) 0.27519(4) 0.5000
Cd1SA Cd 0.22481(4) 0.19897(15) 0.5000
Cd1QD Cd 0.27519(4) 0.0000 0.30103(15)
Cd1MA Cd 0.19897(15) 0.0000 0.27519(4)
Cd1AD Cd 0.27519(4) 0.30103(15) 0.5000
Cd1BA Cd 0.19897(15) 0.5000 0.22481(4)
Cd1DF Cd 0.22481(4) 0.5000 0.30103(15)
Cd1AG Cd 0.27519(4) 0.5000 0.19897(15)
Cd1B Cd 0.19897(15) 0.22481(4) 0.0000
Cd1HA Cd 0.22481(4) 0.30103(15) 0.0000
Cd1U Cd -0.27519(4) 0.19897(15) 0.0000
Cd1UE Cd -0.19897(15) 0.22481(4) 0.0000
Cd1FE Cd -0.19897(15) 0.0000 0.27519(4)
Cd1QE Cd -0.22481(4) 0.0000 0.19897(15)
O4PE O -0.03463(11) 0.16144(13) 0.23731(14)
O4DD O -0.03463(11) 0.33856(13) 0.26269(14)
O4JB O 0.03463(11) 0.33856(13) 0.26269(14)
O4PA O 0.03463(11) 0.23731(14) 0.33856(13)
O4JE O -0.03463(11) 0.23731(14) 0.33856(13)
O4FA O 0.03463(11) 0.26269(14) 0.16144(13)
O4VD O -0.03463(11) 0.26269(14) 0.16144(13)
O4OB O 0.16144(13) 0.26269(14) 0.46537(11)
O4YB O 0.26269(14) 0.03463(11) 0.33856(13)
O4GB O 0.26269(14) 0.33856(13) 0.46537(11)
O4BA O 0.16144(13) 0.46537(11) 0.23731(14)
O4JC O 0.26269(14) 0.46537(11) 0.16144(13)
O4B O 0.16144(13) 0.23731(14) 0.03463(11)
O4KF O -0.26269(14) 0.16144(13) 0.03463(11)
O4FE O -0.16144(13) 0.03463(11) 0.26269(14)
O5FA O 0.03084(11) 0.23906(15) 0.19896(12)
O5VD O -0.03084(11) 0.23906(15) 0.19896(12)
O5PE O -0.03084(11) 0.19896(12) 0.26094(15)
O5JB O 0.03084(11) 0.30104(12) 0.23906(15)
O5JE O -0.03084(11) 0.26094(15) 0.30104(12)
O5DD O -0.03084(11) 0.30104(12) 0.23906(15)
O5PA O 0.03084(11) 0.26094(15) 0.30104(12)
O5OB O 0.19896(12) 0.23906(15) 0.46916(11)
O5YB O 0.23906(15) 0.03084(11) 0.30104(12)
O5GB O 0.23906(15) 0.30104(12) 0.46916(11)
O5BA O 0.19896(12) 0.46916(11) 0.26094(15)
O5JC O 0.23906(15) 0.46916(11) 0.19896(12)
O5B O 0.19896(12) 0.26094(15) 0.03084(11)
O5KF O -0.23906(15) 0.19896(12) 0.03084(11)
O5FE O -0.19896(12) 0.03084(11) 0.23906(15)
C1PA C 0.04199(13) 0.25733(17) 0.32494(16)
C1JB C 0.04199(13) 0.32494(16) 0.24267(17)
C1VD C -0.04199(13) 0.24267(17) 0.17506(16)
C1OB C 0.17506(16) 0.24267(17) 0.45801(13)
C1YB C 0.24267(17) 0.04199(13) 0.32494(16)
C1GB C 0.24267(17) 0.32494(16) 0.45801(13)
C1BA C 0.17506(16) 0.45801(13) 0.25733(17)
C1JC C 0.24267(17) 0.45801(13) 0.17506(16)
C1B C 0.17506(16) 0.25733(17) 0.04199(13)
C1KF C -0.24267(17) 0.17506(16) 0.04199(13)
C1FE C -0.17506(16) 0.04199(13) 0.24267(17)
C2PA C 0.06409(13) 0.27554(18) 0.33398(12)
C2JB C 0.06409(13) 0.33398(12) 0.22446(18)
C2VD C -0.06409(13) 0.22446(18) 0.16602(12)
C2OB C 0.16602(12) 0.22446(18) 0.43591(13)
C2YB C 0.22446(18) 0.06409(13) 0.33398(12)
C2GB C 0.22446(18) 0.33398(12) 0.43591(13)
C2BA C 0.16602(12) 0.43591(13) 0.27554(18)
C2JC C 0.22446(18) 0.43591(13) 0.16602(12)
C2B C 0.16602(12) 0.27554(18) 0.06409(13)
C2KF C -0.22446(18) 0.16602(12) 0.06409(13)
C2FE C -0.16602(12) 0.06409(13) 0.22446(18)
C3PA C 0.07217(14) 0.29777(17) 0.31751(15)
C3JB C 0.07217(14) 0.31751(15) 0.20223(17)
C3VD C -0.07217(14) 0.20223(17) 0.18249(15)
C3OB C 0.18249(15) 0.20223(17) 0.42783(14)
C3YB C 0.20223(17) 0.07217(14) 0.31751(15)
C3GB C 0.20223(17) 0.31751(15) 0.42783(14)
C3BA C 0.18249(15) 0.42783(14) 0.29777(17)
C3JC C 0.20223(17) 0.42783(14) 0.18249(15)
C3B C 0.18249(15) 0.29777(17) 0.07217(14)
C3KF C -0.20223(17) 0.18249(15) 0.07217(14)
C3FE C -0.18249(15) 0.07217(14) 0.20223(17)
H1PA H 0.0632 0.3014 0.3005
H1JB H 0.0632 0.3005 0.1986
H1VD H -0.0632 0.1986 0.1995
H1OB H 0.1995 0.1986 0.4368
H1YB H 0.1986 0.0632 0.3005
H1GB H 0.1986 0.3005 0.4368
H1BA H 0.1995 0.4368 0.3014
H1JC H 0.1986 0.4368 0.1995
H1B H 0.1995 0.3014 0.0632
H1KF H -0.1986 0.1995 0.0632
H1FE H -0.1995 0.0632 0.1986
C4OB C 0.17332(13) 0.18552(15) 0.40625(13)
C4YB C 0.18552(15) 0.09375(13) 0.32668(13)
C4PA C 0.09375(13) 0.31448(15) 0.32668(13)
C4JB C 0.09375(13) 0.32668(13) 0.18552(15)
C4VD C -0.09375(13) 0.18552(15) 0.17332(13)
C4GB C 0.18552(15) 0.32668(13) 0.40625(13)
C4BA C 0.17332(13) 0.40625(13) 0.31448(15)
C4JC C 0.18552(15) 0.40625(13) 0.17332(13)
C4B C 0.17332(13) 0.31448(15) 0.09375(13)
C4KF C -0.18552(15) 0.17332(13) 0.09375(13)
C4FE C -0.17332(13) 0.09375(13) 0.18552(15)
C5OB C 0.14925(12) 0.19134(14) 0.39205(13)
C5YB C 0.19134(14) 0.10795(13) 0.35075(12)
C5PA C 0.10795(13) 0.30866(14) 0.35075(12)
C5JB C 0.10795(13) 0.35075(12) 0.19134(14)
C5VD C -0.10795(13) 0.19134(14) 0.14925(12)
C5BA C 0.14925(12) 0.39205(13) 0.30866(14)
C5B C 0.14925(12) 0.30866(14) 0.10795(13)
C5FE C -0.14925(12) 0.10795(13) 0.19134(14)
C5GB C 0.19134(14) 0.35075(12) 0.39205(13)
C5JC C 0.19134(14) 0.39205(13) 0.14925(12)
C5KF C -0.19134(14) 0.14925(12) 0.10795(13)
C6OB C 0.13331(13) 0.21317(15) 0.40102(14)
C6YB C 0.21317(15) 0.09898(14) 0.36669(13)
C6PA C 0.09898(14) 0.28683(15) 0.36669(13)
C6JB C 0.09898(14) 0.36669(13) 0.21317(15)
C6VD C -0.09898(14) 0.21317(15) 0.13331(13)
C6BA C 0.13331(13) 0.40102(14) 0.28683(15)
C6B C 0.13331(13) 0.28683(15) 0.09898(14)
C6FE C -0.13331(13) 0.09898(14) 0.21317(15)
C6GB C 0.21317(15) 0.36669(13) 0.40102(14)
C6JC C 0.21317(15) 0.40102(14) 0.13331(13)
C6KF C -0.21317(15) 0.13331(13) 0.09898(14)
H2OB H 0.1163 0.2170 0.3922
H2YB H 0.2170 0.1078 0.3837
H2PA H 0.1078 0.2830 0.3837
H2JB H 0.1078 0.3837 0.2170
H2VD H -0.1078 0.2170 0.1163
H2BA H 0.1163 0.3922 0.2830
H2B H 0.1163 0.2830 0.1078
H2FE H -0.1163 0.1078 0.2170
H2GB H 0.2170 0.3837 0.3922
H2JC H 0.2170 0.3922 0.1163
H2KF H -0.2170 0.1163 0.1078
C7PA C 0.07752(13) 0.27067(16) 0.35815(14)
C7JB C 0.07752(13) 0.35815(14) 0.22933(16)
C7VD C -0.07752(13) 0.22933(16) 0.14185(14)
C7OB C 0.14185(14) 0.22933(16) 0.42248(13)
C7YB C 0.22933(16) 0.07752(13) 0.35815(14)
C7BA C 0.14185(14) 0.42248(13) 0.27067(16)
C7B C 0.14185(14) 0.27067(16) 0.07752(13)
C7FE C -0.14185(14) 0.07752(13) 0.22933(16)
C7GB C 0.22933(16) 0.35815(14) 0.42248(13)
C7JC C 0.22933(16) 0.42248(13) 0.14185(14)
C7KF C -0.22933(16) 0.14185(14) 0.07752(13)
H3PA H 0.0718 0.2557 0.3693
H3JB H 0.0718 0.3693 0.2443
H3VD H -0.0718 0.2443 0.1307
H3OB H 0.1307 0.2443 0.4282
H3YB H 0.2443 0.0718 0.3693
H3BA H 0.1307 0.4282 0.2557
H3B H 0.1307 0.2557 0.0718
H3FE H -0.1307 0.0718 0.2443
H3GB H 0.2443 0.3693 0.4282
H3JC H 0.2443 0.4282 0.1307
H3KF H -0.2443 0.1307 0.0718
C8YB C 0.16011(15) 0.10416(15) 0.31276(14)
C8OB C 0.18724(14) 0.16011(15) 0.39584(15)
C8PA C 0.10416(15) 0.33989(15) 0.31276(14)
C8JB C 0.10416(15) 0.31276(14) 0.16011(15)
C8VD C -0.10416(15) 0.16011(15) 0.18724(14)
C8GB C 0.16011(15) 0.31276(14) 0.39584(15)
C8JC C 0.16011(15) 0.39584(15) 0.18724(14)
C8KF C -0.16011(15) 0.18724(14) 0.10416(15)
C8BA C 0.18724(14) 0.39584(15) 0.33989(15)
C8B C 0.18724(14) 0.33989(15) 0.10416(15)
C8FE C -0.18724(14) 0.10416(15) 0.16011(15)
C9YB C 0.15211(14) 0.12787(13) 0.33156(13)
C9OB C 0.16844(13) 0.15211(14) 0.37213(13)
C9PA C 0.12787(13) 0.34789(14) 0.33156(13)
C9JB C 0.12787(13) 0.33156(13) 0.15211(14)
C9VD C -0.12787(13) 0.15211(14) 0.16844(13)
C9GB C 0.15211(14) 0.33156(13) 0.37213(13)
C9JC C 0.15211(14) 0.37213(13) 0.16844(13)
C9KF C -0.15211(14) 0.16844(13) 0.12787(13)
C9BA C 0.16844(13) 0.37213(13) 0.34789(14)
C9B C 0.16844(13) 0.34789(14) 0.12787(13)
C9FE C -0.16844(13) 0.12787(13) 0.15211(14)
C10OB C 0.14664(13) 0.17073(12) 0.36976(12)
C10YB C 0.17073(12) 0.13024(12) 0.35336(13)
C10PA C 0.13024(12) 0.32927(12) 0.35336(13)
C10JB C 0.13024(12) 0.35336(13) 0.17073(12)
C10VD C -0.13024(12) 0.17073(12) 0.14664(13)
C10BA C 0.14664(13) 0.36976(12) 0.32927(12)
C10B C 0.14664(13) 0.32927(12) 0.13024(12)
C10FE C -0.14664(13) 0.13024(12) 0.17073(12)
C10GB C 0.17073(12) 0.35336(13) 0.36976(12)
C10JC C 0.17073(12) 0.36976(12) 0.14664(13)
C10KF C -0.17073(12) 0.14664(13) 0.13024(12)
C11YB C 0.16710(18) 0.11397(19) 0.28407(18)
C11OB C 0.21593(18) 0.16710(18) 0.38603(19)
C11PA C 0.11397(19) 0.33290(18) 0.28407(18)
C11JB C 0.11397(19) 0.28407(18) 0.16710(18)
C11VD C -0.11397(19) 0.16710(18) 0.21593(18)
C11GB C 0.16710(18) 0.28407(18) 0.38603(19)
C11JC C 0.16710(18) 0.38603(19) 0.21593(18)
C11KF C -0.16710(18) 0.21593(18) 0.11397(19)
C11BA C 0.21593(18) 0.38603(19) 0.33290(18)
C11B C 0.21593(18) 0.33290(18) 0.11397(19)
C11FE C -0.21593(18) 0.11397(19) 0.16710(18)
H4YB H 0.1499 0.1195 0.2748
H4OB H 0.2252 0.1499 0.3805
H4PA H 0.1195 0.3501 0.2748
H4JB H 0.1195 0.2748 0.1499
H4VD H -0.1195 0.1499 0.2252
H4GB H 0.1499 0.2748 0.3805
H4JC H 0.1499 0.3805 0.2252
H4KF H -0.1499 0.2252 0.1195
H4BA H 0.2252 0.3805 0.3501
H4B H 0.2252 0.3501 0.1195
H4FE H -0.2252 0.1195 0.1499
H5YB H 0.1749 0.0984 0.2737
H5OB H 0.2263 0.1749 0.4016
H5PA H 0.0984 0.3251 0.2737
H5JB H 0.0984 0.2737 0.1749
H5VD H -0.0984 0.1749 0.2263
H5GB H 0.1749 0.2737 0.4016
H5JC H 0.1749 0.4016 0.2263
H5KF H -0.1749 0.2263 0.0984
H5BA H 0.2263 0.4016 0.3251
H5B H 0.2263 0.3251 0.0984
H5FE H -0.2263 0.0984 0.1749
C12YB C 0.1878(2) 0.1386(2) 0.2826(3)
C12OB C 0.2174(3) 0.1878(2) 0.3614(2)
C12PA C 0.1386(2) 0.3122(2) 0.2826(3)
C12JB C 0.1386(2) 0.2826(3) 0.1878(2)
C12VD C -0.1386(2) 0.1878(2) 0.2174(3)
C12GB C 0.1878(2) 0.2826(3) 0.3614(2)
C12JC C 0.1878(2) 0.3614(2) 0.2174(3)
C12KF C -0.1878(2) 0.2174(3) 0.1386(2)
C12BA C 0.2174(3) 0.3614(2) 0.3122(2)
C12B C 0.2174(3) 0.3122(2) 0.1386(2)
C12FE C -0.2174(3) 0.1386(2) 0.1878(2)
H6YB H 0.1806 0.1540 0.2934
H6OB H 0.2066 0.1806 0.3460
H6PA H 0.1540 0.3194 0.2934
H6JB H 0.1540 0.2934 0.1806
H6VD H -0.1540 0.1806 0.2066
H6GB H 0.1806 0.2934 0.3460
H6JC H 0.1806 0.3460 0.2066
H6KF H -0.1806 0.2066 0.1540
H6BA H 0.2066 0.3460 0.3194
H6B H 0.2066 0.3194 0.1540
H6FE H -0.2066 0.1540 0.1806
H7YB H 0.1900 0.1443 0.2634
H7OB H 0.2366 0.1900 0.3557
H7PA H 0.1443 0.3100 0.2634
H7JB H 0.1443 0.2634 0.1900
H7VD H -0.1443 0.1900 0.2366
H7GB H 0.1900 0.2634 0.3557
H7JC H 0.1900 0.3557 0.2366
H7KF H -0.1900 0.2366 0.1443
H7BA H 0.2366 0.3557 0.3100
H7B H 0.2366 0.3100 0.1443
H7FE H -0.2366 0.1443 0.1900
H8YB H 0.2056 0.1328 0.2900
H8OB H 0.2100 0.2056 0.3672
H8PA H 0.1328 0.2944 0.2900
H8JB H 0.1328 0.2900 0.2056
H8VD H -0.1328 0.2056 0.2100
H8GB H 0.2056 0.2900 0.3672
H8JC H 0.2056 0.3672 0.2100
H8KF H -0.2056 0.2100 0.1328
H8BA H 0.2100 0.3672 0.2944
H8B H 0.2100 0.2944 0.1328
H8FE H -0.2100 0.1328 0.2056
C13YB C 0.1382(2) 0.08020(17) 0.31330(18)
C13OB C 0.18670(18) 0.1382(2) 0.41980(17)
C13PA C 0.08020(17) 0.3618(2) 0.31330(18)
C13JB C 0.08020(17) 0.31330(18) 0.1382(2)
C13VD C -0.08020(17) 0.1382(2) 0.18670(18)
C13GB C 0.1382(2) 0.31330(18) 0.41980(17)
C13JC C 0.1382(2) 0.41980(17) 0.18670(18)
C13KF C -0.1382(2) 0.18670(18) 0.08020(17)
C13BA C 0.18670(18) 0.41980(17) 0.3618(2)
C13B C 0.18670(18) 0.3618(2) 0.08020(17)
C13FE C -0.18670(18) 0.08020(17) 0.1382(2)
H9YB H 0.1213 0.0866 0.3041
H9OB H 0.1959 0.1213 0.4134
H9PA H 0.0866 0.3787 0.3041
H9JB H 0.0866 0.3041 0.1213
H9VD H -0.0866 0.1213 0.1959
H9GB H 0.1213 0.3041 0.4134
H9JC H 0.1213 0.4134 0.1959
H9KF H -0.1213 0.1959 0.0866
H9BA H 0.1959 0.4134 0.3787
H9B H 0.1959 0.3787 0.0866
H9FE H -0.1959 0.0866 0.1213
H10YB H 0.1454 0.0645 0.3027
H10OB H 0.1973 0.1454 0.4355
H10PA H 0.0645 0.3546 0.3027
H10JB H 0.0645 0.3027 0.1454
H10VD H -0.0645 0.1454 0.1973
H10GB H 0.1454 0.3027 0.4355
H10JC H 0.1454 0.4355 0.1973
H10KF H -0.1454 0.1973 0.0645
H10BA H 0.1973 0.4355 0.3546
H10B H 0.1973 0.3546 0.0645
H10FE H -0.1973 0.0645 0.1454
C14YB C 0.1306(2) 0.0700(2) 0.3431(2)
C14OB C 0.1569(2) 0.1306(2) 0.4300(2)
C14PA C 0.0700(2) 0.3694(2) 0.3431(2)
C14JB C 0.0700(2) 0.3431(2) 0.1306(2)
C14VD C -0.0700(2) 0.1306(2) 0.1569(2)
C14GB C 0.1306(2) 0.3431(2) 0.4300(2)
C14JC C 0.1306(2) 0.4300(2) 0.1569(2)
C14KF C -0.1306(2) 0.1569(2) 0.0700(2)
C14BA C 0.1569(2) 0.4300(2) 0.3694(2)
C14B C 0.1569(2) 0.3694(2) 0.0700(2)
C14FE C -0.1569(2) 0.0700(2) 0.1306(2)
H11YB H 0.1471 0.0629 0.3521
H11OB H 0.1479 0.1471 0.4371
H11PA H 0.0629 0.3529 0.3521
H11JB H 0.0629 0.3521 0.1471
H11VD H -0.0629 0.1471 0.1479
H11GB H 0.1471 0.3521 0.4371
H11JC H 0.1471 0.4371 0.1479
H11KF H -0.1471 0.1479 0.0629
H11BA H 0.1479 0.4371 0.3529
H11B H 0.1479 0.3529 0.0629
H11FE H -0.1479 0.0629 0.1471
H12YB H 0.1167 0.0555 0.3419
H12OB H 0.1581 0.1167 0.4445
H12PA H 0.0555 0.3833 0.3419
H12JB H 0.0555 0.3419 0.1167
H12VD H -0.0555 0.1167 0.1581
H12GB H 0.1167 0.3419 0.4445
H12JC H 0.1167 0.4445 0.1581
H12KF H -0.1167 0.1581 0.0555
H12BA H 0.1581 0.4445 0.3833
H12B H 0.1581 0.3833 0.0555
H12FE H -0.1581 0.0555 0.1167
H13YB H 0.1233 0.0854 0.3537
H13OB H 0.1463 0.1233 0.4146
H13PA H 0.0854 0.3767 0.3537
H13JB H 0.0854 0.3537 0.1233
H13VD H -0.0854 0.1233 0.1463
H13GB H 0.1233 0.3537 0.4146
H13JC H 0.1233 0.4146 0.1463
H13KF H -0.1233 0.1463 0.0854
H13BA H 0.1463 0.4146 0.3767
H13B H 0.1463 0.3767 0.0854
H13FE H -0.1463 0.0854 0.1233
O1 O 0.0478(4) 0.2500 0.2500
Pb1? Pb 0.0000 0.18551(7) 0.2174(2)
Pb2? Pb 0.0000 0.1961(5) 0.2152(5)
O7? O 0.0000 0.2920(11) 0.1086(12)
loop_
_geom_bond_atom_site_label_1
_geom_bond_atom_site_label_2
_geom_bond_site_symmetry_1
_geom_bond_site_symmetry_2
Cd1 O4 1_555 1_555
O4 C1 1_555 1_555
O5 Cd1 1_555 1_555
O6 Cd1 1_555 1_555
C1 O5 1_555 1_555
C2 C1 1_555 1_555
C3 C2 1_555 1_555
H1 C3 1_555 1_555
C4 C3 1_555 1_555
C5 C4 1_555 1_555
C6 C5 1_555 1_555
H2 C6 1_555 1_555
C7 C2 1_555 1_555
H3 C7 1_555 1_555
C8 C4 1_555 1_555
C9 C8 1_555 1_555
C10 C5 1_555 1_555
C11 C8 1_555 1_555
H4 C11 1_555 1_555
H5 C11 1_555 1_555
C12 C11 1_555 1_555
H6 C12 1_555 1_555
H7 C12 1_555 1_555
H8 C12 1_555 1_555
C13 C8 1_555 1_555
H9 C13 1_555 1_555
H10 C13 1_555 1_555
C14 C13 1_555 1_555
H11 C14 1_555 1_555
H12 C14 1_555 1_555
H13 C14 1_555 1_555
Cd1FA O6 1_555 1_555
Cd1PA O5 1_555 1_555
Cd1DD O6 1_555 1_555
Cd1FF O4OB 1_555 1_555
Cd1SA O5OB 1_555 1_555
Cd1QD O4YB 1_555 1_555
Cd1MA O5YB 1_555 1_555
Cd1AD O4GB 1_555 1_555
Cd1BA O4BA 1_555 1_555
Cd1DF O5BA 1_555 1_555
Cd1AG O4JC 1_555 1_555
Cd1B O4B 1_555 1_555
Cd1HA O5B 1_555 1_555
Cd1U O4KF 1_555 1_555
Cd1UE O5KF 1_555 1_555
Cd1FE O4FE 1_555 1_555
Cd1QE O5FE 1_555 1_555
O4PE Cd1 1_555 1_555
O4DD Cd1DD 1_555 1_555
O4JB Cd1DD 1_555 1_555
O4PA Cd1PA 1_555 1_555
O4JE Cd1PA 1_555 1_555
O4FA Cd1FA 1_555 1_555
O4VD Cd1FA 1_555 1_555
O4OB C1OB 1_555 1_555
O4YB C1YB 1_555 1_555
O4GB C1GB 1_555 1_555
O4BA C1BA 1_555 1_555
O4JC C1JC 1_555 1_555
O4B C1B 1_555 1_555
O4KF C1KF 1_555 1_555
O4FE C1FE 1_555 1_555
O5FA Cd1 1_555 1_555
O5VD Cd1 1_555 1_555
O5PE Cd1 1_555 1_555
O5JB Cd1FA 1_555 1_555
O5JE Cd1PA 1_555 1_555
O5DD Cd1FA 1_555 1_555
O5PA Cd1PA 1_555 1_555
O5OB Cd1FF 1_555 1_555
O5YB Cd1QD 1_555 1_555
O5GB Cd1FF 1_555 1_555
O5BA Cd1BA 1_555 1_555
O5JC Cd1BA 1_555 1_555
O5B Cd1B 1_555 1_555
O5KF Cd1U 1_555 1_555
O5FE Cd1FE 1_555 1_555
C1PA O4PA 1_555 1_555
C1JB O4JB 1_555 1_555
C1VD O4VD 1_555 1_555
C1OB O5OB 1_555 1_555
C1YB O5YB 1_555 1_555
C1GB O5GB 1_555 1_555
C1BA O5BA 1_555 1_555
C1JC O5JC 1_555 1_555
C1B O5B 1_555 1_555
C1KF O5KF 1_555 1_555
C1FE O5FE 1_555 1_555
C2PA C1PA 1_555 1_555
C2JB C1JB 1_555 1_555
C2VD C1VD 1_555 1_555
C2OB C1OB 1_555 1_555
C2YB C1YB 1_555 1_555
C2GB C1GB 1_555 1_555
C2BA C1BA 1_555 1_555
C2JC C1JC 1_555 1_555
C2B C1B 1_555 1_555
C2KF C1KF 1_555 1_555
C2FE C1FE 1_555 1_555
C3PA C2PA 1_555 1_555
C3JB C2JB 1_555 1_555
C3VD C2VD 1_555 1_555
C3OB C2OB 1_555 1_555
C3YB C2YB 1_555 1_555
C3GB C2GB 1_555 1_555
C3BA C2BA 1_555 1_555
C3JC C2JC 1_555 1_555
C3B C2B 1_555 1_555
C3KF C2KF 1_555 1_555
C3FE C2FE 1_555 1_555
H1PA C3PA 1_555 1_555
H1JB C3JB 1_555 1_555
H1VD C3VD 1_555 1_555
H1OB C3OB 1_555 1_555
H1YB C3YB 1_555 1_555
H1GB C3GB 1_555 1_555
H1BA C3BA 1_555 1_555
H1JC C3JC 1_555 1_555
H1B C3B 1_555 1_555
H1KF C3KF 1_555 1_555
H1FE C3FE 1_555 1_555
C4OB C3OB 1_555 1_555
C4YB C3YB 1_555 1_555
C4PA C3PA 1_555 1_555
C4JB C3JB 1_555 1_555
C4VD C3VD 1_555 1_555
C4GB C3GB 1_555 1_555
C4BA C3BA 1_555 1_555
C4JC C3JC 1_555 1_555
C4B C3B 1_555 1_555
C4KF C3KF 1_555 1_555
C4FE C3FE 1_555 1_555
C5OB C4OB 1_555 1_555
C5YB C4YB 1_555 1_555
C5PA C4PA 1_555 1_555
C5JB C4JB 1_555 1_555
C5VD C4VD 1_555 1_555
C5BA C4BA 1_555 1_555
C5B C4B 1_555 1_555
C5FE C4FE 1_555 1_555
C5GB C4GB 1_555 1_555
C5JC C4JC 1_555 1_555
C5KF C4KF 1_555 1_555
C6OB C5OB 1_555 1_555
C6YB C5YB 1_555 1_555
C6PA C5PA 1_555 1_555
C6JB C5JB 1_555 1_555
C6VD C5VD 1_555 1_555
C6BA C5BA 1_555 1_555
C6B C5B 1_555 1_555
C6FE C5FE 1_555 1_555
C6GB C5GB 1_555 1_555
C6JC C5JC 1_555 1_555
C6KF C5KF 1_555 1_555
H2OB C6OB 1_555 1_555
H2YB C6YB 1_555 1_555
H2PA C6PA 1_555 1_555
H2JB C6JB 1_555 1_555
H2VD C6VD 1_555 1_555
H2BA C6BA 1_555 1_555
H2B C6B 1_555 1_555
H2FE C6FE 1_555 1_555
H2GB C6GB 1_555 1_555
H2JC C6JC 1_555 1_555
H2KF C6KF 1_555 1_555
C7PA C2PA 1_555 1_555
C7JB C2JB 1_555 1_555
C7VD C2VD 1_555 1_555
C7OB C2OB 1_555 1_555
C7YB C2YB 1_555 1_555
C7BA C2BA 1_555 1_555
C7B C2B 1_555 1_555
C7FE C2FE 1_555 1_555
C7GB C2GB 1_555 1_555
C7JC C2JC 1_555 1_555
C7KF C2KF 1_555 1_555
H3PA C7PA 1_555 1_555
H3JB C7JB 1_555 1_555
H3VD C7VD 1_555 1_555
H3OB C7OB 1_555 1_555
H3YB C7YB 1_555 1_555
H3BA C7BA 1_555 1_555
H3B C7B 1_555 1_555
H3FE C7FE 1_555 1_555
H3GB C7GB 1_555 1_555
H3JC C7JC 1_555 1_555
H3KF C7KF 1_555 1_555
C8YB C4YB 1_555 1_555
C8OB C4OB 1_555 1_555
C8PA C4PA 1_555 1_555
C8JB C4JB 1_555 1_555
C8VD C4VD 1_555 1_555
C8GB C4GB 1_555 1_555
C8JC C4JC 1_555 1_555
C8KF C4KF 1_555 1_555
C8BA C4BA 1_555 1_555
C8B C4B 1_555 1_555
C8FE C4FE 1_555 1_555
C9YB C10 1_555 1_555
C9OB C8OB 1_555 1_555
C9PA C8PA 1_555 1_555
C9JB C8JB 1_555 1_555
C9VD C8VD 1_555 1_555
C9GB C8GB 1_555 1_555
C9JC C8JC 1_555 1_555
C9KF C8KF 1_555 1_555
C9BA C8BA 1_555 1_555
C9B C8B 1_555 1_555
C9FE C8FE 1_555 1_555
C10OB C9 1_555 1_555
C10YB C5YB 1_555 1_555
C10PA C5PA 1_555 1_555
C10JB C5JB 1_555 1_555
C10VD C5VD 1_555 1_555
C10BA C5BA 1_555 1_555
C10B C5B 1_555 1_555
C10FE C5FE 1_555 1_555
C10GB C5GB 1_555 1_555
C10JC C5JC 1_555 1_555
C10KF C5KF 1_555 1_555
C11YB C8YB 1_555 1_555
C11OB C8OB 1_555 1_555
C11PA C8PA 1_555 1_555
C11JB C8JB 1_555 1_555
C11VD C8VD 1_555 1_555
C11GB C8GB 1_555 1_555
C11JC C8JC 1_555 1_555
C11KF C8KF 1_555 1_555
C11BA C8BA 1_555 1_555
C11B C8B 1_555 1_555
C11FE C8FE 1_555 1_555
H4YB C11YB 1_555 1_555
H4OB C11OB 1_555 1_555
H4PA C11PA 1_555 1_555
H4JB C11JB 1_555 1_555
H4VD C11VD 1_555 1_555
H4GB C11GB 1_555 1_555
H4JC C11JC 1_555 1_555
H4KF C11KF 1_555 1_555
H4BA C11BA 1_555 1_555
H4B C11B 1_555 1_555
H4FE C11FE 1_555 1_555
H5YB C11YB 1_555 1_555
H5OB C11OB 1_555 1_555
H5PA C11PA 1_555 1_555
H5JB C11JB 1_555 1_555
H5VD C11VD 1_555 1_555
H5GB C11GB 1_555 1_555
H5JC C11JC 1_555 1_555
H5KF C11KF 1_555 1_555
H5BA C11BA 1_555 1_555
H5B C11B 1_555 1_555
H5FE C11FE 1_555 1_555
C12YB C11YB 1_555 1_555
C12OB C11OB 1_555 1_555
C12PA C11PA 1_555 1_555
C12JB C11JB 1_555 1_555
C12VD C11VD 1_555 1_555
C12GB C11GB 1_555 1_555
C12JC C11JC 1_555 1_555
C12KF C11KF 1_555 1_555
C12BA C11BA 1_555 1_555
C12B C11B 1_555 1_555
C12FE C11FE 1_555 1_555
H6YB C12YB 1_555 1_555
H6OB C12OB 1_555 1_555
H6PA C12PA 1_555 1_555
H6JB C12JB 1_555 1_555
H6VD C12VD 1_555 1_555
H6GB C12GB 1_555 1_555
H6JC C12JC 1_555 1_555
H6KF C12KF 1_555 1_555
H6BA C12BA 1_555 1_555
H6B C12B 1_555 1_555
H6FE C12FE 1_555 1_555
H7YB C12YB 1_555 1_555
H7OB C12OB 1_555 1_555
H7PA C12PA 1_555 1_555
H7JB C12JB 1_555 1_555
H7VD C12VD 1_555 1_555
H7GB C12GB 1_555 1_555
H7JC C12JC 1_555 1_555
H7KF C12KF 1_555 1_555
H7BA C12BA 1_555 1_555
H7B C12B 1_555 1_555
H7FE C12FE 1_555 1_555
H8YB C12YB 1_555 1_555
H8OB C12OB 1_555 1_555
H8PA C12PA 1_555 1_555
H8JB C12JB 1_555 1_555
H8VD C12VD 1_555 1_555
H8GB C12GB 1_555 1_555
H8JC C12JC 1_555 1_555
H8KF C12KF 1_555 1_555
H8BA C12BA 1_555 1_555
H8B C12B 1_555 1_555
H8FE C12FE 1_555 1_555
C13YB C8YB 1_555 1_555
C13OB C8OB 1_555 1_555
C13PA C8PA 1_555 1_555
C13JB C8JB 1_555 1_555
C13VD C8VD 1_555 1_555
C13GB C8GB 1_555 1_555
C13JC C8JC 1_555 1_555
C13KF C8KF 1_555 1_555
C13BA C8BA 1_555 1_555
C13B C8B 1_555 1_555
C13FE C8FE 1_555 1_555
H9YB C13YB 1_555 1_555
H9OB C13OB 1_555 1_555
H9PA C13PA 1_555 1_555
H9JB C13JB 1_555 1_555
H9VD C13VD 1_555 1_555
H9GB C13GB 1_555 1_555
H9JC C13JC 1_555 1_555
H9KF C13KF 1_555 1_555
H9BA C13BA 1_555 1_555
H9B C13B 1_555 1_555
H9FE C13FE 1_555 1_555
H10YB C13YB 1_555 1_555
H10OB C13OB 1_555 1_555
H10PA C13PA 1_555 1_555
H10JB C13JB 1_555 1_555
H10VD C13VD 1_555 1_555
H10GB C13GB 1_555 1_555
H10JC C13JC 1_555 1_555
H10KF C13KF 1_555 1_555
H10BA C13BA 1_555 1_555
H10B C13B 1_555 1_555
H10FE C13FE 1_555 1_555
C14YB C13YB 1_555 1_555
C14OB C13OB 1_555 1_555
C14PA C13PA 1_555 1_555
C14JB C13JB 1_555 1_555
C14VD C13VD 1_555 1_555
C14GB C13GB 1_555 1_555
C14JC C13JC 1_555 1_555
C14KF C13KF 1_555 1_555
C14BA C13BA 1_555 1_555
C14B C13B 1_555 1_555
C14FE C13FE 1_555 1_555
H11YB C14YB 1_555 1_555
H11OB C14OB 1_555 1_555
H11PA C14PA 1_555 1_555
H11JB C14JB 1_555 1_555
H11VD C14VD 1_555 1_555
H11GB C14GB 1_555 1_555
H11JC C14JC 1_555 1_555
H11KF C14KF 1_555 1_555
H11BA C14BA 1_555 1_555
H11B C14B 1_555 1_555
H11FE C14FE 1_555 1_555
H12YB C14YB 1_555 1_555
H12OB C14OB 1_555 1_555
H12PA C14PA 1_555 1_555
H12JB C14JB 1_555 1_555
H12VD C14VD 1_555 1_555
H12GB C14GB 1_555 1_555
H12JC C14JC 1_555 1_555
H12KF C14KF 1_555 1_555
H12BA C14BA 1_555 1_555
H12B C14B 1_555 1_555
H12FE C14FE 1_555 1_555
H13YB C14YB 1_555 1_555
H13OB C14OB 1_555 1_555
H13PA C14PA 1_555 1_555
H13JB C14JB 1_555 1_555
H13VD C14VD 1_555 1_555
H13GB C14GB 1_555 1_555
H13JC C14JC 1_555 1_555
H13KF C14KF 1_555 1_555
H13BA C14BA 1_555 1_555
H13B C14B 1_555 1_555
H13FE C14FE 1_555 1_555
O6 Cd1PA 1_555 1_555
C6 C7 1_555 1_555
C9 C10 1_555 1_555
Cd1FA O5FA 1_555 1_555
Cd1FA O5VD 1_555 1_555
Cd1PA O5PE 1_555 1_555
Cd1DD O5JB 1_555 1_555
Cd1DD O5JE 1_555 1_555
Cd1DD O5DD 1_555 1_555
Cd1DD O5PA 1_555 1_555
Cd1AD O5GB 1_555 1_555
Cd1AG O5JC 1_555 1_555
O5VD C1VD 1_555 1_555
O5JB C1JB 1_555 1_555
O5PA C1PA 1_555 1_555
C5OB C10OB 1_555 1_555
C6OB C7OB 1_555 1_555
C6YB C7YB 1_555 1_555
C6PA C7PA 1_555 1_555
C6JB C7JB 1_555 1_555
C6VD C7VD 1_555 1_555
C6BA C7BA 1_555 1_555
C6B C7B 1_555 1_555
C6FE C7FE 1_555 1_555
C6GB C7GB 1_555 1_555
C6JC C7JC 1_555 1_555
C6KF C7KF 1_555 1_555
C8YB C9YB 1_555 1_555
C9YB C10YB 1_555 1_555
C9OB C10OB 1_555 1_555
C9OB C10YB 1_555 1_555
C9PA C10PA 1_555 1_555
C9PA C10BA 1_555 1_555
C9JB C10JB 1_555 1_555
C9JB C10B 1_555 1_555
C9VD C10VD 1_555 1_555
C9VD C10FE 1_555 1_555
C9GB C10PA 1_555 1_555
C9GB C10GB 1_555 1_555
C9JC C10JB 1_555 1_555
C9JC C10JC 1_555 1_555
C9KF C10VD 1_555 1_555
C9KF C10KF 1_555 1_555
C9BA C10BA 1_555 1_555
C9BA C10GB 1_555 1_555
C9B C10B 1_555 1_555
C9B C10JC 1_555 1_555
C9FE C10FE 1_555 1_555
C9FE C10KF 1_555 1_555

#END
