
#######################################################################
#
#                 Cambridge Crystallographic Data Centre
#                                CCDC 
#
#######################################################################
#
# If this CIF has been generated from an entry in the Cambridge 
# Structural Database, then it will include bibliographic, chemical, 
# crystal, experimental, refinement or atomic coordinate data resulting 
# from the CCDC's data processing and validation procedures.
#
#######################################################################

data_BUFNOG
_chemical_name_common            
'catena-(Sesqui-cadmium(ii) tris(oxonium) octakis(mu!6$-5,5,10,10,15,15-hexaethyltruxene-2,7,12-tricarboxylato)-tris(mu!4$-oxo)-dodecaaqua-dodeca-cadmium(ii) hexahydrate)'
_chemical_formula_moiety         
'(Cd1 2+)1.5n,3n(H3 O1 1+),n(C336 H336 Cd12 O63 6-),6n(H2 O1)'
_chemical_name_systematic        
"catena-(Sesqui-cadmium(ii) tris(oxonium) octakis(\m~6~-5,5,10,10,15,15-hexaethyl-10,15-dihydro-5H-diindeno[1,2-a:1',2'-c]fluorene-2,7,12-tricarboxylato)-tris(\m~4~-oxo)-dodecaaqua-dodeca-cadmium(ii) hexahydrate)"
_symmetry_cell_setting           cubic
_symmetry_space_group_name_H-M   'F m -3 c'
_symmetry_Int_Tables_number      226
_space_group_name_Hall           '-F 4a 2 3'
loop_
_symmetry_equiv_pos_site_id
_symmetry_equiv_pos_as_xyz
1 x,y,z
2 z,x,y
3 y,z,x
4 1/2+y,1/2+x,1/2-z
5 1/2+y,1/2-x,1/2+z
6 1/2-y,1/2+x,1/2+z
7 1/2+x,1/2+z,1/2-y
8 1/2-x,1/2+z,1/2+y
9 1/2+x,1/2-z,1/2+y
10 1/2+z,1/2+y,1/2-x
11 1/2+z,1/2-y,1/2+x
12 1/2-z,1/2+y,1/2+x
13 x,1/2+y,1/2+z
14 z,1/2+x,1/2+y
15 y,1/2+z,1/2+x
16 1/2+y,x,-z
17 1/2+y,-x,z
18 1/2-y,x,z
19 1/2+x,z,-y
20 1/2-x,z,y
21 1/2+x,-z,y
22 1/2+z,y,-x
23 1/2+z,-y,x
24 1/2-z,y,x
25 1/2+x,y,1/2+z
26 1/2+z,x,1/2+y
27 1/2+y,z,1/2+x
28 y,1/2+x,-z
29 y,1/2-x,z
30 -y,1/2+x,z
31 x,1/2+z,-y
32 -x,1/2+z,y
33 x,1/2-z,y
34 z,1/2+y,-x
35 z,1/2-y,x
36 -z,1/2+y,x
37 1/2+x,1/2+y,z
38 1/2+z,1/2+x,y
39 1/2+y,1/2+z,x
40 y,x,1/2-z
41 y,-x,1/2+z
42 -y,x,1/2+z
43 x,z,1/2-y
44 -x,z,1/2+y
45 x,-z,1/2+y
46 z,y,1/2-x
47 z,-y,1/2+x
48 -z,y,1/2+x
49 -x,-y,z
50 -x,y,-z
51 x,-y,-z
52 z,-x,-y
53 -z,-x,y
54 -z,x,-y
55 -y,z,-x
56 y,-z,-x
57 -y,-z,x
58 1/2-y,1/2-x,1/2-z
59 1/2-x,1/2-z,1/2-y
60 1/2-z,1/2-y,1/2-x
61 -x,1/2-y,1/2+z
62 -x,1/2+y,1/2-z
63 x,1/2-y,1/2-z
64 z,1/2-x,1/2-y
65 -z,1/2-x,1/2+y
66 -z,1/2+x,1/2-y
67 -y,1/2+z,1/2-x
68 y,1/2-z,1/2-x
69 -y,1/2-z,1/2+x
70 1/2-y,-x,-z
71 1/2-x,-z,-y
72 1/2-z,-y,-x
73 1/2-x,-y,1/2+z
74 1/2-x,y,1/2-z
75 1/2+x,-y,1/2-z
76 1/2+z,-x,1/2-y
77 1/2-z,-x,1/2+y
78 1/2-z,x,1/2-y
79 1/2-y,z,1/2-x
80 1/2+y,-z,1/2-x
81 1/2-y,-z,1/2+x
82 -y,1/2-x,-z
83 -x,1/2-z,-y
84 -z,1/2-y,-x
85 1/2-x,1/2-y,z
86 1/2-x,1/2+y,-z
87 1/2+x,1/2-y,-z
88 1/2+z,1/2-x,-y
89 1/2-z,1/2-x,y
90 1/2-z,1/2+x,-y
91 1/2-y,1/2+z,-x
92 1/2+y,1/2-z,-x
93 1/2-y,1/2-z,x
94 -y,-x,1/2-z
95 -x,-z,1/2-y
96 -z,-y,1/2-x
97 -x,-y,-z
98 -z,-x,-y
99 -y,-z,-x
100 1/2-y,1/2-x,1/2+z
101 1/2-y,1/2+x,1/2-z
102 1/2+y,1/2-x,1/2-z
103 1/2-x,1/2-z,1/2+y
104 1/2+x,1/2-z,1/2-y
105 1/2-x,1/2+z,1/2-y
106 1/2-z,1/2-y,1/2+x
107 1/2-z,1/2+y,1/2-x
108 1/2+z,1/2-y,1/2-x
109 -x,1/2-y,1/2-z
110 -z,1/2-x,1/2-y
111 -y,1/2-z,1/2-x
112 1/2-y,-x,z
113 1/2-y,x,-z
114 1/2+y,-x,-z
115 1/2-x,-z,y
116 1/2+x,-z,-y
117 1/2-x,z,-y
118 1/2-z,-y,x
119 1/2-z,y,-x
120 1/2+z,-y,-x
121 1/2-x,-y,1/2-z
122 1/2-z,-x,1/2-y
123 1/2-y,-z,1/2-x
124 -y,1/2-x,z
125 -y,1/2+x,-z
126 y,1/2-x,-z
127 -x,1/2-z,y
128 x,1/2-z,-y
129 -x,1/2+z,-y
130 -z,1/2-y,x
131 -z,1/2+y,-x
132 z,1/2-y,-x
133 1/2-x,1/2-y,-z
134 1/2-z,1/2-x,-y
135 1/2-y,1/2-z,-x
136 -y,-x,1/2+z
137 -y,x,1/2-z
138 y,-x,1/2-z
139 -x,-z,1/2+y
140 x,-z,1/2-y
141 -x,z,1/2-y
142 -z,-y,1/2+x
143 -z,y,1/2-x
144 z,-y,1/2-x
145 x,y,-z
146 x,-y,z
147 -x,y,z
148 -z,x,y
149 z,x,-y
150 z,-x,y
151 y,-z,x
152 -y,z,x
153 y,z,-x
154 1/2+y,1/2+x,1/2+z
155 1/2+x,1/2+z,1/2+y
156 1/2+z,1/2+y,1/2+x
157 x,1/2+y,1/2-z
158 x,1/2-y,1/2+z
159 -x,1/2+y,1/2+z
160 -z,1/2+x,1/2+y
161 z,1/2+x,1/2-y
162 z,1/2-x,1/2+y
163 y,1/2-z,1/2+x
164 -y,1/2+z,1/2+x
165 y,1/2+z,1/2-x
166 1/2+y,x,z
167 1/2+x,z,y
168 1/2+z,y,x
169 1/2+x,y,1/2-z
170 1/2+x,-y,1/2+z
171 1/2-x,y,1/2+z
172 1/2-z,x,1/2+y
173 1/2+z,x,1/2-y
174 1/2+z,-x,1/2+y
175 1/2+y,-z,1/2+x
176 1/2-y,z,1/2+x
177 1/2+y,z,1/2-x
178 y,1/2+x,z
179 x,1/2+z,y
180 z,1/2+y,x
181 1/2+x,1/2+y,-z
182 1/2+x,1/2-y,z
183 1/2-x,1/2+y,z
184 1/2-z,1/2+x,y
185 1/2+z,1/2+x,-y
186 1/2+z,1/2-x,y
187 1/2+y,1/2-z,x
188 1/2-y,1/2+z,x
189 1/2+y,1/2+z,-x
190 y,x,1/2+z
191 x,z,1/2+y
192 z,y,1/2+x
_cell_length_a                   48.436(6)
_cell_length_b                   48.436(6)
_cell_length_c                   48.436(6)
_cell_angle_alpha                90
_cell_angle_beta                 90
_cell_angle_gamma                90
_cell_volume                     113633
_exptl_crystal_colour            colorless
_exptl_crystal_description       block
_cell_formula_units_Z            8
loop_
_atom_site_label
_atom_site_type_symbol
_atom_site_fract_x
_atom_site_fract_y
_atom_site_fract_z
_atom_site_U_iso_or_equiv
_atom_site_thermal_displace_type
O2 O 0.0000 0.2158(4) 0.1207(4) 0.3230 Uiso
O3 O 0.0690(3) 0.0690(3) 0.2500 0.2940 Uiso
Cd1 Cd 0.0000 0.201514(5) 0.224535(5) 0.0249 Uani
O4 O 0.03357(4) 0.17038(4) 0.23888(4) 0.0321 Uani
O5 O 0.02929(4) 0.20644(4) 0.26602(4) 0.0352 Uani
O6 O 0.0000 0.2500 0.2500 1.5000 Uiso
C1 C 0.04023(5) 0.18327(6) 0.26034(6) 0.0310 Uani
C2 C 0.06226(6) 0.17168(6) 0.27868(6) 0.0349 Uani
C3 C 0.07116(6) 0.18635(7) 0.30158(6) 0.0402 Uani
H1 H 0.0628 0.2034 0.3063 0.0480 Uiso
C4 C 0.09248(6) 0.17576(7) 0.31747(6) 0.0416 Uani
C5 C 0.10567(6) 0.15110(7) 0.31067(6) 0.0405 Uani
C6 C 0.09603(7) 0.13615(7) 0.28807(7) 0.0441 Uani
H2 H 0.1043 0.1190 0.2834 0.0530 Uiso
C7 C 0.07433(7) 0.14642(7) 0.27249(6) 0.0408 Uani
H3 H 0.0676 0.1360 0.2573 0.0490 Uiso
C8 C 0.10406(7) 0.18844(7) 0.34348(7) 0.0529 Uani
C9 C 0.12696(6) 0.16792(7) 0.35063(7) 0.0435 Uani
C10 C 0.12825(6) 0.14649(7) 0.33086(7) 0.0430 Uani
C11 C 0.11573(11) 0.21728(9) 0.33635(10) 0.0767 Uani
H4 H 0.1005 0.2288 0.3290 0.0920 Uiso
H5 H 0.1223 0.2261 0.3536 0.0920 Uiso
C12 C 0.13907(12) 0.21735(11) 0.31566(14) 0.0997 Uani
H6 H 0.1555 0.2091 0.3240 0.1500 Uiso
H7 H 0.1431 0.2364 0.3101 0.1500 Uiso
H8 H 0.1337 0.2066 0.2994 0.1500 Uiso
C13 C 0.07939(9) 0.18835(11) 0.36542(9) 0.0720 Uani
H9 H 0.0864 0.1961 0.3830 0.0870 Uiso
H10 H 0.0648 0.2010 0.3587 0.0870 Uiso
C14 C 0.06636(13) 0.16078(13) 0.37146(13) 0.1000 Uani
H11 H 0.0587 0.1530 0.3544 0.1500 Uiso
H12 H 0.0515 0.1632 0.3850 0.1500 Uiso
H13 H 0.0803 0.1482 0.3789 0.1500 Uiso
O7 O 0.0000 0.17827(8) 0.18258(7) 0.0557 Uani
Cd1PA Cd 0.0000 0.224535(5) 0.298486(5) 0.0249 Uani
Cd1FA Cd 0.0000 0.275465(5) 0.201514(5) 0.0249 Uani
Cd1DD Cd 0.0000 0.298486(5) 0.275465(5) 0.0249 Uani
Cd1AD Cd 0.275465(5) 0.298486(5) 0.5000 0.0249 Uani
Cd1FF Cd 0.201514(5) 0.275465(5) 0.5000 0.0249 Uani
Cd1BA Cd 0.201514(5) 0.5000 0.224535(5) 0.0249 Uani
Cd1DF Cd 0.224535(5) 0.5000 0.298486(5) 0.0249 Uani
Cd1U Cd -0.275465(5) 0.201514(5) 0.0000 0.0249 Uani
Cd1UE Cd -0.201514(5) 0.224535(5) 0.0000 0.0249 Uani
Cd1FE Cd -0.201514(5) 0.0000 0.275465(5) 0.0249 Uani
Cd1QE Cd -0.224535(5) 0.0000 0.201514(5) 0.0249 Uani
Cd1KA Cd -0.275465(5) 0.5000 0.201514(5) 0.0249 Uani
Cd1CA Cd -0.201514(5) 0.5000 0.224535(5) 0.0249 Uani
Cd1YD Cd -0.224535(5) 0.298486(5) 0.0000 0.0249 Uani
Cd1SA Cd 0.224535(5) 0.201514(5) 0.5000 0.0249 Uani
Cd1QD Cd 0.275465(5) 0.0000 0.298486(5) 0.0249 Uani
Cd1MA Cd 0.201514(5) 0.0000 0.275465(5) 0.0249 Uani
O4PE O -0.03357(4) 0.17038(4) 0.23888(4) 0.0321 Uani
O4DD O -0.03357(4) 0.32962(4) 0.26112(4) 0.0321 Uani
O4JB O 0.03357(4) 0.32962(4) 0.26112(4) 0.0321 Uani
O4FA O 0.03357(4) 0.26112(4) 0.17038(4) 0.0321 Uani
O4VD O -0.03357(4) 0.26112(4) 0.17038(4) 0.0321 Uani
O4PA O 0.03357(4) 0.23888(4) 0.32962(4) 0.0321 Uani
O4JE O -0.03357(4) 0.23888(4) 0.32962(4) 0.0321 Uani
O4GB O 0.26112(4) 0.32962(4) 0.46643(4) 0.0321 Uani
O4BA O 0.17038(4) 0.46643(4) 0.23888(4) 0.0321 Uani
O4KF O -0.26112(4) 0.17038(4) 0.03357(4) 0.0321 Uani
O4FE O -0.17038(4) 0.03357(4) 0.26112(4) 0.0321 Uani
O4CG O -0.26112(4) 0.46643(4) 0.17038(4) 0.0321 Uani
O4UE O -0.17038(4) 0.23888(4) 0.03357(4) 0.0321 Uani
O4OB O 0.17038(4) 0.26112(4) 0.46643(4) 0.0321 Uani
O4YB O 0.26112(4) 0.03357(4) 0.32962(4) 0.0321 Uani
O5FA O 0.02929(4) 0.23398(4) 0.20644(4) 0.0352 Uani
O5PE O -0.02929(4) 0.20644(4) 0.26602(4) 0.0352 Uani
O5VD O -0.02929(4) 0.23398(4) 0.20644(4) 0.0352 Uani
O5PA O 0.02929(4) 0.26602(4) 0.29356(4) 0.0352 Uani
O5DD O -0.02929(4) 0.29356(4) 0.23398(4) 0.0352 Uani
O5JE O -0.02929(4) 0.26602(4) 0.29356(4) 0.0352 Uani
O5JB O 0.02929(4) 0.29356(4) 0.23398(4) 0.0352 Uani
O5GB O 0.23398(4) 0.29356(4) 0.47071(4) 0.0352 Uani
O5BA O 0.20644(4) 0.47071(4) 0.26602(4) 0.0352 Uani
O5KF O -0.23398(4) 0.20644(4) 0.02929(4) 0.0352 Uani
O5FE O -0.20644(4) 0.02929(4) 0.23398(4) 0.0352 Uani
O5CG O -0.23398(4) 0.47071(4) 0.20644(4) 0.0352 Uani
O5UE O -0.20644(4) 0.26602(4) 0.02929(4) 0.0352 Uani
O5OB O 0.20644(4) 0.23398(4) 0.47071(4) 0.0352 Uani
O5YB O 0.23398(4) 0.02929(4) 0.29356(4) 0.0352 Uani
C1PA C 0.04023(5) 0.26034(6) 0.31673(6) 0.0310 Uani
C1GB C 0.23966(6) 0.31673(6) 0.45977(5) 0.0310 Uani
C1BA C 0.18327(6) 0.45977(5) 0.26034(6) 0.0310 Uani
C1VD C -0.04023(5) 0.23966(6) 0.18327(6) 0.0310 Uani
C1KF C -0.23966(6) 0.18327(6) 0.04023(5) 0.0310 Uani
C1FE C -0.18327(6) 0.04023(5) 0.23966(6) 0.0310 Uani
C1DD C -0.04023(5) 0.31673(6) 0.23966(6) 0.0310 Uani
C1CG C -0.23966(6) 0.45977(5) 0.18327(6) 0.0310 Uani
C1UE C -0.18327(6) 0.26034(6) 0.04023(5) 0.0310 Uani
C1OB C 0.18327(6) 0.23966(6) 0.45977(5) 0.0310 Uani
C1YB C 0.23966(6) 0.04023(5) 0.31673(6) 0.0310 Uani
C2PA C 0.06226(6) 0.27868(6) 0.32832(6) 0.0349 Uani
C2GB C 0.22132(6) 0.32832(6) 0.43774(6) 0.0349 Uani
C2BA C 0.17168(6) 0.43774(6) 0.27868(6) 0.0349 Uani
C2VD C -0.06226(6) 0.22132(6) 0.17168(6) 0.0349 Uani
C2KF C -0.22132(6) 0.17168(6) 0.06226(6) 0.0349 Uani
C2FE C -0.17168(6) 0.06226(6) 0.22132(6) 0.0349 Uani
C2DD C -0.06226(6) 0.32832(6) 0.22132(6) 0.0349 Uani
C2CG C -0.22132(6) 0.43774(6) 0.17168(6) 0.0349 Uani
C2UE C -0.17168(6) 0.27868(6) 0.06226(6) 0.0349 Uani
C2OB C 0.17168(6) 0.22132(6) 0.43774(6) 0.0349 Uani
C2YB C 0.22132(6) 0.06226(6) 0.32832(6) 0.0349 Uani
C3PA C 0.07116(6) 0.30158(6) 0.31365(7) 0.0402 Uani
C3GB C 0.19842(6) 0.31365(7) 0.42884(6) 0.0402 Uani
C3BA C 0.18635(7) 0.42884(6) 0.30158(6) 0.0402 Uani
C3VD C -0.07116(6) 0.19842(6) 0.18635(7) 0.0402 Uani
C3KF C -0.19842(6) 0.18635(7) 0.07116(6) 0.0402 Uani
C3FE C -0.18635(7) 0.07116(6) 0.19842(6) 0.0402 Uani
C3DD C -0.07116(6) 0.31365(7) 0.19842(6) 0.0402 Uani
C3CG C -0.19842(6) 0.42884(6) 0.18635(7) 0.0402 Uani
C3UE C -0.18635(7) 0.30158(6) 0.07116(6) 0.0402 Uani
C3OB C 0.18635(7) 0.19842(6) 0.42884(6) 0.0402 Uani
C3YB C 0.19842(6) 0.07116(6) 0.31365(7) 0.0402 Uani
H1PA H 0.0628 0.3063 0.2966 0.0480 Uiso
H1GB H 0.1937 0.2966 0.4372 0.0480 Uiso
H1BA H 0.2034 0.4372 0.3063 0.0480 Uiso
H1VD H -0.0628 0.1937 0.2034 0.0480 Uiso
H1KF H -0.1937 0.2034 0.0628 0.0480 Uiso
H1FE H -0.2034 0.0628 0.1937 0.0480 Uiso
H1DD H -0.0628 0.2966 0.1937 0.0480 Uiso
H1CG H -0.1937 0.4372 0.2034 0.0480 Uiso
H1UE H -0.2034 0.3063 0.0628 0.0480 Uiso
H1OB H 0.2034 0.1937 0.4372 0.0480 Uiso
H1YB H 0.1937 0.0628 0.2966 0.0480 Uiso
C4PA C 0.09248(6) 0.31747(6) 0.32424(7) 0.0416 Uani
C4GB C 0.18253(6) 0.32424(7) 0.40752(6) 0.0416 Uani
C4BA C 0.17576(7) 0.40752(6) 0.31747(6) 0.0416 Uani
C4VD C -0.09248(6) 0.18253(6) 0.17576(7) 0.0416 Uani
C4KF C -0.18253(6) 0.17576(7) 0.09248(6) 0.0416 Uani
C4FE C -0.17576(7) 0.09248(6) 0.18253(6) 0.0416 Uani
C4DD C -0.09248(6) 0.32424(7) 0.18253(6) 0.0416 Uani
C4CG C -0.18253(6) 0.40752(6) 0.17576(7) 0.0416 Uani
C4UE C -0.17576(7) 0.31747(6) 0.09248(6) 0.0416 Uani
C4OB C 0.17576(7) 0.18253(6) 0.40752(6) 0.0416 Uani
C4YB C 0.18253(6) 0.09248(6) 0.32424(7) 0.0416 Uani
C5PA C 0.10567(6) 0.31067(6) 0.34890(7) 0.0405 Uani
C5BA C 0.15110(7) 0.39433(6) 0.31067(6) 0.0405 Uani
C5GB C 0.18933(6) 0.34890(7) 0.39433(6) 0.0405 Uani
C5VD C -0.10567(6) 0.18933(6) 0.15110(7) 0.0405 Uani
C5FE C -0.15110(7) 0.10567(6) 0.18933(6) 0.0405 Uani
C5KF C -0.18933(6) 0.15110(7) 0.10567(6) 0.0405 Uani
C5DD C -0.10567(6) 0.34890(7) 0.18933(6) 0.0405 Uani
C5UE C -0.15110(7) 0.31067(6) 0.10567(6) 0.0405 Uani
C5CG C -0.18933(6) 0.39433(6) 0.15110(7) 0.0405 Uani
C5OB C 0.15110(7) 0.18933(6) 0.39433(6) 0.0405 Uani
C5YB C 0.18933(6) 0.10567(6) 0.34890(7) 0.0405 Uani
C6PA C 0.09603(7) 0.28807(7) 0.36385(7) 0.0441 Uani
C6BA C 0.13615(7) 0.40397(7) 0.28807(7) 0.0441 Uani
C6GB C 0.21193(7) 0.36385(7) 0.40397(7) 0.0441 Uani
C6VD C -0.09603(7) 0.21193(7) 0.13615(7) 0.0441 Uani
C6FE C -0.13615(7) 0.09603(7) 0.21193(7) 0.0441 Uani
C6KF C -0.21193(7) 0.13615(7) 0.09603(7) 0.0441 Uani
C6DD C -0.09603(7) 0.36385(7) 0.21193(7) 0.0441 Uani
C6UE C -0.13615(7) 0.28807(7) 0.09603(7) 0.0441 Uani
C6CG C -0.21193(7) 0.40397(7) 0.13615(7) 0.0441 Uani
C6OB C 0.13615(7) 0.21193(7) 0.40397(7) 0.0441 Uani
C6YB C 0.21193(7) 0.09603(7) 0.36385(7) 0.0441 Uani
H2PA H 0.1043 0.2834 0.3810 0.0530 Uiso
H2BA H 0.1190 0.3957 0.2834 0.0530 Uiso
H2GB H 0.2166 0.3810 0.3957 0.0530 Uiso
H2VD H -0.1043 0.2166 0.1190 0.0530 Uiso
H2FE H -0.1190 0.1043 0.2166 0.0530 Uiso
H2KF H -0.2166 0.1190 0.1043 0.0530 Uiso
H2DD H -0.1043 0.3810 0.2166 0.0530 Uiso
H2UE H -0.1190 0.2834 0.1043 0.0530 Uiso
H2CG H -0.2166 0.3957 0.1190 0.0530 Uiso
H2OB H 0.1190 0.2166 0.3957 0.0530 Uiso
H2YB H 0.2166 0.1043 0.3810 0.0530 Uiso
C7PA C 0.07433(7) 0.27249(6) 0.35358(7) 0.0408 Uani
C7BA C 0.14642(7) 0.42567(7) 0.27249(6) 0.0408 Uani
C7GB C 0.22751(6) 0.35358(7) 0.42567(7) 0.0408 Uani
C7VD C -0.07433(7) 0.22751(6) 0.14642(7) 0.0408 Uani
C7FE C -0.14642(7) 0.07433(7) 0.22751(6) 0.0408 Uani
C7KF C -0.22751(6) 0.14642(7) 0.07433(7) 0.0408 Uani
C7DD C -0.07433(7) 0.35358(7) 0.22751(6) 0.0408 Uani
C7UE C -0.14642(7) 0.27249(6) 0.07433(7) 0.0408 Uani
C7CG C -0.22751(6) 0.42567(7) 0.14642(7) 0.0408 Uani
C7OB C 0.14642(7) 0.22751(6) 0.42567(7) 0.0408 Uani
C7YB C 0.22751(6) 0.07433(7) 0.35358(7) 0.0408 Uani
H3PA H 0.0676 0.2573 0.3640 0.0490 Uiso
H3BA H 0.1360 0.4324 0.2573 0.0490 Uiso
H3GB H 0.2427 0.3640 0.4324 0.0490 Uiso
H3VD H -0.0676 0.2427 0.1360 0.0490 Uiso
H3FE H -0.1360 0.0676 0.2427 0.0490 Uiso
H3KF H -0.2427 0.1360 0.0676 0.0490 Uiso
H3DD H -0.0676 0.3640 0.2427 0.0490 Uiso
H3UE H -0.1360 0.2573 0.0676 0.0490 Uiso
H3CG H -0.2427 0.4324 0.1360 0.0490 Uiso
H3OB H 0.1360 0.2427 0.4324 0.0490 Uiso
H3YB H 0.2427 0.0676 0.3640 0.0490 Uiso
C8PA C 0.10406(7) 0.34348(7) 0.31156(7) 0.0529 Uani
C8GB C 0.15652(7) 0.31156(7) 0.39594(7) 0.0529 Uani
C8BA C 0.18844(7) 0.39594(7) 0.34348(7) 0.0529 Uani
C8VD C -0.10406(7) 0.15652(7) 0.18844(7) 0.0529 Uani
C8KF C -0.15652(7) 0.18844(7) 0.10406(7) 0.0529 Uani
C8FE C -0.18844(7) 0.10406(7) 0.15652(7) 0.0529 Uani
C8DD C -0.10406(7) 0.31156(7) 0.15652(7) 0.0529 Uani
C8CG C -0.15652(7) 0.39594(7) 0.18844(7) 0.0529 Uani
C8UE C -0.18844(7) 0.34348(7) 0.10406(7) 0.0529 Uani
C8YB C 0.15652(7) 0.10406(7) 0.31156(7) 0.0529 Uani
C8OB C 0.18844(7) 0.15652(7) 0.39594(7) 0.0529 Uani
C9YB C 0.14937(7) 0.12696(6) 0.33208(7) 0.0435 Uani
C9PA C 0.12696(6) 0.35063(7) 0.33208(7) 0.0435 Uani
C9GB C 0.14937(7) 0.33208(7) 0.37304(6) 0.0435 Uani
C9BA C 0.16792(7) 0.37304(6) 0.35063(7) 0.0435 Uani
C9VD C -0.12696(6) 0.14937(7) 0.16792(7) 0.0435 Uani
C9KF C -0.14937(7) 0.16792(7) 0.12696(6) 0.0435 Uani
C9FE C -0.16792(7) 0.12696(6) 0.14937(7) 0.0435 Uani
C9DD C -0.12696(6) 0.33208(7) 0.14937(7) 0.0435 Uani
C9CG C -0.14937(7) 0.37304(6) 0.16792(7) 0.0435 Uani
C9UE C -0.16792(7) 0.35063(7) 0.12696(6) 0.0435 Uani
C9OB C 0.16792(7) 0.14937(7) 0.37304(6) 0.0435 Uani
C10OB C 0.14649(7) 0.16914(7) 0.37175(6) 0.0430 Uani
C10PA C 0.12825(6) 0.33086(7) 0.35351(7) 0.0430 Uani
C10BA C 0.14649(7) 0.37175(6) 0.33086(7) 0.0430 Uani
C10GB C 0.16914(7) 0.35351(7) 0.37175(6) 0.0430 Uani
C10VD C -0.12825(6) 0.16914(7) 0.14649(7) 0.0430 Uani
C10FE C -0.14649(7) 0.12825(6) 0.16914(7) 0.0430 Uani
C10KF C -0.16914(7) 0.14649(7) 0.12825(6) 0.0430 Uani
C10DD C -0.12825(6) 0.35351(7) 0.16914(7) 0.0430 Uani
C10UE C -0.14649(7) 0.33086(7) 0.12825(6) 0.0430 Uani
C10CG C -0.16914(7) 0.37175(6) 0.14649(7) 0.0430 Uani
C10YB C 0.16914(7) 0.12825(6) 0.35351(7) 0.0430 Uani
C11PA C 0.11573(11) 0.33635(10) 0.28272(9) 0.0767 Uani
C11GB C 0.16365(10) 0.28272(9) 0.38427(11) 0.0767 Uani
C11BA C 0.21728(9) 0.38427(11) 0.33635(10) 0.0767 Uani
C11VD C -0.11573(11) 0.16365(10) 0.21728(9) 0.0767 Uani
C11KF C -0.16365(10) 0.21728(9) 0.11573(11) 0.0767 Uani
C11FE C -0.21728(9) 0.11573(11) 0.16365(10) 0.0767 Uani
C11DD C -0.11573(11) 0.28272(9) 0.16365(10) 0.0767 Uani
C11CG C -0.16365(10) 0.38427(11) 0.21728(9) 0.0767 Uani
C11UE C -0.21728(9) 0.33635(10) 0.11573(11) 0.0767 Uani
C11YB C 0.16365(10) 0.11573(11) 0.28272(9) 0.0767 Uani
C11OB C 0.21728(9) 0.16365(10) 0.38427(11) 0.0767 Uani
H4PA H 0.1005 0.3290 0.2712 0.0920 Uiso
H4GB H 0.1710 0.2712 0.3995 0.0920 Uiso
H4BA H 0.2288 0.3995 0.3290 0.0920 Uiso
H4VD H -0.1005 0.1710 0.2288 0.0920 Uiso
H4KF H -0.1710 0.2288 0.1005 0.0920 Uiso
H4FE H -0.2288 0.1005 0.1710 0.0920 Uiso
H4DD H -0.1005 0.2712 0.1710 0.0920 Uiso
H4CG H -0.1710 0.3995 0.2288 0.0920 Uiso
H4UE H -0.2288 0.3290 0.1005 0.0920 Uiso
H4YB H 0.1710 0.1005 0.2712 0.0920 Uiso
H4OB H 0.2288 0.1710 0.3995 0.0920 Uiso
H5PA H 0.1223 0.3536 0.2739 0.0920 Uiso
H5GB H 0.1464 0.2739 0.3777 0.0920 Uiso
H5BA H 0.2261 0.3777 0.3536 0.0920 Uiso
H5VD H -0.1223 0.1464 0.2261 0.0920 Uiso
H5KF H -0.1464 0.2261 0.1223 0.0920 Uiso
H5FE H -0.2261 0.1223 0.1464 0.0920 Uiso
H5DD H -0.1223 0.2739 0.1464 0.0920 Uiso
H5CG H -0.1464 0.3777 0.2261 0.0920 Uiso
H5UE H -0.2261 0.3536 0.1223 0.0920 Uiso
H5YB H 0.1464 0.1223 0.2739 0.0920 Uiso
H5OB H 0.2261 0.1464 0.3777 0.0920 Uiso
C12PA C 0.13907(12) 0.31566(14) 0.28265(11) 0.0997 Uani
C12GB C 0.18434(14) 0.28265(11) 0.36093(12) 0.0997 Uani
C12BA C 0.21735(11) 0.36093(12) 0.31566(14) 0.0997 Uani
C12VD C -0.13907(12) 0.18434(14) 0.21735(11) 0.0997 Uani
C12KF C -0.18434(14) 0.21735(11) 0.13907(12) 0.0997 Uani
C12FE C -0.21735(11) 0.13907(12) 0.18434(14) 0.0997 Uani
C12DD C -0.13907(12) 0.28265(11) 0.18434(14) 0.0997 Uani
C12CG C -0.18434(14) 0.36093(12) 0.21735(11) 0.0997 Uani
C12UE C -0.21735(11) 0.31566(14) 0.13907(12) 0.0997 Uani
C12YB C 0.18434(14) 0.13907(12) 0.28265(11) 0.0997 Uani
C12OB C 0.21735(11) 0.18434(14) 0.36093(12) 0.0997 Uani
H6PA H 0.1555 0.3240 0.2909 0.1500 Uiso
H6GB H 0.1760 0.2909 0.3445 0.1500 Uiso
H6BA H 0.2091 0.3445 0.3240 0.1500 Uiso
H6VD H -0.1555 0.1760 0.2091 0.1500 Uiso
H6KF H -0.1760 0.2091 0.1555 0.1500 Uiso
H6FE H -0.2091 0.1555 0.1760 0.1500 Uiso
H6DD H -0.1555 0.2909 0.1760 0.1500 Uiso
H6CG H -0.1760 0.3445 0.2091 0.1500 Uiso
H6UE H -0.2091 0.3240 0.1555 0.1500 Uiso
H6YB H 0.1760 0.1555 0.2909 0.1500 Uiso
H6OB H 0.2091 0.1760 0.3445 0.1500 Uiso
H7PA H 0.1431 0.3101 0.2636 0.1500 Uiso
H7GB H 0.1899 0.2636 0.3569 0.1500 Uiso
H7BA H 0.2364 0.3569 0.3101 0.1500 Uiso
H7VD H -0.1431 0.1899 0.2364 0.1500 Uiso
H7KF H -0.1899 0.2364 0.1431 0.1500 Uiso
H7FE H -0.2364 0.1431 0.1899 0.1500 Uiso
H7DD H -0.1431 0.2636 0.1899 0.1500 Uiso
H7CG H -0.1899 0.3569 0.2364 0.1500 Uiso
H7UE H -0.2364 0.3101 0.1431 0.1500 Uiso
H7YB H 0.1899 0.1431 0.2636 0.1500 Uiso
H7OB H 0.2364 0.1899 0.3569 0.1500 Uiso
H8PA H 0.1337 0.2994 0.2934 0.1500 Uiso
H8GB H 0.2006 0.2934 0.3663 0.1500 Uiso
H8BA H 0.2066 0.3663 0.2994 0.1500 Uiso
H8VD H -0.1337 0.2006 0.2066 0.1500 Uiso
H8KF H -0.2006 0.2066 0.1337 0.1500 Uiso
H8FE H -0.2066 0.1337 0.2006 0.1500 Uiso
H8DD H -0.1337 0.2934 0.2006 0.1500 Uiso
H8CG H -0.2006 0.3663 0.2066 0.1500 Uiso
H8UE H -0.2066 0.2994 0.1337 0.1500 Uiso
H8YB H 0.2006 0.1337 0.2934 0.1500 Uiso
H8OB H 0.2066 0.2006 0.3663 0.1500 Uiso
C13PA C 0.07939(9) 0.36542(9) 0.31165(11) 0.0720 Uani
C13GB C 0.13458(9) 0.31165(11) 0.42061(9) 0.0720 Uani
C13BA C 0.18835(11) 0.42061(9) 0.36542(9) 0.0720 Uani
C13VD C -0.07939(9) 0.13458(9) 0.18835(11) 0.0720 Uani
C13KF C -0.13458(9) 0.18835(11) 0.07939(9) 0.0720 Uani
C13FE C -0.18835(11) 0.07939(9) 0.13458(9) 0.0720 Uani
C13DD C -0.07939(9) 0.31165(11) 0.13458(9) 0.0720 Uani
C13CG C -0.13458(9) 0.42061(9) 0.18835(11) 0.0720 Uani
C13UE C -0.18835(11) 0.36542(9) 0.07939(9) 0.0720 Uani
C13YB C 0.13458(9) 0.07939(9) 0.31165(11) 0.0720 Uani
C13OB C 0.18835(11) 0.13458(9) 0.42061(9) 0.0720 Uani
H9PA H 0.0864 0.3830 0.3039 0.0870 Uiso
H9GB H 0.1170 0.3039 0.4136 0.0870 Uiso
H9BA H 0.1961 0.4136 0.3830 0.0870 Uiso
H9VD H -0.0864 0.1170 0.1961 0.0870 Uiso
H9KF H -0.1170 0.1961 0.0864 0.0870 Uiso
H9FE H -0.1961 0.0864 0.1170 0.0870 Uiso
H9DD H -0.0864 0.3039 0.1170 0.0870 Uiso
H9CG H -0.1170 0.4136 0.1961 0.0870 Uiso
H9UE H -0.1961 0.3830 0.0864 0.0870 Uiso
H9YB H 0.1170 0.0864 0.3039 0.0870 Uiso
H9OB H 0.1961 0.1170 0.4136 0.0870 Uiso
H10PA H 0.0648 0.3587 0.2990 0.0870 Uiso
H10GB H 0.1413 0.2990 0.4352 0.0870 Uiso
H10BA H 0.2010 0.4352 0.3587 0.0870 Uiso
H10VD H -0.0648 0.1413 0.2010 0.0870 Uiso
H10KF H -0.1413 0.2010 0.0648 0.0870 Uiso
H10FE H -0.2010 0.0648 0.1413 0.0870 Uiso
H10DD H -0.0648 0.2990 0.1413 0.0870 Uiso
H10CG H -0.1413 0.4352 0.2010 0.0870 Uiso
H10UE H -0.2010 0.3587 0.0648 0.0870 Uiso
H10YB H 0.1413 0.0648 0.2990 0.0870 Uiso
H10OB H 0.2010 0.1413 0.4352 0.0870 Uiso
C14PA C 0.06636(13) 0.37146(13) 0.33922(13) 0.1000 Uani
C14GB C 0.12854(13) 0.33922(13) 0.43364(13) 0.1000 Uani
C14BA C 0.16078(13) 0.43364(13) 0.37146(13) 0.1000 Uani
C14VD C -0.06636(13) 0.12854(13) 0.16078(13) 0.1000 Uani
C14KF C -0.12854(13) 0.16078(13) 0.06636(13) 0.1000 Uani
C14FE C -0.16078(13) 0.06636(13) 0.12854(13) 0.1000 Uani
C14DD C -0.06636(13) 0.33922(13) 0.12854(13) 0.1000 Uani
C14CG C -0.12854(13) 0.43364(13) 0.16078(13) 0.1000 Uani
C14UE C -0.16078(13) 0.37146(13) 0.06636(13) 0.1000 Uani
C14YB C 0.12854(13) 0.06636(13) 0.33922(13) 0.1000 Uani
C14OB C 0.16078(13) 0.12854(13) 0.43364(13) 0.1000 Uani
H11PA H 0.0587 0.3544 0.3470 0.1500 Uiso
H11GB H 0.1456 0.3470 0.4413 0.1500 Uiso
H11BA H 0.1530 0.4413 0.3544 0.1500 Uiso
H11VD H -0.0587 0.1456 0.1530 0.1500 Uiso
H11KF H -0.1456 0.1530 0.0587 0.1500 Uiso
H11FE H -0.1530 0.0587 0.1456 0.1500 Uiso
H11DD H -0.0587 0.3470 0.1456 0.1500 Uiso
H11CG H -0.1456 0.4413 0.1530 0.1500 Uiso
H11UE H -0.1530 0.3544 0.0587 0.1500 Uiso
H11YB H 0.1456 0.0587 0.3470 0.1500 Uiso
H11OB H 0.1530 0.1456 0.4413 0.1500 Uiso
H12PA H 0.0515 0.3850 0.3368 0.1500 Uiso
H12GB H 0.1150 0.3368 0.4485 0.1500 Uiso
H12BA H 0.1632 0.4485 0.3850 0.1500 Uiso
H12VD H -0.0515 0.1150 0.1632 0.1500 Uiso
H12KF H -0.1150 0.1632 0.0515 0.1500 Uiso
H12FE H -0.1632 0.0515 0.1150 0.1500 Uiso
H12DD H -0.0515 0.3368 0.1150 0.1500 Uiso
H12CG H -0.1150 0.4485 0.1632 0.1500 Uiso
H12UE H -0.1632 0.3850 0.0515 0.1500 Uiso
H12YB H 0.1150 0.0515 0.3368 0.1500 Uiso
H12OB H 0.1632 0.1150 0.4485 0.1500 Uiso
H13PA H 0.0803 0.3789 0.3518 0.1500 Uiso
H13GB H 0.1211 0.3518 0.4197 0.1500 Uiso
H13BA H 0.1482 0.4197 0.3789 0.1500 Uiso
H13VD H -0.0803 0.1211 0.1482 0.1500 Uiso
H13KF H -0.1211 0.1482 0.0803 0.1500 Uiso
H13FE H -0.1482 0.0803 0.1211 0.1500 Uiso
H13DD H -0.0803 0.3518 0.1211 0.1500 Uiso
H13CG H -0.1211 0.4197 0.1482 0.1500 Uiso
H13UE H -0.1482 0.3789 0.0803 0.1500 Uiso
H13YB H 0.1211 0.0803 0.3518 0.1500 Uiso
H13OB H 0.1482 0.1211 0.4197 0.1500 Uiso
O7DD O 0.0000 0.32173(8) 0.31742(7) 0.0557 Uani
O7FA O 0.0000 0.31742(7) 0.17827(8) 0.0557 Uani
O7PA O 0.0000 0.18258(7) 0.32173(8) 0.0557 Uani
O1 O 0.0000 0.12784(15) 0.21113(17) 0.1400 Uani
loop_
_atom_site_aniso_label
_atom_site_aniso_U_11
_atom_site_aniso_U_22
_atom_site_aniso_U_33
_atom_site_aniso_U_23
_atom_site_aniso_U_13
_atom_site_aniso_U_12
Cd1 0.01993(18) 0.0280(2) 0.0268(2) 0.00361(10) 0.000 0.000
O4 0.0269(9) 0.0379(11) 0.0315(10) 0.0014(8) -0.0062(8) 0.0041(8)
O5 0.0254(9) 0.0489(12) 0.0314(10) -0.0018(9) 0.0015(8) 0.0115(8)
C1 0.0218(12) 0.0388(15) 0.0325(14) 0.0011(11) 0.0034(11) 0.0043(11)
C2 0.0265(14) 0.0443(16) 0.0340(14) -0.0036(12) -0.0043(11) 0.0085(12)
C3 0.0336(15) 0.0472(17) 0.0397(16) -0.0091(13) -0.0069(12) 0.0169(13)
C4 0.0375(15) 0.0470(17) 0.0402(16) -0.0156(13) -0.0129(13) 0.0167(13)
C5 0.0374(15) 0.0444(17) 0.0397(16) -0.0130(13) -0.0116(13) 0.0144(13)
C6 0.0474(18) 0.0419(17) 0.0429(17) -0.0133(14) -0.0151(14) 0.0165(14)
C7 0.0420(16) 0.0441(17) 0.0363(15) -0.0096(13) -0.0136(13) 0.0090(13)
C8 0.055(2) 0.054(2) 0.0498(19) -0.0258(16) -0.0263(16) 0.0298(16)
C9 0.0411(16) 0.0434(17) 0.0460(17) -0.0169(14) -0.0164(14) 0.0171(14)
C10 0.0402(16) 0.0464(17) 0.0423(17) -0.0166(13) -0.0166(14) 0.0162(13)
C11 0.094(3) 0.056(2) 0.080(3) -0.022(2) -0.043(3) 0.022(2)
C12 0.097(4) 0.070(3) 0.132(5) 0.009(3) -0.046(4) -0.011(3)
C13 0.058(2) 0.096(3) 0.062(2) -0.034(2) -0.0134(19) 0.015(2)
C14 0.101(4) 0.118(5) 0.081(4) -0.004(3) 0.013(3) 0.017(4)
O7 0.066(2) 0.064(2) 0.0372(17) -0.0155(15) 0.000 0.000
Cd1PA 0.01993 0.0268 0.028 -0.00361 0 0
Cd1FA 0.01993 0.0268 0.028 -0.00361 0 0
Cd1DD 0.01993 0.028 0.0268 0.00361 0 0
Cd1AD 0.0268 0.028 0.01993 0 0 0.00361
Cd1FF 0.028 0.0268 0.01993 0 0 -0.00361
Cd1BA 0.028 0.01993 0.0268 0 0.00361 0
Cd1DF 0.0268 0.01993 0.028 0 -0.00361 0
Cd1U 0.0268 0.028 0.01993 0 0 0.00361
Cd1UE 0.028 0.0268 0.01993 0 0 -0.00361
Cd1FE 0.028 0.01993 0.0268 0 0.00361 0
Cd1QE 0.0268 0.01993 0.028 0 -0.00361 0
Cd1KA 0.0268 0.01993 0.028 0 0.00361 0
Cd1CA 0.028 0.01993 0.0268 0 -0.00361 0
Cd1YD 0.0268 0.028 0.01993 0 0 0.00361
Cd1SA 0.0268 0.028 0.01993 0 0 0.00361
Cd1QD 0.0268 0.01993 0.028 0 0.00361 0
Cd1MA 0.028 0.01993 0.0268 0 -0.00361 0
O4PE 0.0269 0.0379 0.0315 0.0014 0.0062 -0.0041
O4DD 0.0269 0.0379 0.0315 0.0014 -0.0062 0.0041
O4JB 0.0269 0.0379 0.0315 0.0014 0.0062 -0.0041
O4FA 0.0269 0.0315 0.0379 -0.0014 0.0041 0.0062
O4VD 0.0269 0.0315 0.0379 -0.0014 -0.0041 -0.0062
O4PA 0.0269 0.0315 0.0379 -0.0014 -0.0041 -0.0062
O4JE 0.0269 0.0315 0.0379 -0.0014 0.0041 0.0062
O4GB 0.0315 0.0379 0.0269 0.0041 -0.0062 0.0014
O4BA 0.0379 0.0269 0.0315 0.0062 0.0014 -0.0041
O4KF 0.0315 0.0379 0.0269 0.0041 -0.0062 0.0014
O4FE 0.0379 0.0269 0.0315 0.0062 0.0014 -0.0041
O4CG 0.0315 0.0269 0.0379 -0.0041 0.0014 0.0062
O4UE 0.0379 0.0315 0.0269 -0.0062 -0.0041 -0.0014
O4OB 0.0379 0.0315 0.0269 -0.0062 -0.0041 -0.0014
O4YB 0.0315 0.0269 0.0379 -0.0041 0.0014 0.0062
O5FA 0.0254 0.0314 0.0489 0.0018 0.0115 -0.0015
O5PE 0.0254 0.0489 0.0314 -0.0018 -0.0015 -0.0115
O5VD 0.0254 0.0314 0.0489 0.0018 -0.0115 0.0015
O5PA 0.0254 0.0314 0.0489 0.0018 -0.0115 0.0015
O5DD 0.0254 0.0489 0.0314 -0.0018 0.0015 0.0115
O5JE 0.0254 0.0314 0.0489 0.0018 0.0115 -0.0015
O5JB 0.0254 0.0489 0.0314 -0.0018 -0.0015 -0.0115
O5GB 0.0314 0.0489 0.0254 0.0115 0.0015 -0.0018
O5BA 0.0489 0.0254 0.0314 -0.0015 -0.0018 -0.0115
O5KF 0.0314 0.0489 0.0254 0.0115 0.0015 -0.0018
O5FE 0.0489 0.0254 0.0314 -0.0015 -0.0018 -0.0115
O5CG 0.0314 0.0254 0.0489 -0.0115 -0.0018 -0.0015
O5UE 0.0489 0.0314 0.0254 0.0015 -0.0115 0.0018
O5OB 0.0489 0.0314 0.0254 0.0015 -0.0115 0.0018
O5YB 0.0314 0.0254 0.0489 -0.0115 -0.0018 -0.0015
C1PA 0.0218 0.0325 0.0388 -0.0011 -0.0043 0.0034
C1GB 0.0325 0.0388 0.0218 0.0043 0.0034 0.0011
C1BA 0.0388 0.0218 0.0325 -0.0034 0.0011 -0.0043
C1VD 0.0218 0.0325 0.0388 -0.0011 -0.0043 0.0034
C1KF 0.0325 0.0388 0.0218 0.0043 0.0034 0.0011
C1FE 0.0388 0.0218 0.0325 -0.0034 0.0011 -0.0043
C1DD 0.0218 0.0388 0.0325 0.0011 0.0034 0.0043
C1CG 0.0325 0.0218 0.0388 -0.0043 0.0011 -0.0034
C1UE 0.0388 0.0325 0.0218 0.0034 -0.0043 -0.0011
C1OB 0.0388 0.0325 0.0218 0.0034 -0.0043 -0.0011
C1YB 0.0325 0.0218 0.0388 -0.0043 0.0011 -0.0034
C2PA 0.0265 0.034 0.0443 0.0036 -0.0085 -0.0043
C2GB 0.034 0.0443 0.0265 0.0085 -0.0043 -0.0036
C2BA 0.0443 0.0265 0.034 0.0043 -0.0036 -0.0085
C2VD 0.0265 0.034 0.0443 0.0036 -0.0085 -0.0043
C2KF 0.034 0.0443 0.0265 0.0085 -0.0043 -0.0036
C2FE 0.0443 0.0265 0.034 0.0043 -0.0036 -0.0085
C2DD 0.0265 0.0443 0.034 -0.0036 -0.0043 0.0085
C2CG 0.034 0.0265 0.0443 -0.0085 -0.0036 0.0043
C2UE 0.0443 0.034 0.0265 -0.0043 -0.0085 0.0036
C2OB 0.0443 0.034 0.0265 -0.0043 -0.0085 0.0036
C2YB 0.034 0.0265 0.0443 -0.0085 -0.0036 0.0043
C3PA 0.0336 0.0397 0.0472 0.0091 -0.0169 -0.0069
C3GB 0.0397 0.0472 0.0336 0.0169 -0.0069 -0.0091
C3BA 0.0472 0.0336 0.0397 0.0069 -0.0091 -0.0169
C3VD 0.0336 0.0397 0.0472 0.0091 -0.0169 -0.0069
C3KF 0.0397 0.0472 0.0336 0.0169 -0.0069 -0.0091
C3FE 0.0472 0.0336 0.0397 0.0069 -0.0091 -0.0169
C3DD 0.0336 0.0472 0.0397 -0.0091 -0.0069 0.0169
C3CG 0.0397 0.0336 0.0472 -0.0169 -0.0091 0.0069
C3UE 0.0472 0.0397 0.0336 -0.0069 -0.0169 0.0091
C3OB 0.0472 0.0397 0.0336 -0.0069 -0.0169 0.0091
C3YB 0.0397 0.0336 0.0472 -0.0169 -0.0091 0.0069
C4PA 0.0375 0.0402 0.047 0.0156 -0.0167 -0.0129
C4GB 0.0402 0.047 0.0375 0.0167 -0.0129 -0.0156
C4BA 0.047 0.0375 0.0402 0.0129 -0.0156 -0.0167
C4VD 0.0375 0.0402 0.047 0.0156 -0.0167 -0.0129
C4KF 0.0402 0.047 0.0375 0.0167 -0.0129 -0.0156
C4FE 0.047 0.0375 0.0402 0.0129 -0.0156 -0.0167
C4DD 0.0375 0.047 0.0402 -0.0156 -0.0129 0.0167
C4CG 0.0402 0.0375 0.047 -0.0167 -0.0156 0.0129
C4UE 0.047 0.0402 0.0375 -0.0129 -0.0167 0.0156
C4OB 0.047 0.0402 0.0375 -0.0129 -0.0167 0.0156
C4YB 0.0402 0.0375 0.047 -0.0167 -0.0156 0.0129
C5PA 0.0374 0.0397 0.0444 0.013 -0.0144 -0.0116
C5BA 0.0444 0.0374 0.0397 0.0116 -0.013 -0.0144
C5GB 0.0397 0.0444 0.0374 0.0144 -0.0116 -0.013
C5VD 0.0374 0.0397 0.0444 0.013 -0.0144 -0.0116
C5FE 0.0444 0.0374 0.0397 0.0116 -0.013 -0.0144
C5KF 0.0397 0.0444 0.0374 0.0144 -0.0116 -0.013
C5DD 0.0374 0.0444 0.0397 -0.013 -0.0116 0.0144
C5UE 0.0444 0.0397 0.0374 -0.0116 -0.0144 0.013
C5CG 0.0397 0.0374 0.0444 -0.0144 -0.013 0.0116
C5OB 0.0444 0.0397 0.0374 -0.0116 -0.0144 0.013
C5YB 0.0397 0.0374 0.0444 -0.0144 -0.013 0.0116
C6PA 0.0474 0.0429 0.0419 0.0133 -0.0165 -0.0151
C6BA 0.0419 0.0474 0.0429 0.0151 -0.0133 -0.0165
C6GB 0.0429 0.0419 0.0474 0.0165 -0.0151 -0.0133
C6VD 0.0474 0.0429 0.0419 0.0133 -0.0165 -0.0151
C6FE 0.0419 0.0474 0.0429 0.0151 -0.0133 -0.0165
C6KF 0.0429 0.0419 0.0474 0.0165 -0.0151 -0.0133
C6DD 0.0474 0.0419 0.0429 -0.0133 -0.0151 0.0165
C6UE 0.0419 0.0429 0.0474 -0.0151 -0.0165 0.0133
C6CG 0.0429 0.0474 0.0419 -0.0165 -0.0133 0.0151
C6OB 0.0419 0.0429 0.0474 -0.0151 -0.0165 0.0133
C6YB 0.0429 0.0474 0.0419 -0.0165 -0.0133 0.0151
C7PA 0.042 0.0363 0.0441 0.0096 -0.009 -0.0136
C7BA 0.0441 0.042 0.0363 0.0136 -0.0096 -0.009
C7GB 0.0363 0.0441 0.042 0.009 -0.0136 -0.0096
C7VD 0.042 0.0363 0.0441 0.0096 -0.009 -0.0136
C7FE 0.0441 0.042 0.0363 0.0136 -0.0096 -0.009
C7KF 0.0363 0.0441 0.042 0.009 -0.0136 -0.0096
C7DD 0.042 0.0441 0.0363 -0.0096 -0.0136 0.009
C7UE 0.0441 0.0363 0.042 -0.0136 -0.009 0.0096
C7CG 0.0363 0.042 0.0441 -0.009 -0.0096 0.0136
C7OB 0.0441 0.0363 0.042 -0.0136 -0.009 0.0096
C7YB 0.0363 0.042 0.0441 -0.009 -0.0096 0.0136
C8PA 0.055 0.0498 0.054 0.0258 -0.0298 -0.0263
C8GB 0.0498 0.054 0.055 0.0298 -0.0263 -0.0258
C8BA 0.054 0.055 0.0498 0.0263 -0.0258 -0.0298
C8VD 0.055 0.0498 0.054 0.0258 -0.0298 -0.0263
C8KF 0.0498 0.054 0.055 0.0298 -0.0263 -0.0258
C8FE 0.054 0.055 0.0498 0.0263 -0.0258 -0.0298
C8DD 0.055 0.054 0.0498 -0.0258 -0.0263 0.0298
C8CG 0.0498 0.055 0.054 -0.0298 -0.0258 0.0263
C8UE 0.054 0.0498 0.055 -0.0263 -0.0298 0.0258
C8YB 0.0498 0.055 0.054 -0.0298 -0.0258 0.0263
C8OB 0.054 0.0498 0.055 -0.0263 -0.0298 0.0258
C9YB 0.046 0.0411 0.0434 -0.0171 -0.0169 0.0164
C9PA 0.0411 0.046 0.0434 0.0169 -0.0171 -0.0164
C9GB 0.046 0.0434 0.0411 0.0171 -0.0164 -0.0169
C9BA 0.0434 0.0411 0.046 0.0164 -0.0169 -0.0171
C9VD 0.0411 0.046 0.0434 0.0169 -0.0171 -0.0164
C9KF 0.046 0.0434 0.0411 0.0171 -0.0164 -0.0169
C9FE 0.0434 0.0411 0.046 0.0164 -0.0169 -0.0171
C9DD 0.0411 0.0434 0.046 -0.0169 -0.0164 0.0171
C9CG 0.046 0.0411 0.0434 -0.0171 -0.0169 0.0164
C9UE 0.0434 0.046 0.0411 -0.0164 -0.0171 0.0169
C9OB 0.0434 0.046 0.0411 -0.0164 -0.0171 0.0169
C10OB 0.0464 0.0423 0.0402 -0.0166 -0.0162 0.0166
C10PA 0.0402 0.0423 0.0464 0.0166 -0.0162 -0.0166
C10BA 0.0464 0.0402 0.0423 0.0166 -0.0166 -0.0162
C10GB 0.0423 0.0464 0.0402 0.0162 -0.0166 -0.0166
C10VD 0.0402 0.0423 0.0464 0.0166 -0.0162 -0.0166
C10FE 0.0464 0.0402 0.0423 0.0166 -0.0166 -0.0162
C10KF 0.0423 0.0464 0.0402 0.0162 -0.0166 -0.0166
C10DD 0.0402 0.0464 0.0423 -0.0166 -0.0166 0.0162
C10UE 0.0464 0.0423 0.0402 -0.0166 -0.0162 0.0166
C10CG 0.0423 0.0402 0.0464 -0.0162 -0.0166 0.0166
C10YB 0.0423 0.0402 0.0464 -0.0162 -0.0166 0.0166
C11PA 0.094 0.08 0.056 0.022 -0.022 -0.043
C11GB 0.08 0.056 0.094 0.022 -0.043 -0.022
C11BA 0.056 0.094 0.08 0.043 -0.022 -0.022
C11VD 0.094 0.08 0.056 0.022 -0.022 -0.043
C11KF 0.08 0.056 0.094 0.022 -0.043 -0.022
C11FE 0.056 0.094 0.08 0.043 -0.022 -0.022
C11DD 0.094 0.056 0.08 -0.022 -0.043 0.022
C11CG 0.08 0.094 0.056 -0.022 -0.022 0.043
C11UE 0.056 0.08 0.094 -0.043 -0.022 0.022
C11YB 0.08 0.094 0.056 -0.022 -0.022 0.043
C11OB 0.056 0.08 0.094 -0.043 -0.022 0.022
C12PA 0.097 0.132 0.07 -0.009 0.011 -0.046
C12GB 0.132 0.07 0.097 -0.011 -0.046 0.009
C12BA 0.07 0.097 0.132 0.046 0.009 0.011
C12VD 0.097 0.132 0.07 -0.009 0.011 -0.046
C12KF 0.132 0.07 0.097 -0.011 -0.046 0.009
C12FE 0.07 0.097 0.132 0.046 0.009 0.011
C12DD 0.097 0.07 0.132 0.009 -0.046 -0.011
C12CG 0.132 0.097 0.07 0.011 0.009 0.046
C12UE 0.07 0.132 0.097 -0.046 0.011 -0.009
C12YB 0.132 0.097 0.07 0.011 0.009 0.046
C12OB 0.07 0.132 0.097 -0.046 0.011 -0.009
C13PA 0.058 0.062 0.096 0.034 -0.015 -0.0134
C13GB 0.062 0.096 0.058 0.015 -0.0134 -0.034
C13BA 0.096 0.058 0.062 0.0134 -0.034 -0.015
C13VD 0.058 0.062 0.096 0.034 -0.015 -0.0134
C13KF 0.062 0.096 0.058 0.015 -0.0134 -0.034
C13FE 0.096 0.058 0.062 0.0134 -0.034 -0.015
C13DD 0.058 0.096 0.062 -0.034 -0.0134 0.015
C13CG 0.062 0.058 0.096 -0.015 -0.034 0.0134
C13UE 0.096 0.062 0.058 -0.0134 -0.015 0.034
C13YB 0.062 0.058 0.096 -0.015 -0.034 0.0134
C13OB 0.096 0.062 0.058 -0.0134 -0.015 0.034
C14PA 0.101 0.081 0.118 0.004 -0.017 0.013
C14GB 0.081 0.118 0.101 0.017 0.013 -0.004
C14BA 0.118 0.101 0.081 -0.013 -0.004 -0.017
C14VD 0.101 0.081 0.118 0.004 -0.017 0.013
C14KF 0.081 0.118 0.101 0.017 0.013 -0.004
C14FE 0.118 0.101 0.081 -0.013 -0.004 -0.017
C14DD 0.101 0.118 0.081 -0.004 0.013 0.017
C14CG 0.081 0.101 0.118 -0.017 -0.004 -0.013
C14UE 0.118 0.081 0.101 0.013 -0.017 0.004
C14YB 0.081 0.101 0.118 -0.017 -0.004 -0.013
C14OB 0.118 0.081 0.101 0.013 -0.017 0.004
O7DD 0.066 0.064 0.0372 -0.0155 0 0
O7FA 0.066 0.0372 0.064 0.0155 0 0
O7PA 0.066 0.0372 0.064 0.0155 0 0
O1 0.163(7) 0.105(5) 0.152(6) -0.009(5) 0.000 0.000
loop_
_geom_bond_atom_site_label_1
_geom_bond_atom_site_label_2
_geom_bond_site_symmetry_1
_geom_bond_site_symmetry_2
Cd1 O4 1_555 1_555
O4 C1 1_555 1_555
O5 Cd1 1_555 1_555
O6 Cd1 1_555 1_555
C1 O5 1_555 1_555
C2 C1 1_555 1_555
C3 C2 1_555 1_555
H1 C3 1_555 1_555
C4 C3 1_555 1_555
C5 C4 1_555 1_555
C6 C5 1_555 1_555
H2 C6 1_555 1_555
C7 C2 1_555 1_555
H3 C7 1_555 1_555
C8 C4 1_555 1_555
C9 C8 1_555 1_555
C10 C5 1_555 1_555
C11 C8 1_555 1_555
H4 C11 1_555 1_555
H5 C11 1_555 1_555
C12 C11 1_555 1_555
H6 C12 1_555 1_555
H7 C12 1_555 1_555
H8 C12 1_555 1_555
C13 C8 1_555 1_555
H9 C13 1_555 1_555
H10 C13 1_555 1_555
C14 C13 1_555 1_555
H11 C14 1_555 1_555
H12 C14 1_555 1_555
H13 C14 1_555 1_555
O7 Cd1 1_555 1_555
Cd1PA O5 1_555 1_555
Cd1FA O6 1_555 1_555
Cd1DD O6 1_555 1_555
Cd1AD O4GB 1_555 1_555
Cd1FF O4OB 1_555 1_555
Cd1BA O4BA 1_555 1_555
Cd1DF O5BA 1_555 1_555
Cd1U O4KF 1_555 1_555
Cd1UE O4UE 1_555 1_555
Cd1FE O4FE 1_555 1_555
Cd1QE O5FE 1_555 1_555
Cd1KA O4CG 1_555 1_555
Cd1CA O5CG 1_555 1_555
Cd1YD O5UE 1_555 1_555
Cd1SA O5OB 1_555 1_555
Cd1QD O4YB 1_555 1_555
Cd1MA O5YB 1_555 1_555
O4PE Cd1 1_555 1_555
O4DD Cd1DD 1_555 1_555
O4JB Cd1DD 1_555 1_555
O4FA Cd1FA 1_555 1_555
O4VD Cd1FA 1_555 1_555
O4PA Cd1PA 1_555 1_555
O4JE Cd1PA 1_555 1_555
O4GB C1GB 1_555 1_555
O4BA C1BA 1_555 1_555
O4KF C1KF 1_555 1_555
O4FE C1FE 1_555 1_555
O4CG C1CG 1_555 1_555
O4UE C1UE 1_555 1_555
O4OB C1OB 1_555 1_555
O4YB C1YB 1_555 1_555
O5FA Cd1 1_555 1_555
O5PE Cd1 1_555 1_555
O5VD Cd1 1_555 1_555
O5PA Cd1PA 1_555 1_555
O5DD Cd1FA 1_555 1_555
O5JE Cd1PA 1_555 1_555
O5JB Cd1FA 1_555 1_555
O5GB Cd1AD 1_555 1_555
O5BA Cd1BA 1_555 1_555
O5KF Cd1U 1_555 1_555
O5FE Cd1FE 1_555 1_555
O5CG Cd1KA 1_555 1_555
O5UE Cd1UE 1_555 1_555
O5OB Cd1FF 1_555 1_555
O5YB Cd1QD 1_555 1_555
C1PA O4PA 1_555 1_555
C1GB O5GB 1_555 1_555
C1BA O5BA 1_555 1_555
C1VD O4VD 1_555 1_555
C1KF O5KF 1_555 1_555
C1FE O5FE 1_555 1_555
C1DD O4DD 1_555 1_555
C1CG O5CG 1_555 1_555
C1UE O5UE 1_555 1_555
C1OB O5OB 1_555 1_555
C1YB O5YB 1_555 1_555
C2PA C1PA 1_555 1_555
C2GB C1GB 1_555 1_555
C2BA C1BA 1_555 1_555
C2VD C1VD 1_555 1_555
C2KF C1KF 1_555 1_555
C2FE C1FE 1_555 1_555
C2DD C1DD 1_555 1_555
C2CG C1CG 1_555 1_555
C2UE C1UE 1_555 1_555
C2OB C1OB 1_555 1_555
C2YB C1YB 1_555 1_555
C3PA C2PA 1_555 1_555
C3GB C2GB 1_555 1_555
C3BA C2BA 1_555 1_555
C3VD C2VD 1_555 1_555
C3KF C2KF 1_555 1_555
C3FE C2FE 1_555 1_555
C3DD C2DD 1_555 1_555
C3CG C2CG 1_555 1_555
C3UE C2UE 1_555 1_555
C3OB C2OB 1_555 1_555
C3YB C2YB 1_555 1_555
H1PA C3PA 1_555 1_555
H1GB C3GB 1_555 1_555
H1BA C3BA 1_555 1_555
H1VD C3VD 1_555 1_555
H1KF C3KF 1_555 1_555
H1FE C3FE 1_555 1_555
H1DD C3DD 1_555 1_555
H1CG C3CG 1_555 1_555
H1UE C3UE 1_555 1_555
H1OB C3OB 1_555 1_555
H1YB C3YB 1_555 1_555
C4PA C3PA 1_555 1_555
C4GB C3GB 1_555 1_555
C4BA C3BA 1_555 1_555
C4VD C3VD 1_555 1_555
C4KF C3KF 1_555 1_555
C4FE C3FE 1_555 1_555
C4DD C3DD 1_555 1_555
C4CG C3CG 1_555 1_555
C4UE C3UE 1_555 1_555
C4OB C3OB 1_555 1_555
C4YB C3YB 1_555 1_555
C5PA C4PA 1_555 1_555
C5BA C4BA 1_555 1_555
C5GB C4GB 1_555 1_555
C5VD C4VD 1_555 1_555
C5FE C4FE 1_555 1_555
C5KF C4KF 1_555 1_555
C5DD C4DD 1_555 1_555
C5UE C4UE 1_555 1_555
C5CG C4CG 1_555 1_555
C5OB C4OB 1_555 1_555
C5YB C4YB 1_555 1_555
C6PA C5PA 1_555 1_555
C6BA C5BA 1_555 1_555
C6GB C5GB 1_555 1_555
C6VD C5VD 1_555 1_555
C6FE C5FE 1_555 1_555
C6KF C5KF 1_555 1_555
C6DD C5DD 1_555 1_555
C6UE C5UE 1_555 1_555
C6CG C5CG 1_555 1_555
C6OB C5OB 1_555 1_555
C6YB C5YB 1_555 1_555
H2PA C6PA 1_555 1_555
H2BA C6BA 1_555 1_555
H2GB C6GB 1_555 1_555
H2VD C6VD 1_555 1_555
H2FE C6FE 1_555 1_555
H2KF C6KF 1_555 1_555
H2DD C6DD 1_555 1_555
H2UE C6UE 1_555 1_555
H2CG C6CG 1_555 1_555
H2OB C6OB 1_555 1_555
H2YB C6YB 1_555 1_555
C7PA C2PA 1_555 1_555
C7BA C2BA 1_555 1_555
C7GB C2GB 1_555 1_555
C7VD C2VD 1_555 1_555
C7FE C2FE 1_555 1_555
C7KF C2KF 1_555 1_555
C7DD C2DD 1_555 1_555
C7UE C2UE 1_555 1_555
C7CG C2CG 1_555 1_555
C7OB C2OB 1_555 1_555
C7YB C2YB 1_555 1_555
H3PA C7PA 1_555 1_555
H3BA C7BA 1_555 1_555
H3GB C7GB 1_555 1_555
H3VD C7VD 1_555 1_555
H3FE C7FE 1_555 1_555
H3KF C7KF 1_555 1_555
H3DD C7DD 1_555 1_555
H3UE C7UE 1_555 1_555
H3CG C7CG 1_555 1_555
H3OB C7OB 1_555 1_555
H3YB C7YB 1_555 1_555
C8PA C4PA 1_555 1_555
C8GB C4GB 1_555 1_555
C8BA C4BA 1_555 1_555
C8VD C4VD 1_555 1_555
C8KF C4KF 1_555 1_555
C8FE C4FE 1_555 1_555
C8DD C4DD 1_555 1_555
C8CG C4CG 1_555 1_555
C8UE C4UE 1_555 1_555
C8YB C4YB 1_555 1_555
C8OB C4OB 1_555 1_555
C9YB C10 1_555 1_555
C9PA C8PA 1_555 1_555
C9GB C8GB 1_555 1_555
C9BA C8BA 1_555 1_555
C9VD C8VD 1_555 1_555
C9KF C8KF 1_555 1_555
C9FE C8FE 1_555 1_555
C9DD C8DD 1_555 1_555
C9CG C8CG 1_555 1_555
C9UE C8UE 1_555 1_555
C9OB C8OB 1_555 1_555
C10OB C9 1_555 1_555
C10PA C5PA 1_555 1_555
C10BA C5BA 1_555 1_555
C10GB C5GB 1_555 1_555
C10VD C5VD 1_555 1_555
C10FE C5FE 1_555 1_555
C10KF C5KF 1_555 1_555
C10DD C5DD 1_555 1_555
C10UE C5UE 1_555 1_555
C10CG C5CG 1_555 1_555
C10YB C5YB 1_555 1_555
C11PA C8PA 1_555 1_555
C11GB C8GB 1_555 1_555
C11BA C8BA 1_555 1_555
C11VD C8VD 1_555 1_555
C11KF C8KF 1_555 1_555
C11FE C8FE 1_555 1_555
C11DD C8DD 1_555 1_555
C11CG C8CG 1_555 1_555
C11UE C8UE 1_555 1_555
C11YB C8YB 1_555 1_555
C11OB C8OB 1_555 1_555
H4PA C11PA 1_555 1_555
H4GB C11GB 1_555 1_555
H4BA C11BA 1_555 1_555
H4VD C11VD 1_555 1_555
H4KF C11KF 1_555 1_555
H4FE C11FE 1_555 1_555
H4DD C11DD 1_555 1_555
H4CG C11CG 1_555 1_555
H4UE C11UE 1_555 1_555
H4YB C11YB 1_555 1_555
H4OB C11OB 1_555 1_555
H5PA C11PA 1_555 1_555
H5GB C11GB 1_555 1_555
H5BA C11BA 1_555 1_555
H5VD C11VD 1_555 1_555
H5KF C11KF 1_555 1_555
H5FE C11FE 1_555 1_555
H5DD C11DD 1_555 1_555
H5CG C11CG 1_555 1_555
H5UE C11UE 1_555 1_555
H5YB C11YB 1_555 1_555
H5OB C11OB 1_555 1_555
C12PA C11PA 1_555 1_555
C12GB C11GB 1_555 1_555
C12BA C11BA 1_555 1_555
C12VD C11VD 1_555 1_555
C12KF C11KF 1_555 1_555
C12FE C11FE 1_555 1_555
C12DD C11DD 1_555 1_555
C12CG C11CG 1_555 1_555
C12UE C11UE 1_555 1_555
C12YB C11YB 1_555 1_555
C12OB C11OB 1_555 1_555
H6PA C12PA 1_555 1_555
H6GB C12GB 1_555 1_555
H6BA C12BA 1_555 1_555
H6VD C12VD 1_555 1_555
H6KF C12KF 1_555 1_555
H6FE C12FE 1_555 1_555
H6DD C12DD 1_555 1_555
H6CG C12CG 1_555 1_555
H6UE C12UE 1_555 1_555
H6YB C12YB 1_555 1_555
H6OB C12OB 1_555 1_555
H7PA C12PA 1_555 1_555
H7GB C12GB 1_555 1_555
H7BA C12BA 1_555 1_555
H7VD C12VD 1_555 1_555
H7KF C12KF 1_555 1_555
H7FE C12FE 1_555 1_555
H7DD C12DD 1_555 1_555
H7CG C12CG 1_555 1_555
H7UE C12UE 1_555 1_555
H7YB C12YB 1_555 1_555
H7OB C12OB 1_555 1_555
H8PA C12PA 1_555 1_555
H8GB C12GB 1_555 1_555
H8BA C12BA 1_555 1_555
H8VD C12VD 1_555 1_555
H8KF C12KF 1_555 1_555
H8FE C12FE 1_555 1_555
H8DD C12DD 1_555 1_555
H8CG C12CG 1_555 1_555
H8UE C12UE 1_555 1_555
H8YB C12YB 1_555 1_555
H8OB C12OB 1_555 1_555
C13PA C8PA 1_555 1_555
C13GB C8GB 1_555 1_555
C13BA C8BA 1_555 1_555
C13VD C8VD 1_555 1_555
C13KF C8KF 1_555 1_555
C13FE C8FE 1_555 1_555
C13DD C8DD 1_555 1_555
C13CG C8CG 1_555 1_555
C13UE C8UE 1_555 1_555
C13YB C8YB 1_555 1_555
C13OB C8OB 1_555 1_555
H9PA C13PA 1_555 1_555
H9GB C13GB 1_555 1_555
H9BA C13BA 1_555 1_555
H9VD C13VD 1_555 1_555
H9KF C13KF 1_555 1_555
H9FE C13FE 1_555 1_555
H9DD C13DD 1_555 1_555
H9CG C13CG 1_555 1_555
H9UE C13UE 1_555 1_555
H9YB C13YB 1_555 1_555
H9OB C13OB 1_555 1_555
H10PA C13PA 1_555 1_555
H10GB C13GB 1_555 1_555
H10BA C13BA 1_555 1_555
H10VD C13VD 1_555 1_555
H10KF C13KF 1_555 1_555
H10FE C13FE 1_555 1_555
H10DD C13DD 1_555 1_555
H10CG C13CG 1_555 1_555
H10UE C13UE 1_555 1_555
H10YB C13YB 1_555 1_555
H10OB C13OB 1_555 1_555
C14PA C13PA 1_555 1_555
C14GB C13GB 1_555 1_555
C14BA C13BA 1_555 1_555
C14VD C13VD 1_555 1_555
C14KF C13KF 1_555 1_555
C14FE C13FE 1_555 1_555
C14DD C13DD 1_555 1_555
C14CG C13CG 1_555 1_555
C14UE C13UE 1_555 1_555
C14YB C13YB 1_555 1_555
C14OB C13OB 1_555 1_555
H11PA C14PA 1_555 1_555
H11GB C14GB 1_555 1_555
H11BA C14BA 1_555 1_555
H11VD C14VD 1_555 1_555
H11KF C14KF 1_555 1_555
H11FE C14FE 1_555 1_555
H11DD C14DD 1_555 1_555
H11CG C14CG 1_555 1_555
H11UE C14UE 1_555 1_555
H11YB C14YB 1_555 1_555
H11OB C14OB 1_555 1_555
H12PA C14PA 1_555 1_555
H12GB C14GB 1_555 1_555
H12BA C14BA 1_555 1_555
H12VD C14VD 1_555 1_555
H12KF C14KF 1_555 1_555
H12FE C14FE 1_555 1_555
H12DD C14DD 1_555 1_555
H12CG C14CG 1_555 1_555
H12UE C14UE 1_555 1_555
H12YB C14YB 1_555 1_555
H12OB C14OB 1_555 1_555
H13PA C14PA 1_555 1_555
H13GB C14GB 1_555 1_555
H13BA C14BA 1_555 1_555
H13VD C14VD 1_555 1_555
H13KF C14KF 1_555 1_555
H13FE C14FE 1_555 1_555
H13DD C14DD 1_555 1_555
H13CG C14CG 1_555 1_555
H13UE C14UE 1_555 1_555
H13YB C14YB 1_555 1_555
H13OB C14OB 1_555 1_555
O7DD Cd1DD 1_555 1_555
O7FA Cd1FA 1_555 1_555
O7PA Cd1PA 1_555 1_555
O6 Cd1PA 1_555 1_555
C6 C7 1_555 1_555
C9 C10 1_555 1_555
Cd1PA O5PE 1_555 1_555
Cd1FA O5FA 1_555 1_555
Cd1FA O5VD 1_555 1_555
Cd1DD O5PA 1_555 1_555
Cd1DD O5DD 1_555 1_555
Cd1DD O5JE 1_555 1_555
Cd1DD O5JB 1_555 1_555
Cd1FF O5GB 1_555 1_555
Cd1UE O5KF 1_555 1_555
O5VD C1VD 1_555 1_555
O5PA C1PA 1_555 1_555
O5DD C1DD 1_555 1_555
C5OB C10OB 1_555 1_555
C6PA C7PA 1_555 1_555
C6BA C7BA 1_555 1_555
C6GB C7GB 1_555 1_555
C6VD C7VD 1_555 1_555
C6FE C7FE 1_555 1_555
C6KF C7KF 1_555 1_555
C6DD C7DD 1_555 1_555
C6UE C7UE 1_555 1_555
C6CG C7CG 1_555 1_555
C6OB C7OB 1_555 1_555
C6YB C7YB 1_555 1_555
C8YB C9YB 1_555 1_555
C9YB C10YB 1_555 1_555
C9PA C10PA 1_555 1_555
C9PA C10BA 1_555 1_555
C9GB C10PA 1_555 1_555
C9GB C10GB 1_555 1_555
C9BA C10BA 1_555 1_555
C9BA C10GB 1_555 1_555
C9VD C10VD 1_555 1_555
C9VD C10FE 1_555 1_555
C9KF C10VD 1_555 1_555
C9KF C10KF 1_555 1_555
C9FE C10FE 1_555 1_555
C9FE C10KF 1_555 1_555
C9DD C10DD 1_555 1_555
C9DD C10UE 1_555 1_555
C9CG C10DD 1_555 1_555
C9CG C10CG 1_555 1_555
C9UE C10UE 1_555 1_555
C9UE C10CG 1_555 1_555
C9OB C10OB 1_555 1_555
C9OB C10YB 1_555 1_555

#END
