
#######################################################################
#
#                 Cambridge Crystallographic Data Centre
#                                CCDC 
#
#######################################################################
#
# If this CIF has been generated from an entry in the Cambridge 
# Structural Database, then it will include bibliographic, chemical, 
# crystal, experimental, refinement or atomic coordinate data resulting 
# from the CCDC's data processing and validation procedures.
#
#######################################################################

data_BUFPAU
_chemical_name_common            
'catena-(Sesqui-lead(ii) tris(oxonium) octakis(mu!6$-5,5,10,10,15,15-hexaethyltruxene-2,7,12-tricarboxylato)-tris(mu!4$-oxo)-dodecaaqua-dodeca-lead(ii) hexahydrate)'
_chemical_formula_moiety         
'(Pb1 2+)1.5n,3n(H3 O1 1+),n(C336 H336 O63 Pb12 6-),6n(H2 O1)'
_chemical_name_systematic        
"catena-(Sesqui-lead(ii) tris(oxonium) octakis(\m~6~-5,5,10,10,15,15-hexaethyl-10,15-dihydro-5H-diindeno[1,2-a:1',2'-c]fluorene-2,7,12-tricarboxylato)-tris(\m~4~-oxo)-dodecaaqua-dodeca-lead(ii) hexahydrate)"
_symmetry_cell_setting           cubic
_symmetry_space_group_name_H-M   'F m -3 c'
_symmetry_Int_Tables_number      226
_space_group_name_Hall           '-F 4a 2 3'
loop_
_symmetry_equiv_pos_site_id
_symmetry_equiv_pos_as_xyz
1 x,y,z
2 z,x,y
3 y,z,x
4 1/2+y,1/2+x,1/2-z
5 1/2+y,1/2-x,1/2+z
6 1/2-y,1/2+x,1/2+z
7 1/2+x,1/2+z,1/2-y
8 1/2-x,1/2+z,1/2+y
9 1/2+x,1/2-z,1/2+y
10 1/2+z,1/2+y,1/2-x
11 1/2+z,1/2-y,1/2+x
12 1/2-z,1/2+y,1/2+x
13 x,1/2+y,1/2+z
14 z,1/2+x,1/2+y
15 y,1/2+z,1/2+x
16 1/2+y,x,-z
17 1/2+y,-x,z
18 1/2-y,x,z
19 1/2+x,z,-y
20 1/2-x,z,y
21 1/2+x,-z,y
22 1/2+z,y,-x
23 1/2+z,-y,x
24 1/2-z,y,x
25 1/2+x,y,1/2+z
26 1/2+z,x,1/2+y
27 1/2+y,z,1/2+x
28 y,1/2+x,-z
29 y,1/2-x,z
30 -y,1/2+x,z
31 x,1/2+z,-y
32 -x,1/2+z,y
33 x,1/2-z,y
34 z,1/2+y,-x
35 z,1/2-y,x
36 -z,1/2+y,x
37 1/2+x,1/2+y,z
38 1/2+z,1/2+x,y
39 1/2+y,1/2+z,x
40 y,x,1/2-z
41 y,-x,1/2+z
42 -y,x,1/2+z
43 x,z,1/2-y
44 -x,z,1/2+y
45 x,-z,1/2+y
46 z,y,1/2-x
47 z,-y,1/2+x
48 -z,y,1/2+x
49 -x,-y,z
50 -x,y,-z
51 x,-y,-z
52 z,-x,-y
53 -z,-x,y
54 -z,x,-y
55 -y,z,-x
56 y,-z,-x
57 -y,-z,x
58 1/2-y,1/2-x,1/2-z
59 1/2-x,1/2-z,1/2-y
60 1/2-z,1/2-y,1/2-x
61 -x,1/2-y,1/2+z
62 -x,1/2+y,1/2-z
63 x,1/2-y,1/2-z
64 z,1/2-x,1/2-y
65 -z,1/2-x,1/2+y
66 -z,1/2+x,1/2-y
67 -y,1/2+z,1/2-x
68 y,1/2-z,1/2-x
69 -y,1/2-z,1/2+x
70 1/2-y,-x,-z
71 1/2-x,-z,-y
72 1/2-z,-y,-x
73 1/2-x,-y,1/2+z
74 1/2-x,y,1/2-z
75 1/2+x,-y,1/2-z
76 1/2+z,-x,1/2-y
77 1/2-z,-x,1/2+y
78 1/2-z,x,1/2-y
79 1/2-y,z,1/2-x
80 1/2+y,-z,1/2-x
81 1/2-y,-z,1/2+x
82 -y,1/2-x,-z
83 -x,1/2-z,-y
84 -z,1/2-y,-x
85 1/2-x,1/2-y,z
86 1/2-x,1/2+y,-z
87 1/2+x,1/2-y,-z
88 1/2+z,1/2-x,-y
89 1/2-z,1/2-x,y
90 1/2-z,1/2+x,-y
91 1/2-y,1/2+z,-x
92 1/2+y,1/2-z,-x
93 1/2-y,1/2-z,x
94 -y,-x,1/2-z
95 -x,-z,1/2-y
96 -z,-y,1/2-x
97 -x,-y,-z
98 -z,-x,-y
99 -y,-z,-x
100 1/2-y,1/2-x,1/2+z
101 1/2-y,1/2+x,1/2-z
102 1/2+y,1/2-x,1/2-z
103 1/2-x,1/2-z,1/2+y
104 1/2+x,1/2-z,1/2-y
105 1/2-x,1/2+z,1/2-y
106 1/2-z,1/2-y,1/2+x
107 1/2-z,1/2+y,1/2-x
108 1/2+z,1/2-y,1/2-x
109 -x,1/2-y,1/2-z
110 -z,1/2-x,1/2-y
111 -y,1/2-z,1/2-x
112 1/2-y,-x,z
113 1/2-y,x,-z
114 1/2+y,-x,-z
115 1/2-x,-z,y
116 1/2+x,-z,-y
117 1/2-x,z,-y
118 1/2-z,-y,x
119 1/2-z,y,-x
120 1/2+z,-y,-x
121 1/2-x,-y,1/2-z
122 1/2-z,-x,1/2-y
123 1/2-y,-z,1/2-x
124 -y,1/2-x,z
125 -y,1/2+x,-z
126 y,1/2-x,-z
127 -x,1/2-z,y
128 x,1/2-z,-y
129 -x,1/2+z,-y
130 -z,1/2-y,x
131 -z,1/2+y,-x
132 z,1/2-y,-x
133 1/2-x,1/2-y,-z
134 1/2-z,1/2-x,-y
135 1/2-y,1/2-z,-x
136 -y,-x,1/2+z
137 -y,x,1/2-z
138 y,-x,1/2-z
139 -x,-z,1/2+y
140 x,-z,1/2-y
141 -x,z,1/2-y
142 -z,-y,1/2+x
143 -z,y,1/2-x
144 z,-y,1/2-x
145 x,y,-z
146 x,-y,z
147 -x,y,z
148 -z,x,y
149 z,x,-y
150 z,-x,y
151 y,-z,x
152 -y,z,x
153 y,z,-x
154 1/2+y,1/2+x,1/2+z
155 1/2+x,1/2+z,1/2+y
156 1/2+z,1/2+y,1/2+x
157 x,1/2+y,1/2-z
158 x,1/2-y,1/2+z
159 -x,1/2+y,1/2+z
160 -z,1/2+x,1/2+y
161 z,1/2+x,1/2-y
162 z,1/2-x,1/2+y
163 y,1/2-z,1/2+x
164 -y,1/2+z,1/2+x
165 y,1/2+z,1/2-x
166 1/2+y,x,z
167 1/2+x,z,y
168 1/2+z,y,x
169 1/2+x,y,1/2-z
170 1/2+x,-y,1/2+z
171 1/2-x,y,1/2+z
172 1/2-z,x,1/2+y
173 1/2+z,x,1/2-y
174 1/2+z,-x,1/2+y
175 1/2+y,-z,1/2+x
176 1/2-y,z,1/2+x
177 1/2+y,z,1/2-x
178 y,1/2+x,z
179 x,1/2+z,y
180 z,1/2+y,x
181 1/2+x,1/2+y,-z
182 1/2+x,1/2-y,z
183 1/2-x,1/2+y,z
184 1/2-z,1/2+x,y
185 1/2+z,1/2+x,-y
186 1/2+z,1/2-x,y
187 1/2+y,1/2-z,x
188 1/2-y,1/2+z,x
189 1/2+y,1/2+z,-x
190 y,x,1/2+z
191 x,z,1/2+y
192 z,y,1/2+x
_cell_length_a                   48.947(6)
_cell_length_b                   48.947(6)
_cell_length_c                   48.947(6)
_cell_angle_alpha                90
_cell_angle_beta                 90
_cell_angle_gamma                90
_cell_volume                     117268
_exptl_crystal_colour            colorless
_exptl_crystal_description       block
_cell_formula_units_Z            8
_exptl_crystal_preparation       
'crystal soaked in Pb(NO3)2 solution for 1 hour'
loop_
_atom_site_label
_atom_site_type_symbol
_atom_site_fract_x
_atom_site_fract_y
_atom_site_fract_z
_atom_site_U_iso_or_equiv
_atom_site_thermal_displace_type
Pb1 Pb 0.22100(6) 0.5000 0.19368(6) 0.0913 Uani
O2 O 0.26199(14) 0.46857(13) 0.19913(19) 0.1650 Uani
O3 O 0.23919(14) 0.46627(12) 0.16170(14) 0.1447 Uani
O4 O 0.2500 0.5000 0.2500 0.1577 Uani
C1 C 0.25846(16) 0.45819(13) 0.1759(2) 0.1220 Uani
C2 C 0.27593(13) 0.43531(14) 0.16637(19) 0.1180 Uani
C3 C 0.29730(17) 0.42671(16) 0.1827(2) 0.1300 Uani
H1 H 0.3007 0.4355 0.1997 0.1560 Uiso
C4 C 0.31399(14) 0.40510(14) 0.17420(17) 0.1177 Uani
C5 C 0.30797(13) 0.39070(14) 0.15093(16) 0.1113 Uani
C6 C 0.28555(15) 0.39915(15) 0.13433(17) 0.1243 Uani
H2 H 0.2814 0.3899 0.1178 0.1490 Uiso
C7 C 0.27010(15) 0.42108(15) 0.14294(17) 0.1213 Uani
H3 H 0.2548 0.4265 0.1322 0.1460 Uiso
C8 C 0.33932(18) 0.39433(19) 0.1881(2) 0.1377 Uani
C9 C 0.34670(14) 0.37097(14) 0.16935(14) 0.1120 Uani
C10 C 0.32819(13) 0.36819(14) 0.14830(14) 0.1087 Uani
C11 C 0.3608(2) 0.4178(2) 0.1879(3) 0.1590 Uani
H4 H 0.3775 0.4113 0.1973 0.1910 Uiso
H5 H 0.3535 0.4333 0.1986 0.1910 Uiso
C12 C 0.3690(3) 0.4285(3) 0.1573(3) 0.2150 Uani
H6 H 0.3762 0.4132 0.1465 0.3230 Uiso
H7 H 0.3828 0.4429 0.1587 0.3230 Uiso
H8 H 0.3527 0.4359 0.1482 0.3230 Uiso
C13 C 0.3309(2) 0.3835(3) 0.2179(2) 0.1583 Uani
H9 H 0.3475 0.3768 0.2274 0.1900 Uiso
H10 H 0.3236 0.3990 0.2287 0.1900 Uiso
C14 C 0.3115(4) 0.3626(4) 0.2172(2) 0.2057 Uani
H11 H 0.2961 0.3682 0.2058 0.3090 Uiso
H12 H 0.3050 0.3588 0.2358 0.3090 Uiso
H13 H 0.3198 0.3460 0.2096 0.3090 Uiso
O5 O 0.1813(5) 0.5000 0.1668(6) 0.1810 Uiso
Pb1W Pb 0.30632(6) 0.5000 0.22100(6) 0.0913 Uani
Pb1SA Pb 0.19368(6) 0.5000 0.27900(6) 0.0913 Uani
Pb1PD Pb 0.27900(6) 0.5000 0.30632(6) 0.0913 Uani
Pb1FD Pb 0.5000 0.30632(6) 0.27900(6) 0.0913 Uani
Pb1BA Pb 0.5000 0.27900(6) 0.19368(6) 0.0913 Uani
Pb1OF Pb 0.30632(6) 0.22100(6) 0.0000 0.0913 Uani
Pb1XC Pb 0.27900(6) 0.30632(6) 0.0000 0.0913 Uani
Pb1SE Pb 0.19368(6) 0.77900(6) 0.5000 0.0913 Uani
Pb1DA Pb 0.22100(6) 0.69368(6) 0.5000 0.0913 Uani
Pb1LA Pb 0.0000 0.69368(6) 0.22100(6) 0.0913 Uani
Pb1C Pb 0.0000 0.72100(6) 0.30632(6) 0.0913 Uani
Pb1GE Pb 0.5000 0.77900(6) 0.30632(6) 0.0913 Uani
Pb1HF Pb 0.5000 0.69368(6) 0.27900(6) 0.0913 Uani
Pb1AG Pb 0.30632(6) 0.72100(6) 0.5000 0.0913 Uani
Pb1Q Pb 0.0000 0.22100(6) 0.19368(6) 0.0913 Uani
Pb1DG Pb 0.0000 0.30632(6) 0.22100(6) 0.0913 Uani
Pb1EF Pb 0.19368(6) 0.27900(6) 0.0000 0.0913 Uani
O2SA O 0.19913(19) 0.46857(13) 0.23801(14) 0.1650 Uani
O2OE O 0.26199(14) 0.53143(13) 0.19913(19) 0.1650 Uani
O2ME O 0.19913(19) 0.53143(13) 0.23801(14) 0.1650 Uani
O2W O 0.30087(19) 0.46857(13) 0.26199(14) 0.1650 Uani
O2MD O 0.30087(19) 0.53143(13) 0.26199(14) 0.1650 Uani
O2PD O 0.23801(14) 0.53143(13) 0.30087(19) 0.1650 Uani
O2UB O 0.23801(14) 0.46857(13) 0.30087(19) 0.1650 Uani
O2OB O 0.46857(13) 0.30087(19) 0.23801(14) 0.1650 Uani
O2YB O 0.30087(19) 0.26199(14) 0.03143(13) 0.1650 Uani
O2SE O 0.19913(19) 0.73801(14) 0.46857(13) 0.1650 Uani
O2EG O 0.03143(13) 0.69913(19) 0.26199(14) 0.1650 Uani
O2GE O 0.46857(13) 0.73801(14) 0.30087(19) 0.1650 Uani
O2VF O 0.26199(14) 0.69913(19) 0.46857(13) 0.1650 Uani
O2Q O 0.03143(13) 0.26199(14) 0.19913(19) 0.1650 Uani
O2FB O 0.23801(14) 0.30087(19) 0.03143(13) 0.1650 Uani
O3OE O 0.23919(14) 0.53373(12) 0.16170(14) 0.1447 Uani
O3W O 0.33830(14) 0.46627(12) 0.23919(14) 0.1447 Uani
O3MD O 0.33830(14) 0.53373(12) 0.23919(14) 0.1447 Uani
O3SA O 0.16170(14) 0.46627(12) 0.26081(14) 0.1447 Uani
O3ME O 0.16170(14) 0.53373(12) 0.26081(14) 0.1447 Uani
O3PD O 0.26081(14) 0.53373(12) 0.33830(14) 0.1447 Uani
O3UB O 0.26081(14) 0.46627(12) 0.33830(14) 0.1447 Uani
O3OB O 0.46627(12) 0.33830(14) 0.26081(14) 0.1447 Uani
O3YB O 0.33830(14) 0.23919(14) 0.03373(12) 0.1447 Uani
O3SE O 0.16170(14) 0.76081(14) 0.46627(12) 0.1447 Uani
O3EG O 0.03373(12) 0.66170(14) 0.23919(14) 0.1447 Uani
O3GE O 0.46627(12) 0.76081(14) 0.33830(14) 0.1447 Uani
O3VF O 0.23919(14) 0.66170(14) 0.46627(12) 0.1447 Uani
O3Q O 0.03373(12) 0.23919(14) 0.16170(14) 0.1447 Uani
O3FB O 0.26081(14) 0.33830(14) 0.03373(12) 0.1447 Uani
C1PD C 0.24154(16) 0.54181(13) 0.3241(2) 0.1220 Uani
C1MD C 0.3241(2) 0.54181(13) 0.25846(16) 0.1220 Uani
C1SA C 0.1759(2) 0.45819(13) 0.24154(16) 0.1220 Uani
C1OB C 0.45819(13) 0.3241(2) 0.24154(16) 0.1220 Uani
C1YB C 0.3241(2) 0.25846(16) 0.04181(13) 0.1220 Uani
C1SE C 0.1759(2) 0.74154(16) 0.45819(13) 0.1220 Uani
C1EG C 0.04181(13) 0.6759(2) 0.25846(16) 0.1220 Uani
C1GE C 0.45819(13) 0.74154(16) 0.3241(2) 0.1220 Uani
C1VF C 0.25846(16) 0.6759(2) 0.45819(13) 0.1220 Uani
C1Q C 0.04181(13) 0.25846(16) 0.1759(2) 0.1220 Uani
C1FB C 0.24154(16) 0.3241(2) 0.04181(13) 0.1220 Uani
C2PD C 0.22407(13) 0.56469(14) 0.33363(19) 0.1180 Uani
C2MD C 0.33363(19) 0.56469(14) 0.27593(13) 0.1180 Uani
C2SA C 0.16637(19) 0.43531(14) 0.22407(13) 0.1180 Uani
C2OB C 0.43531(14) 0.33363(19) 0.22407(13) 0.1180 Uani
C2YB C 0.33363(19) 0.27593(13) 0.06469(14) 0.1180 Uani
C2SE C 0.16637(19) 0.72407(13) 0.43531(14) 0.1180 Uani
C2EG C 0.06469(14) 0.66637(19) 0.27593(13) 0.1180 Uani
C2GE C 0.43531(14) 0.72407(13) 0.33363(19) 0.1180 Uani
C2VF C 0.27593(13) 0.66637(19) 0.43531(14) 0.1180 Uani
C2Q C 0.06469(14) 0.27593(13) 0.16637(19) 0.1180 Uani
C2FB C 0.22407(13) 0.33363(19) 0.06469(14) 0.1180 Uani
C3PD C 0.20270(17) 0.57329(16) 0.3173(2) 0.1300 Uani
C3MD C 0.3173(2) 0.57329(16) 0.29730(17) 0.1300 Uani
C3SA C 0.1827(2) 0.42671(16) 0.20270(17) 0.1300 Uani
C3OB C 0.42671(16) 0.3173(2) 0.20270(17) 0.1300 Uani
C3YB C 0.3173(2) 0.29730(17) 0.07329(16) 0.1300 Uani
C3SE C 0.1827(2) 0.70270(17) 0.42671(16) 0.1300 Uani
C3EG C 0.07329(16) 0.6827(2) 0.29730(17) 0.1300 Uani
C3GE C 0.42671(16) 0.70270(17) 0.3173(2) 0.1300 Uani
C3VF C 0.29730(17) 0.6827(2) 0.42671(16) 0.1300 Uani
C3Q C 0.07329(16) 0.29730(17) 0.1827(2) 0.1300 Uani
C3FB C 0.20270(17) 0.3173(2) 0.07329(16) 0.1300 Uani
H1PD H 0.1993 0.5645 0.3003 0.1560 Uiso
H1MD H 0.3003 0.5645 0.3007 0.1560 Uiso
H1SA H 0.1997 0.4355 0.1993 0.1560 Uiso
H1OB H 0.4355 0.3003 0.1993 0.1560 Uiso
H1YB H 0.3003 0.3007 0.0645 0.1560 Uiso
H1SE H 0.1997 0.6993 0.4355 0.1560 Uiso
H1EG H 0.0645 0.6997 0.3007 0.1560 Uiso
H1GE H 0.4355 0.6993 0.3003 0.1560 Uiso
H1VF H 0.3007 0.6997 0.4355 0.1560 Uiso
H1Q H 0.0645 0.3007 0.1997 0.1560 Uiso
H1FB H 0.1993 0.3003 0.0645 0.1560 Uiso
C4OB C 0.40510(14) 0.32580(17) 0.18601(14) 0.1177 Uani
C4YB C 0.32580(17) 0.31399(14) 0.09490(14) 0.1177 Uani
C4PD C 0.18601(14) 0.59490(14) 0.32580(17) 0.1177 Uani
C4MD C 0.32580(17) 0.59490(14) 0.31399(14) 0.1177 Uani
C4SA C 0.17420(17) 0.40510(14) 0.18601(14) 0.1177 Uani
C4SE C 0.17420(17) 0.68601(14) 0.40510(14) 0.1177 Uani
C4EG C 0.09490(14) 0.67420(17) 0.31399(14) 0.1177 Uani
C4GE C 0.40510(14) 0.68601(14) 0.32580(17) 0.1177 Uani
C4VF C 0.31399(14) 0.67420(17) 0.40510(14) 0.1177 Uani
C4Q C 0.09490(14) 0.31399(14) 0.17420(17) 0.1177 Uani
C4FB C 0.18601(14) 0.32580(17) 0.09490(14) 0.1177 Uani
C5OB C 0.39070(14) 0.34907(16) 0.19203(13) 0.1113 Uani
C5YB C 0.34907(16) 0.30797(13) 0.10930(14) 0.1113 Uani
C5PD C 0.19203(13) 0.60930(14) 0.34907(16) 0.1113 Uani
C5MD C 0.34907(16) 0.60930(14) 0.30797(13) 0.1113 Uani
C5SA C 0.15093(16) 0.39070(14) 0.19203(13) 0.1113 Uani
C5EG C 0.10930(14) 0.65093(16) 0.30797(13) 0.1113 Uani
C5VF C 0.30797(13) 0.65093(16) 0.39070(14) 0.1113 Uani
C5FB C 0.19203(13) 0.34907(16) 0.10930(14) 0.1113 Uani
C5SE C 0.15093(16) 0.69203(13) 0.39070(14) 0.1113 Uani
C5GE C 0.39070(14) 0.69203(13) 0.34907(16) 0.1113 Uani
C5Q C 0.10930(14) 0.30797(13) 0.15093(16) 0.1113 Uani
C6OB C 0.39915(15) 0.36567(17) 0.21445(15) 0.1243 Uani
C6YB C 0.36567(17) 0.28555(15) 0.10085(15) 0.1243 Uani
C6PD C 0.21445(15) 0.60085(15) 0.36567(17) 0.1243 Uani
C6MD C 0.36567(17) 0.60085(15) 0.28555(15) 0.1243 Uani
C6SA C 0.13433(17) 0.39915(15) 0.21445(15) 0.1243 Uani
C6EG C 0.10085(15) 0.63433(17) 0.28555(15) 0.1243 Uani
C6VF C 0.28555(15) 0.63433(17) 0.39915(15) 0.1243 Uani
C6FB C 0.21445(15) 0.36567(17) 0.10085(15) 0.1243 Uani
C6SE C 0.13433(17) 0.71445(15) 0.39915(15) 0.1243 Uani
C6GE C 0.39915(15) 0.71445(15) 0.36567(17) 0.1243 Uani
C6Q C 0.10085(15) 0.28555(15) 0.13433(17) 0.1243 Uani
H2OB H 0.3899 0.3822 0.2186 0.1490 Uiso
H2YB H 0.3822 0.2814 0.1101 0.1490 Uiso
H2PD H 0.2186 0.6101 0.3822 0.1490 Uiso
H2MD H 0.3822 0.6101 0.2814 0.1490 Uiso
H2SA H 0.1178 0.3899 0.2186 0.1490 Uiso
H2EG H 0.1101 0.6178 0.2814 0.1490 Uiso
H2VF H 0.2814 0.6178 0.3899 0.1490 Uiso
H2FB H 0.2186 0.3822 0.1101 0.1490 Uiso
H2SE H 0.1178 0.7186 0.3899 0.1490 Uiso
H2GE H 0.3899 0.7186 0.3822 0.1490 Uiso
H2Q H 0.1101 0.2814 0.1178 0.1490 Uiso
C7PD C 0.22990(15) 0.57892(15) 0.35706(17) 0.1213 Uani
C7MD C 0.35706(17) 0.57892(15) 0.27010(15) 0.1213 Uani
C7SA C 0.14294(17) 0.42108(15) 0.22990(15) 0.1213 Uani
C7OB C 0.42108(15) 0.35706(17) 0.22990(15) 0.1213 Uani
C7YB C 0.35706(17) 0.27010(15) 0.07892(15) 0.1213 Uani
C7EG C 0.07892(15) 0.64294(17) 0.27010(15) 0.1213 Uani
C7VF C 0.27010(15) 0.64294(17) 0.42108(15) 0.1213 Uani
C7FB C 0.22990(15) 0.35706(17) 0.07892(15) 0.1213 Uani
C7SE C 0.14294(17) 0.72990(15) 0.42108(15) 0.1213 Uani
C7GE C 0.42108(15) 0.72990(15) 0.35706(17) 0.1213 Uani
C7Q C 0.07892(15) 0.27010(15) 0.14294(17) 0.1213 Uani
H3PD H 0.2452 0.5735 0.3678 0.1460 Uiso
H3MD H 0.3678 0.5735 0.2548 0.1460 Uiso
H3SA H 0.1322 0.4265 0.2452 0.1460 Uiso
H3OB H 0.4265 0.3678 0.2452 0.1460 Uiso
H3YB H 0.3678 0.2548 0.0735 0.1460 Uiso
H3EG H 0.0735 0.6322 0.2548 0.1460 Uiso
H3VF H 0.2548 0.6322 0.4265 0.1460 Uiso
H3FB H 0.2452 0.3678 0.0735 0.1460 Uiso
H3SE H 0.1322 0.7452 0.4265 0.1460 Uiso
H3GE H 0.4265 0.7452 0.3678 0.1460 Uiso
H3Q H 0.0735 0.2548 0.1322 0.1460 Uiso
C8YB C 0.3119(2) 0.33932(18) 0.10567(19) 0.1377 Uani
C8OB C 0.39433(19) 0.3119(2) 0.16068(18) 0.1377 Uani
C8PD C 0.16068(18) 0.60567(19) 0.3119(2) 0.1377 Uani
C8MD C 0.3119(2) 0.60567(19) 0.33932(18) 0.1377 Uani
C8SA C 0.1881(2) 0.39433(19) 0.16068(18) 0.1377 Uani
C8SE C 0.1881(2) 0.66068(18) 0.39433(19) 0.1377 Uani
C8GE C 0.39433(19) 0.66068(18) 0.3119(2) 0.1377 Uani
C8Q C 0.10567(19) 0.33932(18) 0.1881(2) 0.1377 Uani
C8EG C 0.10567(19) 0.6881(2) 0.33932(18) 0.1377 Uani
C8VF C 0.33932(18) 0.6881(2) 0.39433(19) 0.1377 Uani
C8FB C 0.16068(18) 0.3119(2) 0.10567(19) 0.1377 Uani
C9YB C 0.33065(14) 0.34670(14) 0.12903(14) 0.1120 Uani
C9OB C 0.37097(14) 0.33065(14) 0.15330(14) 0.1120 Uani
C9PD C 0.15330(14) 0.62903(14) 0.33065(14) 0.1120 Uani
C9MD C 0.33065(14) 0.62903(14) 0.34670(14) 0.1120 Uani
C9SA C 0.16935(14) 0.37097(14) 0.15330(14) 0.1120 Uani
C9SE C 0.16935(14) 0.65330(14) 0.37097(14) 0.1120 Uani
C9GE C 0.37097(14) 0.65330(14) 0.33065(14) 0.1120 Uani
C9Q C 0.12903(14) 0.34670(14) 0.16935(14) 0.1120 Uani
C9EG C 0.12903(14) 0.66935(14) 0.34670(14) 0.1120 Uani
C9VF C 0.34670(14) 0.66935(14) 0.37097(14) 0.1120 Uani
C9FB C 0.15330(14) 0.33065(14) 0.12903(14) 0.1120 Uani
C10OB C 0.36819(14) 0.35170(14) 0.17181(13) 0.1087 Uani
C10YB C 0.35170(14) 0.32819(13) 0.13181(14) 0.1087 Uani
C10PD C 0.17181(13) 0.63181(14) 0.35170(14) 0.1087 Uani
C10MD C 0.35170(14) 0.63181(14) 0.32819(13) 0.1087 Uani
C10SA C 0.14830(14) 0.36819(14) 0.17181(13) 0.1087 Uani
C10EG C 0.13181(14) 0.64830(14) 0.32819(13) 0.1087 Uani
C10VF C 0.32819(13) 0.64830(14) 0.36819(14) 0.1087 Uani
C10FB C 0.17181(13) 0.35170(14) 0.13181(14) 0.1087 Uani
C10SE C 0.14830(14) 0.67181(13) 0.36819(14) 0.1087 Uani
C10GE C 0.36819(14) 0.67181(13) 0.35170(14) 0.1087 Uani
C10Q C 0.13181(14) 0.32819(13) 0.14830(14) 0.1087 Uani
C11YB C 0.3121(3) 0.3608(2) 0.0822(2) 0.1590 Uani
C11OB C 0.4178(2) 0.3121(3) 0.1392(2) 0.1590 Uani
C11PD C 0.1392(2) 0.5822(2) 0.3121(3) 0.1590 Uani
C11MD C 0.3121(3) 0.5822(2) 0.3608(2) 0.1590 Uani
C11SA C 0.1879(3) 0.4178(2) 0.1392(2) 0.1590 Uani
C11SE C 0.1879(3) 0.6392(2) 0.4178(2) 0.1590 Uani
C11GE C 0.4178(2) 0.6392(2) 0.3121(3) 0.1590 Uani
C11Q C 0.0822(2) 0.3608(2) 0.1879(3) 0.1590 Uani
C11EG C 0.0822(2) 0.6879(3) 0.3608(2) 0.1590 Uani
C11VF C 0.3608(2) 0.6879(3) 0.4178(2) 0.1590 Uani
C11FB C 0.1392(2) 0.3121(3) 0.0822(2) 0.1590 Uani
H4YB H 0.3027 0.3775 0.0887 0.1910 Uiso
H4OB H 0.4113 0.3027 0.1225 0.1910 Uiso
H4PD H 0.1225 0.5887 0.3027 0.1910 Uiso
H4MD H 0.3027 0.5887 0.3775 0.1910 Uiso
H4SA H 0.1973 0.4113 0.1225 0.1910 Uiso
H4SE H 0.1973 0.6225 0.4113 0.1910 Uiso
H4GE H 0.4113 0.6225 0.3027 0.1910 Uiso
H4Q H 0.0887 0.3775 0.1973 0.1910 Uiso
H4EG H 0.0887 0.6973 0.3775 0.1910 Uiso
H4VF H 0.3775 0.6973 0.4113 0.1910 Uiso
H4FB H 0.1225 0.3027 0.0887 0.1910 Uiso
H5YB H 0.3014 0.3535 0.0667 0.1910 Uiso
H5OB H 0.4333 0.3014 0.1465 0.1910 Uiso
H5PD H 0.1465 0.5667 0.3014 0.1910 Uiso
H5MD H 0.3014 0.5667 0.3535 0.1910 Uiso
H5SA H 0.1986 0.4333 0.1465 0.1910 Uiso
H5SE H 0.1986 0.6465 0.4333 0.1910 Uiso
H5GE H 0.4333 0.6465 0.3014 0.1910 Uiso
H5Q H 0.0667 0.3535 0.1986 0.1910 Uiso
H5EG H 0.0667 0.6986 0.3535 0.1910 Uiso
H5VF H 0.3535 0.6986 0.4333 0.1910 Uiso
H5FB H 0.1465 0.3014 0.0667 0.1910 Uiso
C12YB C 0.3427(3) 0.3690(3) 0.0715(3) 0.2150 Uani
C12OB C 0.4285(3) 0.3427(3) 0.1310(3) 0.2150 Uani
C12PD C 0.1310(3) 0.5715(3) 0.3427(3) 0.2150 Uani
C12MD C 0.3427(3) 0.5715(3) 0.3690(3) 0.2150 Uani
C12SA C 0.1573(3) 0.4285(3) 0.1310(3) 0.2150 Uani
C12SE C 0.1573(3) 0.6310(3) 0.4285(3) 0.2150 Uani
C12GE C 0.4285(3) 0.6310(3) 0.3427(3) 0.2150 Uani
C12Q C 0.0715(3) 0.3690(3) 0.1573(3) 0.2150 Uani
C12EG C 0.0715(3) 0.6573(3) 0.3690(3) 0.2150 Uani
C12VF C 0.3690(3) 0.6573(3) 0.4285(3) 0.2150 Uani
C12FB C 0.1310(3) 0.3427(3) 0.0715(3) 0.2150 Uani
H6YB H 0.3535 0.3762 0.0868 0.3230 Uiso
H6OB H 0.4132 0.3535 0.1238 0.3230 Uiso
H6PD H 0.1238 0.5868 0.3535 0.3230 Uiso
H6MD H 0.3535 0.5868 0.3762 0.3230 Uiso
H6SA H 0.1465 0.4132 0.1238 0.3230 Uiso
H6SE H 0.1465 0.6238 0.4132 0.3230 Uiso
H6GE H 0.4132 0.6238 0.3535 0.3230 Uiso
H6Q H 0.0868 0.3762 0.1465 0.3230 Uiso
H6EG H 0.0868 0.6465 0.3762 0.3230 Uiso
H6VF H 0.3762 0.6465 0.4132 0.3230 Uiso
H6FB H 0.1238 0.3535 0.0868 0.3230 Uiso
H7YB H 0.3413 0.3828 0.0571 0.3230 Uiso
H7OB H 0.4429 0.3413 0.1172 0.3230 Uiso
H7PD H 0.1172 0.5571 0.3413 0.3230 Uiso
H7MD H 0.3413 0.5571 0.3828 0.3230 Uiso
H7SA H 0.1587 0.4429 0.1172 0.3230 Uiso
H7SE H 0.1587 0.6172 0.4429 0.3230 Uiso
H7GE H 0.4429 0.6172 0.3413 0.3230 Uiso
H7Q H 0.0571 0.3828 0.1587 0.3230 Uiso
H7EG H 0.0571 0.6587 0.3828 0.3230 Uiso
H7VF H 0.3828 0.6587 0.4429 0.3230 Uiso
H7FB H 0.1172 0.3413 0.0571 0.3230 Uiso
H8YB H 0.3518 0.3527 0.0641 0.3230 Uiso
H8OB H 0.4359 0.3518 0.1473 0.3230 Uiso
H8PD H 0.1473 0.5641 0.3518 0.3230 Uiso
H8MD H 0.3518 0.5641 0.3527 0.3230 Uiso
H8SA H 0.1482 0.4359 0.1473 0.3230 Uiso
H8SE H 0.1482 0.6473 0.4359 0.3230 Uiso
H8GE H 0.4359 0.6473 0.3518 0.3230 Uiso
H8Q H 0.0641 0.3527 0.1482 0.3230 Uiso
H8EG H 0.0641 0.6482 0.3527 0.3230 Uiso
H8VF H 0.3527 0.6482 0.4359 0.3230 Uiso
H8FB H 0.1473 0.3518 0.0641 0.3230 Uiso
C13YB C 0.2821(2) 0.3309(2) 0.1165(3) 0.1583 Uani
C13OB C 0.3835(3) 0.2821(2) 0.1691(2) 0.1583 Uani
C13PD C 0.1691(2) 0.6165(3) 0.2821(2) 0.1583 Uani
C13MD C 0.2821(2) 0.6165(3) 0.3309(2) 0.1583 Uani
C13SA C 0.2179(2) 0.3835(3) 0.1691(2) 0.1583 Uani
C13SE C 0.2179(2) 0.6691(2) 0.3835(3) 0.1583 Uani
C13GE C 0.3835(3) 0.6691(2) 0.2821(2) 0.1583 Uani
C13Q C 0.1165(3) 0.3309(2) 0.2179(2) 0.1583 Uani
C13EG C 0.1165(3) 0.7179(2) 0.3309(2) 0.1583 Uani
C13VF C 0.3309(2) 0.7179(2) 0.3835(3) 0.1583 Uani
C13FB C 0.1691(2) 0.2821(2) 0.1165(3) 0.1583 Uani
H9YB H 0.2726 0.3475 0.1232 0.1900 Uiso
H9OB H 0.3768 0.2726 0.1525 0.1900 Uiso
H9PD H 0.1525 0.6232 0.2726 0.1900 Uiso
H9MD H 0.2726 0.6232 0.3475 0.1900 Uiso
H9SA H 0.2274 0.3768 0.1525 0.1900 Uiso
H9SE H 0.2274 0.6525 0.3768 0.1900 Uiso
H9GE H 0.3768 0.6525 0.2726 0.1900 Uiso
H9Q H 0.1232 0.3475 0.2274 0.1900 Uiso
H9EG H 0.1232 0.7274 0.3475 0.1900 Uiso
H9VF H 0.3475 0.7274 0.3768 0.1900 Uiso
H9FB H 0.1525 0.2726 0.1232 0.1900 Uiso
H10YB H 0.2713 0.3236 0.1010 0.1900 Uiso
H10OB H 0.3990 0.2713 0.1764 0.1900 Uiso
H10PD H 0.1764 0.6010 0.2713 0.1900 Uiso
H10MD H 0.2713 0.6010 0.3236 0.1900 Uiso
H10SA H 0.2287 0.3990 0.1764 0.1900 Uiso
H10SE H 0.2287 0.6764 0.3990 0.1900 Uiso
H10GE H 0.3990 0.6764 0.2713 0.1900 Uiso
H10Q H 0.1010 0.3236 0.2287 0.1900 Uiso
H10EG H 0.1010 0.7287 0.3236 0.1900 Uiso
H10VF H 0.3236 0.7287 0.3990 0.1900 Uiso
H10FB H 0.1764 0.2713 0.1010 0.1900 Uiso
C14YB C 0.2828(2) 0.3115(4) 0.1374(4) 0.2057 Uani
C14OB C 0.3626(4) 0.2828(2) 0.1885(4) 0.2057 Uani
C14PD C 0.1885(4) 0.6374(4) 0.2828(2) 0.2057 Uani
C14MD C 0.2828(2) 0.6374(4) 0.3115(4) 0.2057 Uani
C14SA C 0.2172(2) 0.3626(4) 0.1885(4) 0.2057 Uani
C14SE C 0.2172(2) 0.6885(4) 0.3626(4) 0.2057 Uani
C14GE C 0.3626(4) 0.6885(4) 0.2828(2) 0.2057 Uani
C14Q C 0.1374(4) 0.3115(4) 0.2172(2) 0.2057 Uani
C14EG C 0.1374(4) 0.7172(2) 0.3115(4) 0.2057 Uani
C14VF C 0.3115(4) 0.7172(2) 0.3626(4) 0.2057 Uani
C14FB C 0.1885(4) 0.2828(2) 0.1374(4) 0.2057 Uani
H11YB H 0.2942 0.2961 0.1318 0.3090 Uiso
H11OB H 0.3682 0.2942 0.2039 0.3090 Uiso
H11PD H 0.2039 0.6318 0.2942 0.3090 Uiso
H11MD H 0.2942 0.6318 0.2961 0.3090 Uiso
H11SA H 0.2058 0.3682 0.2039 0.3090 Uiso
H11SE H 0.2058 0.7039 0.3682 0.3090 Uiso
H11GE H 0.3682 0.7039 0.2942 0.3090 Uiso
H11Q H 0.1318 0.2961 0.2058 0.3090 Uiso
H11EG H 0.1318 0.7058 0.2961 0.3090 Uiso
H11VF H 0.2961 0.7058 0.3682 0.3090 Uiso
H11FB H 0.2039 0.2942 0.1318 0.3090 Uiso
H12YB H 0.2642 0.3050 0.1412 0.3090 Uiso
H12OB H 0.3588 0.2642 0.1950 0.3090 Uiso
H12PD H 0.1950 0.6412 0.2642 0.3090 Uiso
H12MD H 0.2642 0.6412 0.3050 0.3090 Uiso
H12SA H 0.2358 0.3588 0.1950 0.3090 Uiso
H12SE H 0.2358 0.6950 0.3588 0.3090 Uiso
H12GE H 0.3588 0.6950 0.2642 0.3090 Uiso
H12Q H 0.1412 0.3050 0.2358 0.3090 Uiso
H12EG H 0.1412 0.7358 0.3050 0.3090 Uiso
H12VF H 0.3050 0.7358 0.3588 0.3090 Uiso
H12FB H 0.1950 0.2642 0.1412 0.3090 Uiso
H13YB H 0.2904 0.3198 0.1540 0.3090 Uiso
H13OB H 0.3460 0.2904 0.1802 0.3090 Uiso
H13PD H 0.1802 0.6540 0.2904 0.3090 Uiso
H13MD H 0.2904 0.6540 0.3198 0.3090 Uiso
H13SA H 0.2096 0.3460 0.1802 0.3090 Uiso
H13SE H 0.2096 0.6802 0.3460 0.3090 Uiso
H13GE H 0.3460 0.6802 0.2904 0.3090 Uiso
H13Q H 0.1540 0.3198 0.2096 0.3090 Uiso
H13EG H 0.1540 0.7096 0.3198 0.3090 Uiso
H13VF H 0.3198 0.7096 0.3460 0.3090 Uiso
H13FB H 0.1802 0.2904 0.1540 0.3090 Uiso
O5W O 0.3332(6) 0.5000 0.1813(5) 0.1810 Uiso
O5SA O 0.1668(6) 0.5000 0.3187(5) 0.1810 Uiso
O5PD O 0.3187(5) 0.5000 0.3332(6) 0.1810 Uiso
O1 O 0.2797(12) 0.5000 0.1234(15) 0.3900 Uiso
Pb2? Pb 0.21527(18) 0.5000 0.18283(18) 0.0850 Uani
Cd1? Cd 0.22627(15) 0.5000 0.20308(17) 0.0774 Uani
O6? O 0.1845(6) 0.5000 0.1491(8) 0.2120 Uiso
loop_
_atom_site_aniso_label
_atom_site_aniso_U_11
_atom_site_aniso_U_22
_atom_site_aniso_U_33
_atom_site_aniso_U_23
_atom_site_aniso_U_13
_atom_site_aniso_U_12
Pb1 0.089(3) 0.0678(9) 0.117(5) 0.000 0.017(3) 0.000
O2 0.148(5) 0.110(4) 0.237(7) -0.046(4) -0.026(5) 0.025(3)
O3 0.127(4) 0.121(4) 0.186(5) -0.023(3) 0.003(4) 0.033(3)
O4 0.176(9) 0.121(10) 0.176(9) 0.000 0.000 0.000
C1 0.101(5) 0.082(4) 0.183(7) -0.024(5) 0.003(5) -0.005(3)
C2 0.094(4) 0.085(4) 0.175(7) -0.018(4) -0.006(4) 0.000(3)
C3 0.122(5) 0.107(5) 0.161(7) -0.034(5) -0.017(5) 0.003(4)
C4 0.107(4) 0.098(4) 0.148(6) -0.026(4) -0.024(4) 0.016(3)
C5 0.105(4) 0.105(4) 0.124(5) -0.022(4) -0.019(4) 0.021(3)
C6 0.127(5) 0.110(5) 0.136(6) -0.019(4) -0.031(4) 0.030(4)
C7 0.105(4) 0.113(5) 0.146(6) -0.007(4) -0.015(4) 0.018(4)
C8 0.130(6) 0.132(6) 0.151(7) -0.052(5) -0.041(5) 0.034(5)
C9 0.108(4) 0.115(4) 0.113(4) -0.025(4) -0.022(3) 0.020(4)
C10 0.106(4) 0.105(4) 0.115(4) -0.019(4) -0.022(3) 0.020(3)
C11 0.140(7) 0.139(7) 0.198(10) -0.033(7) -0.031(7) 0.018(6)
C12 0.165(10) 0.221(13) 0.259(18) -0.035(13) 0.003(11) -0.035(9)
C13 0.151(8) 0.180(9) 0.144(8) -0.046(7) -0.023(6) 0.026(7)
C14 0.276(18) 0.209(14) 0.132(8) 0.009(8) 0.033(9) 0.055(13)
Pb1W 0.117 0.0678 0.089 0 -0.017 0
Pb1SA 0.117 0.0678 0.089 0 -0.017 0
Pb1PD 0.089 0.0678 0.117 0 0.017 0
Pb1FD 0.0678 0.117 0.089 0.017 0 0
Pb1BA 0.0678 0.089 0.117 -0.017 0 0
Pb1OF 0.117 0.089 0.0678 0 0 -0.017
Pb1XC 0.089 0.117 0.0678 0 0 0.017
Pb1SE 0.117 0.089 0.0678 0 0 -0.017
Pb1DA 0.089 0.117 0.0678 0 0 0.017
Pb1LA 0.0678 0.117 0.089 0.017 0 0
Pb1C 0.0678 0.089 0.117 -0.017 0 0
Pb1GE 0.0678 0.089 0.117 0.017 0 0
Pb1HF 0.0678 0.117 0.089 -0.017 0 0
Pb1AG 0.117 0.089 0.0678 0 0 -0.017
Pb1Q 0.0678 0.089 0.117 0.017 0 0
Pb1DG 0.0678 0.117 0.089 -0.017 0 0
Pb1EF 0.117 0.089 0.0678 0 0 -0.017
O2SA 0.237 0.11 0.148 -0.025 0.026 -0.046
O2OE 0.148 0.11 0.237 0.046 -0.026 -0.025
O2ME 0.237 0.11 0.148 0.025 0.026 0.046
O2W 0.237 0.11 0.148 0.025 0.026 0.046
O2MD 0.237 0.11 0.148 -0.025 0.026 -0.046
O2PD 0.148 0.11 0.237 -0.046 -0.026 0.025
O2UB 0.148 0.11 0.237 0.046 -0.026 -0.025
O2OB 0.11 0.237 0.148 -0.026 -0.025 0.046
O2YB 0.237 0.148 0.11 -0.025 -0.046 0.026
O2SE 0.237 0.148 0.11 -0.025 -0.046 0.026
O2EG 0.11 0.237 0.148 -0.026 -0.025 0.046
O2GE 0.11 0.148 0.237 -0.026 0.046 -0.025
O2VF 0.148 0.237 0.11 -0.046 0.025 -0.026
O2Q 0.11 0.148 0.237 -0.026 0.046 -0.025
O2FB 0.148 0.237 0.11 -0.046 0.025 -0.026
O3OE 0.127 0.121 0.186 0.023 0.003 -0.033
O3W 0.186 0.121 0.127 0.033 -0.003 0.023
O3MD 0.186 0.121 0.127 -0.033 -0.003 -0.023
O3SA 0.186 0.121 0.127 -0.033 -0.003 -0.023
O3ME 0.186 0.121 0.127 0.033 -0.003 0.023
O3PD 0.127 0.121 0.186 -0.023 0.003 0.033
O3UB 0.127 0.121 0.186 0.023 0.003 -0.033
O3OB 0.121 0.186 0.127 0.003 -0.033 0.023
O3YB 0.186 0.127 0.121 -0.033 -0.023 -0.003
O3SE 0.186 0.127 0.121 -0.033 -0.023 -0.003
O3EG 0.121 0.186 0.127 0.003 -0.033 0.023
O3GE 0.121 0.127 0.186 0.003 0.023 -0.033
O3VF 0.127 0.186 0.121 -0.023 0.033 0.003
O3Q 0.121 0.127 0.186 0.003 0.023 -0.033
O3FB 0.127 0.186 0.121 -0.023 0.033 0.003
C1PD 0.101 0.082 0.183 -0.024 0.003 -0.005
C1MD 0.183 0.082 0.101 0.005 -0.003 -0.024
C1SA 0.183 0.082 0.101 0.005 -0.003 -0.024
C1OB 0.082 0.183 0.101 0.003 0.005 0.024
C1YB 0.183 0.101 0.082 0.005 -0.024 -0.003
C1SE 0.183 0.101 0.082 0.005 -0.024 -0.003
C1EG 0.082 0.183 0.101 0.003 0.005 0.024
C1GE 0.082 0.101 0.183 0.003 0.024 0.005
C1VF 0.101 0.183 0.082 -0.024 -0.005 0.003
C1Q 0.082 0.101 0.183 0.003 0.024 0.005
C1FB 0.101 0.183 0.082 -0.024 -0.005 0.003
C2PD 0.094 0.085 0.175 -0.018 -0.006 0
C2MD 0.175 0.085 0.094 0 0.006 -0.018
C2SA 0.175 0.085 0.094 0 0.006 -0.018
C2OB 0.085 0.175 0.094 -0.006 0 0.018
C2YB 0.175 0.094 0.085 0 -0.018 0.006
C2SE 0.175 0.094 0.085 0 -0.018 0.006
C2EG 0.085 0.175 0.094 -0.006 0 0.018
C2GE 0.085 0.094 0.175 -0.006 0.018 0
C2VF 0.094 0.175 0.085 -0.018 0 -0.006
C2Q 0.085 0.094 0.175 -0.006 0.018 0
C2FB 0.094 0.175 0.085 -0.018 0 -0.006
C3PD 0.122 0.107 0.161 -0.034 -0.017 0.003
C3MD 0.161 0.107 0.122 -0.003 0.017 -0.034
C3SA 0.161 0.107 0.122 -0.003 0.017 -0.034
C3OB 0.107 0.161 0.122 -0.017 -0.003 0.034
C3YB 0.161 0.122 0.107 -0.003 -0.034 0.017
C3SE 0.161 0.122 0.107 -0.003 -0.034 0.017
C3EG 0.107 0.161 0.122 -0.017 -0.003 0.034
C3GE 0.107 0.122 0.161 -0.017 0.034 -0.003
C3VF 0.122 0.161 0.107 -0.034 0.003 -0.017
C3Q 0.107 0.122 0.161 -0.017 0.034 -0.003
C3FB 0.122 0.161 0.107 -0.034 0.003 -0.017
C4OB 0.098 0.148 0.107 -0.024 -0.016 0.026
C4YB 0.148 0.107 0.098 -0.016 -0.026 0.024
C4PD 0.107 0.098 0.148 -0.026 -0.024 0.016
C4MD 0.148 0.098 0.107 -0.016 0.024 -0.026
C4SA 0.148 0.098 0.107 -0.016 0.024 -0.026
C4SE 0.148 0.107 0.098 -0.016 -0.026 0.024
C4EG 0.098 0.148 0.107 -0.024 -0.016 0.026
C4GE 0.098 0.107 0.148 -0.024 0.026 -0.016
C4VF 0.107 0.148 0.098 -0.026 0.016 -0.024
C4Q 0.098 0.107 0.148 -0.024 0.026 -0.016
C4FB 0.107 0.148 0.098 -0.026 0.016 -0.024
C5OB 0.105 0.124 0.105 -0.019 -0.021 0.022
C5YB 0.124 0.105 0.105 -0.021 -0.022 0.019
C5PD 0.105 0.105 0.124 -0.022 -0.019 0.021
C5MD 0.124 0.105 0.105 -0.021 0.019 -0.022
C5SA 0.124 0.105 0.105 -0.021 0.019 -0.022
C5EG 0.105 0.124 0.105 -0.019 -0.021 0.022
C5VF 0.105 0.124 0.105 -0.022 0.021 -0.019
C5FB 0.105 0.124 0.105 -0.022 0.021 -0.019
C5SE 0.124 0.105 0.105 -0.021 -0.022 0.019
C5GE 0.105 0.105 0.124 -0.019 0.022 -0.021
C5Q 0.105 0.105 0.124 -0.019 0.022 -0.021
C6OB 0.11 0.136 0.127 -0.031 -0.03 0.019
C6YB 0.136 0.127 0.11 -0.03 -0.019 0.031
C6PD 0.127 0.11 0.136 -0.019 -0.031 0.03
C6MD 0.136 0.11 0.127 -0.03 0.031 -0.019
C6SA 0.136 0.11 0.127 -0.03 0.031 -0.019
C6EG 0.11 0.136 0.127 -0.031 -0.03 0.019
C6VF 0.127 0.136 0.11 -0.019 0.03 -0.031
C6FB 0.127 0.136 0.11 -0.019 0.03 -0.031
C6SE 0.136 0.127 0.11 -0.03 -0.019 0.031
C6GE 0.11 0.127 0.136 -0.031 0.019 -0.03
C6Q 0.11 0.127 0.136 -0.031 0.019 -0.03
C7PD 0.105 0.113 0.146 -0.007 -0.015 0.018
C7MD 0.146 0.113 0.105 -0.018 0.015 -0.007
C7SA 0.146 0.113 0.105 -0.018 0.015 -0.007
C7OB 0.113 0.146 0.105 -0.015 -0.018 0.007
C7YB 0.146 0.105 0.113 -0.018 -0.007 0.015
C7EG 0.113 0.146 0.105 -0.015 -0.018 0.007
C7VF 0.105 0.146 0.113 -0.007 0.018 -0.015
C7FB 0.105 0.146 0.113 -0.007 0.018 -0.015
C7SE 0.146 0.105 0.113 -0.018 -0.007 0.015
C7GE 0.113 0.105 0.146 -0.015 0.007 -0.018
C7Q 0.113 0.105 0.146 -0.015 0.007 -0.018
C8YB 0.151 0.13 0.132 -0.034 -0.052 0.041
C8OB 0.132 0.151 0.13 -0.041 -0.034 0.052
C8PD 0.13 0.132 0.151 -0.052 -0.041 0.034
C8MD 0.151 0.132 0.13 -0.034 0.041 -0.052
C8SA 0.151 0.132 0.13 -0.034 0.041 -0.052
C8SE 0.151 0.13 0.132 -0.034 -0.052 0.041
C8GE 0.132 0.13 0.151 -0.041 0.052 -0.034
C8Q 0.132 0.13 0.151 -0.041 0.052 -0.034
C8EG 0.132 0.151 0.13 -0.041 -0.034 0.052
C8VF 0.13 0.151 0.132 -0.052 0.034 -0.041
C8FB 0.13 0.151 0.132 -0.052 0.034 -0.041
C9YB 0.113 0.108 0.115 -0.02 -0.025 0.022
C9OB 0.115 0.113 0.108 -0.022 -0.02 0.025
C9PD 0.108 0.115 0.113 -0.025 -0.022 0.02
C9MD 0.113 0.115 0.108 -0.02 0.022 -0.025
C9SA 0.113 0.115 0.108 -0.02 0.022 -0.025
C9SE 0.113 0.108 0.115 -0.02 -0.025 0.022
C9GE 0.115 0.108 0.113 -0.022 0.025 -0.02
C9Q 0.115 0.108 0.113 -0.022 0.025 -0.02
C9EG 0.115 0.113 0.108 -0.022 -0.02 0.025
C9VF 0.108 0.113 0.115 -0.025 0.02 -0.022
C9FB 0.108 0.113 0.115 -0.025 0.02 -0.022
C10OB 0.105 0.115 0.106 -0.022 -0.02 0.019
C10YB 0.115 0.106 0.105 -0.02 -0.019 0.022
C10PD 0.106 0.105 0.115 -0.019 -0.022 0.02
C10MD 0.115 0.105 0.106 -0.02 0.022 -0.019
C10SA 0.115 0.105 0.106 -0.02 0.022 -0.019
C10EG 0.105 0.115 0.106 -0.022 -0.02 0.019
C10VF 0.106 0.115 0.105 -0.019 0.02 -0.022
C10FB 0.106 0.115 0.105 -0.019 0.02 -0.022
C10SE 0.115 0.106 0.105 -0.02 -0.019 0.022
C10GE 0.105 0.106 0.115 -0.022 0.019 -0.02
C10Q 0.105 0.106 0.115 -0.022 0.019 -0.02
C11YB 0.198 0.14 0.139 -0.018 -0.033 0.031
C11OB 0.139 0.198 0.14 -0.031 -0.018 0.033
C11PD 0.14 0.139 0.198 -0.033 -0.031 0.018
C11MD 0.198 0.139 0.14 -0.018 0.031 -0.033
C11SA 0.198 0.139 0.14 -0.018 0.031 -0.033
C11SE 0.198 0.14 0.139 -0.018 -0.033 0.031
C11GE 0.139 0.14 0.198 -0.031 0.033 -0.018
C11Q 0.139 0.14 0.198 -0.031 0.033 -0.018
C11EG 0.139 0.198 0.14 -0.031 -0.018 0.033
C11VF 0.14 0.198 0.139 -0.033 0.018 -0.031
C11FB 0.14 0.198 0.139 -0.033 0.018 -0.031
C12YB 0.259 0.165 0.221 0.035 -0.035 -0.003
C12OB 0.221 0.259 0.165 0.003 0.035 0.035
C12PD 0.165 0.221 0.259 -0.035 0.003 -0.035
C12MD 0.259 0.221 0.165 0.035 -0.003 -0.035
C12SA 0.259 0.221 0.165 0.035 -0.003 -0.035
C12SE 0.259 0.165 0.221 0.035 -0.035 -0.003
C12GE 0.221 0.165 0.259 0.003 0.035 0.035
C12Q 0.221 0.165 0.259 0.003 0.035 0.035
C12EG 0.221 0.259 0.165 0.003 0.035 0.035
C12VF 0.165 0.259 0.221 -0.035 -0.035 0.003
C12FB 0.165 0.259 0.221 -0.035 -0.035 0.003
C13YB 0.144 0.151 0.18 -0.026 -0.046 0.023
C13OB 0.18 0.144 0.151 -0.023 -0.026 0.046
C13PD 0.151 0.18 0.144 -0.046 -0.023 0.026
C13MD 0.144 0.18 0.151 -0.026 0.023 -0.046
C13SA 0.144 0.18 0.151 -0.026 0.023 -0.046
C13SE 0.144 0.151 0.18 -0.026 -0.046 0.023
C13GE 0.18 0.151 0.144 -0.023 0.046 -0.026
C13Q 0.18 0.151 0.144 -0.023 0.046 -0.026
C13EG 0.18 0.144 0.151 -0.023 -0.026 0.046
C13VF 0.151 0.144 0.18 -0.046 0.026 -0.023
C13FB 0.151 0.144 0.18 -0.046 0.026 -0.023
C14YB 0.132 0.276 0.209 -0.055 0.009 -0.033
C14OB 0.209 0.132 0.276 0.033 -0.055 -0.009
C14PD 0.276 0.209 0.132 0.009 0.033 0.055
C14MD 0.132 0.209 0.276 -0.055 -0.033 0.009
C14SA 0.132 0.209 0.276 -0.055 -0.033 0.009
C14SE 0.132 0.276 0.209 -0.055 0.009 -0.033
C14GE 0.209 0.276 0.132 0.033 -0.009 -0.055
C14Q 0.209 0.276 0.132 0.033 -0.009 -0.055
C14EG 0.209 0.132 0.276 0.033 -0.055 -0.009
C14VF 0.276 0.132 0.209 0.009 0.055 0.033
C14FB 0.276 0.132 0.209 0.009 0.055 0.033
Pb2? 0.076(2) 0.105(3) 0.074(4) 0.000 -0.0205(19) 0.000
Cd1? 0.0636(16) 0.0936(18) 0.075(3) 0.000 0.0043(18) 0.000
loop_
_geom_bond_atom_site_label_1
_geom_bond_atom_site_label_2
_geom_bond_site_symmetry_1
_geom_bond_site_symmetry_2
Pb1 O2 1_555 1_555
O2 C1 1_555 1_555
O3 Pb1 1_555 1_555
O4 Pb1 1_555 1_555
C1 O3 1_555 1_555
C2 C1 1_555 1_555
C3 C2 1_555 1_555
H1 C3 1_555 1_555
C4 C3 1_555 1_555
C5 C4 1_555 1_555
C6 C5 1_555 1_555
H2 C6 1_555 1_555
C7 C2 1_555 1_555
H3 C7 1_555 1_555
C8 C4 1_555 1_555
C9 C8 1_555 1_555
C10 C5 1_555 1_555
C11 C8 1_555 1_555
H4 C11 1_555 1_555
H5 C11 1_555 1_555
C12 C11 1_555 1_555
H6 C12 1_555 1_555
H7 C12 1_555 1_555
H8 C12 1_555 1_555
C13 C8 1_555 1_555
H9 C13 1_555 1_555
H10 C13 1_555 1_555
C14 C13 1_555 1_555
H11 C14 1_555 1_555
H12 C14 1_555 1_555
H13 C14 1_555 1_555
O5 Pb1 1_555 1_555
Pb1W O2 1_555 1_555
Pb1SA O4 1_555 1_555
Pb1PD O4 1_555 1_555
Pb1FD O2OB 1_555 1_555
Pb1BA O2OB 1_555 1_555
Pb1OF O2YB 1_555 1_555
Pb1XC O2YB 1_555 1_555
Pb1SE O2SE 1_555 1_555
Pb1DA O2SE 1_555 1_555
Pb1LA O2EG 1_555 1_555
Pb1C O2EG 1_555 1_555
Pb1GE O2GE 1_555 1_555
Pb1HF O2GE 1_555 1_555
Pb1AG O2VF 1_555 1_555
Pb1Q O2Q 1_555 1_555
Pb1DG O2Q 1_555 1_555
Pb1EF O2FB 1_555 1_555
O2SA Pb1 1_555 1_555
O2OE Pb1 1_555 1_555
O2ME Pb1 1_555 1_555
O2W Pb1W 1_555 1_555
O2MD Pb1W 1_555 1_555
O2PD Pb1SA 1_555 1_555
O2UB Pb1SA 1_555 1_555
O2OB C1OB 1_555 1_555
O2YB C1YB 1_555 1_555
O2SE C1SE 1_555 1_555
O2EG C1EG 1_555 1_555
O2GE C1GE 1_555 1_555
O2VF Pb1DA 1_555 1_555
O2Q C1Q 1_555 1_555
O2FB Pb1XC 1_555 1_555
O3OE Pb1 1_555 1_555
O3W Pb1W 1_555 1_555
O3MD Pb1W 1_555 1_555
O3SA Pb1SA 1_555 1_555
O3ME Pb1SA 1_555 1_555
O3PD Pb1PD 1_555 1_555
O3UB Pb1PD 1_555 1_555
O3OB Pb1FD 1_555 1_555
O3YB Pb1OF 1_555 1_555
O3SE Pb1SE 1_555 1_555
O3EG Pb1LA 1_555 1_555
O3GE Pb1GE 1_555 1_555
O3VF Pb1DA 1_555 1_555
O3Q Pb1Q 1_555 1_555
O3FB Pb1XC 1_555 1_555
C1PD O2PD 1_555 1_555
C1MD O2MD 1_555 1_555
C1SA O2SA 1_555 1_555
C1OB O3OB 1_555 1_555
C1YB O3YB 1_555 1_555
C1SE O3SE 1_555 1_555
C1EG O3EG 1_555 1_555
C1GE O3GE 1_555 1_555
C1VF O2VF 1_555 1_555
C1Q O3Q 1_555 1_555
C1FB O2FB 1_555 1_555
C2PD C1PD 1_555 1_555
C2MD C1MD 1_555 1_555
C2SA C1SA 1_555 1_555
C2OB C1OB 1_555 1_555
C2YB C1YB 1_555 1_555
C2SE C1SE 1_555 1_555
C2EG C1EG 1_555 1_555
C2GE C1GE 1_555 1_555
C2VF C1VF 1_555 1_555
C2Q C1Q 1_555 1_555
C2FB C1FB 1_555 1_555
C3PD C2PD 1_555 1_555
C3MD C2MD 1_555 1_555
C3SA C2SA 1_555 1_555
C3OB C2OB 1_555 1_555
C3YB C2YB 1_555 1_555
C3SE C2SE 1_555 1_555
C3EG C2EG 1_555 1_555
C3GE C2GE 1_555 1_555
C3VF C2VF 1_555 1_555
C3Q C2Q 1_555 1_555
C3FB C2FB 1_555 1_555
H1PD C3PD 1_555 1_555
H1MD C3MD 1_555 1_555
H1SA C3SA 1_555 1_555
H1OB C3OB 1_555 1_555
H1YB C3YB 1_555 1_555
H1SE C3SE 1_555 1_555
H1EG C3EG 1_555 1_555
H1GE C3GE 1_555 1_555
H1VF C3VF 1_555 1_555
H1Q C3Q 1_555 1_555
H1FB C3FB 1_555 1_555
C4OB C3OB 1_555 1_555
C4YB C3YB 1_555 1_555
C4PD C3PD 1_555 1_555
C4MD C3MD 1_555 1_555
C4SA C3SA 1_555 1_555
C4SE C3SE 1_555 1_555
C4EG C3EG 1_555 1_555
C4GE C3GE 1_555 1_555
C4VF C3VF 1_555 1_555
C4Q C3Q 1_555 1_555
C4FB C3FB 1_555 1_555
C5OB C4OB 1_555 1_555
C5YB C4YB 1_555 1_555
C5PD C4PD 1_555 1_555
C5MD C4MD 1_555 1_555
C5SA C4SA 1_555 1_555
C5EG C4EG 1_555 1_555
C5VF C4VF 1_555 1_555
C5FB C4FB 1_555 1_555
C5SE C4SE 1_555 1_555
C5GE C4GE 1_555 1_555
C5Q C4Q 1_555 1_555
C6OB C5OB 1_555 1_555
C6YB C5YB 1_555 1_555
C6PD C5PD 1_555 1_555
C6MD C5MD 1_555 1_555
C6SA C5SA 1_555 1_555
C6EG C5EG 1_555 1_555
C6VF C5VF 1_555 1_555
C6FB C5FB 1_555 1_555
C6SE C5SE 1_555 1_555
C6GE C5GE 1_555 1_555
C6Q C5Q 1_555 1_555
H2OB C6OB 1_555 1_555
H2YB C6YB 1_555 1_555
H2PD C6PD 1_555 1_555
H2MD C6MD 1_555 1_555
H2SA C6SA 1_555 1_555
H2EG C6EG 1_555 1_555
H2VF C6VF 1_555 1_555
H2FB C6FB 1_555 1_555
H2SE C6SE 1_555 1_555
H2GE C6GE 1_555 1_555
H2Q C6Q 1_555 1_555
C7PD C2PD 1_555 1_555
C7MD C2MD 1_555 1_555
C7SA C2SA 1_555 1_555
C7OB C2OB 1_555 1_555
C7YB C2YB 1_555 1_555
C7EG C2EG 1_555 1_555
C7VF C2VF 1_555 1_555
C7FB C2FB 1_555 1_555
C7SE C2SE 1_555 1_555
C7GE C2GE 1_555 1_555
C7Q C2Q 1_555 1_555
H3PD C7PD 1_555 1_555
H3MD C7MD 1_555 1_555
H3SA C7SA 1_555 1_555
H3OB C7OB 1_555 1_555
H3YB C7YB 1_555 1_555
H3EG C7EG 1_555 1_555
H3VF C7VF 1_555 1_555
H3FB C7FB 1_555 1_555
H3SE C7SE 1_555 1_555
H3GE C7GE 1_555 1_555
H3Q C7Q 1_555 1_555
C8YB C4YB 1_555 1_555
C8OB C4OB 1_555 1_555
C8PD C4PD 1_555 1_555
C8MD C4MD 1_555 1_555
C8SA C4SA 1_555 1_555
C8SE C4SE 1_555 1_555
C8GE C4GE 1_555 1_555
C8Q C4Q 1_555 1_555
C8EG C4EG 1_555 1_555
C8VF C4VF 1_555 1_555
C8FB C4FB 1_555 1_555
C9YB C10 1_555 1_555
C9OB C8OB 1_555 1_555
C9PD C8PD 1_555 1_555
C9MD C8MD 1_555 1_555
C9SA C8SA 1_555 1_555
C9SE C8SE 1_555 1_555
C9GE C8GE 1_555 1_555
C9Q C8Q 1_555 1_555
C9EG C8EG 1_555 1_555
C9VF C8VF 1_555 1_555
C9FB C8FB 1_555 1_555
C10OB C9 1_555 1_555
C10YB C5YB 1_555 1_555
C10PD C5PD 1_555 1_555
C10MD C5MD 1_555 1_555
C10SA C5SA 1_555 1_555
C10EG C5EG 1_555 1_555
C10VF C5VF 1_555 1_555
C10FB C5FB 1_555 1_555
C10SE C5SE 1_555 1_555
C10GE C5GE 1_555 1_555
C10Q C5Q 1_555 1_555
C11YB C8YB 1_555 1_555
C11OB C8OB 1_555 1_555
C11PD C8PD 1_555 1_555
C11MD C8MD 1_555 1_555
C11SA C8SA 1_555 1_555
C11SE C8SE 1_555 1_555
C11GE C8GE 1_555 1_555
C11Q C8Q 1_555 1_555
C11EG C8EG 1_555 1_555
C11VF C8VF 1_555 1_555
C11FB C8FB 1_555 1_555
H4YB C11YB 1_555 1_555
H4OB C11OB 1_555 1_555
H4PD C11PD 1_555 1_555
H4MD C11MD 1_555 1_555
H4SA C11SA 1_555 1_555
H4SE C11SE 1_555 1_555
H4GE C11GE 1_555 1_555
H4Q C11Q 1_555 1_555
H4EG C11EG 1_555 1_555
H4VF C11VF 1_555 1_555
H4FB C11FB 1_555 1_555
H5YB C11YB 1_555 1_555
H5OB C11OB 1_555 1_555
H5PD C11PD 1_555 1_555
H5MD C11MD 1_555 1_555
H5SA C11SA 1_555 1_555
H5SE C11SE 1_555 1_555
H5GE C11GE 1_555 1_555
H5Q C11Q 1_555 1_555
H5EG C11EG 1_555 1_555
H5VF C11VF 1_555 1_555
H5FB C11FB 1_555 1_555
C12YB C11YB 1_555 1_555
C12OB C11OB 1_555 1_555
C12PD C11PD 1_555 1_555
C12MD C11MD 1_555 1_555
C12SA C11SA 1_555 1_555
C12SE C11SE 1_555 1_555
C12GE C11GE 1_555 1_555
C12Q C11Q 1_555 1_555
C12EG C11EG 1_555 1_555
C12VF C11VF 1_555 1_555
C12FB C11FB 1_555 1_555
H6YB C12YB 1_555 1_555
H6OB C12OB 1_555 1_555
H6PD C12PD 1_555 1_555
H6MD C12MD 1_555 1_555
H6SA C12SA 1_555 1_555
H6SE C12SE 1_555 1_555
H6GE C12GE 1_555 1_555
H6Q C12Q 1_555 1_555
H6EG C12EG 1_555 1_555
H6VF C12VF 1_555 1_555
H6FB C12FB 1_555 1_555
H7YB C12YB 1_555 1_555
H7OB C12OB 1_555 1_555
H7PD C12PD 1_555 1_555
H7MD C12MD 1_555 1_555
H7SA C12SA 1_555 1_555
H7SE C12SE 1_555 1_555
H7GE C12GE 1_555 1_555
H7Q C12Q 1_555 1_555
H7EG C12EG 1_555 1_555
H7VF C12VF 1_555 1_555
H7FB C12FB 1_555 1_555
H8YB C12YB 1_555 1_555
H8OB C12OB 1_555 1_555
H8PD C12PD 1_555 1_555
H8MD C12MD 1_555 1_555
H8SA C12SA 1_555 1_555
H8SE C12SE 1_555 1_555
H8GE C12GE 1_555 1_555
H8Q C12Q 1_555 1_555
H8EG C12EG 1_555 1_555
H8VF C12VF 1_555 1_555
H8FB C12FB 1_555 1_555
C13YB C8YB 1_555 1_555
C13OB C8OB 1_555 1_555
C13PD C8PD 1_555 1_555
C13MD C8MD 1_555 1_555
C13SA C8SA 1_555 1_555
C13SE C8SE 1_555 1_555
C13GE C8GE 1_555 1_555
C13Q C8Q 1_555 1_555
C13EG C8EG 1_555 1_555
C13VF C8VF 1_555 1_555
C13FB C8FB 1_555 1_555
H9YB C13YB 1_555 1_555
H9OB C13OB 1_555 1_555
H9PD C13PD 1_555 1_555
H9MD C13MD 1_555 1_555
H9SA C13SA 1_555 1_555
H9SE C13SE 1_555 1_555
H9GE C13GE 1_555 1_555
H9Q C13Q 1_555 1_555
H9EG C13EG 1_555 1_555
H9VF C13VF 1_555 1_555
H9FB C13FB 1_555 1_555
H10YB C13YB 1_555 1_555
H10OB C13OB 1_555 1_555
H10PD C13PD 1_555 1_555
H10MD C13MD 1_555 1_555
H10SA C13SA 1_555 1_555
H10SE C13SE 1_555 1_555
H10GE C13GE 1_555 1_555
H10Q C13Q 1_555 1_555
H10EG C13EG 1_555 1_555
H10VF C13VF 1_555 1_555
H10FB C13FB 1_555 1_555
C14YB C13YB 1_555 1_555
C14OB C13OB 1_555 1_555
C14PD C13PD 1_555 1_555
C14MD C13MD 1_555 1_555
C14SA C13SA 1_555 1_555
C14SE C13SE 1_555 1_555
C14GE C13GE 1_555 1_555
C14Q C13Q 1_555 1_555
C14EG C13EG 1_555 1_555
C14VF C13VF 1_555 1_555
C14FB C13FB 1_555 1_555
H11YB C14YB 1_555 1_555
H11OB C14OB 1_555 1_555
H11PD C14PD 1_555 1_555
H11MD C14MD 1_555 1_555
H11SA C14SA 1_555 1_555
H11SE C14SE 1_555 1_555
H11GE C14GE 1_555 1_555
H11Q C14Q 1_555 1_555
H11EG C14EG 1_555 1_555
H11VF C14VF 1_555 1_555
H11FB C14FB 1_555 1_555
H12YB C14YB 1_555 1_555
H12OB C14OB 1_555 1_555
H12PD C14PD 1_555 1_555
H12MD C14MD 1_555 1_555
H12SA C14SA 1_555 1_555
H12SE C14SE 1_555 1_555
H12GE C14GE 1_555 1_555
H12Q C14Q 1_555 1_555
H12EG C14EG 1_555 1_555
H12VF C14VF 1_555 1_555
H12FB C14FB 1_555 1_555
H13YB C14YB 1_555 1_555
H13OB C14OB 1_555 1_555
H13PD C14PD 1_555 1_555
H13MD C14MD 1_555 1_555
H13SA C14SA 1_555 1_555
H13SE C14SE 1_555 1_555
H13GE C14GE 1_555 1_555
H13Q C14Q 1_555 1_555
H13EG C14EG 1_555 1_555
H13VF C14VF 1_555 1_555
H13FB C14FB 1_555 1_555
O5W Pb1W 1_555 1_555
O5SA Pb1SA 1_555 1_555
O5PD Pb1PD 1_555 1_555
O4 Pb1W 1_555 1_555
C6 C7 1_555 1_555
C9 C10 1_555 1_555
Pb1W O2OE 1_555 1_555
Pb1SA O2SA 1_555 1_555
Pb1SA O2ME 1_555 1_555
Pb1PD O2W 1_555 1_555
Pb1PD O2MD 1_555 1_555
Pb1PD O2PD 1_555 1_555
Pb1PD O2UB 1_555 1_555
O3MD C1MD 1_555 1_555
O3SA C1SA 1_555 1_555
O3PD C1PD 1_555 1_555
O3VF C1VF 1_555 1_555
O3FB C1FB 1_555 1_555
C5OB C10OB 1_555 1_555
C6OB C7OB 1_555 1_555
C6YB C7YB 1_555 1_555
C6PD C7PD 1_555 1_555
C6MD C7MD 1_555 1_555
C6SA C7SA 1_555 1_555
C6EG C7EG 1_555 1_555
C6VF C7VF 1_555 1_555
C6FB C7FB 1_555 1_555
C6SE C7SE 1_555 1_555
C6GE C7GE 1_555 1_555
C6Q C7Q 1_555 1_555
C8YB C9YB 1_555 1_555
C9YB C10YB 1_555 1_555
C9OB C10OB 1_555 1_555
C9OB C10YB 1_555 1_555
C9PD C10PD 1_555 1_555
C9PD C10EG 1_555 1_555
C9MD C10MD 1_555 1_555
C9MD C10VF 1_555 1_555
C9SA C10SA 1_555 1_555
C9SA C10FB 1_555 1_555
C9SE C10PD 1_555 1_555
C9SE C10SE 1_555 1_555
C9GE C10MD 1_555 1_555
C9GE C10GE 1_555 1_555
C9Q C10SA 1_555 1_555
C9Q C10Q 1_555 1_555
C9EG C10EG 1_555 1_555
C9EG C10SE 1_555 1_555
C9VF C10VF 1_555 1_555
C9VF C10GE 1_555 1_555
C9FB C10FB 1_555 1_555
C9FB C10Q 1_555 1_555

#END
