
#######################################################################
#
#                 Cambridge Crystallographic Data Centre
#                                CCDC 
#
#######################################################################
#
# If this CIF has been generated from an entry in the Cambridge 
# Structural Database, then it will include bibliographic, chemical, 
# crystal, experimental, refinement or atomic coordinate data resulting 
# from the CCDC's data processing and validation procedures.
#
#######################################################################

data_BUFPAU01
_chemical_name_common            
'catena-(Sesqui-lead(ii) tris(oxonium) octakis(mu!6$-5,5,10,10,15,15-hexaethyltruxene-2,7,12-tricarboxylato)-tris(mu!4$-oxo)-dodecaaqua-dodeca-lead(ii) hexahydrate)'
_chemical_formula_moiety         
'(Pb1 2+)1.5n,3n(H3 O1 1+),n(C336 H336 O63 Pb12 6-),6n(H2 O1)'
_chemical_name_systematic        
"catena-(Sesqui-lead(ii) tris(oxonium) octakis(\m~6~-5,5,10,10,15,15-hexaethyl-10,15-dihydro-5H-diindeno[1,2-a:1',2'-c]fluorene-2,7,12-tricarboxylato)-tris(\m~4~-oxo)-dodecaaqua-dodeca-lead(ii) hexahydrate)"
_symmetry_cell_setting           cubic
_symmetry_space_group_name_H-M   'F m -3 c'
_symmetry_Int_Tables_number      226
_space_group_name_Hall           '-F 4a 2 3'
loop_
_symmetry_equiv_pos_site_id
_symmetry_equiv_pos_as_xyz
1 x,y,z
2 z,x,y
3 y,z,x
4 1/2+y,1/2+x,1/2-z
5 1/2+y,1/2-x,1/2+z
6 1/2-y,1/2+x,1/2+z
7 1/2+x,1/2+z,1/2-y
8 1/2-x,1/2+z,1/2+y
9 1/2+x,1/2-z,1/2+y
10 1/2+z,1/2+y,1/2-x
11 1/2+z,1/2-y,1/2+x
12 1/2-z,1/2+y,1/2+x
13 x,1/2+y,1/2+z
14 z,1/2+x,1/2+y
15 y,1/2+z,1/2+x
16 1/2+y,x,-z
17 1/2+y,-x,z
18 1/2-y,x,z
19 1/2+x,z,-y
20 1/2-x,z,y
21 1/2+x,-z,y
22 1/2+z,y,-x
23 1/2+z,-y,x
24 1/2-z,y,x
25 1/2+x,y,1/2+z
26 1/2+z,x,1/2+y
27 1/2+y,z,1/2+x
28 y,1/2+x,-z
29 y,1/2-x,z
30 -y,1/2+x,z
31 x,1/2+z,-y
32 -x,1/2+z,y
33 x,1/2-z,y
34 z,1/2+y,-x
35 z,1/2-y,x
36 -z,1/2+y,x
37 1/2+x,1/2+y,z
38 1/2+z,1/2+x,y
39 1/2+y,1/2+z,x
40 y,x,1/2-z
41 y,-x,1/2+z
42 -y,x,1/2+z
43 x,z,1/2-y
44 -x,z,1/2+y
45 x,-z,1/2+y
46 z,y,1/2-x
47 z,-y,1/2+x
48 -z,y,1/2+x
49 -x,-y,z
50 -x,y,-z
51 x,-y,-z
52 z,-x,-y
53 -z,-x,y
54 -z,x,-y
55 -y,z,-x
56 y,-z,-x
57 -y,-z,x
58 1/2-y,1/2-x,1/2-z
59 1/2-x,1/2-z,1/2-y
60 1/2-z,1/2-y,1/2-x
61 -x,1/2-y,1/2+z
62 -x,1/2+y,1/2-z
63 x,1/2-y,1/2-z
64 z,1/2-x,1/2-y
65 -z,1/2-x,1/2+y
66 -z,1/2+x,1/2-y
67 -y,1/2+z,1/2-x
68 y,1/2-z,1/2-x
69 -y,1/2-z,1/2+x
70 1/2-y,-x,-z
71 1/2-x,-z,-y
72 1/2-z,-y,-x
73 1/2-x,-y,1/2+z
74 1/2-x,y,1/2-z
75 1/2+x,-y,1/2-z
76 1/2+z,-x,1/2-y
77 1/2-z,-x,1/2+y
78 1/2-z,x,1/2-y
79 1/2-y,z,1/2-x
80 1/2+y,-z,1/2-x
81 1/2-y,-z,1/2+x
82 -y,1/2-x,-z
83 -x,1/2-z,-y
84 -z,1/2-y,-x
85 1/2-x,1/2-y,z
86 1/2-x,1/2+y,-z
87 1/2+x,1/2-y,-z
88 1/2+z,1/2-x,-y
89 1/2-z,1/2-x,y
90 1/2-z,1/2+x,-y
91 1/2-y,1/2+z,-x
92 1/2+y,1/2-z,-x
93 1/2-y,1/2-z,x
94 -y,-x,1/2-z
95 -x,-z,1/2-y
96 -z,-y,1/2-x
97 -x,-y,-z
98 -z,-x,-y
99 -y,-z,-x
100 1/2-y,1/2-x,1/2+z
101 1/2-y,1/2+x,1/2-z
102 1/2+y,1/2-x,1/2-z
103 1/2-x,1/2-z,1/2+y
104 1/2+x,1/2-z,1/2-y
105 1/2-x,1/2+z,1/2-y
106 1/2-z,1/2-y,1/2+x
107 1/2-z,1/2+y,1/2-x
108 1/2+z,1/2-y,1/2-x
109 -x,1/2-y,1/2-z
110 -z,1/2-x,1/2-y
111 -y,1/2-z,1/2-x
112 1/2-y,-x,z
113 1/2-y,x,-z
114 1/2+y,-x,-z
115 1/2-x,-z,y
116 1/2+x,-z,-y
117 1/2-x,z,-y
118 1/2-z,-y,x
119 1/2-z,y,-x
120 1/2+z,-y,-x
121 1/2-x,-y,1/2-z
122 1/2-z,-x,1/2-y
123 1/2-y,-z,1/2-x
124 -y,1/2-x,z
125 -y,1/2+x,-z
126 y,1/2-x,-z
127 -x,1/2-z,y
128 x,1/2-z,-y
129 -x,1/2+z,-y
130 -z,1/2-y,x
131 -z,1/2+y,-x
132 z,1/2-y,-x
133 1/2-x,1/2-y,-z
134 1/2-z,1/2-x,-y
135 1/2-y,1/2-z,-x
136 -y,-x,1/2+z
137 -y,x,1/2-z
138 y,-x,1/2-z
139 -x,-z,1/2+y
140 x,-z,1/2-y
141 -x,z,1/2-y
142 -z,-y,1/2+x
143 -z,y,1/2-x
144 z,-y,1/2-x
145 x,y,-z
146 x,-y,z
147 -x,y,z
148 -z,x,y
149 z,x,-y
150 z,-x,y
151 y,-z,x
152 -y,z,x
153 y,z,-x
154 1/2+y,1/2+x,1/2+z
155 1/2+x,1/2+z,1/2+y
156 1/2+z,1/2+y,1/2+x
157 x,1/2+y,1/2-z
158 x,1/2-y,1/2+z
159 -x,1/2+y,1/2+z
160 -z,1/2+x,1/2+y
161 z,1/2+x,1/2-y
162 z,1/2-x,1/2+y
163 y,1/2-z,1/2+x
164 -y,1/2+z,1/2+x
165 y,1/2+z,1/2-x
166 1/2+y,x,z
167 1/2+x,z,y
168 1/2+z,y,x
169 1/2+x,y,1/2-z
170 1/2+x,-y,1/2+z
171 1/2-x,y,1/2+z
172 1/2-z,x,1/2+y
173 1/2+z,x,1/2-y
174 1/2+z,-x,1/2+y
175 1/2+y,-z,1/2+x
176 1/2-y,z,1/2+x
177 1/2+y,z,1/2-x
178 y,1/2+x,z
179 x,1/2+z,y
180 z,1/2+y,x
181 1/2+x,1/2+y,-z
182 1/2+x,1/2-y,z
183 1/2-x,1/2+y,z
184 1/2-z,1/2+x,y
185 1/2+z,1/2+x,-y
186 1/2+z,1/2-x,y
187 1/2+y,1/2-z,x
188 1/2-y,1/2+z,x
189 1/2+y,1/2+z,-x
190 y,x,1/2+z
191 x,z,1/2+y
192 z,y,1/2+x
_cell_length_a                   48.829(6)
_cell_length_b                   48.829(6)
_cell_length_c                   48.829(6)
_cell_angle_alpha                90
_cell_angle_beta                 90
_cell_angle_gamma                90
_cell_volume                     116422
_exptl_crystal_colour            colorless
_exptl_crystal_description       block
_cell_formula_units_Z            8
_exptl_crystal_preparation       
'crystal soaked in Pb(NO3)2 solution for 2 hours'
loop_
_atom_site_label
_atom_site_type_symbol
_atom_site_fract_x
_atom_site_fract_y
_atom_site_fract_z
_atom_site_U_iso_or_equiv
_atom_site_thermal_displace_type
O2 O 0.1426(15) 1.0000 0.2281(14) 0.3900 Uiso
Pb1 Pb 0.22135(3) 1.0000 0.19522(3) 0.0964 Uani
O3 O 0.23892(12) 0.96647(11) 0.16158(14) 0.1300 Uani
O4 O 0.26151(13) 0.96856(12) 0.19868(18) 0.1520 Uani
O5 O 0.2500 1.0000 0.2500 0.1343 Uani
C1 C 0.25800(16) 0.95823(13) 0.17589(19) 0.1077 Uani
C2 C 0.27562(12) 0.93536(13) 0.16627(18) 0.1047 Uani
C3 C 0.29777(15) 0.92704(14) 0.18272(18) 0.1133 Uani
H1 H 0.3017 0.9362 0.1994 0.1360 Uiso
C4 C 0.31386(13) 0.90509(13) 0.17407(15) 0.1020 Uani
C5 C 0.30814(12) 0.89127(13) 0.15023(15) 0.0973 Uani
C6 C 0.28552(14) 0.89934(14) 0.13471(16) 0.1100 Uani
H2 H 0.2807 0.8895 0.1186 0.1320 Uiso
C7 C 0.27047(14) 0.92132(14) 0.14272(17) 0.1080 Uani
H3 H 0.2557 0.9271 0.1314 0.1300 Uiso
C8 C 0.33921(16) 0.89464(16) 0.18796(18) 0.1173 Uani
C9 C 0.34688(13) 0.87108(13) 0.16912(14) 0.0990 Uani
C10 C 0.32844(13) 0.86852(13) 0.14778(13) 0.0947 Uani
C11 C 0.3618(2) 0.9190(2) 0.1869(2) 0.1447 Uani
H4 H 0.3547 0.9349 0.1972 0.1740 Uiso
H5 H 0.3786 0.9126 0.1962 0.1740 Uiso
C12 C 0.3696(3) 0.9286(3) 0.1572(3) 0.1903 Uani
H6 H 0.3773 0.9131 0.1470 0.2860 Uiso
H7 H 0.3831 0.9433 0.1583 0.2860 Uiso
H8 H 0.3531 0.9353 0.1479 0.2860 Uiso
C13 C 0.3305(2) 0.8840(3) 0.21745(18) 0.1473 Uani
H9 H 0.3469 0.8770 0.2270 0.1770 Uiso
H10 H 0.3234 0.8997 0.2282 0.1770 Uiso
C14 C 0.3100(3) 0.8629(3) 0.2170(2) 0.1680 Uani
H11 H 0.2921 0.8711 0.2132 0.2520 Uiso
H12 H 0.3096 0.8537 0.2348 0.2520 Uiso
H13 H 0.3145 0.8496 0.2027 0.2520 Uiso
O6 O 0.1828(5) 1.0000 0.1661(5) 0.1840 Uiso
Pb1W Pb 0.30478(3) 1.0000 0.22135(3) 0.0964 Uani
Pb1SA Pb 0.19522(3) 1.0000 0.27865(3) 0.0964 Uani
Pb1PD Pb 0.27865(3) 1.0000 0.30478(3) 0.0964 Uani
Pb1RD Pb 0.5000 0.80478(3) 0.27865(3) 0.0964 Uani
Pb1P Pb 0.5000 0.77865(3) 0.19522(3) 0.0964 Uani
Pb1AG Pb 0.30478(3) 0.72135(3) 0.0000 0.0964 Uani
Pb1JD Pb 0.27865(3) 0.80478(3) 0.0000 0.0964 Uani
Pb1WC Pb 0.5000 1.27865(3) 0.30478(3) 0.0964 Uani
Pb1TF Pb 0.5000 1.19522(3) 0.27865(3) 0.0964 Uani
Pb1PA Pb 0.22135(3) 1.19522(3) 0.5000 0.0964 Uani
Pb1OF Pb 0.30478(3) 1.22135(3) 0.5000 0.0964 Uani
Pb1EF Pb 0.19522(3) 1.27865(3) 0.5000 0.0964 Uani
Pb1B Pb 0.0000 1.19522(3) 0.22135(3) 0.0964 Uani
Pb1MA Pb 0.0000 1.22135(3) 0.30478(3) 0.0964 Uani
Pb1CA Pb 0.0000 0.72135(3) 0.19522(3) 0.0964 Uani
Pb1TE Pb 0.0000 0.80478(3) 0.22135(3) 0.0964 Uani
Pb1SE Pb 0.19522(3) 0.77865(3) 0.0000 0.0964 Uani
O3OE O 0.23892(12) 1.03353(11) 0.16158(14) 0.1300 Uani
O3W O 0.33842(14) 0.96647(11) 0.23892(12) 0.1300 Uani
O3MD O 0.33842(14) 1.03353(11) 0.23892(12) 0.1300 Uani
O3SA O 0.16158(14) 0.96647(11) 0.26108(12) 0.1300 Uani
O3ME O 0.16158(14) 1.03353(11) 0.26108(12) 0.1300 Uani
O3PD O 0.26108(12) 1.03353(11) 0.33842(14) 0.1300 Uani
O3UB O 0.26108(12) 0.96647(11) 0.33842(14) 0.1300 Uani
O3AC O 0.46647(11) 0.83842(14) 0.26108(12) 0.1300 Uani
O3KC O 0.33842(14) 0.73892(12) 0.03353(11) 0.1300 Uani
O3WC O 0.46647(11) 1.26108(12) 0.33842(14) 0.1300 Uani
O3HG O 0.23892(12) 1.16158(14) 0.46647(11) 0.1300 Uani
O3EF O 0.16158(14) 1.26108(12) 0.46647(11) 0.1300 Uani
O3UE O 0.03353(11) 1.16158(14) 0.23892(12) 0.1300 Uani
O3CA O 0.03353(11) 0.73892(12) 0.16158(14) 0.1300 Uani
O3RB O 0.26108(12) 0.83842(14) 0.03353(11) 0.1300 Uani
O4SA O 0.19868(18) 0.96856(12) 0.23849(13) 0.1520 Uani
O4OE O 0.26151(13) 1.03144(12) 0.19868(18) 0.1520 Uani
O4ME O 0.19868(18) 1.03144(12) 0.23849(13) 0.1520 Uani
O4W O 0.30132(18) 0.96856(12) 0.26151(13) 0.1520 Uani
O4MD O 0.30132(18) 1.03144(12) 0.26151(13) 0.1520 Uani
O4PD O 0.23849(13) 1.03144(12) 0.30132(18) 0.1520 Uani
O4UB O 0.23849(13) 0.96856(12) 0.30132(18) 0.1520 Uani
O4AC O 0.46856(12) 0.80132(18) 0.23849(13) 0.1520 Uani
O4KC O 0.30132(18) 0.76151(13) 0.03144(12) 0.1520 Uani
O4WC O 0.46856(12) 1.23849(13) 0.30132(18) 0.1520 Uani
O4HG O 0.26151(13) 1.19868(18) 0.46856(12) 0.1520 Uani
O4EF O 0.19868(18) 1.23849(13) 0.46856(12) 0.1520 Uani
O4UE O 0.03144(12) 1.19868(18) 0.26151(13) 0.1520 Uani
O4CA O 0.03144(12) 0.76151(13) 0.19868(18) 0.1520 Uani
O4RB O 0.23849(13) 0.80132(18) 0.03144(12) 0.1520 Uani
C1MD C 0.32411(19) 1.04177(13) 0.25800(16) 0.1077 Uani
C1PD C 0.24200(16) 1.04177(13) 0.32411(19) 0.1077 Uani
C1SA C 0.17589(19) 0.95823(13) 0.24200(16) 0.1077 Uani
C1AC C 0.45823(13) 0.82411(19) 0.24200(16) 0.1077 Uani
C1KC C 0.32411(19) 0.75800(16) 0.04177(13) 0.1077 Uani
C1WC C 0.45823(13) 1.24200(16) 0.32411(19) 0.1077 Uani
C1HG C 0.25800(16) 1.17589(19) 0.45823(13) 0.1077 Uani
C1EF C 0.17589(19) 1.24200(16) 0.45823(13) 0.1077 Uani
C1UE C 0.04177(13) 1.17589(19) 0.25800(16) 0.1077 Uani
C1CA C 0.04177(13) 0.75800(16) 0.17589(19) 0.1077 Uani
C1RB C 0.24200(16) 0.82411(19) 0.04177(13) 0.1077 Uani
C2MD C 0.33373(18) 1.06464(13) 0.27562(12) 0.1047 Uani
C2PD C 0.22438(12) 1.06464(13) 0.33373(18) 0.1047 Uani
C2SA C 0.16627(18) 0.93536(13) 0.22438(12) 0.1047 Uani
C2AC C 0.43536(13) 0.83373(18) 0.22438(12) 0.1047 Uani
C2KC C 0.33373(18) 0.77562(12) 0.06464(13) 0.1047 Uani
C2WC C 0.43536(13) 1.22438(12) 0.33373(18) 0.1047 Uani
C2HG C 0.27562(12) 1.16627(18) 0.43536(13) 0.1047 Uani
C2EF C 0.16627(18) 1.22438(12) 0.43536(13) 0.1047 Uani
C2UE C 0.06464(13) 1.16627(18) 0.27562(12) 0.1047 Uani
C2CA C 0.06464(13) 0.77562(12) 0.16627(18) 0.1047 Uani
C2RB C 0.22438(12) 0.83373(18) 0.06464(13) 0.1047 Uani
C3MD C 0.31728(18) 1.07296(14) 0.29777(15) 0.1133 Uani
C3PD C 0.20223(15) 1.07296(14) 0.31728(18) 0.1133 Uani
C3SA C 0.18272(18) 0.92704(14) 0.20223(15) 0.1133 Uani
C3AC C 0.42704(14) 0.81728(18) 0.20223(15) 0.1133 Uani
C3KC C 0.31728(18) 0.79777(15) 0.07296(14) 0.1133 Uani
C3WC C 0.42704(14) 1.20223(15) 0.31728(18) 0.1133 Uani
C3HG C 0.29777(15) 1.18272(18) 0.42704(14) 0.1133 Uani
C3EF C 0.18272(18) 1.20223(15) 0.42704(14) 0.1133 Uani
C3UE C 0.07296(14) 1.18272(18) 0.29777(15) 0.1133 Uani
C3CA C 0.07296(14) 0.79777(15) 0.18272(18) 0.1133 Uani
C3RB C 0.20223(15) 0.81728(18) 0.07296(14) 0.1133 Uani
H1MD H 0.3006 1.0638 0.3017 0.1360 Uiso
H1PD H 0.1983 1.0638 0.3006 0.1360 Uiso
H1SA H 0.1994 0.9362 0.1983 0.1360 Uiso
H1AC H 0.4362 0.8006 0.1983 0.1360 Uiso
H1KC H 0.3006 0.8017 0.0638 0.1360 Uiso
H1WC H 0.4362 1.1983 0.3006 0.1360 Uiso
H1HG H 0.3017 1.1994 0.4362 0.1360 Uiso
H1EF H 0.1994 1.1983 0.4362 0.1360 Uiso
H1UE H 0.0638 1.1994 0.3017 0.1360 Uiso
H1CA H 0.0638 0.8017 0.1994 0.1360 Uiso
H1RB H 0.1983 0.8006 0.0638 0.1360 Uiso
C4AC C 0.40509(13) 0.82593(15) 0.18614(13) 0.1020 Uani
C4KC C 0.32593(15) 0.81386(13) 0.09491(13) 0.1020 Uani
C4MD C 0.32593(15) 1.09491(13) 0.31386(13) 0.1020 Uani
C4PD C 0.18614(13) 1.09491(13) 0.32593(15) 0.1020 Uani
C4SA C 0.17407(15) 0.90509(13) 0.18614(13) 0.1020 Uani
C4WC C 0.40509(13) 1.18614(13) 0.32593(15) 0.1020 Uani
C4HG C 0.31386(13) 1.17407(15) 0.40509(13) 0.1020 Uani
C4EF C 0.17407(15) 1.18614(13) 0.40509(13) 0.1020 Uani
C4UE C 0.09491(13) 1.17407(15) 0.31386(13) 0.1020 Uani
C4CA C 0.09491(13) 0.81386(13) 0.17407(15) 0.1020 Uani
C4RB C 0.18614(13) 0.82593(15) 0.09491(13) 0.1020 Uani
C5AC C 0.39127(13) 0.84977(15) 0.19186(12) 0.0973 Uani
C5KC C 0.34977(15) 0.80814(12) 0.10873(13) 0.0973 Uani
C5MD C 0.34977(15) 1.10873(13) 0.30814(12) 0.0973 Uani
C5PD C 0.19186(12) 1.10873(13) 0.34977(15) 0.0973 Uani
C5SA C 0.15023(15) 0.89127(13) 0.19186(12) 0.0973 Uani
C5HG C 0.30814(12) 1.15023(15) 0.39127(13) 0.0973 Uani
C5UE C 0.10873(13) 1.15023(15) 0.30814(12) 0.0973 Uani
C5RB C 0.19186(12) 0.84977(15) 0.10873(13) 0.0973 Uani
C5WC C 0.39127(13) 1.19186(12) 0.34977(15) 0.0973 Uani
C5EF C 0.15023(15) 1.19186(12) 0.39127(13) 0.0973 Uani
C5CA C 0.10873(13) 0.80814(12) 0.15023(15) 0.0973 Uani
C6AC C 0.39934(14) 0.86529(16) 0.21448(14) 0.1100 Uani
C6KC C 0.36529(16) 0.78552(14) 0.10066(14) 0.1100 Uani
C6MD C 0.36529(16) 1.10066(14) 0.28552(14) 0.1100 Uani
C6PD C 0.21448(14) 1.10066(14) 0.36529(16) 0.1100 Uani
C6SA C 0.13471(16) 0.89934(14) 0.21448(14) 0.1100 Uani
C6HG C 0.28552(14) 1.13471(16) 0.39934(14) 0.1100 Uani
C6UE C 0.10066(14) 1.13471(16) 0.28552(14) 0.1100 Uani
C6RB C 0.21448(14) 0.86529(16) 0.10066(14) 0.1100 Uani
C6WC C 0.39934(14) 1.21448(14) 0.36529(16) 0.1100 Uani
C6EF C 0.13471(16) 1.21448(14) 0.39934(14) 0.1100 Uani
C6CA C 0.10066(14) 0.78552(14) 0.13471(16) 0.1100 Uani
H2AC H 0.3895 0.8814 0.2193 0.1320 Uiso
H2KC H 0.3814 0.7807 0.1105 0.1320 Uiso
H2MD H 0.3814 1.1105 0.2807 0.1320 Uiso
H2PD H 0.2193 1.1105 0.3814 0.1320 Uiso
H2SA H 0.1186 0.8895 0.2193 0.1320 Uiso
H2HG H 0.2807 1.1186 0.3895 0.1320 Uiso
H2UE H 0.1105 1.1186 0.2807 0.1320 Uiso
H2RB H 0.2193 0.8814 0.1105 0.1320 Uiso
H2WC H 0.3895 1.2193 0.3814 0.1320 Uiso
H2EF H 0.1186 1.2193 0.3895 0.1320 Uiso
H2CA H 0.1105 0.7807 0.1186 0.1320 Uiso
C7MD C 0.35728(17) 1.07868(14) 0.27047(14) 0.1080 Uani
C7PD C 0.22953(14) 1.07868(14) 0.35728(17) 0.1080 Uani
C7SA C 0.14272(17) 0.92132(14) 0.22953(14) 0.1080 Uani
C7AC C 0.42132(14) 0.85728(17) 0.22953(14) 0.1080 Uani
C7KC C 0.35728(17) 0.77047(14) 0.07868(14) 0.1080 Uani
C7HG C 0.27047(14) 1.14272(17) 0.42132(14) 0.1080 Uani
C7UE C 0.07868(14) 1.14272(17) 0.27047(14) 0.1080 Uani
C7RB C 0.22953(14) 0.85728(17) 0.07868(14) 0.1080 Uani
C7WC C 0.42132(14) 1.22953(14) 0.35728(17) 0.1080 Uani
C7EF C 0.14272(17) 1.22953(14) 0.42132(14) 0.1080 Uani
C7CA C 0.07868(14) 0.77047(14) 0.14272(17) 0.1080 Uani
H3MD H 0.3686 1.0729 0.2557 0.1300 Uiso
H3PD H 0.2443 1.0729 0.3686 0.1300 Uiso
H3SA H 0.1314 0.9271 0.2443 0.1300 Uiso
H3AC H 0.4271 0.8686 0.2443 0.1300 Uiso
H3KC H 0.3686 0.7557 0.0729 0.1300 Uiso
H3HG H 0.2557 1.1314 0.4271 0.1300 Uiso
H3UE H 0.0729 1.1314 0.2557 0.1300 Uiso
H3RB H 0.2443 0.8686 0.0729 0.1300 Uiso
H3WC H 0.4271 1.2443 0.3686 0.1300 Uiso
H3EF H 0.1314 1.2443 0.4271 0.1300 Uiso
H3CA H 0.0729 0.7557 0.1314 0.1300 Uiso
C8KC C 0.31204(18) 0.83921(16) 0.10536(16) 0.1173 Uani
C8AC C 0.39464(16) 0.81204(18) 0.16079(16) 0.1173 Uani
C8MD C 0.31204(18) 1.10536(16) 0.33921(16) 0.1173 Uani
C8PD C 0.16079(16) 1.10536(16) 0.31204(18) 0.1173 Uani
C8SA C 0.18796(18) 0.89464(16) 0.16079(16) 0.1173 Uani
C8WC C 0.39464(16) 1.16079(16) 0.31204(18) 0.1173 Uani
C8EF C 0.18796(18) 1.16079(16) 0.39464(16) 0.1173 Uani
C8CA C 0.10536(16) 0.83921(16) 0.18796(18) 0.1173 Uani
C8HG C 0.33921(16) 1.18796(18) 0.39464(16) 0.1173 Uani
C8UE C 0.10536(16) 1.18796(18) 0.33921(16) 0.1173 Uani
C8RB C 0.16079(16) 0.81204(18) 0.10536(16) 0.1173 Uani
C9KC C 0.33088(14) 0.84688(13) 0.12892(13) 0.0990 Uani
C9AC C 0.37108(13) 0.83088(14) 0.15312(13) 0.0990 Uani
C9MD C 0.33088(14) 1.12892(13) 0.34688(13) 0.0990 Uani
C9PD C 0.15312(13) 1.12892(13) 0.33088(14) 0.0990 Uani
C9SA C 0.16912(14) 0.87108(13) 0.15312(13) 0.0990 Uani
C9WC C 0.37108(13) 1.15312(13) 0.33088(14) 0.0990 Uani
C9EF C 0.16912(14) 1.15312(13) 0.37108(13) 0.0990 Uani
C9CA C 0.12892(13) 0.84688(13) 0.16912(14) 0.0990 Uani
C9HG C 0.34688(13) 1.16912(14) 0.37108(13) 0.0990 Uani
C9UE C 0.12892(13) 1.16912(14) 0.34688(13) 0.0990 Uani
C9RB C 0.15312(13) 0.83088(14) 0.12892(13) 0.0990 Uani
C10AC C 0.36852(13) 0.85222(13) 0.17156(13) 0.0947 Uani
C10KC C 0.35222(13) 0.82844(13) 0.13148(13) 0.0947 Uani
C10MD C 0.35222(13) 1.13148(13) 0.32844(13) 0.0947 Uani
C10PD C 0.17156(13) 1.13148(13) 0.35222(13) 0.0947 Uani
C10SA C 0.14778(13) 0.86852(13) 0.17156(13) 0.0947 Uani
C10HG C 0.32844(13) 1.14778(13) 0.36852(13) 0.0947 Uani
C10UE C 0.13148(13) 1.14778(13) 0.32844(13) 0.0947 Uani
C10RB C 0.17156(13) 0.85222(13) 0.13148(13) 0.0947 Uani
C10WC C 0.36852(13) 1.17156(13) 0.35222(13) 0.0947 Uani
C10EF C 0.14778(13) 1.17156(13) 0.36852(13) 0.0947 Uani
C10CA C 0.13148(13) 0.82844(13) 0.14778(13) 0.0947 Uani
C11KC C 0.3131(2) 0.8618(2) 0.0810(2) 0.1447 Uani
C11AC C 0.4190(2) 0.8131(2) 0.1382(2) 0.1447 Uani
C11MD C 0.3131(2) 1.0810(2) 0.3618(2) 0.1447 Uani
C11PD C 0.1382(2) 1.0810(2) 0.3131(2) 0.1447 Uani
C11SA C 0.1869(2) 0.9190(2) 0.1382(2) 0.1447 Uani
C11WC C 0.4190(2) 1.1382(2) 0.3131(2) 0.1447 Uani
C11EF C 0.1869(2) 1.1382(2) 0.4190(2) 0.1447 Uani
C11CA C 0.0810(2) 0.8618(2) 0.1869(2) 0.1447 Uani
C11HG C 0.3618(2) 1.1869(2) 0.4190(2) 0.1447 Uani
C11UE C 0.0810(2) 1.1869(2) 0.3618(2) 0.1447 Uani
C11RB C 0.1382(2) 0.8131(2) 0.0810(2) 0.1447 Uani
H4KC H 0.3028 0.8547 0.0651 0.1740 Uiso
H4AC H 0.4349 0.8028 0.1453 0.1740 Uiso
H4MD H 0.3028 1.0651 0.3547 0.1740 Uiso
H4PD H 0.1453 1.0651 0.3028 0.1740 Uiso
H4SA H 0.1972 0.9349 0.1453 0.1740 Uiso
H4WC H 0.4349 1.1453 0.3028 0.1740 Uiso
H4EF H 0.1972 1.1453 0.4349 0.1740 Uiso
H4CA H 0.0651 0.8547 0.1972 0.1740 Uiso
H4HG H 0.3547 1.1972 0.4349 0.1740 Uiso
H4UE H 0.0651 1.1972 0.3547 0.1740 Uiso
H4RB H 0.1453 0.8028 0.0651 0.1740 Uiso
H5KC H 0.3038 0.8786 0.0874 0.1740 Uiso
H5AC H 0.4126 0.8038 0.1214 0.1740 Uiso
H5MD H 0.3038 1.0874 0.3786 0.1740 Uiso
H5PD H 0.1214 1.0874 0.3038 0.1740 Uiso
H5SA H 0.1962 0.9126 0.1214 0.1740 Uiso
H5WC H 0.4126 1.1214 0.3038 0.1740 Uiso
H5EF H 0.1962 1.1214 0.4126 0.1740 Uiso
H5CA H 0.0874 0.8786 0.1962 0.1740 Uiso
H5HG H 0.3786 1.1962 0.4126 0.1740 Uiso
H5UE H 0.0874 1.1962 0.3786 0.1740 Uiso
H5RB H 0.1214 0.8038 0.0874 0.1740 Uiso
C12KC C 0.3428(3) 0.8696(3) 0.0714(3) 0.1903 Uani
C12AC C 0.4286(3) 0.8428(3) 0.1304(3) 0.1903 Uani
C12MD C 0.3428(3) 1.0714(3) 0.3696(3) 0.1903 Uani
C12PD C 0.1304(3) 1.0714(3) 0.3428(3) 0.1903 Uani
C12SA C 0.1572(3) 0.9286(3) 0.1304(3) 0.1903 Uani
C12WC C 0.4286(3) 1.1304(3) 0.3428(3) 0.1903 Uani
C12EF C 0.1572(3) 1.1304(3) 0.4286(3) 0.1903 Uani
C12CA C 0.0714(3) 0.8696(3) 0.1572(3) 0.1903 Uani
C12HG C 0.3696(3) 1.1572(3) 0.4286(3) 0.1903 Uani
C12UE C 0.0714(3) 1.1572(3) 0.3696(3) 0.1903 Uani
C12RB C 0.1304(3) 0.8428(3) 0.0714(3) 0.1903 Uani
H6KC H 0.3530 0.8773 0.0869 0.2860 Uiso
H6AC H 0.4131 0.8530 0.1227 0.2860 Uiso
H6MD H 0.3530 1.0869 0.3773 0.2860 Uiso
H6PD H 0.1227 1.0869 0.3530 0.2860 Uiso
H6SA H 0.1470 0.9131 0.1227 0.2860 Uiso
H6WC H 0.4131 1.1227 0.3530 0.2860 Uiso
H6EF H 0.1470 1.1227 0.4131 0.2860 Uiso
H6CA H 0.0869 0.8773 0.1470 0.2860 Uiso
H6HG H 0.3773 1.1470 0.4131 0.2860 Uiso
H6UE H 0.0869 1.1470 0.3773 0.2860 Uiso
H6RB H 0.1227 0.8530 0.0869 0.2860 Uiso
H7KC H 0.3417 0.8831 0.0567 0.2860 Uiso
H7AC H 0.4433 0.8417 0.1169 0.2860 Uiso
H7MD H 0.3417 1.0567 0.3831 0.2860 Uiso
H7PD H 0.1169 1.0567 0.3417 0.2860 Uiso
H7SA H 0.1583 0.9433 0.1169 0.2860 Uiso
H7WC H 0.4433 1.1169 0.3417 0.2860 Uiso
H7EF H 0.1583 1.1169 0.4433 0.2860 Uiso
H7CA H 0.0567 0.8831 0.1583 0.2860 Uiso
H7HG H 0.3831 1.1583 0.4433 0.2860 Uiso
H7UE H 0.0567 1.1583 0.3831 0.2860 Uiso
H7RB H 0.1169 0.8417 0.0567 0.2860 Uiso
H8KC H 0.3521 0.8531 0.0647 0.2860 Uiso
H8AC H 0.4353 0.8521 0.1469 0.2860 Uiso
H8MD H 0.3521 1.0647 0.3531 0.2860 Uiso
H8PD H 0.1469 1.0647 0.3521 0.2860 Uiso
H8SA H 0.1479 0.9353 0.1469 0.2860 Uiso
H8WC H 0.4353 1.1469 0.3521 0.2860 Uiso
H8EF H 0.1479 1.1469 0.4353 0.2860 Uiso
H8CA H 0.0647 0.8531 0.1479 0.2860 Uiso
H8HG H 0.3531 1.1479 0.4353 0.2860 Uiso
H8UE H 0.0647 1.1479 0.3531 0.2860 Uiso
H8RB H 0.1469 0.8521 0.0647 0.2860 Uiso
C13KC C 0.28255(18) 0.8305(2) 0.1160(3) 0.1473 Uani
C13AC C 0.3840(3) 0.78255(18) 0.1695(2) 0.1473 Uani
C13MD C 0.28255(18) 1.1160(3) 0.3305(2) 0.1473 Uani
C13PD C 0.1695(2) 1.1160(3) 0.28255(18) 0.1473 Uani
C13SA C 0.21745(18) 0.8840(3) 0.1695(2) 0.1473 Uani
C13WC C 0.3840(3) 1.1695(2) 0.28255(18) 0.1473 Uani
C13EF C 0.21745(18) 1.1695(2) 0.3840(3) 0.1473 Uani
C13CA C 0.1160(3) 0.8305(2) 0.21745(18) 0.1473 Uani
C13HG C 0.3305(2) 1.21745(18) 0.3840(3) 0.1473 Uani
C13UE C 0.1160(3) 1.21745(18) 0.3305(2) 0.1473 Uani
C13RB C 0.1695(2) 0.78255(18) 0.1160(3) 0.1473 Uani
H9KC H 0.2730 0.8469 0.1230 0.1770 Uiso
H9AC H 0.3770 0.7730 0.1531 0.1770 Uiso
H9MD H 0.2730 1.1230 0.3469 0.1770 Uiso
H9PD H 0.1531 1.1230 0.2730 0.1770 Uiso
H9SA H 0.2270 0.8770 0.1531 0.1770 Uiso
H9WC H 0.3770 1.1531 0.2730 0.1770 Uiso
H9EF H 0.2270 1.1531 0.3770 0.1770 Uiso
H9CA H 0.1230 0.8469 0.2270 0.1770 Uiso
H9HG H 0.3469 1.2270 0.3770 0.1770 Uiso
H9UE H 0.1230 1.2270 0.3469 0.1770 Uiso
H9RB H 0.1531 0.7730 0.1230 0.1770 Uiso
H10KC H 0.2718 0.8234 0.1003 0.1770 Uiso
H10AC H 0.3997 0.7718 0.1766 0.1770 Uiso
H10MD H 0.2718 1.1003 0.3234 0.1770 Uiso
H10PD H 0.1766 1.1003 0.2718 0.1770 Uiso
H10SA H 0.2282 0.8997 0.1766 0.1770 Uiso
H10WC H 0.3997 1.1766 0.2718 0.1770 Uiso
H10EF H 0.2282 1.1766 0.3997 0.1770 Uiso
H10CA H 0.1003 0.8234 0.2282 0.1770 Uiso
H10HG H 0.3234 1.2282 0.3997 0.1770 Uiso
H10UE H 0.1003 1.2282 0.3234 0.1770 Uiso
H10RB H 0.1766 0.7718 0.1003 0.1770 Uiso
C14KC C 0.2830(2) 0.8100(3) 0.1371(3) 0.1680 Uani
C14AC C 0.3629(3) 0.7830(2) 0.1900(3) 0.1680 Uani
C14MD C 0.2830(2) 1.1371(3) 0.3100(3) 0.1680 Uani
C14PD C 0.1900(3) 1.1371(3) 0.2830(2) 0.1680 Uani
C14SA C 0.2170(2) 0.8629(3) 0.1900(3) 0.1680 Uani
C14WC C 0.3629(3) 1.1900(3) 0.2830(2) 0.1680 Uani
C14EF C 0.2170(2) 1.1900(3) 0.3629(3) 0.1680 Uani
C14CA C 0.1371(3) 0.8100(3) 0.2170(2) 0.1680 Uani
C14HG C 0.3100(3) 1.2170(2) 0.3629(3) 0.1680 Uani
C14UE C 0.1371(3) 1.2170(2) 0.3100(3) 0.1680 Uani
C14RB C 0.1900(3) 0.7830(2) 0.1371(3) 0.1680 Uani
H11KC H 0.2868 0.7921 0.1289 0.2520 Uiso
H11AC H 0.3711 0.7868 0.2079 0.2520 Uiso
H11MD H 0.2868 1.1289 0.2921 0.2520 Uiso
H11PD H 0.2079 1.1289 0.2868 0.2520 Uiso
H11SA H 0.2132 0.8711 0.2079 0.2520 Uiso
H11WC H 0.3711 1.2079 0.2868 0.2520 Uiso
H11EF H 0.2132 1.2079 0.3711 0.2520 Uiso
H11CA H 0.1289 0.7921 0.2132 0.2520 Uiso
H11HG H 0.2921 1.2132 0.3711 0.2520 Uiso
H11UE H 0.1289 1.2132 0.2921 0.2520 Uiso
H11RB H 0.2079 0.7868 0.1289 0.2520 Uiso
H12KC H 0.2652 0.8096 0.1463 0.2520 Uiso
H12AC H 0.3537 0.7652 0.1904 0.2520 Uiso
H12MD H 0.2652 1.1463 0.3096 0.2520 Uiso
H12PD H 0.1904 1.1463 0.2652 0.2520 Uiso
H12SA H 0.2348 0.8537 0.1904 0.2520 Uiso
H12WC H 0.3537 1.1904 0.2652 0.2520 Uiso
H12EF H 0.2348 1.1904 0.3537 0.2520 Uiso
H12CA H 0.1463 0.8096 0.2348 0.2520 Uiso
H12HG H 0.3096 1.2348 0.3537 0.2520 Uiso
H12UE H 0.1463 1.2348 0.3096 0.2520 Uiso
H12RB H 0.1904 0.7652 0.1463 0.2520 Uiso
H13KC H 0.2973 0.8145 0.1504 0.2520 Uiso
H13AC H 0.3496 0.7973 0.1855 0.2520 Uiso
H13MD H 0.2973 1.1504 0.3145 0.2520 Uiso
H13PD H 0.1855 1.1504 0.2973 0.2520 Uiso
H13SA H 0.2027 0.8496 0.1855 0.2520 Uiso
H13WC H 0.3496 1.1855 0.2973 0.2520 Uiso
H13EF H 0.2027 1.1855 0.3496 0.2520 Uiso
H13CA H 0.1504 0.8145 0.2027 0.2520 Uiso
H13HG H 0.3145 1.2027 0.3496 0.2520 Uiso
H13UE H 0.1504 1.2027 0.3145 0.2520 Uiso
H13RB H 0.1855 0.7973 0.1504 0.2520 Uiso
O6W O 0.3339(5) 1.0000 0.1828(5) 0.1840 Uiso
O6SA O 0.1661(5) 1.0000 0.3172(5) 0.1840 Uiso
O6PD O 0.3172(5) 1.0000 0.3339(5) 0.1840 Uiso
O1 O 0.1243(10) 1.0000 0.1779(10) 0.3020 Uiso
Pb2? Pb 0.21523(11) 1.0000 0.18263(10) 0.0798 Uani
Cd1? Cd 0.22661(18) 1.0000 0.20462(19) 0.0676 Uani
O7? O 0.1834(6) 1.0000 0.1484(7) 0.1650 Uiso
loop_
_atom_site_aniso_label
_atom_site_aniso_U_11
_atom_site_aniso_U_22
_atom_site_aniso_U_33
_atom_site_aniso_U_23
_atom_site_aniso_U_13
_atom_site_aniso_U_12
Pb1 0.0907(14) 0.0644(5) 0.134(3) 0.000 0.0340(15) 0.000
O3 0.105(3) 0.099(3) 0.186(5) -0.018(3) 0.002(4) 0.022(3)
O4 0.131(5) 0.101(4) 0.224(7) -0.047(4) -0.018(4) 0.024(3)
O5 0.151(7) 0.101(9) 0.151(7) 0.000 0.000 0.000
C1 0.097(4) 0.071(3) 0.155(6) -0.028(4) 0.005(4) -0.008(3)
C2 0.083(4) 0.072(3) 0.159(6) -0.015(4) -0.008(4) 0.001(3)
C3 0.105(4) 0.089(4) 0.146(6) -0.038(4) -0.015(4) 0.009(3)
C4 0.091(4) 0.087(3) 0.128(5) -0.020(3) -0.021(3) 0.013(3)
C5 0.088(3) 0.089(4) 0.115(4) -0.019(3) -0.019(3) 0.017(3)
C6 0.111(4) 0.099(4) 0.120(5) -0.019(4) -0.029(4) 0.025(4)
C7 0.087(4) 0.097(4) 0.140(6) 0.005(4) -0.013(4) 0.017(3)
C8 0.109(5) 0.107(5) 0.136(6) -0.047(4) -0.032(4) 0.028(4)
C9 0.097(4) 0.095(4) 0.105(4) -0.025(3) -0.020(3) 0.018(3)
C10 0.093(4) 0.092(4) 0.099(4) -0.022(3) -0.022(3) 0.022(3)
C11 0.130(6) 0.127(6) 0.177(9) -0.016(6) -0.038(6) 0.009(5)
C12 0.138(8) 0.177(10) 0.256(17) 0.001(10) -0.015(9) -0.028(7)
C13 0.142(7) 0.180(9) 0.120(6) -0.053(6) -0.022(5) 0.041(7)
C14 0.193(11) 0.184(11) 0.127(7) -0.008(7) 0.022(7) 0.009(9)
Pb1W 0.134 0.0644 0.0907 0 -0.034 0
Pb1SA 0.134 0.0644 0.0907 0 -0.034 0
Pb1PD 0.0907 0.0644 0.134 0 0.034 0
Pb1RD 0.0644 0.134 0.0907 0.034 0 0
Pb1P 0.0644 0.0907 0.134 -0.034 0 0
Pb1AG 0.134 0.0907 0.0644 0 0 -0.034
Pb1JD 0.0907 0.134 0.0644 0 0 0.034
Pb1WC 0.0644 0.0907 0.134 0.034 0 0
Pb1TF 0.0644 0.134 0.0907 -0.034 0 0
Pb1PA 0.0907 0.134 0.0644 0 0 0.034
Pb1OF 0.134 0.0907 0.0644 0 0 -0.034
Pb1EF 0.134 0.0907 0.0644 0 0 -0.034
Pb1B 0.0644 0.134 0.0907 0.034 0 0
Pb1MA 0.0644 0.0907 0.134 -0.034 0 0
Pb1CA 0.0644 0.0907 0.134 0.034 0 0
Pb1TE 0.0644 0.134 0.0907 -0.034 0 0
Pb1SE 0.134 0.0907 0.0644 0 0 -0.034
O3OE 0.105 0.099 0.186 0.018 0.002 -0.022
O3W 0.186 0.099 0.105 0.022 -0.002 0.018
O3MD 0.186 0.099 0.105 -0.022 -0.002 -0.018
O3SA 0.186 0.099 0.105 -0.022 -0.002 -0.018
O3ME 0.186 0.099 0.105 0.022 -0.002 0.018
O3PD 0.105 0.099 0.186 -0.018 0.002 0.022
O3UB 0.105 0.099 0.186 0.018 0.002 -0.022
O3AC 0.099 0.186 0.105 0.002 -0.022 0.018
O3KC 0.186 0.105 0.099 -0.022 -0.018 -0.002
O3WC 0.099 0.105 0.186 0.002 0.018 -0.022
O3HG 0.105 0.186 0.099 -0.018 0.022 0.002
O3EF 0.186 0.105 0.099 -0.022 -0.018 -0.002
O3UE 0.099 0.186 0.105 0.002 -0.022 0.018
O3CA 0.099 0.105 0.186 0.002 0.018 -0.022
O3RB 0.105 0.186 0.099 -0.018 0.022 0.002
O4SA 0.224 0.101 0.131 -0.024 0.018 -0.047
O4OE 0.131 0.101 0.224 0.047 -0.018 -0.024
O4ME 0.224 0.101 0.131 0.024 0.018 0.047
O4W 0.224 0.101 0.131 0.024 0.018 0.047
O4MD 0.224 0.101 0.131 -0.024 0.018 -0.047
O4PD 0.131 0.101 0.224 -0.047 -0.018 0.024
O4UB 0.131 0.101 0.224 0.047 -0.018 -0.024
O4AC 0.101 0.224 0.131 -0.018 -0.024 0.047
O4KC 0.224 0.131 0.101 -0.024 -0.047 0.018
O4WC 0.101 0.131 0.224 -0.018 0.047 -0.024
O4HG 0.131 0.224 0.101 -0.047 0.024 -0.018
O4EF 0.224 0.131 0.101 -0.024 -0.047 0.018
O4UE 0.101 0.224 0.131 -0.018 -0.024 0.047
O4CA 0.101 0.131 0.224 -0.018 0.047 -0.024
O4RB 0.131 0.224 0.101 -0.047 0.024 -0.018
C1MD 0.155 0.071 0.097 0.008 -0.005 -0.028
C1PD 0.097 0.071 0.155 -0.028 0.005 -0.008
C1SA 0.155 0.071 0.097 0.008 -0.005 -0.028
C1AC 0.071 0.155 0.097 0.005 0.008 0.028
C1KC 0.155 0.097 0.071 0.008 -0.028 -0.005
C1WC 0.071 0.097 0.155 0.005 0.028 0.008
C1HG 0.097 0.155 0.071 -0.028 -0.008 0.005
C1EF 0.155 0.097 0.071 0.008 -0.028 -0.005
C1UE 0.071 0.155 0.097 0.005 0.008 0.028
C1CA 0.071 0.097 0.155 0.005 0.028 0.008
C1RB 0.097 0.155 0.071 -0.028 -0.008 0.005
C2MD 0.159 0.072 0.083 -0.001 0.008 -0.015
C2PD 0.083 0.072 0.159 -0.015 -0.008 0.001
C2SA 0.159 0.072 0.083 -0.001 0.008 -0.015
C2AC 0.072 0.159 0.083 -0.008 -0.001 0.015
C2KC 0.159 0.083 0.072 -0.001 -0.015 0.008
C2WC 0.072 0.083 0.159 -0.008 0.015 -0.001
C2HG 0.083 0.159 0.072 -0.015 0.001 -0.008
C2EF 0.159 0.083 0.072 -0.001 -0.015 0.008
C2UE 0.072 0.159 0.083 -0.008 -0.001 0.015
C2CA 0.072 0.083 0.159 -0.008 0.015 -0.001
C2RB 0.083 0.159 0.072 -0.015 0.001 -0.008
C3MD 0.146 0.089 0.105 -0.009 0.015 -0.038
C3PD 0.105 0.089 0.146 -0.038 -0.015 0.009
C3SA 0.146 0.089 0.105 -0.009 0.015 -0.038
C3AC 0.089 0.146 0.105 -0.015 -0.009 0.038
C3KC 0.146 0.105 0.089 -0.009 -0.038 0.015
C3WC 0.089 0.105 0.146 -0.015 0.038 -0.009
C3HG 0.105 0.146 0.089 -0.038 0.009 -0.015
C3EF 0.146 0.105 0.089 -0.009 -0.038 0.015
C3UE 0.089 0.146 0.105 -0.015 -0.009 0.038
C3CA 0.089 0.105 0.146 -0.015 0.038 -0.009
C3RB 0.105 0.146 0.089 -0.038 0.009 -0.015
C4AC 0.087 0.128 0.091 -0.021 -0.013 0.02
C4KC 0.128 0.091 0.087 -0.013 -0.02 0.021
C4MD 0.128 0.087 0.091 -0.013 0.021 -0.02
C4PD 0.091 0.087 0.128 -0.02 -0.021 0.013
C4SA 0.128 0.087 0.091 -0.013 0.021 -0.02
C4WC 0.087 0.091 0.128 -0.021 0.02 -0.013
C4HG 0.091 0.128 0.087 -0.02 0.013 -0.021
C4EF 0.128 0.091 0.087 -0.013 -0.02 0.021
C4UE 0.087 0.128 0.091 -0.021 -0.013 0.02
C4CA 0.087 0.091 0.128 -0.021 0.02 -0.013
C4RB 0.091 0.128 0.087 -0.02 0.013 -0.021
C5AC 0.089 0.115 0.088 -0.019 -0.017 0.019
C5KC 0.115 0.088 0.089 -0.017 -0.019 0.019
C5MD 0.115 0.089 0.088 -0.017 0.019 -0.019
C5PD 0.088 0.089 0.115 -0.019 -0.019 0.017
C5SA 0.115 0.089 0.088 -0.017 0.019 -0.019
C5HG 0.088 0.115 0.089 -0.019 0.017 -0.019
C5UE 0.089 0.115 0.088 -0.019 -0.017 0.019
C5RB 0.088 0.115 0.089 -0.019 0.017 -0.019
C5WC 0.089 0.088 0.115 -0.019 0.019 -0.017
C5EF 0.115 0.088 0.089 -0.017 -0.019 0.019
C5CA 0.089 0.088 0.115 -0.019 0.019 -0.017
C6AC 0.099 0.12 0.111 -0.029 -0.025 0.019
C6KC 0.12 0.111 0.099 -0.025 -0.019 0.029
C6MD 0.12 0.099 0.111 -0.025 0.029 -0.019
C6PD 0.111 0.099 0.12 -0.019 -0.029 0.025
C6SA 0.12 0.099 0.111 -0.025 0.029 -0.019
C6HG 0.111 0.12 0.099 -0.019 0.025 -0.029
C6UE 0.099 0.12 0.111 -0.029 -0.025 0.019
C6RB 0.111 0.12 0.099 -0.019 0.025 -0.029
C6WC 0.099 0.111 0.12 -0.029 0.019 -0.025
C6EF 0.12 0.111 0.099 -0.025 -0.019 0.029
C6CA 0.099 0.111 0.12 -0.029 0.019 -0.025
C7MD 0.14 0.097 0.087 -0.017 0.013 0.005
C7PD 0.087 0.097 0.14 0.005 -0.013 0.017
C7SA 0.14 0.097 0.087 -0.017 0.013 0.005
C7AC 0.097 0.14 0.087 -0.013 -0.017 -0.005
C7KC 0.14 0.087 0.097 -0.017 0.005 0.013
C7HG 0.087 0.14 0.097 0.005 0.017 -0.013
C7UE 0.097 0.14 0.087 -0.013 -0.017 -0.005
C7RB 0.087 0.14 0.097 0.005 0.017 -0.013
C7WC 0.097 0.087 0.14 -0.013 -0.005 -0.017
C7EF 0.14 0.087 0.097 -0.017 0.005 0.013
C7CA 0.097 0.087 0.14 -0.013 -0.005 -0.017
C8KC 0.136 0.109 0.107 -0.028 -0.047 0.032
C8AC 0.107 0.136 0.109 -0.032 -0.028 0.047
C8MD 0.136 0.107 0.109 -0.028 0.032 -0.047
C8PD 0.109 0.107 0.136 -0.047 -0.032 0.028
C8SA 0.136 0.107 0.109 -0.028 0.032 -0.047
C8WC 0.107 0.109 0.136 -0.032 0.047 -0.028
C8EF 0.136 0.109 0.107 -0.028 -0.047 0.032
C8CA 0.107 0.109 0.136 -0.032 0.047 -0.028
C8HG 0.109 0.136 0.107 -0.047 0.028 -0.032
C8UE 0.107 0.136 0.109 -0.032 -0.028 0.047
C8RB 0.109 0.136 0.107 -0.047 0.028 -0.032
C9KC 0.105 0.097 0.095 -0.018 -0.025 0.02
C9AC 0.095 0.105 0.097 -0.02 -0.018 0.025
C9MD 0.105 0.095 0.097 -0.018 0.02 -0.025
C9PD 0.097 0.095 0.105 -0.025 -0.02 0.018
C9SA 0.105 0.095 0.097 -0.018 0.02 -0.025
C9WC 0.095 0.097 0.105 -0.02 0.025 -0.018
C9EF 0.105 0.097 0.095 -0.018 -0.025 0.02
C9CA 0.095 0.097 0.105 -0.02 0.025 -0.018
C9HG 0.097 0.105 0.095 -0.025 0.018 -0.02
C9UE 0.095 0.105 0.097 -0.02 -0.018 0.025
C9RB 0.097 0.105 0.095 -0.025 0.018 -0.02
C10AC 0.092 0.099 0.093 -0.022 -0.022 0.022
C10KC 0.099 0.093 0.092 -0.022 -0.022 0.022
C10MD 0.099 0.092 0.093 -0.022 0.022 -0.022
C10PD 0.093 0.092 0.099 -0.022 -0.022 0.022
C10SA 0.099 0.092 0.093 -0.022 0.022 -0.022
C10HG 0.093 0.099 0.092 -0.022 0.022 -0.022
C10UE 0.092 0.099 0.093 -0.022 -0.022 0.022
C10RB 0.093 0.099 0.092 -0.022 0.022 -0.022
C10WC 0.092 0.093 0.099 -0.022 0.022 -0.022
C10EF 0.099 0.093 0.092 -0.022 -0.022 0.022
C10CA 0.092 0.093 0.099 -0.022 0.022 -0.022
C11KC 0.177 0.13 0.127 -0.009 -0.016 0.038
C11AC 0.127 0.177 0.13 -0.038 -0.009 0.016
C11MD 0.177 0.127 0.13 -0.009 0.038 -0.016
C11PD 0.13 0.127 0.177 -0.016 -0.038 0.009
C11SA 0.177 0.127 0.13 -0.009 0.038 -0.016
C11WC 0.127 0.13 0.177 -0.038 0.016 -0.009
C11EF 0.177 0.13 0.127 -0.009 -0.016 0.038
C11CA 0.127 0.13 0.177 -0.038 0.016 -0.009
C11HG 0.13 0.177 0.127 -0.016 0.009 -0.038
C11UE 0.127 0.177 0.13 -0.038 -0.009 0.016
C11RB 0.13 0.177 0.127 -0.016 0.009 -0.038
C12KC 0.256 0.138 0.177 0.028 0.001 0.015
C12AC 0.177 0.256 0.138 -0.015 0.028 -0.001
C12MD 0.256 0.177 0.138 0.028 0.015 0.001
C12PD 0.138 0.177 0.256 0.001 -0.015 -0.028
C12SA 0.256 0.177 0.138 0.028 0.015 0.001
C12WC 0.177 0.138 0.256 -0.015 -0.001 0.028
C12EF 0.256 0.138 0.177 0.028 0.001 0.015
C12CA 0.177 0.138 0.256 -0.015 -0.001 0.028
C12HG 0.138 0.256 0.177 0.001 -0.028 -0.015
C12UE 0.177 0.256 0.138 -0.015 0.028 -0.001
C12RB 0.138 0.256 0.177 0.001 -0.028 -0.015
C13KC 0.12 0.142 0.18 -0.041 -0.053 0.022
C13AC 0.18 0.12 0.142 -0.022 -0.041 0.053
C13MD 0.12 0.18 0.142 -0.041 0.022 -0.053
C13PD 0.142 0.18 0.12 -0.053 -0.022 0.041
C13SA 0.12 0.18 0.142 -0.041 0.022 -0.053
C13WC 0.18 0.142 0.12 -0.022 0.053 -0.041
C13EF 0.12 0.142 0.18 -0.041 -0.053 0.022
C13CA 0.18 0.142 0.12 -0.022 0.053 -0.041
C13HG 0.142 0.12 0.18 -0.053 0.041 -0.022
C13UE 0.18 0.12 0.142 -0.022 -0.041 0.053
C13RB 0.142 0.12 0.18 -0.053 0.041 -0.022
C14KC 0.127 0.193 0.184 -0.009 -0.008 -0.022
C14AC 0.184 0.127 0.193 0.022 -0.009 0.008
C14MD 0.127 0.184 0.193 -0.009 -0.022 -0.008
C14PD 0.193 0.184 0.127 -0.008 0.022 0.009
C14SA 0.127 0.184 0.193 -0.009 -0.022 -0.008
C14WC 0.184 0.193 0.127 0.022 0.008 -0.009
C14EF 0.127 0.193 0.184 -0.009 -0.008 -0.022
C14CA 0.184 0.193 0.127 0.022 0.008 -0.009
C14HG 0.193 0.127 0.184 -0.008 0.009 0.022
C14UE 0.184 0.127 0.193 0.022 -0.009 0.008
C14RB 0.193 0.127 0.184 -0.008 0.009 0.022
Pb2? 0.0713(16) 0.103(2) 0.065(2) 0.000 -0.0217(14) 0.000
Cd1? 0.0397(18) 0.126(4) 0.037(2) 0.000 -0.0040(16) 0.000
loop_
_geom_bond_atom_site_label_1
_geom_bond_atom_site_label_2
_geom_bond_site_symmetry_1
_geom_bond_site_symmetry_2
Pb1 O3 1_555 1_555
O3 C1 1_555 1_555
O4 Pb1 1_555 1_555
O5 Pb1 1_555 1_555
C1 O4 1_555 1_555
C2 C1 1_555 1_555
C3 C2 1_555 1_555
H1 C3 1_555 1_555
C4 C3 1_555 1_555
C5 C4 1_555 1_555
C6 C5 1_555 1_555
H2 C6 1_555 1_555
C7 C2 1_555 1_555
H3 C7 1_555 1_555
C8 C4 1_555 1_555
C9 C8 1_555 1_555
C10 C5 1_555 1_555
C11 C8 1_555 1_555
H4 C11 1_555 1_555
H5 C11 1_555 1_555
C12 C11 1_555 1_555
H6 C12 1_555 1_555
H7 C12 1_555 1_555
H8 C12 1_555 1_555
C13 C8 1_555 1_555
H9 C13 1_555 1_555
H10 C13 1_555 1_555
C14 C13 1_555 1_555
H11 C14 1_555 1_555
H12 C14 1_555 1_555
H13 C14 1_555 1_555
O6 Pb1 1_555 1_555
Pb1W O4 1_555 1_555
Pb1SA O5 1_555 1_555
Pb1PD O5 1_555 1_555
Pb1RD O3AC 1_555 1_555
Pb1P O4AC 1_555 1_555
Pb1AG O3KC 1_555 1_555
Pb1JD O3RB 1_555 1_555
Pb1WC O3WC 1_555 1_555
Pb1TF O4WC 1_555 1_555
Pb1PA O3HG 1_555 1_555
Pb1OF O4HG 1_555 1_555
Pb1EF O3EF 1_555 1_555
Pb1B O3UE 1_555 1_555
Pb1MA O4UE 1_555 1_555
Pb1CA O3CA 1_555 1_555
Pb1TE O4CA 1_555 1_555
Pb1SE O4RB 1_555 1_555
O3OE Pb1 1_555 1_555
O3W Pb1W 1_555 1_555
O3MD Pb1W 1_555 1_555
O3SA Pb1SA 1_555 1_555
O3ME Pb1SA 1_555 1_555
O3PD Pb1PD 1_555 1_555
O3UB Pb1PD 1_555 1_555
O3AC C1AC 1_555 1_555
O3KC C1KC 1_555 1_555
O3WC C1WC 1_555 1_555
O3HG C1HG 1_555 1_555
O3EF C1EF 1_555 1_555
O3UE C1UE 1_555 1_555
O3CA C1CA 1_555 1_555
O3RB C1RB 1_555 1_555
O4SA Pb1 1_555 1_555
O4OE Pb1 1_555 1_555
O4ME Pb1 1_555 1_555
O4W Pb1W 1_555 1_555
O4MD Pb1W 1_555 1_555
O4PD Pb1SA 1_555 1_555
O4UB Pb1SA 1_555 1_555
O4AC Pb1RD 1_555 1_555
O4KC Pb1AG 1_555 1_555
O4WC Pb1WC 1_555 1_555
O4HG Pb1PA 1_555 1_555
O4EF Pb1PA 1_555 1_555
O4UE Pb1B 1_555 1_555
O4CA Pb1CA 1_555 1_555
O4RB Pb1JD 1_555 1_555
C1MD O3MD 1_555 1_555
C1PD O3PD 1_555 1_555
C1SA O3SA 1_555 1_555
C1AC O4AC 1_555 1_555
C1KC O4KC 1_555 1_555
C1WC O4WC 1_555 1_555
C1HG O4HG 1_555 1_555
C1EF O4EF 1_555 1_555
C1UE O4UE 1_555 1_555
C1CA O4CA 1_555 1_555
C1RB O4RB 1_555 1_555
C2MD C1MD 1_555 1_555
C2PD C1PD 1_555 1_555
C2SA C1SA 1_555 1_555
C2AC C1AC 1_555 1_555
C2KC C1KC 1_555 1_555
C2WC C1WC 1_555 1_555
C2HG C1HG 1_555 1_555
C2EF C1EF 1_555 1_555
C2UE C1UE 1_555 1_555
C2CA C1CA 1_555 1_555
C2RB C1RB 1_555 1_555
C3MD C2MD 1_555 1_555
C3PD C2PD 1_555 1_555
C3SA C2SA 1_555 1_555
C3AC C2AC 1_555 1_555
C3KC C2KC 1_555 1_555
C3WC C2WC 1_555 1_555
C3HG C2HG 1_555 1_555
C3EF C2EF 1_555 1_555
C3UE C2UE 1_555 1_555
C3CA C2CA 1_555 1_555
C3RB C2RB 1_555 1_555
H1MD C3MD 1_555 1_555
H1PD C3PD 1_555 1_555
H1SA C3SA 1_555 1_555
H1AC C3AC 1_555 1_555
H1KC C3KC 1_555 1_555
H1WC C3WC 1_555 1_555
H1HG C3HG 1_555 1_555
H1EF C3EF 1_555 1_555
H1UE C3UE 1_555 1_555
H1CA C3CA 1_555 1_555
H1RB C3RB 1_555 1_555
C4AC C3AC 1_555 1_555
C4KC C3KC 1_555 1_555
C4MD C3MD 1_555 1_555
C4PD C3PD 1_555 1_555
C4SA C3SA 1_555 1_555
C4WC C3WC 1_555 1_555
C4HG C3HG 1_555 1_555
C4EF C3EF 1_555 1_555
C4UE C3UE 1_555 1_555
C4CA C3CA 1_555 1_555
C4RB C3RB 1_555 1_555
C5AC C4AC 1_555 1_555
C5KC C4KC 1_555 1_555
C5MD C4MD 1_555 1_555
C5PD C4PD 1_555 1_555
C5SA C4SA 1_555 1_555
C5HG C4HG 1_555 1_555
C5UE C4UE 1_555 1_555
C5RB C4RB 1_555 1_555
C5WC C4WC 1_555 1_555
C5EF C4EF 1_555 1_555
C5CA C4CA 1_555 1_555
C6AC C5AC 1_555 1_555
C6KC C5KC 1_555 1_555
C6MD C5MD 1_555 1_555
C6PD C5PD 1_555 1_555
C6SA C5SA 1_555 1_555
C6HG C5HG 1_555 1_555
C6UE C5UE 1_555 1_555
C6RB C5RB 1_555 1_555
C6WC C5WC 1_555 1_555
C6EF C5EF 1_555 1_555
C6CA C5CA 1_555 1_555
H2AC C6AC 1_555 1_555
H2KC C6KC 1_555 1_555
H2MD C6MD 1_555 1_555
H2PD C6PD 1_555 1_555
H2SA C6SA 1_555 1_555
H2HG C6HG 1_555 1_555
H2UE C6UE 1_555 1_555
H2RB C6RB 1_555 1_555
H2WC C6WC 1_555 1_555
H2EF C6EF 1_555 1_555
H2CA C6CA 1_555 1_555
C7MD C2MD 1_555 1_555
C7PD C2PD 1_555 1_555
C7SA C2SA 1_555 1_555
C7AC C2AC 1_555 1_555
C7KC C2KC 1_555 1_555
C7HG C2HG 1_555 1_555
C7UE C2UE 1_555 1_555
C7RB C2RB 1_555 1_555
C7WC C2WC 1_555 1_555
C7EF C2EF 1_555 1_555
C7CA C2CA 1_555 1_555
H3MD C7MD 1_555 1_555
H3PD C7PD 1_555 1_555
H3SA C7SA 1_555 1_555
H3AC C7AC 1_555 1_555
H3KC C7KC 1_555 1_555
H3HG C7HG 1_555 1_555
H3UE C7UE 1_555 1_555
H3RB C7RB 1_555 1_555
H3WC C7WC 1_555 1_555
H3EF C7EF 1_555 1_555
H3CA C7CA 1_555 1_555
C8KC C4KC 1_555 1_555
C8AC C4AC 1_555 1_555
C8MD C4MD 1_555 1_555
C8PD C4PD 1_555 1_555
C8SA C4SA 1_555 1_555
C8WC C4WC 1_555 1_555
C8EF C4EF 1_555 1_555
C8CA C4CA 1_555 1_555
C8HG C4HG 1_555 1_555
C8UE C4UE 1_555 1_555
C8RB C4RB 1_555 1_555
C9KC C10 1_555 1_555
C9AC C8AC 1_555 1_555
C9MD C8MD 1_555 1_555
C9PD C8PD 1_555 1_555
C9SA C8SA 1_555 1_555
C9WC C8WC 1_555 1_555
C9EF C8EF 1_555 1_555
C9CA C8CA 1_555 1_555
C9HG C8HG 1_555 1_555
C9UE C8UE 1_555 1_555
C9RB C8RB 1_555 1_555
C10AC C9 1_555 1_555
C10KC C5KC 1_555 1_555
C10MD C5MD 1_555 1_555
C10PD C5PD 1_555 1_555
C10SA C5SA 1_555 1_555
C10HG C5HG 1_555 1_555
C10UE C5UE 1_555 1_555
C10RB C5RB 1_555 1_555
C10WC C5WC 1_555 1_555
C10EF C5EF 1_555 1_555
C10CA C5CA 1_555 1_555
C11KC C8KC 1_555 1_555
C11AC C8AC 1_555 1_555
C11MD C8MD 1_555 1_555
C11PD C8PD 1_555 1_555
C11SA C8SA 1_555 1_555
C11WC C8WC 1_555 1_555
C11EF C8EF 1_555 1_555
C11CA C8CA 1_555 1_555
C11HG C8HG 1_555 1_555
C11UE C8UE 1_555 1_555
C11RB C8RB 1_555 1_555
H4KC C11KC 1_555 1_555
H4AC C11AC 1_555 1_555
H4MD C11MD 1_555 1_555
H4PD C11PD 1_555 1_555
H4SA C11SA 1_555 1_555
H4WC C11WC 1_555 1_555
H4EF C11EF 1_555 1_555
H4CA C11CA 1_555 1_555
H4HG C11HG 1_555 1_555
H4UE C11UE 1_555 1_555
H4RB C11RB 1_555 1_555
H5KC C11KC 1_555 1_555
H5AC C11AC 1_555 1_555
H5MD C11MD 1_555 1_555
H5PD C11PD 1_555 1_555
H5SA C11SA 1_555 1_555
H5WC C11WC 1_555 1_555
H5EF C11EF 1_555 1_555
H5CA C11CA 1_555 1_555
H5HG C11HG 1_555 1_555
H5UE C11UE 1_555 1_555
H5RB C11RB 1_555 1_555
C12KC C11KC 1_555 1_555
C12AC C11AC 1_555 1_555
C12MD C11MD 1_555 1_555
C12PD C11PD 1_555 1_555
C12SA C11SA 1_555 1_555
C12WC C11WC 1_555 1_555
C12EF C11EF 1_555 1_555
C12CA C11CA 1_555 1_555
C12HG C11HG 1_555 1_555
C12UE C11UE 1_555 1_555
C12RB C11RB 1_555 1_555
H6KC C12KC 1_555 1_555
H6AC C12AC 1_555 1_555
H6MD C12MD 1_555 1_555
H6PD C12PD 1_555 1_555
H6SA C12SA 1_555 1_555
H6WC C12WC 1_555 1_555
H6EF C12EF 1_555 1_555
H6CA C12CA 1_555 1_555
H6HG C12HG 1_555 1_555
H6UE C12UE 1_555 1_555
H6RB C12RB 1_555 1_555
H7KC C12KC 1_555 1_555
H7AC C12AC 1_555 1_555
H7MD C12MD 1_555 1_555
H7PD C12PD 1_555 1_555
H7SA C12SA 1_555 1_555
H7WC C12WC 1_555 1_555
H7EF C12EF 1_555 1_555
H7CA C12CA 1_555 1_555
H7HG C12HG 1_555 1_555
H7UE C12UE 1_555 1_555
H7RB C12RB 1_555 1_555
H8KC C12KC 1_555 1_555
H8AC C12AC 1_555 1_555
H8MD C12MD 1_555 1_555
H8PD C12PD 1_555 1_555
H8SA C12SA 1_555 1_555
H8WC C12WC 1_555 1_555
H8EF C12EF 1_555 1_555
H8CA C12CA 1_555 1_555
H8HG C12HG 1_555 1_555
H8UE C12UE 1_555 1_555
H8RB C12RB 1_555 1_555
C13KC C8KC 1_555 1_555
C13AC C8AC 1_555 1_555
C13MD C8MD 1_555 1_555
C13PD C8PD 1_555 1_555
C13SA C8SA 1_555 1_555
C13WC C8WC 1_555 1_555
C13EF C8EF 1_555 1_555
C13CA C8CA 1_555 1_555
C13HG C8HG 1_555 1_555
C13UE C8UE 1_555 1_555
C13RB C8RB 1_555 1_555
H9KC C13KC 1_555 1_555
H9AC C13AC 1_555 1_555
H9MD C13MD 1_555 1_555
H9PD C13PD 1_555 1_555
H9SA C13SA 1_555 1_555
H9WC C13WC 1_555 1_555
H9EF C13EF 1_555 1_555
H9CA C13CA 1_555 1_555
H9HG C13HG 1_555 1_555
H9UE C13UE 1_555 1_555
H9RB C13RB 1_555 1_555
H10KC C13KC 1_555 1_555
H10AC C13AC 1_555 1_555
H10MD C13MD 1_555 1_555
H10PD C13PD 1_555 1_555
H10SA C13SA 1_555 1_555
H10WC C13WC 1_555 1_555
H10EF C13EF 1_555 1_555
H10CA C13CA 1_555 1_555
H10HG C13HG 1_555 1_555
H10UE C13UE 1_555 1_555
H10RB C13RB 1_555 1_555
C14KC C13KC 1_555 1_555
C14AC C13AC 1_555 1_555
C14MD C13MD 1_555 1_555
C14PD C13PD 1_555 1_555
C14SA C13SA 1_555 1_555
C14WC C13WC 1_555 1_555
C14EF C13EF 1_555 1_555
C14CA C13CA 1_555 1_555
C14HG C13HG 1_555 1_555
C14UE C13UE 1_555 1_555
C14RB C13RB 1_555 1_555
H11KC C14KC 1_555 1_555
H11AC C14AC 1_555 1_555
H11MD C14MD 1_555 1_555
H11PD C14PD 1_555 1_555
H11SA C14SA 1_555 1_555
H11WC C14WC 1_555 1_555
H11EF C14EF 1_555 1_555
H11CA C14CA 1_555 1_555
H11HG C14HG 1_555 1_555
H11UE C14UE 1_555 1_555
H11RB C14RB 1_555 1_555
H12KC C14KC 1_555 1_555
H12AC C14AC 1_555 1_555
H12MD C14MD 1_555 1_555
H12PD C14PD 1_555 1_555
H12SA C14SA 1_555 1_555
H12WC C14WC 1_555 1_555
H12EF C14EF 1_555 1_555
H12CA C14CA 1_555 1_555
H12HG C14HG 1_555 1_555
H12UE C14UE 1_555 1_555
H12RB C14RB 1_555 1_555
H13KC C14KC 1_555 1_555
H13AC C14AC 1_555 1_555
H13MD C14MD 1_555 1_555
H13PD C14PD 1_555 1_555
H13SA C14SA 1_555 1_555
H13WC C14WC 1_555 1_555
H13EF C14EF 1_555 1_555
H13CA C14CA 1_555 1_555
H13HG C14HG 1_555 1_555
H13UE C14UE 1_555 1_555
H13RB C14RB 1_555 1_555
O6W Pb1W 1_555 1_555
O6SA Pb1SA 1_555 1_555
O6PD Pb1PD 1_555 1_555
O5 Pb1W 1_555 1_555
C6 C7 1_555 1_555
C9 C10 1_555 1_555
Pb1W O4OE 1_555 1_555
Pb1SA O4SA 1_555 1_555
Pb1SA O4ME 1_555 1_555
Pb1PD O4W 1_555 1_555
Pb1PD O4MD 1_555 1_555
Pb1PD O4PD 1_555 1_555
Pb1PD O4UB 1_555 1_555
Pb1JD O4KC 1_555 1_555
Pb1EF O4EF 1_555 1_555
O4SA C1SA 1_555 1_555
O4MD C1MD 1_555 1_555
O4PD C1PD 1_555 1_555
C5AC C10AC 1_555 1_555
C6AC C7AC 1_555 1_555
C6KC C7KC 1_555 1_555
C6MD C7MD 1_555 1_555
C6PD C7PD 1_555 1_555
C6SA C7SA 1_555 1_555
C6HG C7HG 1_555 1_555
C6UE C7UE 1_555 1_555
C6RB C7RB 1_555 1_555
C6WC C7WC 1_555 1_555
C6EF C7EF 1_555 1_555
C6CA C7CA 1_555 1_555
C8KC C9KC 1_555 1_555
C9KC C10KC 1_555 1_555
C9AC C10AC 1_555 1_555
C9AC C10KC 1_555 1_555
C9MD C10MD 1_555 1_555
C9MD C10HG 1_555 1_555
C9PD C10PD 1_555 1_555
C9PD C10UE 1_555 1_555
C9SA C10SA 1_555 1_555
C9SA C10RB 1_555 1_555
C9WC C10MD 1_555 1_555
C9WC C10WC 1_555 1_555
C9EF C10PD 1_555 1_555
C9EF C10EF 1_555 1_555
C9CA C10SA 1_555 1_555
C9CA C10CA 1_555 1_555
C9HG C10HG 1_555 1_555
C9HG C10WC 1_555 1_555
C9UE C10UE 1_555 1_555
C9UE C10EF 1_555 1_555
C9RB C10RB 1_555 1_555
C9RB C10CA 1_555 1_555

#END
