
#######################################################################
#
#                 Cambridge Crystallographic Data Centre
#                                CCDC 
#
#######################################################################
#
# If this CIF has been generated from an entry in the Cambridge 
# Structural Database, then it will include bibliographic, chemical, 
# crystal, experimental, refinement or atomic coordinate data resulting 
# from the CCDC's data processing and validation procedures.
#
#######################################################################

data_NABMUA
_chemical_name_common            Mg-MOF-1
_chemical_formula_moiety         '(C7 H5 Mg1 N1 O5)n'
_chemical_name_systematic        
catena-((\m~5~-Pyridine-3,5-dicarboxylato)-aqua-magnesium)
_symmetry_cell_setting           hexagonal
_symmetry_space_group_name_H-M   'P 61 2 2'
_symmetry_Int_Tables_number      178
_space_group_name_Hall           'P 61 2 (0 0 5)'
loop_
_symmetry_equiv_pos_site_id
_symmetry_equiv_pos_as_xyz
1 x,y,z
2 x-y,x,1/6+z
3 -y,x-y,1/3+z
4 -x,-y,1/2+z
5 -x+y,-x,2/3+z
6 y,-x+y,5/6+z
7 -y,-x,5/6-z
8 x-y,-y,-z
9 x,x-y,1/6-z
10 y,x,1/3-z
11 -x+y,y,1/2-z
12 -x,-x+y,2/3-z
_cell_length_a                   11.4858(17)
_cell_length_b                   11.4858(17)
_cell_length_c                   14.756(3)
_cell_angle_alpha                90
_cell_angle_beta                 90
_cell_angle_gamma                120
_cell_volume                     1685.86
_exptl_crystal_colour            colorless
_exptl_crystal_description       prismatic
_cell_formula_units_Z            6
loop_
_atom_site_label
_atom_site_type_symbol
_atom_site_fract_x
_atom_site_fract_y
_atom_site_fract_z
_atom_site_U_iso_or_equiv
_atom_site_thermal_displace_type
Mg1 Mg 0.19347(10) -0.19347(10) 0.4167 0.0118 Uani
O1 O 0.3664(3) -0.0223(3) 0.3871(2) 0.0215 Uani
O2 O 0.3986(4) 0.1722(4) 0.4433(2) 0.0225 Uani
O3 O 0.0890(3) -0.0890(3) 0.4167 0.0373 Uani
N1 N 0.6932(3) 0.3865(6) 0.2500 0.0192 Uani
C1 C 0.4208(5) 0.1028(5) 0.3876(3) 0.0161 Uani
C2 C 0.5234(5) 0.1775(5) 0.3140(3) 0.0182 Uani
C3 C 0.5532(3) 0.1064(7) 0.2500 0.0203 Uani
H1 H 0.5069 0.0137 0.2500 0.0600 Uiso
C4 C 0.5922(5) 0.3158(5) 0.3087(3) 0.0197 Uani
H2 H 0.5675 0.3630 0.3480 0.0190 Uiso
Mg1A Mg 0.38694(14) 0.19347(10) 0.5834 0.0118 Uani
Mg1E Mg 0.80653(10) 0.61306(14) 0.2500 0.0118 Uani
Mg1J Mg 0.61306(14) -0.19347(10) 0.0833 0.0118 Uani
Mg1I Mg 0.80653(10) 0.19347(10) -0.0834 0.0118 Uani
O1J O 0.6113(4) -0.0223(3) 0.1129(2) 0.0215 Uani
O1F O 0.0223(3) -0.3664(3) 0.4462(2) 0.0215 Uani
O2J O 0.7736(6) 0.1722(4) 0.0567(2) 0.0225 Uani
O2E O 0.1722(4) -0.2264(6) 0.2766(2) 0.0225 Uani
O2G O 0.2264(6) -0.1722(4) 0.5567(2) 0.0225 Uani
N1A N 0.3067(7) -0.3068(3) 0.4167 0.0192 Uani
C1J C 0.6820(7) 0.1028(5) 0.1124(3) 0.0161 Uani
C2J C 0.6541(7) 0.1775(5) 0.1860(3) 0.0182 Uani
C4J C 0.7236(7) 0.3158(5) 0.1913(3) 0.0197 Uani
H2J H 0.7955 0.3630 0.1520 0.0190 Uiso
loop_
_atom_site_aniso_label
_atom_site_aniso_U_11
_atom_site_aniso_U_22
_atom_site_aniso_U_33
_atom_site_aniso_U_23
_atom_site_aniso_U_13
_atom_site_aniso_U_12
Mg1 0.0116(8) 0.0116(8) 0.0105(10) 0.0003(7) 0.0003(7) 0.0045(9)
O1 0.0209(18) 0.0151(18) 0.0197(17) -0.0005(14) 0.0051(13) 0.0024(15)
O2 0.033(2) 0.0249(18) 0.0130(16) 0.0022(14) 0.0074(15) 0.0171(17)
O3 0.053(3) 0.053(3) 0.028(3) -0.008(2) -0.008(2) 0.043(3)
N1 0.024(2) 0.014(3) 0.016(3) 0.000 0.003(2) 0.0068(13)
C1 0.016(2) 0.017(2) 0.0120(19) -0.0016(18) -0.0027(18) 0.0057(19)
C2 0.022(2) 0.020(2) 0.012(2) 0.0007(19) 0.0040(19) 0.010(2)
C3 0.026(3) 0.015(3) 0.016(3) 0.000 0.003(2) 0.0074(16)
C4 0.023(2) 0.022(3) 0.015(2) -0.0034(19) 0.004(2) 0.012(2)
Mg1A 0.0142 0.0116 0.0105 0.0003 -6.21628e-20 0.0071
Mg1E 0.0116 0.0142 0.0105 6.21628e-20 0.0003 0.0071
Mg1J 0.0142 0.0116 0.0105 -0.0003 6.21628e-20 0.0071
Mg1I 0.0116 0.0116 0.0105 -0.0003 -0.0003 0.0045
O1J 0.0312 0.0151 0.0197 0.0005 0.0056 0.0127
O1F 0.0151 0.0209 0.0197 0.0051 -0.0005 0.0024
O2J 0.0237 0.0249 0.013 -0.0022 0.0052 0.0078
O2E 0.0249 0.0237 0.013 -0.0052 0.0022 0.0078
O2G 0.0237 0.0249 0.013 0.0022 -0.0052 0.0078
N1A 0.0244 0.024 0.016 0.003 0.003 0.0172
C1J 0.0216 0.017 0.012 0.0016 -0.0011 0.0113
C2J 0.022 0.02 0.012 -0.0007 0.0033 0.01
C4J 0.021 0.022 0.015 0.0034 0.0074 0.01
loop_
_geom_bond_atom_site_label_1
_geom_bond_atom_site_label_2
_geom_bond_site_symmetry_1
_geom_bond_site_symmetry_2
Mg1 O1 1_555 1_555
O1 C1 1_555 1_555
O2 C1 1_555 1_555
O3 Mg1 1_555 1_555
N1 C4 1_555 1_555
C1 C2 1_555 1_555
C2 C3 1_555 1_555
C3 H1 1_555 1_555
C4 C2 1_555 1_555
H2 C4 1_555 1_555
Mg1A O2 1_555 1_555
Mg1E N1 1_555 1_555
Mg1J O1J 1_555 1_555
Mg1I O2J 1_555 1_555
O1J C1J 1_555 1_555
O1F Mg1 1_555 1_555
O2J C1J 1_555 1_555
O2E Mg1 1_555 1_555
O2G Mg1 1_555 1_555
N1A Mg1 1_555 1_555
C1J C2J 1_555 1_555
C2J C3 1_555 1_555
C4J N1 1_555 1_555
H2J C4J 1_555 1_555
C2J C4J 1_555 1_555

#END
