
#######################################################################
#
#                 Cambridge Crystallographic Data Centre
#                                CCDC 
#
#######################################################################
#
# If this CIF has been generated from an entry in the Cambridge 
# Structural Database, then it will include bibliographic, chemical, 
# crystal, experimental, refinement or atomic coordinate data resulting 
# from the CCDC's data processing and validation procedures.
#
#######################################################################

data_KUSQUM
_chemical_name_common            'M MOF-4'
_chemical_formula_moiety         '(C104 H104 Cd6 Cu2 N12 O32)n'
_chemical_name_systematic        
"catena-[hexakis(\m-terephthalato)-bis(\m-3,3'-((1,2,2-trimethylcyclopentane-1,3-diyl)bis[nitrilomethylylidene])bis(5-methylpyridin-4-olate))-tetrakis(N,N-dimethylformamide)-di-copper-hexa-cadmium unknown solvate]"
_symmetry_cell_setting           monoclinic
_symmetry_space_group_name_H-M   'C 2'
_symmetry_Int_Tables_number      5
_space_group_name_Hall           'C 2y'
loop_
_symmetry_equiv_pos_site_id
_symmetry_equiv_pos_as_xyz
1 x,y,z
2 -x,y,-z
3 1/2+x,1/2+y,z
4 1/2-x,1/2+y,-z
_cell_length_a                   40.537(3)
_cell_length_b                   10.1920(8)
_cell_length_c                   18.2312(13)
_cell_angle_alpha                90
_cell_angle_beta                 95.188(2)
_cell_angle_gamma                90
_cell_volume                     7501.42
_exptl_crystal_colour            blue
_exptl_crystal_description       plate
_cell_formula_units_Z            2
loop_
_atom_site_label
_atom_site_type_symbol
_atom_site_fract_x
_atom_site_fract_y
_atom_site_fract_z
Cd1 Cd 0.662997(15) 0.20986(13) 0.72892(3)
Cd2 Cd 0.837496(15) 0.36213(13) 0.77079(3)
Cd3 Cd 0.75041(2) 0.28616(17) 0.74979(5)
O1 O 0.72815(17) 0.3269(11) 0.6365(4)
O2 O 0.67413(18) 0.3589(11) 0.6429(4)
O3 O 0.71470(18) 0.6529(11) 0.3001(4)
O4 O 0.6631(2) 0.7249(10) 0.3226(4)
C1 C 0.6980(3) 0.4551(13) 0.5433(5)
C2 C 0.7249(2) 0.4548(17) 0.4994(5)
H1 H 0.7447 0.4086 0.5145
C3 C 0.7217(2) 0.5228(17) 0.4346(6)
H2 H 0.7397 0.5242 0.4047
C4 C 0.6945(3) 0.5860(15) 0.4123(5)
C5 C 0.6678(3) 0.5871(15) 0.4595(7)
H3 H 0.6483 0.6360 0.4458
C6 C 0.6706(3) 0.5189(16) 0.5227(6)
H4 H 0.6526 0.5168 0.5527
C7 C 0.7014(3) 0.3713(15) 0.6132(6)
C8 C 0.6898(4) 0.6675(13) 0.3399(6)
O5 O 0.66608(18) 0.3435(9) 0.8254(4)
O6 O 0.71516(18) 0.4185(9) 0.8035(3)
O7 O 0.67413(18) 0.7227(11) 1.1423(4)
O8 O 0.72814(18) 0.7422(9) 1.1362(3)
C9 C 0.6931(3) 0.4811(12) 0.9120(5)
C10 C 0.6670(3) 0.4865(16) 0.9535(6)
H5 H 0.6469 0.4440 0.9367
C11 C 0.6693(3) 0.5524(14) 1.0193(6)
H6 H 0.6510 0.5503 1.0485
C12 C 0.6981(2) 0.6234(15) 1.0449(5)
C13 C 0.7234(2) 0.6147(16) 1.0047(6)
H7 H 0.7438 0.6530 1.0233
C14 C 0.7220(3) 0.553(2) 0.9363(6)
H8 H 0.7400 0.5582 0.9067
C15 C 0.6916(2) 0.4132(13) 0.8405(6)
C16 C 0.6990(3) 0.6984(15) 1.1143(5)
O9 O 0.78651(17) 0.4585(8) 0.7370(4)
O10 O 0.81685(18) 0.5653(10) 0.8230(4)
O11 O 0.6835(2) 1.0037(10) 0.6771(5)
O12 O 0.71313(18) 1.1127(9) 0.7630(4)
C17 C 0.7695(3) 0.6782(11) 0.7646(7)
C18 C 0.7485(2) 0.6756(12) 0.7030(8)
H9 H 0.7466 0.6036 0.6698
C19 C 0.7288(3) 0.7979(17) 0.6929(8)
H10 H 0.7138 0.8028 0.6498
C20 C 0.7297(3) 0.9002(13) 0.7369(6)
C21 C 0.7539(2) 0.8859(12) 0.7980(6)
H11 H 0.7564 0.9580 0.8310
C22 C 0.7729(2) 0.7862(12) 0.8135(6)
H12 H 0.7883 0.7852 0.8559
C23 C 0.7918(3) 0.5557(13) 0.7768(6)
C24 C 0.7071(3) 1.0065(14) 0.7236(7)
O13 O 0.64510(17) 0.0572(9) 0.8183(3)
N1 N 0.6602(3) -0.0141(15) 0.9323(5)
C25 C 0.6611(3) 0.0612(12) 0.8771(5)
H13 H 0.6768 0.1307 0.8830
C26 C 0.6320(6) -0.106(3) 0.9320(12)
H14 H 0.6354 -0.1653 0.9744
H15 H 0.6304 -0.1577 0.8864
H16 H 0.6114 -0.0567 0.9350
C27 C 0.6788(7) 0.009(3) 1.0051(8)
H17 H 0.6753 -0.0649 1.0378
H18 H 0.6708 0.0900 1.0266
H19 H 0.7024 0.0177 0.9988
O14 O 0.8554(2) 0.5114(10) 0.6797(4)
N2 N 0.8390(3) 0.5917(13) 0.5683(5)
C28 C 0.8387(3) 0.5113(13) 0.6216(6)
H20 H 0.8233 0.4415 0.6146
C29 C 0.8546(7) 0.7207(19) 0.5857(14)
H21 H 0.8554 0.7714 0.5403
H22 H 0.8771 0.7076 0.6088
H23 H 0.8415 0.7686 0.6196
C30 C 0.8157(4) 0.5864(17) 0.5006(6)
H24 H 0.8220 0.6529 0.4656
H25 H 0.7931 0.6035 0.5134
H26 H 0.8167 0.4992 0.4782
Cu1 Cu 0.48436(6) 0.0827(3) 0.55980(19)
O15 O 0.5217(3) 0.1921(14) 0.5501(7)
N3 N 0.6120(4) 0.203(2) 0.6703(10)
N4 N 0.5118(3) -0.0370(14) 0.6250(8)
C31 C 0.5924(4) 0.097(2) 0.6728(9)
H27 H 0.6007 0.0220 0.6991
C32 C 0.5597(4) 0.0937(19) 0.6374(8)
C33 C 0.5496(4) 0.199(2) 0.5857(10)
C34 C 0.5741(5) 0.3055(18) 0.5792(11)
C35 C 0.6025(4) 0.3043(17) 0.6247(9)
H28 H 0.6166 0.3787 0.6247
C36 C 0.5639(6) 0.424(2) 0.5342(14)
H29 H 0.5732 0.5031 0.5591
H30 H 0.5397 0.4305 0.5286
H31 H 0.5722 0.4170 0.4856
C37 C 0.5401(4) -0.0135(18) 0.6509(8)
H32 H 0.5499 -0.0768 0.6844
C38 C 0.4964(5) -0.1616(17) 0.6593(11)
H33 H 0.5125 -0.2190 0.6889
C39 C 0.4714(4) -0.0894(17) 0.7041(8)
H34 H 0.4711 -0.1299 0.7534
H35 H 0.4778 0.0039 0.7107
C40 C 0.4369(3) -0.0995(18) 0.6618(9)
H36 H 0.4220 -0.1540 0.6893
H37 H 0.4269 -0.0113 0.6541
C41 C 0.4424(4) -0.1635(16) 0.5877(10)
C42 C 0.4119(4) -0.2371(17) 0.5676(9)
H38 H 0.3932 -0.1916 0.5867
H39 H 0.4139 -0.3254 0.5888
H40 H 0.4082 -0.2434 0.5138
C43 C 0.4741(3) -0.2303(17) 0.6039(9)
C44 C 0.4699(4) -0.3689(17) 0.6357(10)
H41 H 0.4850 -0.3799 0.6804
H42 H 0.4749 -0.4347 0.5991
H43 H 0.4470 -0.3802 0.6477
C45 C 0.4902(6) -0.251(3) 0.5313(11)
H44 H 0.5086 -0.1896 0.5288
H45 H 0.4737 -0.2363 0.4895
H46 H 0.4986 -0.3414 0.5295
Cu2 Cu 0.99701(16) 0.5522(3) 1.0171(2)
C46 C 1.0063(7) 0.773(4) 1.2137(13)
C47 C 0.9735(6) 0.836(3) 1.0928(11)
C48 C 0.9662(8) 0.966(2) 1.1311(19)
H47 H 0.9425 0.9860 1.1227
H48 H 0.9790 1.0367 1.1109
H49 H 0.9724 0.9580 1.1841
C49 C 0.9994(8) 0.870(4) 1.0388(16)
H50 H 0.9883 0.8803 0.9891
H51 H 1.0157 0.7986 1.0387
H52 H 1.0106 0.9515 1.0542
O16 O 0.9806(5) 0.445(2) 0.9371(10)
N5 N 0.8906(4) 0.399(2) 0.8255(9)
N6 N 0.9548(3) 0.6422(16) 1.0163(8)
C50 C 0.8951(4) 0.478(2) 0.8771(10)
H53 H 0.8763 0.5270 0.8892
C51 C 0.9264(4) 0.5052(19) 0.9212(10)
C52 C 0.9517(5) 0.416(2) 0.9066(11)
C53 C 0.9456(6) 0.317(3) 0.8587(14)
C54 C 0.9132(5) 0.319(3) 0.8187(13)
H54 H 0.9087 0.2521 0.7830
C55 C 0.9730(7) 0.221(3) 0.852(2)
H55 H 0.9640 0.1408 0.8274
H56 H 0.9833 0.1985 0.9008
H57 H 0.9895 0.2593 0.8223
C56 C 0.9307(5) 0.619(2) 0.9633(11)
H58 H 0.9148 0.6866 0.9532
C57 C 0.9432(7) 0.776(2) 1.0477(13)
H59 H 0.9289 0.8354 1.0146
C58 C 0.9277(5) 0.703(3) 1.1096(13)
H60 H 0.9171 0.6209 1.0904
H61 H 0.9106 0.7583 1.1299
C59 C 0.9556(6) 0.672(3) 1.1697(14)
H62 H 0.9569 0.5766 1.1790
H63 H 0.9516 0.7173 1.2162
C60 C 0.9881(5) 0.722(3) 1.1410(13)
H64 H 0.9905 0.8187 1.2423
H65 H 1.0238 0.8340 1.2025
H66 H 1.0160 0.6990 1.2423
O17 O 1.0312(3) 0.4115(15) 1.0232(8)
N7 N 1.1149(4) 0.373(2) 1.1607(10)
N8 N 1.0157(4) 0.649(2) 1.1010(9)
C61 C 1.0972(5) 0.481(3) 1.1687(14)
H67 H 1.1045 0.5450 1.2045
C62 C 1.0658(4) 0.501(2) 1.1211(11)
C63 C 1.0573(5) 0.407(2) 1.0664(11)
C64 C 1.0795(7) 0.292(3) 1.0546(16)
C65 C 1.1070(8) 0.290(4) 1.1048(18)
H68 H 1.1224 0.2216 1.0990
C66 C 1.0654(7) 0.193(3) 0.9992(16)
H69 H 1.0420 0.2135 0.9854
H70 H 1.0673 0.1054 1.0207
H71 H 1.0777 0.1971 0.9554
C67 C 1.0465(5) 0.618(2) 1.1367(12)
H72 H 1.0557 0.6766 1.1737
O15A O 0.4783(3) 0.1921(14) 0.4499(7)
N3A N 0.3880(4) 0.203(2) 0.3297(10)
N4A N 0.4882(3) -0.0370(14) 0.3750(8)
C31A C 0.4076(4) 0.097(2) 0.3272(9)
H27A H 0.3993 0.0220 0.3009
C32A C 0.4403(4) 0.0937(19) 0.3626(8)
C33A C 0.4504(4) 0.199(2) 0.4143(10)
C34A C 0.4259(5) 0.3055(18) 0.4208(11)
C35A C 0.3975(4) 0.3043(17) 0.3753(9)
H28A H 0.3834 0.3787 0.3753
C36A C 0.4361(6) 0.424(2) 0.4658(14)
H29A H 0.4268 0.5031 0.4409
H30A H 0.4603 0.4305 0.4714
H31A H 0.4278 0.4170 0.5144
C37A C 0.4599(4) -0.0135(18) 0.3491(8)
H32A H 0.4501 -0.0768 0.3156
C38A C 0.5036(5) -0.1616(17) 0.3407(11)
H33A H 0.4875 -0.2190 0.3111
C39A C 0.5286(4) -0.0894(17) 0.2959(8)
H34A H 0.5289 -0.1299 0.2466
H35A H 0.5222 0.0039 0.2893
C40A C 0.5631(3) -0.0995(18) 0.3382(9)
H36A H 0.5780 -0.1540 0.3107
H37A H 0.5731 -0.0113 0.3459
C41A C 0.5576(4) -0.1635(16) 0.4123(10)
C42A C 0.5881(4) -0.2371(17) 0.4324(9)
H38A H 0.6068 -0.1916 0.4133
H39A H 0.5861 -0.3254 0.4112
H40A H 0.5918 -0.2434 0.4862
C43A C 0.5259(3) -0.2303(17) 0.3961(9)
C44A C 0.5301(4) -0.3689(17) 0.3643(10)
H41A H 0.5150 -0.3799 0.3196
H42A H 0.5251 -0.4347 0.4009
H43A H 0.5530 -0.3802 0.3523
C45A C 0.5098(6) -0.251(3) 0.4687(11)
H44A H 0.4914 -0.1896 0.4712
H45A H 0.5263 -0.2363 0.5105
H46A H 0.5014 -0.3414 0.4705
C46A C 0.9937(7) 0.773(4) 0.7863(13)
C47A C 1.0265(6) 0.836(3) 0.9072(11)
C48A C 1.0338(8) 0.966(2) 0.8689(19)
H47A H 1.0575 0.9860 0.8773
H48A H 1.0210 1.0367 0.8891
H49A H 1.0276 0.9580 0.8159
C49A C 1.0006(8) 0.870(4) 0.9612(16)
H50A H 1.0117 0.8803 1.0109
H51A H 0.9843 0.7986 0.9613
H52A H 0.9894 0.9515 0.9458
O16A O 1.0194(5) 0.445(2) 1.0629(10)
N5A N 1.1094(4) 0.399(2) 1.1745(9)
N6A N 1.0452(3) 0.6422(16) 0.9837(8)
C50A C 1.1049(4) 0.478(2) 1.1229(10)
H53A H 1.1237 0.5270 1.1108
C51A C 1.0736(4) 0.5052(19) 1.0788(10)
C52A C 1.0483(5) 0.416(2) 1.0934(11)
C53A C 1.0544(6) 0.317(3) 1.1413(14)
C54A C 1.0868(5) 0.319(3) 1.1813(13)
H54A H 1.0913 0.2521 1.2170
C55A C 1.0270(7) 0.221(3) 1.148(2)
H55A H 1.0360 0.1408 1.1726
H56A H 1.0167 0.1985 1.0992
H57A H 1.0105 0.2593 1.1777
C56A C 1.0693(5) 0.619(2) 1.0367(11)
H58A H 1.0852 0.6866 1.0468
C57A C 1.0568(7) 0.776(2) 0.9523(13)
H59A H 1.0711 0.8354 0.9854
C58A C 1.0723(5) 0.703(3) 0.8904(13)
H60A H 1.0829 0.6209 0.9096
H61A H 1.0894 0.7583 0.8701
C59A C 1.0444(6) 0.672(3) 0.8303(14)
H62A H 1.0431 0.5766 0.8210
H63A H 1.0484 0.7173 0.7838
C60A C 1.0119(5) 0.722(3) 0.8590(13)
H64A H 1.0095 0.8187 0.7577
H65A H 0.9762 0.8340 0.7975
H66A H 0.9840 0.6990 0.7577
O17A O 0.9688(3) 0.4115(15) 0.9768(8)
N7A N 0.8851(4) 0.373(2) 0.8393(10)
N8A N 0.9843(4) 0.649(2) 0.8990(9)
C61A C 0.9028(5) 0.481(3) 0.8313(14)
H67A H 0.8955 0.5450 0.7955
C62A C 0.9342(4) 0.501(2) 0.8789(11)
C63A C 0.9427(5) 0.407(2) 0.9336(11)
C64A C 0.9205(7) 0.292(3) 0.9454(16)
C65A C 0.8930(8) 0.290(4) 0.8952(18)
H68A H 0.8776 0.2216 0.9010
C66A C 0.9346(7) 0.193(3) 1.0008(16)
H69A H 0.9580 0.2135 1.0146
H70A H 0.9327 0.1054 0.9793
H71A H 0.9223 0.1971 1.0446
C67A C 0.9535(5) 0.618(2) 0.8633(12)
H72A H 0.9443 0.6766 0.8263
Cd1A Cd 0.337003(15) 0.20986(13) 0.27108(3)
Cd2A Cd 0.162504(15) 0.36213(13) 0.22921(3)
Cd3A Cd 0.24959(2) 0.28616(17) 0.25021(5)
O1A O 0.27185(17) 0.3269(11) 0.3635(4)
O2A O 0.32587(18) 0.3589(11) 0.3571(4)
O3A O 0.28530(18) 0.6529(11) 0.6999(4)
O4A O 0.3369(2) 0.7249(10) 0.6774(4)
C1A C 0.3020(3) 0.4551(13) 0.4567(5)
C2A C 0.2751(2) 0.4548(17) 0.5006(5)
H1A H 0.2553 0.4086 0.4855
C3A C 0.2783(2) 0.5228(17) 0.5654(6)
H2A H 0.2603 0.5242 0.5953
C4A C 0.3055(3) 0.5860(15) 0.5877(5)
C5A C 0.3322(3) 0.5871(15) 0.5405(7)
H3A H 0.3517 0.6360 0.5542
C6A C 0.3294(3) 0.5189(16) 0.4773(6)
H4A H 0.3474 0.5168 0.4473
C7A C 0.2986(3) 0.3713(15) 0.3868(6)
C8A C 0.3102(4) 0.6675(13) 0.6601(6)
O5A O 0.33392(18) 0.3435(9) 0.1746(4)
O6A O 0.28484(18) 0.4185(9) 0.1965(3)
O7A O 0.32587(18) 0.7227(11) -0.1423(4)
O8A O 0.27186(18) 0.7422(9) -0.1362(3)
C9A C 0.3069(3) 0.4811(12) 0.0880(5)
C10A C 0.3330(3) 0.4865(16) 0.0465(6)
H5A H 0.3531 0.4440 0.0633
C11A C 0.3307(3) 0.5524(14) -0.0193(6)
H6A H 0.3490 0.5503 -0.0485
C12A C 0.3019(2) 0.6234(15) -0.0449(5)
C13A C 0.2766(2) 0.6147(16) -0.0047(6)
H7A H 0.2562 0.6530 -0.0233
C14A C 0.2780(3) 0.553(2) 0.0637(6)
H8A H 0.2600 0.5582 0.0933
C15A C 0.3084(2) 0.4132(13) 0.1595(6)
C16A C 0.3010(3) 0.6984(15) -0.1143(5)
O9A O 0.21349(17) 0.4585(8) 0.2630(4)
O10A O 0.18315(18) 0.5653(10) 0.1770(4)
O11A O 0.3165(2) 1.0037(10) 0.3229(5)
O12A O 0.28687(18) 1.1127(9) 0.2370(4)
C17A C 0.2305(3) 0.6782(11) 0.2354(7)
C18A C 0.2515(2) 0.6756(12) 0.2970(8)
H9A H 0.2534 0.6036 0.3302
C19A C 0.2712(3) 0.7979(17) 0.3071(8)
H10A H 0.2862 0.8028 0.3502
C20A C 0.2703(3) 0.9002(13) 0.2631(6)
C21A C 0.2461(2) 0.8859(12) 0.2020(6)
H11A H 0.2436 0.9580 0.1690
C22A C 0.2271(2) 0.7862(12) 0.1865(6)
H12A H 0.2117 0.7852 0.1441
C23A C 0.2082(3) 0.5557(13) 0.2232(6)
C24A C 0.2929(3) 1.0065(14) 0.2764(7)
O13A O 0.35490(17) 0.0572(9) 0.1817(3)
N1A N 0.3398(3) -0.0141(15) 0.0677(5)
C25A C 0.3389(3) 0.0612(12) 0.1229(5)
H13A H 0.3232 0.1307 0.1170
C26A C 0.3680(6) -0.106(3) 0.0680(12)
H14A H 0.3646 -0.1653 0.0256
H15A H 0.3696 -0.1577 0.1136
H16A H 0.3886 -0.0567 0.0650
C27A C 0.3212(7) 0.009(3) -0.0051(8)
H17A H 0.3247 -0.0649 -0.0378
H18A H 0.3292 0.0900 -0.0266
H19A H 0.2976 0.0177 0.0012
O14A O 0.1446(2) 0.5114(10) 0.3203(4)
N2A N 0.1610(3) 0.5917(13) 0.4317(5)
C28A C 0.1613(3) 0.5113(13) 0.3784(6)
H20A H 0.1767 0.4415 0.3854
C29A C 0.1454(7) 0.7207(19) 0.4143(14)
H21A H 0.1446 0.7714 0.4597
H22A H 0.1229 0.7076 0.3912
H23A H 0.1585 0.7686 0.3804
C30A C 0.1843(4) 0.5864(17) 0.4994(6)
H24A H 0.1780 0.6529 0.5344
H25A H 0.2069 0.6035 0.4866
H26A H 0.1833 0.4992 0.5218
Cu1A Cu 0.51564(6) 0.0827(3) 0.44020(19)
Cu2A Cu 1.00299(16) 0.5522(3) 0.9829(2)
Cd1_2 Cd 0.662997(15) 1.20986(13) 0.72892(3)
Cd1A_2 Cd 0.337003(15) 1.20986(13) 0.27108(3)
Cd2A_2 Cd 1.162504(15) 0.36213(13) 1.22921(3)
Cd2B Cd 0.337496(15) 0.86213(13) -0.22921(3)
Cd2B_2 Cd 0.337496(15) 0.86213(13) 0.77079(3)
Cd2C Cd 0.662504(15) 0.86213(13) 0.22921(3)
Cd2C_2 Cd 0.662504(15) 0.86213(13) 1.22921(3)
Cd3_2 Cd 0.75041(2) 1.28616(17) 0.74979(5)
Cd3A_2 Cd 0.24959(2) 1.28616(17) 0.25021(5)
Cd3B Cd 0.25041(2) 0.78616(17) -0.25021(5)
Cd3B_2 Cd 0.25041(2) 0.78616(17) 0.74979(5)
Cd3C Cd 0.74959(2) 0.78616(17) 0.25021(5)
Cd3C_2 Cd 0.74959(2) 0.78616(17) 1.25021(5)
O3B O 0.21470(18) 0.1529(11) 0.3001(4)
O3C O 0.78530(18) 0.1529(11) 0.6999(4)
O4B O 0.1631(2) 0.2249(10) 0.3226(4)
O4C O 0.8369(2) 0.2249(10) 0.6774(4)
O7B O 0.17413(18) 0.2227(11) 0.1423(4)
O7C O 0.82587(18) 0.2227(11) 0.8577(4)
O8B O 0.22814(18) 0.2422(9) 0.1362(3)
O8C O 0.77186(18) 0.2422(9) 0.8638(3)
O11_2 O 0.6835(2) 0.0037(10) 0.6771(5)
O11A_2 O 0.3165(2) 0.0037(10) 0.3229(5)
O12_2 O 0.71313(18) 0.1127(9) 0.7630(4)
O12A_2 O 0.28687(18) 0.1127(9) 0.2370(4)
N5A_2 N 0.1094(4) 0.399(2) 0.1745(9)
N7_2 N 0.1149(4) 0.373(2) 0.1607(10)
O18? O 0.4662(7) 0.226(3) 0.4996(14)
N9? N 0.3842(5) 0.184(3) 0.3455(12)
N10? N 0.4441(4) -0.0426(14) 0.5347(8)
C68? C 0.3943(6) 0.078(3) 0.3839(13)
H73? H 0.3845 -0.0050 0.3733
C69? C 0.4200(5) 0.093(2) 0.4407(12)
C70? C 0.4357(7) 0.214(3) 0.4562(16)
C71? C 0.4324(6) 0.317(2) 0.3994(15)
C72? C 0.4059(7) 0.307(3) 0.3484(17)
H74? H 0.4008 0.3767 0.3145
C73? C 0.4463(6) 0.452(2) 0.4131(15)
H75? H 0.4642 0.4488 0.4532
H76? H 0.4288 0.5111 0.4270
H77? H 0.4552 0.4850 0.3683
C74? C 0.4244(4) -0.0226(16) 0.4833(8)
H78? H 0.4097 -0.0929 0.4694
loop_
_geom_bond_atom_site_label_1
_geom_bond_atom_site_label_2
_geom_bond_site_symmetry_1
_geom_bond_site_symmetry_2
Cd1 O2 1_555 1_555
Cd2 O9 1_555 1_555
Cd3 O1 1_555 1_555
O1 C7 1_555 1_555
O2 C7 1_555 1_555
O3 C8 1_555 1_555
O4 C8 1_555 1_555
C1 C2 1_555 1_555
C2 H1 1_555 1_555
C3 C2 1_555 1_555
H2 C3 1_555 1_555
C4 C3 1_555 1_555
C5 C4 1_555 1_555
H3 C5 1_555 1_555
C6 C1 1_555 1_555
H4 C6 1_555 1_555
C7 C1 1_555 1_555
C8 C4 1_555 1_555
O5 Cd1 1_555 1_555
O6 Cd3 1_555 1_555
O7 C16 1_555 1_555
O8 C16 1_555 1_555
C9 C10 1_555 1_555
C10 H5 1_555 1_555
C11 C10 1_555 1_555
H6 C11 1_555 1_555
C12 C11 1_555 1_555
C13 C12 1_555 1_555
H7 C13 1_555 1_555
C14 C9 1_555 1_555
H8 C14 1_555 1_555
C15 O5 1_555 1_555
C16 C12 1_555 1_555
O9 Cd3 1_555 1_555
O10 Cd2 1_555 1_555
O11 C24 1_555 1_555
O12 C24 1_555 1_555
C17 C18 1_555 1_555
C18 H9 1_555 1_555
C19 C18 1_555 1_555
H10 C19 1_555 1_555
C20 C19 1_555 1_555
C21 C20 1_555 1_555
H11 C21 1_555 1_555
C22 C17 1_555 1_555
H12 C22 1_555 1_555
C23 O9 1_555 1_555
C24 C20 1_555 1_555
O13 Cd1 1_555 1_555
N1 C25 1_555 1_555
C25 O13 1_555 1_555
H13 C25 1_555 1_555
C26 N1 1_555 1_555
H14 C26 1_555 1_555
H15 C26 1_555 1_555
H16 C26 1_555 1_555
C27 N1 1_555 1_555
H17 C27 1_555 1_555
H18 C27 1_555 1_555
H19 C27 1_555 1_555
O14 Cd2 1_555 1_555
N2 C28 1_555 1_555
C28 O14 1_555 1_555
H20 C28 1_555 1_555
C29 N2 1_555 1_555
H21 C29 1_555 1_555
H22 C29 1_555 1_555
H23 C29 1_555 1_555
C30 N2 1_555 1_555
H24 C30 1_555 1_555
H25 C30 1_555 1_555
H26 C30 1_555 1_555
Cu1 O15 1_555 1_555
O15 C33 1_555 1_555
N3 Cd1 1_555 1_555
N4 Cu1 1_555 1_555
C31 N3 1_555 1_555
H27 C31 1_555 1_555
C32 C31 1_555 1_555
C33 C32 1_555 1_555
C34 C33 1_555 1_555
C35 N3 1_555 1_555
H28 C35 1_555 1_555
C36 C34 1_555 1_555
H29 C36 1_555 1_555
H30 C36 1_555 1_555
H31 C36 1_555 1_555
C37 N4 1_555 1_555
H32 C37 1_555 1_555
C38 N4 1_555 1_555
H33 C38 1_555 1_555
C39 C38 1_555 1_555
H34 C39 1_555 1_555
H35 C39 1_555 1_555
C40 C39 1_555 1_555
H36 C40 1_555 1_555
H37 C40 1_555 1_555
C41 C40 1_555 1_555
C42 C41 1_555 1_555
H38 C42 1_555 1_555
H39 C42 1_555 1_555
H40 C42 1_555 1_555
C43 C38 1_555 1_555
C44 C43 1_555 1_555
H41 C44 1_555 1_555
H42 C44 1_555 1_555
H43 C44 1_555 1_555
C45 C43 1_555 1_555
H44 C45 1_555 1_555
H45 C45 1_555 1_555
H46 C45 1_555 1_555
Cu2 O16 1_555 1_555
C46 C60 1_555 1_555
C47 C48 1_555 1_555
C48 H47 1_555 1_555
H48 C48 1_555 1_555
H49 C48 1_555 1_555
C49 C47 1_555 1_555
H50 C49 1_555 1_555
H51 C49 1_555 1_555
H52 C49 1_555 1_555
O16 C52 1_555 1_555
N5 Cd2 1_555 1_555
N6 Cu2 1_555 1_555
C50 N5 1_555 1_555
H53 C50 1_555 1_555
C51 C50 1_555 1_555
C52 C53 1_555 1_555
C53 C54 1_555 1_555
C54 N5 1_555 1_555
H54 C54 1_555 1_555
C55 C53 1_555 1_555
H55 C55 1_555 1_555
H56 C55 1_555 1_555
H57 C55 1_555 1_555
C56 N6 1_555 1_555
H58 C56 1_555 1_555
C57 C47 1_555 1_555
H59 C57 1_555 1_555
C58 C57 1_555 1_555
H60 C58 1_555 1_555
H61 C58 1_555 1_555
C59 C58 1_555 1_555
H62 C59 1_555 1_555
H63 C59 1_555 1_555
C60 C47 1_555 1_555
H64 C46 1_555 1_555
H65 C46 1_555 1_555
H66 C46 1_555 1_555
O17 Cu2 1_555 1_555
N7 C61 1_555 1_555
N8 Cu2 1_555 1_555
C61 H67 1_555 1_555
C62 C61 1_555 1_555
C63 O17 1_555 1_555
C64 C63 1_555 1_555
C65 N7 1_555 1_555
H68 C65 1_555 1_555
C66 C64 1_555 1_555
H69 C66 1_555 1_555
H70 C66 1_555 1_555
H71 C66 1_555 1_555
C67 N8 1_555 1_555
H72 C67 1_555 1_555
O15A Cu1 1_555 1_555
N3A C31A 1_555 1_555
N4A C37A 1_555 1_555
C31A H27A 1_555 1_555
C32A C31A 1_555 1_555
C33A O15A 1_555 1_555
C34A C33A 1_555 1_555
C35A N3A 1_555 1_555
H28A C35A 1_555 1_555
C36A C34A 1_555 1_555
H29A C36A 1_555 1_555
H30A C36A 1_555 1_555
H31A C36A 1_555 1_555
C37A C32A 1_555 1_555
H32A C37A 1_555 1_555
C38A N4A 1_555 1_555
H33A C38A 1_555 1_555
C39A C38A 1_555 1_555
H34A C39A 1_555 1_555
H35A C39A 1_555 1_555
C40A C39A 1_555 1_555
H36A C40A 1_555 1_555
H37A C40A 1_555 1_555
C41A C40A 1_555 1_555
C42A C41A 1_555 1_555
H38A C42A 1_555 1_555
H39A C42A 1_555 1_555
H40A C42A 1_555 1_555
C43A C38A 1_555 1_555
C44A C43A 1_555 1_555
H41A C44A 1_555 1_555
H42A C44A 1_555 1_555
H43A C44A 1_555 1_555
C45A C45 1_555 1_555
H44A C45 1_555 1_555
H45A C45A 1_555 1_555
H46A C45A 1_555 1_555
C46A C60A 1_555 1_555
C47A C48A 1_555 1_555
C48A H47A 1_555 1_555
H48A C48A 1_555 1_555
H49A C48A 1_555 1_555
C49A C49 1_555 1_555
H50A C49 1_555 1_555
H51A C49A 1_555 1_555
H52A C49A 1_555 1_555
O16A Cu2 1_555 1_555
N5A C61 1_555 1_555
N6A Cu2 1_555 1_555
C50A N7 1_555 1_555
H53A C50A 1_555 1_555
C51A C62 1_555 1_555
C52A C62 1_555 1_555
C53A C63 1_555 1_555
C54A N7 1_555 1_555
H54A C54A 1_555 1_555
C55A C53A 1_555 1_555
H55A C55A 1_555 1_555
H56A C55A 1_555 1_555
H57A C55A 1_555 1_555
C56A N6A 1_555 1_555
H58A C56A 1_555 1_555
C57A C47A 1_555 1_555
H59A C57A 1_555 1_555
C58A C57A 1_555 1_555
H60A C58A 1_555 1_555
H61A C58A 1_555 1_555
C59A C58A 1_555 1_555
H62A C59A 1_555 1_555
H63A C59A 1_555 1_555
C60A C47A 1_555 1_555
H64A C46A 1_555 1_555
H65A C46A 1_555 1_555
H66A C46A 1_555 1_555
O17A Cu2 1_555 1_555
N7A Cd2 1_555 1_555
N8A Cu2 1_555 1_555
C61A N5 1_555 1_555
H67A C61A 1_555 1_555
C62A C51 1_555 1_555
C63A C51 1_555 1_555
C64A C63A 1_555 1_555
C65A N5 1_555 1_555
H68A C65A 1_555 1_555
C66A C64A 1_555 1_555
H69A C66A 1_555 1_555
H70A C66A 1_555 1_555
H71A C66A 1_555 1_555
C67A N8A 1_555 1_555
H72A C67A 1_555 1_555
Cd1A N3A 1_555 1_555
Cd2A O9A 1_555 1_555
Cd3A O1A 1_555 1_555
O1A C7A 1_555 1_555
O2A Cd1A 1_555 1_555
O3A C8A 1_555 1_555
O4A C8A 1_555 1_555
C1A C2A 1_555 1_555
C2A H1A 1_555 1_555
C3A C2A 1_555 1_555
H2A C3A 1_555 1_555
C4A C3A 1_555 1_555
C5A C4A 1_555 1_555
H3A C5A 1_555 1_555
C6A C1A 1_555 1_555
H4A C6A 1_555 1_555
C7A O2A 1_555 1_555
C8A C4A 1_555 1_555
O5A Cd1A 1_555 1_555
O6A Cd3A 1_555 1_555
O7A C16A 1_555 1_555
O8A C16A 1_555 1_555
C9A C10A 1_555 1_555
C10A H5A 1_555 1_555
C11A C10A 1_555 1_555
H6A C11A 1_555 1_555
C12A C11A 1_555 1_555
C13A C12A 1_555 1_555
H7A C13A 1_555 1_555
C14A C9A 1_555 1_555
H8A C14A 1_555 1_555
C15A O5A 1_555 1_555
C16A C12A 1_555 1_555
O9A Cd3A 1_555 1_555
O10A Cd2A 1_555 1_555
O11A C24A 1_555 1_555
O12A C24A 1_555 1_555
C17A C18A 1_555 1_555
C18A H9A 1_555 1_555
C19A C18A 1_555 1_555
H10A C19A 1_555 1_555
C20A C19A 1_555 1_555
C21A C20A 1_555 1_555
H11A C21A 1_555 1_555
C22A C17A 1_555 1_555
H12A C22A 1_555 1_555
C23A O9A 1_555 1_555
C24A C20A 1_555 1_555
O13A Cd1A 1_555 1_555
N1A C25A 1_555 1_555
C25A O13A 1_555 1_555
H13A C25A 1_555 1_555
C26A N1A 1_555 1_555
H14A C26A 1_555 1_555
H15A C26A 1_555 1_555
H16A C26A 1_555 1_555
C27A N1A 1_555 1_555
H17A C27A 1_555 1_555
H18A C27A 1_555 1_555
H19A C27A 1_555 1_555
O14A Cd2A 1_555 1_555
N2A C28A 1_555 1_555
C28A O14A 1_555 1_555
H20A C28A 1_555 1_555
C29A N2A 1_555 1_555
H21A C29A 1_555 1_555
H22A C29A 1_555 1_555
H23A C29A 1_555 1_555
C30A N2A 1_555 1_555
H24A C30A 1_555 1_555
H25A C30A 1_555 1_555
H26A C30A 1_555 1_555
Cu1A Cu1 1_555 1_555
Cu2A Cu2 1_555 1_555
Cd1_2 O11 1_555 1_555
Cd1A_2 O11A 1_555 1_555
Cd2A_2 N7 1_555 1_555
Cd2B O7A 1_555 1_555
Cd2B_2 O4A 1_555 1_555
Cd2C O4 1_555 1_555
Cd2C_2 O7 1_555 1_555
Cd3_2 O12 1_555 1_555
Cd3A_2 O12A 1_555 1_555
Cd3B O8A 1_555 1_555
Cd3B_2 O3A 1_555 1_555
Cd3C O3 1_555 1_555
Cd3C_2 O8 1_555 1_555
O3B Cd3A 1_555 1_555
O3C Cd3 1_555 1_555
O4B Cd2A 1_555 1_555
O4C Cd2 1_555 1_555
O7B Cd2A 1_555 1_555
O7C Cd2 1_555 1_555
O8B Cd3A 1_555 1_555
O8C Cd3 1_555 1_555
O11_2 Cd1 1_555 1_555
O11A_2 Cd1A 1_555 1_555
O12_2 Cd1 1_555 1_555
O12A_2 Cd1A 1_555 1_555
N5A_2 Cd2A 1_555 1_555
N7_2 Cd2A 1_555 1_555
Cd3 O12_2 1_555 1_555
C5 C6 1_555 1_555
O6 C15 1_555 1_555
C9 C15 1_555 1_555
C13 C14 1_555 1_555
O10 C23 1_555 1_555
O12 Cd1_2 1_555 1_555
C17 C23 1_555 1_555
C21 C22 1_555 1_555
O15 Cu1A 1_555 1_555
C32 C37 1_555 1_555
C34 C35 1_555 1_555
C41 C43 1_555 1_555
H44 C45A 1_555 1_555
H50 C49A 1_555 1_555
O16 O17A 1_555 1_555
O16 Cu2A 1_555 1_555
N6 C57 1_555 1_555
N6 Cu2A 1_555 1_555
C50 N7A 1_555 1_555
C50 C61A 1_555 1_555
C51 C56 1_555 1_555
C52 C62A 1_555 1_555
C52 C63A 1_555 1_555
C53 C63A 1_555 1_555
C54 N7A 1_555 1_555
C54 C61A 1_555 1_555
C54 C65A 1_555 1_555
C59 C60 1_555 1_555
C60 N8 1_555 1_555
O17 O16A 1_555 1_555
O17 Cu2A 1_555 1_555
N8 Cu2A 1_555 1_555
C61 C50A 1_555 1_555
C61 C54A 1_555 1_555
C62 C67 1_555 1_555
C63 C51A 1_555 1_555
C63 C52A 1_555 1_555
C64 C65 1_555 1_555
C65 N5A 1_555 1_555
C65 C54A 1_555 1_555
O15A Cu1A 1_555 1_555
N4A Cu1A 1_555 1_555
C32A C33A 1_555 1_555
C34A C35A 1_555 1_555
C41A C43A 1_555 1_555
C43A C45A 1_555 1_555
C45A H44A 1_555 1_555
C47A C49A 1_555 1_555
C49A H50A 1_555 1_555
O16A C52A 1_555 1_555
O16A Cu2A 1_555 1_555
N5A C50A 1_555 1_555
N5A C54A 1_555 1_555
N5A Cd2A_2 1_555 1_555
N6A C57A 1_555 1_555
N6A Cu2A 1_555 1_555
C50A C51A 1_555 1_555
C51A C56A 1_555 1_555
C52A C53A 1_555 1_555
C53A C54A 1_555 1_555
C59A C60A 1_555 1_555
C60A N8A 1_555 1_555
O17A C63A 1_555 1_555
O17A Cu2A 1_555 1_555
N7A C61A 1_555 1_555
N7A C65A 1_555 1_555
N8A Cu2A 1_555 1_555
C61A C62A 1_555 1_555
C62A C67A 1_555 1_555
C64A C65A 1_555 1_555
Cd3A O12A_2 1_555 1_555
C1A C7A 1_555 1_555
C5A C6A 1_555 1_555
O6A C15A 1_555 1_555
C9A C15A 1_555 1_555
C13A C14A 1_555 1_555
O10A C23A 1_555 1_555
O12A Cd1A_2 1_555 1_555
C17A C23A 1_555 1_555
C21A C22A 1_555 1_555

#END
