
#######################################################################
#
#                 Cambridge Crystallographic Data Centre
#                                CCDC 
#
#######################################################################
#
# If this CIF has been generated from an entry in the Cambridge 
# Structural Database, then it will include bibliographic, chemical, 
# crystal, experimental, refinement or atomic coordinate data resulting 
# from the CCDC's data processing and validation procedures.
#
#######################################################################

data_RORTID
_chemical_formula_moiety         '(C35 H30 N2 O13 Zn3)n'
_chemical_name_systematic        
"catena-[(\m-2,2'-dihydroxybiphenyl-4,4'-dicarboxylato)-(\m-2,2'-dioxidobiphenyl-4,4'-dicarboxylato)-(\m-1,4-diazabicyclo[2.2.2]octane)-methanol-tri-zinc unknown solvate]"
_symmetry_cell_setting           monoclinic
_symmetry_space_group_name_H-M   'P 21/c'
_symmetry_Int_Tables_number      14
_space_group_name_Hall           '-P 2ybc'
loop_
_symmetry_equiv_pos_site_id
_symmetry_equiv_pos_as_xyz
1 x,y,z
2 -x,1/2+y,1/2-z
3 -x,-y,-z
4 x,1/2-y,1/2+z
_cell_length_a                   17.612(4)
_cell_length_b                   18.052(4)
_cell_length_c                   18.652(4)
_cell_angle_alpha                90
_cell_angle_beta                 92.38(3)
_cell_angle_gamma                90
_cell_volume                     5924.95
_exptl_crystal_colour            colorless
_exptl_crystal_description       block
_cell_formula_units_Z            4
loop_
_atom_site_label
_atom_site_type_symbol
_atom_site_fract_x
_atom_site_fract_y
_atom_site_fract_z
_atom_site_U_iso_or_equiv
_atom_site_thermal_displace_type
Zn1 Zn 0.396731(13) 0.482853(12) 0.289805(12) 0.0165 Uani
Zn2 Zn 0.328863(12) 0.618443(12) 0.364103(12) 0.0166 Uani
Zn3 Zn 0.414354(12) 0.769784(12) 0.435066(11) 0.0158 Uani
O1 O 0.30911(9) 0.80029(9) 0.40869(9) 0.0238 Uani
O2 O 0.56166(9) 0.55593(9) 0.61923(8) 0.0213 Uani
O3 O -0.29072(9) 0.95456(9) 0.22294(9) 0.0256 Uani
O4 O 0.64523(8) 0.47752(8) 0.57360(8) 0.0200 Uani
O5 O -0.23919(8) 1.06145(9) 0.18633(9) 0.0233 Uani
O6 O 0.29184(9) 0.71727(9) 0.31954(8) 0.0229 Uani
C1 C 0.59583(11) 0.52757(11) 0.56699(10) 0.0178 Uani
C2 C 0.43598(12) 0.65496(11) 0.17759(10) 0.0192 Uani
H1 H 0.3868 0.6516 0.1549 0.0230 Uiso
C3 C 0.60084(12) 0.56413(12) 0.36838(11) 0.0213 Uani
H2 H 0.6319 0.5523 0.3296 0.0260 Uiso
C4 C 0.57608(11) 0.55687(11) 0.49365(10) 0.0170 Uani
C5 C 0.56674(13) 0.69523(13) 0.17473(11) 0.0245 Uani
H3 H 0.6071 0.7173 0.1501 0.0290 Uiso
C6 C 0.51291(11) 0.60233(10) 0.48271(10) 0.0162 Uani
H4 H 0.4840 0.6163 0.5224 0.0190 Uiso
C7 C -0.23512(12) 0.99755(12) 0.21204(12) 0.0228 Uani
C8 C 0.62009(12) 0.53698(12) 0.43616(11) 0.0208 Uani
H5 H 0.6627 0.5052 0.4435 0.0250 Uiso
C9 C 0.44826(11) 0.62723(10) 0.24741(10) 0.0166 Uani
C10 C 0.49479(12) 0.68736(11) 0.14109(10) 0.0209 Uani
C11 C -0.15816(13) 0.96693(14) 0.23197(14) 0.0286 Uani
C12 C 0.19881(12) 0.81035(13) 0.33220(13) 0.0268 Uani
C13 C 0.51999(11) 0.63652(11) 0.28235(10) 0.0173 Uani
C14 C 0.57833(12) 0.67028(13) 0.24467(11) 0.0227 Uani
H6 H 0.6270 0.6761 0.2678 0.0270 Uiso
C15 C 0.53654(11) 0.60869(11) 0.35589(10) 0.0166 Uani
C16 C 0.27169(11) 0.77263(11) 0.35530(11) 0.0203 Uani
C17 C -0.15121(17) 0.89325(17) 0.2509(2) 0.0456 Uani
H7 H -0.1949 0.8625 0.2511 0.0550 Uiso
C18 C -0.07991(19) 0.86420(19) 0.2698(2) 0.0537 Uani
H8 H -0.0754 0.8135 0.2830 0.0640 Uiso
C19 C 0.15713(16) 0.78327(17) 0.27316(17) 0.0413 Uani
H9 H 0.1753 0.7418 0.2476 0.0500 Uiso
C20 C -0.01530(16) 0.90819(18) 0.26960(18) 0.0433 Uani
C21 C 0.17246(16) 0.87066(16) 0.37002(16) 0.0387 Uani
H10 H 0.2014 0.8896 0.4100 0.0460 Uiso
C22 C 0.08881(18) 0.8166(2) 0.2511(2) 0.0502 Uani
C23 C 0.10359(18) 0.90315(19) 0.34923(18) 0.0465 Uani
H11 H 0.0855 0.9442 0.3754 0.0560 Uiso
C24 C -0.09446(15) 1.01169(16) 0.23091(19) 0.0408 Uani
H12 H -0.0991 1.0623 0.2173 0.0490 Uiso
C25 C -0.02318(16) 0.98199(19) 0.2500(2) 0.0502 Uani
O7 O 0.42786(8) 0.66931(8) 0.40363(7) 0.0165 Uani
O8 O 0.39226(8) 0.58873(8) 0.27720(7) 0.0173 Uani
O9 O 0.25595(10) 0.64131(10) 0.44945(10) 0.0299 Uani
N1 N 0.52575(10) 0.33938(9) 0.12957(9) 0.0179 Uani
N2 N 0.45532(10) 0.42343(10) 0.21700(9) 0.0188 Uani
O10 O 0.41453(10) 0.70533(10) 0.03688(9) 0.0298 Uani
O11 O 0.53616(11) 0.72881(11) 0.02776(9) 0.0341 Uani
C26 C 0.49149(10) 0.62775(10) 0.41416(10) 0.0153 Uani
C27 C 0.48259(13) 0.70920(12) 0.06424(11) 0.0227 Uani
C28 C 0.51814(14) 0.38291(13) 0.25574(12) 0.0268 Uani
H13 H 0.4972 0.3522 0.2942 0.0320 Uiso
H14 H 0.5542 0.4189 0.2783 0.0320 Uiso
C29 C 0.55998(13) 0.33338(13) 0.20379(11) 0.0260 Uani
H15 H 0.6141 0.3481 0.2038 0.0310 Uiso
H16 H 0.5575 0.2813 0.2201 0.0310 Uiso
C30 C 0.53030(15) 0.41833(12) 0.10707(12) 0.0274 Uani
H17 H 0.5071 0.4240 0.0581 0.0330 Uiso
H18 H 0.5842 0.4336 0.1059 0.0330 Uiso
C31 C 0.44418(12) 0.31858(13) 0.13088(12) 0.0250 Uani
H19 H 0.4397 0.2661 0.1456 0.0300 Uiso
H20 H 0.4204 0.3237 0.0821 0.0300 Uiso
C32 C 0.40233(13) 0.36798(13) 0.18320(14) 0.0281 Uani
H21 H 0.3601 0.3939 0.1571 0.0340 Uiso
H22 H 0.3805 0.3369 0.2209 0.0340 Uiso
C33 C 0.48861(15) 0.46829(12) 0.15938(12) 0.0271 Uani
H23 H 0.5247 0.5048 0.1810 0.0330 Uiso
H24 H 0.4477 0.4958 0.1329 0.0330 Uiso
C34 C 0.06066(16) 0.87638(18) 0.29051(19) 0.0434 Uani
O12 O 0.0508(3) 0.7939(3) 0.1887(3) 0.0821 Uani
H25 H 0.0705 0.7546 0.1740 0.0990 Uiso
O13 O 0.0413(2) 1.0287(3) 0.2424(5) 0.0901 Uani
H26 H 0.0812 1.0046 0.2524 0.1080 Uiso
C35 C 0.1992(3) 0.5898(4) 0.4685(3) 0.0385 Uani
H27 H 0.1714 0.6094 0.5088 0.0580 Uiso
H28 H 0.2232 0.5427 0.4824 0.0580 Uiso
H29 H 0.1637 0.5818 0.4273 0.0580 Uiso
Zn1A Zn -0.396731(13) 0.982853(12) 0.210195(12) 0.0165 Uani
Zn1B Zn 0.603269(13) 0.517147(12) 0.710195(12) 0.0165 Uani
Zn2A Zn -0.328863(12) 1.118443(12) 0.135897(12) 0.0166 Uani
Zn2B Zn 0.671137(12) 0.381557(12) 0.635897(12) 0.0166 Uani
Zn3A Zn 0.585646(12) 0.269784(12) 0.064934(11) 0.0158 Uani
Zn3C Zn 0.414354(12) 0.730216(12) -0.064934(11) 0.0158 Uani
O2B O 0.43834(9) 0.44407(9) 0.38077(8) 0.0213 Uani
O3A O 0.29072(9) 0.45456(9) 0.27706(9) 0.0256 Uani
O4B O 0.35477(8) 0.52248(8) 0.42640(8) 0.0200 Uani
O5A O 0.23919(8) 0.56145(9) 0.31367(9) 0.0233 Uani
N1A N 0.47425(10) 0.83938(9) 0.37043(9) 0.0179 Uani
O10C O 0.41453(10) 0.79467(10) 0.53688(9) 0.0298 Uani
O14? O -0.0809(3) 0.7875(3) 0.2932(5) 0.0695 Uani
H30? H -0.1025 0.7614 0.2611 0.0840 Uiso
O15? O 0.0833(5) 0.9695(5) 0.3850(5) 0.0778 Uani
H31? H 0.0852 0.9623 0.4295 0.0930 Uiso
C36? C 0.1799(7) 0.6513(10) 0.4430(8) 0.1098 Uani
H32? H 0.1599 0.6599 0.4905 0.1650 Uiso
H33? H 0.1561 0.6070 0.4216 0.1650 Uiso
H34? H 0.1686 0.6942 0.4122 0.1650 Uiso
H35? H 0.0205 1.0128 0.2494 0.0600 Uiso
H36? H 0.0613 0.7991 0.2097 0.0600 Uiso
loop_
_atom_site_aniso_label
_atom_site_aniso_U_11
_atom_site_aniso_U_22
_atom_site_aniso_U_33
_atom_site_aniso_U_23
_atom_site_aniso_U_13
_atom_site_aniso_U_12
Zn1 0.01948(11) 0.01383(12) 0.01590(11) 0.00018(7) -0.00265(8) 0.00076(7)
Zn2 0.01668(11) 0.01404(12) 0.01860(11) -0.00011(7) -0.00366(8) 0.00052(7)
Zn3 0.01851(11) 0.01353(12) 0.01504(11) -0.00063(7) -0.00280(8) 0.00072(7)
O1 0.0207(7) 0.0243(8) 0.0260(7) -0.0020(6) -0.0046(5) 0.0048(5)
O2 0.0266(7) 0.0211(7) 0.0159(6) 0.0024(5) -0.0022(5) 0.0027(5)
O3 0.0208(7) 0.0235(8) 0.0322(8) 0.0040(6) -0.0032(6) 0.0022(5)
O4 0.0197(7) 0.0189(7) 0.0211(7) 0.0045(5) -0.0043(5) 0.0016(5)
O5 0.0196(7) 0.0202(8) 0.0295(8) 0.0019(5) -0.0075(5) 0.0011(5)
O6 0.0236(7) 0.0199(7) 0.0247(7) 0.0025(5) -0.0042(5) 0.0056(5)
C1 0.0188(8) 0.0162(9) 0.0179(8) 0.0025(6) -0.0035(6) -0.0017(6)
C2 0.0252(9) 0.0161(9) 0.0159(8) 0.0010(6) -0.0036(7) 0.0006(6)
C3 0.0214(9) 0.0232(10) 0.0193(9) 0.0022(7) 0.0001(7) 0.0048(7)
C4 0.0178(8) 0.0166(9) 0.0164(8) 0.0017(6) -0.0031(6) 0.0010(6)
C5 0.0272(10) 0.0263(11) 0.0200(9) 0.0046(7) 0.0003(7) -0.0020(7)
C6 0.0185(8) 0.0150(8) 0.0147(8) -0.0001(6) -0.0024(6) 0.0006(6)
C7 0.0209(9) 0.0208(10) 0.0264(10) -0.0006(7) -0.0041(7) 0.0040(7)
C8 0.0207(9) 0.0208(10) 0.0208(9) 0.0021(7) -0.0019(7) 0.0050(7)
C9 0.0227(9) 0.0123(8) 0.0146(8) 0.0004(6) -0.0018(6) 0.0006(6)
C10 0.0309(10) 0.0164(9) 0.0154(8) 0.0017(6) -0.0007(7) 0.0002(7)
C11 0.0207(10) 0.0276(12) 0.0368(12) 0.0029(9) -0.0058(8) 0.0056(8)
C12 0.0201(9) 0.0242(11) 0.0353(11) 0.0000(8) -0.0067(8) 0.0062(7)
C13 0.0210(9) 0.0157(9) 0.0149(8) 0.0018(6) -0.0011(6) 0.0003(6)
C14 0.0223(9) 0.0267(11) 0.0191(9) 0.0046(7) -0.0005(7) -0.0015(7)
C15 0.0199(8) 0.0150(8) 0.0148(8) 0.0017(6) -0.0020(6) -0.0003(6)
C16 0.0172(8) 0.0180(9) 0.0254(9) 0.0037(7) -0.0029(7) 0.0024(6)
C17 0.0300(13) 0.0328(15) 0.073(2) 0.0138(13) -0.0106(13) 0.0045(10)
C18 0.0361(15) 0.0367(17) 0.087(3) 0.0142(16) -0.0146(15) 0.0123(12)
C19 0.0326(13) 0.0408(15) 0.0491(16) -0.0148(12) -0.0169(11) 0.0153(11)
C20 0.0275(12) 0.0414(16) 0.0598(18) -0.0016(13) -0.0144(11) 0.0159(11)
C21 0.0337(13) 0.0374(14) 0.0437(14) -0.0118(11) -0.0144(11) 0.0173(10)
C22 0.0356(14) 0.0497(18) 0.063(2) -0.0165(15) -0.0252(13) 0.0196(12)
C23 0.0385(14) 0.0453(17) 0.0544(18) -0.0126(13) -0.0132(13) 0.0241(12)
C24 0.0230(11) 0.0282(13) 0.070(2) 0.0072(12) -0.0121(11) 0.0037(9)
C25 0.0225(12) 0.0418(17) 0.085(3) 0.0046(15) -0.0135(13) 0.0040(10)
O7 0.0170(6) 0.0130(6) 0.0190(6) -0.0008(4) -0.0048(5) 0.0025(4)
O8 0.0208(6) 0.0147(7) 0.0163(6) 0.0008(4) -0.0009(5) -0.0006(5)
O9 0.0313(8) 0.0289(9) 0.0301(8) -0.0008(6) 0.0074(6) 0.0017(6)
N1 0.0214(8) 0.0143(8) 0.0177(7) -0.0012(5) -0.0017(6) 0.0007(5)
N2 0.0232(8) 0.0147(8) 0.0182(7) -0.0006(5) -0.0014(6) 0.0008(6)
O10 0.0356(9) 0.0355(9) 0.0179(7) 0.0054(6) -0.0035(6) 0.0023(7)
O11 0.0425(10) 0.0413(11) 0.0185(7) 0.0065(6) 0.0015(7) -0.0079(8)
C26 0.0153(8) 0.0117(8) 0.0185(8) -0.0001(6) -0.0047(6) 0.0008(5)
C27 0.0364(11) 0.0153(9) 0.0162(8) 0.0026(6) -0.0020(7) 0.0012(7)
C28 0.0327(11) 0.0284(11) 0.0189(9) -0.0026(7) -0.0054(8) 0.0108(8)
C29 0.0304(11) 0.0262(11) 0.0207(9) -0.0035(7) -0.0062(8) 0.0091(8)
C30 0.0430(13) 0.0151(10) 0.0247(10) 0.0027(7) 0.0082(9) 0.0027(8)
C31 0.0236(10) 0.0245(11) 0.0269(10) -0.0079(7) 0.0019(8) -0.0034(7)
C32 0.0244(10) 0.0258(11) 0.0342(12) -0.0125(8) 0.0012(8) -0.0034(8)
C33 0.0414(12) 0.0150(10) 0.0255(10) 0.0014(7) 0.0084(9) 0.0021(8)
C34 0.0267(12) 0.0436(16) 0.0586(18) -0.0050(12) -0.0156(12) 0.0170(10)
O12 0.064(3) 0.101(4) 0.077(3) -0.050(3) -0.049(2) 0.049(3)
O13 0.020(2) 0.055(3) 0.193(8) 0.045(4) -0.022(3) -0.0051(17)
C35 0.030(2) 0.044(3) 0.042(3) 0.001(2) 0.006(2) -0.005(2)
Zn1A 0.01948 0.01383 0.0159 -0.00018 -0.00265 -0.00076
Zn1B 0.01948 0.01383 0.0159 0.00018 -0.00265 0.00076
Zn2A 0.01668 0.01404 0.0186 0.00011 -0.00366 -0.00052
Zn2B 0.01668 0.01404 0.0186 -0.00011 -0.00366 0.00052
Zn3A 0.01851 0.01353 0.01504 0.00063 -0.0028 -0.00072
Zn3C 0.01851 0.01353 0.01504 0.00063 -0.0028 -0.00072
O2B 0.0266 0.0211 0.0159 0.0024 -0.0022 0.0027
O3A 0.0208 0.0235 0.0322 -0.004 -0.0032 -0.0022
O4B 0.0197 0.0189 0.0211 0.0045 -0.0043 0.0016
O5A 0.0196 0.0202 0.0295 -0.0019 -0.0075 -0.0011
N1A 0.0214 0.0143 0.0177 0.0012 -0.0017 -0.0007
O10C 0.0356 0.0355 0.0179 -0.0054 -0.0035 -0.0023
O14? 0.039(3) 0.042(3) 0.126(7) 0.022(3) -0.015(3) 0.011(2)
O15? 0.085(6) 0.070(5) 0.076(5) -0.029(4) -0.024(4) 0.058(4)
C36? 0.076(7) 0.135(13) 0.121(11) 0.026(9) 0.036(7) 0.006(8)
loop_
_geom_bond_atom_site_label_1
_geom_bond_atom_site_label_2
_geom_bond_site_symmetry_1
_geom_bond_site_symmetry_2
Zn1 O8 1_555 1_555
Zn2 O6 1_555 1_555
Zn3 O1 1_555 1_555
O1 C16 1_555 1_555
O2 C1 1_555 1_555
O3 C7 1_555 1_555
O4 C1 1_555 1_555
O5 C7 1_555 1_555
O6 C16 1_555 1_555
C1 C4 1_555 1_555
C2 H1 1_555 1_555
C3 H2 1_555 1_555
C4 C6 1_555 1_555
C5 H3 1_555 1_555
C6 H4 1_555 1_555
C7 C11 1_555 1_555
C8 C3 1_555 1_555
H5 C8 1_555 1_555
C9 C2 1_555 1_555
C10 C2 1_555 1_555
C11 C17 1_555 1_555
C12 C16 1_555 1_555
C13 C9 1_555 1_555
C14 C5 1_555 1_555
H6 C14 1_555 1_555
C15 C3 1_555 1_555
C17 H7 1_555 1_555
C18 C17 1_555 1_555
H8 C18 1_555 1_555
C19 C12 1_555 1_555
H9 C19 1_555 1_555
C20 C18 1_555 1_555
C21 C12 1_555 1_555
H10 C21 1_555 1_555
C22 C19 1_555 1_555
C23 C21 1_555 1_555
H11 C23 1_555 1_555
C24 C11 1_555 1_555
H12 C24 1_555 1_555
C25 C20 1_555 1_555
O7 Zn2 1_555 1_555
O8 Zn2 1_555 1_555
O9 Zn2 1_555 1_555
N1 C29 1_555 1_555
N2 Zn1 1_555 1_555
O10 C27 1_555 1_555
O11 C27 1_555 1_555
C26 C6 1_555 1_555
C27 C10 1_555 1_555
C28 N2 1_555 1_555
H13 C28 1_555 1_555
H14 C28 1_555 1_555
C29 C28 1_555 1_555
H15 C29 1_555 1_555
H16 C29 1_555 1_555
C30 N1 1_555 1_555
H17 C30 1_555 1_555
H18 C30 1_555 1_555
C31 N1 1_555 1_555
H19 C31 1_555 1_555
H20 C31 1_555 1_555
C32 N2 1_555 1_555
H21 C32 1_555 1_555
H22 C32 1_555 1_555
C33 N2 1_555 1_555
H23 C33 1_555 1_555
H24 C33 1_555 1_555
C34 C20 1_555 1_555
O12 C22 1_555 1_555
H25 O12 1_555 1_555
O13 C25 1_555 1_555
H26 O13 1_555 1_555
C35 O9 1_555 1_555
H27 C35 1_555 1_555
H28 C35 1_555 1_555
H29 C35 1_555 1_555
Zn1A O3 1_555 1_555
Zn1B O2 1_555 1_555
Zn2A O5 1_555 1_555
Zn2B O4 1_555 1_555
Zn3A N1 1_555 1_555
Zn3C O10 1_555 1_555
O2B Zn1 1_555 1_555
O3A Zn1 1_555 1_555
O4B Zn2 1_555 1_555
O5A Zn2 1_555 1_555
N1A Zn3 1_555 1_555
O10C Zn3 1_555 1_555
Zn3 O7 1_555 1_555
C4 C8 1_555 1_555
C5 C10 1_555 1_555
C9 O8 1_555 1_555
C13 C14 1_555 1_555
C13 C15 1_555 1_555
C15 C26 1_555 1_555
C22 C34 1_555 1_555
C23 C34 1_555 1_555
C24 C25 1_555 1_555
O7 C26 1_555 1_555
C30 C33 1_555 1_555
C31 C32 1_555 1_555

#END
