
#######################################################################
#
#                 Cambridge Crystallographic Data Centre
#                                CCDC 
#
#######################################################################
#
# If this CIF has been generated from an entry in the Cambridge 
# Structural Database, then it will include bibliographic, chemical, 
# crystal, experimental, refinement or atomic coordinate data resulting 
# from the CCDC's data processing and validation procedures.
#
#######################################################################

data_KANDIO
_chemical_formula_moiety         
'(C32 H18 F2 N2 O8 Zn2)n,2.5n(C3 H7 N1 O1),0.5n(H2 O1)'
_chemical_name_systematic        
"catena-(bis(\m~4~-Terephthalato)-(\m~2~-2,3-difluoro-1,4-bis(4-pyridyl)benzene-N,N')-di-zinc dimethylformamide solvate hemihydrate)"
_symmetry_cell_setting           triclinic
_symmetry_space_group_name_H-M   'P -1'
_symmetry_Int_Tables_number      2
_space_group_name_Hall           '-P 1'
loop_
_symmetry_equiv_pos_site_id
_symmetry_equiv_pos_as_xyz
1 x,y,z
2 -x,-y,-z
_cell_length_a                   10.885(2)
_cell_length_b                   10.930(2)
_cell_length_c                   18.518(4)
_cell_angle_alpha                87.42(3)
_cell_angle_beta                 84.99(3)
_cell_angle_gamma                70.57(3)
_cell_volume                     2069.43
_exptl_crystal_colour            colorless
_exptl_crystal_description       block
_cell_formula_units_Z            2
loop_
_atom_site_label
_atom_site_type_symbol
_atom_site_fract_x
_atom_site_fract_y
_atom_site_fract_z
Zn1 Zn 0.65668(5) 0.75824(6) 0.42308(3)
Zn2 Zn 0.68142(6) 0.76191(6) 0.26037(3)
O1 O 0.4605(4) 0.8025(4) 0.4043(2)
O2 O 0.4828(4) 0.8052(5) 0.2823(2)
O3 O -0.1236(4) 0.7260(4) 0.2687(2)
O4 O -0.1454(4) 0.7184(4) 0.3908(2)
O5 O 0.6691(4) 0.5725(4) 0.4078(2)
O6 O 0.6952(4) 0.5753(4) 0.2865(2)
O7 O 0.6578(4) -0.0501(4) 0.2838(2)
O8 O 0.6412(4) -0.0527(4) 0.4058(2)
N1 N 0.6662(4) 0.7483(4) 0.5331(2)
N2 N 0.6851(4) 0.7555(4) 1.1505(2)
F1 F 0.8326(5) 0.5154(4) 0.7691(2)
F2 F 0.8357(5) 0.5162(4) 0.9111(2)
C1 C 0.2862(5) 0.7876(5) 0.3401(3)
C2 C 0.2109(6) 0.7810(6) 0.4037(3)
H1 H 0.2399 0.7897 0.4483
C3 C 0.0910(6) 0.7612(7) 0.4002(3)
H2 H 0.0405 0.7565 0.4427
C4 C 0.0468(5) 0.7486(6) 0.3342(3)
C5 C 0.1206(5) 0.7577(6) 0.2700(3)
H3 H 0.0908 0.7502 0.2254
C6 C 0.2395(5) 0.7783(6) 0.2735(3)
H4 H 0.2885 0.7859 0.2309
C7 C 0.4197(5) 0.8013(6) 0.3430(3)
C8 C -0.0846(5) 0.7292(5) 0.3309(3)
C9 C 0.6680(5) 0.3875(5) 0.3457(3)
C10 C 0.6488(5) 0.3247(5) 0.4113(3)
H5 H 0.6394 0.3668 0.4551
C11 C 0.6442(5) 0.1991(5) 0.4106(3)
H6 H 0.6335 0.1565 0.4540
C12 C 0.6553(5) 0.1366(5) 0.3450(3)
C13 C 0.6721(5) 0.2012(5) 0.2790(3)
H7 H 0.6785 0.1606 0.2351
C14 C 0.6790(6) 0.3281(6) 0.2801(3)
H8 H 0.6910 0.3712 0.2370
C15 C 0.6791(5) 0.5226(5) 0.3464(3)
C16 C 0.6508(5) -0.0005(5) 0.3444(3)
C17 C 0.6593(5) 0.8525(5) 0.5712(3)
H9 H 0.6499 0.9305 0.5462
C18 C 0.6653(5) 0.8498(6) 0.6447(3)
H10 H 0.6614 0.9246 0.6682
C19 C 0.6774(5) 0.7352(6) 0.6849(3)
C20 C 0.6857(6) 0.6244(6) 0.6456(3)
H11 H 0.6956 0.5453 0.6694
C21 C 0.6790(6) 0.6355(5) 0.5716(3)
H12 H 0.6833 0.5624 0.5463
C22 C 0.6799(6) 0.7327(6) 0.7651(3)
C23 C 0.6054(6) 0.8402(6) 0.8057(3)
H13 H 0.5521 0.9130 0.7822
C24 C 0.6086(7) 0.8416(7) 0.8804(3)
H14 H 0.5579 0.9154 0.9055
C25 C 0.6859(6) 0.7347(6) 0.9190(3)
C26 C 0.7596(7) 0.6271(6) 0.8784(3)
C27 C 0.7551(7) 0.6241(6) 0.8039(3)
C28 C 0.6890(6) 0.7401(6) 0.9989(3)
C29 C 0.5721(6) 0.8017(7) 1.0409(3)
H15 H 0.4940 0.8386 1.0191
C30 C 0.5759(6) 0.8063(7) 1.1158(3)
H16 H 0.4982 0.8470 1.1432
C31 C 0.7951(6) 0.6920(7) 1.1106(3)
H17 H 0.8711 0.6531 1.1340
C32 C 0.8000(7) 0.6821(8) 1.0356(4)
H18 H 0.8781 0.6364 1.0101
Zn1_2 Zn -0.34332(5) 0.75824(6) 0.42308(3)
Zn1_3 Zn 0.65668(5) -0.24176(6) 0.42308(3)
Zn2_2 Zn -0.31858(6) 0.76191(6) 0.26037(3)
Zn2_3 Zn 0.68142(6) -0.23809(6) 0.26037(3)
Zn2_4 Zn 0.68142(6) 0.76191(6) 1.26037(3)
O3_2 O 0.8764(4) 0.7260(4) 0.2687(2)
O4_2 O 0.8546(4) 0.7184(4) 0.3908(2)
O7_2 O 0.6578(4) 0.9499(4) 0.2838(2)
O8_2 O 0.6412(4) 0.9473(4) 0.4058(2)
N2_2 N 0.6851(4) 0.7555(4) 0.1505(2)
C33 C 0.9804(7) 0.3587(9) 0.4037(6)
H19 H 0.9712 0.4445 0.3852
H20 H 1.0556 0.3281 0.4314
H21 H 0.9038 0.3606 0.4341
C34 C 1.0124(9) 0.1392(10) 0.3597(8)
H22 H 1.0219 0.0952 0.3148
H23 H 0.9373 0.1322 0.3885
H24 H 1.0891 0.1004 0.3856
C35 C 0.9894(8) 0.3245(13) 0.2761(7)
H25 H 0.9750 0.4128 0.2687
N3 N 0.9960(7) 0.2742(8) 0.3450(6)
O9 O 1.0025(8) 0.2528(10) 0.2223(5)
O10 O 0.2671(6) 0.9227(9) 0.0780(5)
N4 N 0.0509(7) 0.9438(7) 0.1004(4)
C36 C 0.1565(8) 0.9779(10) 0.1077(5)
H26 H 0.1463 1.0479 0.1370
C37 C -0.0732(9) 1.0070(10) 0.1410(6)
H27 H -0.0662 1.0765 0.1685
H28 H -0.0952 0.9450 0.1734
H29 H -0.1402 1.0411 0.1080
C38 C 0.0612(11) 0.8342(11) 0.0542(6)
H30 H 0.1472 0.8035 0.0299
H31 H -0.0025 0.8623 0.0189
H32 H 0.0457 0.7655 0.0837
O11 O 0.9371(12) 0.3519(11) 0.0858(6)
C39? C 0.680(2) 0.361(2) 0.0786(12)
O12? O 0.680(2) 0.361(2) 0.0786(12)
C40? C 0.455(3) 0.556(3) 0.1227(19)
O13? O 0.455(3) 0.556(3) 0.1227(19)
C41? C 0.4990(18) 0.5011(18) 0.0415(9)
N5? N 0.4990(18) 0.5011(18) 0.0415(9)
C42? C 0.5989(19) 0.4231(18) 0.0232(10)
N6? N 0.5989(19) 0.4231(18) 0.0232(10)
loop_
_geom_bond_atom_site_label_1
_geom_bond_atom_site_label_2
_geom_bond_site_symmetry_1
_geom_bond_site_symmetry_2
Zn1 O1 1_555 1_555
Zn2 O2 1_555 1_555
O1 C7 1_555 1_555
O2 C7 1_555 1_555
O3 C8 1_555 1_555
O4 C8 1_555 1_555
O5 Zn1 1_555 1_555
O6 Zn2 1_555 1_555
O7 C16 1_555 1_555
O8 C16 1_555 1_555
N1 Zn1 1_555 1_555
N2 C30 1_555 1_555
F1 C27 1_555 1_555
F2 C26 1_555 1_555
C1 C2 1_555 1_555
C2 H1 1_555 1_555
C3 C2 1_555 1_555
H2 C3 1_555 1_555
C4 C3 1_555 1_555
C5 C4 1_555 1_555
H3 C5 1_555 1_555
C6 C1 1_555 1_555
H4 C6 1_555 1_555
C7 C1 1_555 1_555
C8 C4 1_555 1_555
C9 C10 1_555 1_555
C10 H5 1_555 1_555
C11 C10 1_555 1_555
H6 C11 1_555 1_555
C12 C11 1_555 1_555
C13 C12 1_555 1_555
H7 C13 1_555 1_555
C14 C9 1_555 1_555
H8 C14 1_555 1_555
C15 O5 1_555 1_555
C16 C12 1_555 1_555
C17 N1 1_555 1_555
H9 C17 1_555 1_555
C18 C17 1_555 1_555
H10 C18 1_555 1_555
C19 C18 1_555 1_555
C20 C19 1_555 1_555
H11 C20 1_555 1_555
C21 N1 1_555 1_555
H12 C21 1_555 1_555
C22 C19 1_555 1_555
C23 C22 1_555 1_555
H13 C23 1_555 1_555
C24 C23 1_555 1_555
H14 C24 1_555 1_555
C25 C24 1_555 1_555
C26 C25 1_555 1_555
C27 C22 1_555 1_555
C28 C25 1_555 1_555
C29 C28 1_555 1_555
H15 C29 1_555 1_555
C30 C29 1_555 1_555
H16 C30 1_555 1_555
C31 N2 1_555 1_555
H17 C31 1_555 1_555
C32 C28 1_555 1_555
H18 C32 1_555 1_555
C33 H19 1_555 1_555
H20 C33 1_555 1_555
H21 C33 1_555 1_555
C34 H22 1_555 1_555
H23 C34 1_555 1_555
H24 C34 1_555 1_555
C35 H25 1_555 1_555
N3 C33 1_555 1_555
O9 C35 1_555 1_555
O10 C36 1_555 1_555
N4 C36 1_555 1_555
C36 H26 1_555 1_555
C37 N4 1_555 1_555
H27 C37 1_555 1_555
H28 C37 1_555 1_555
H29 C37 1_555 1_555
C38 N4 1_555 1_555
H30 C38 1_555 1_555
H31 C38 1_555 1_555
H32 C38 1_555 1_555
Zn1_2 O4 1_555 1_555
Zn1_3 O8 1_555 1_555
Zn2_2 O3 1_555 1_555
Zn2_3 O7 1_555 1_555
Zn2_4 N2 1_555 1_555
O3_2 Zn2 1_555 1_555
O4_2 Zn1 1_555 1_555
O7_2 Zn2 1_555 1_555
O8_2 Zn1 1_555 1_555
N2_2 Zn2 1_555 1_555
O6 C15 1_555 1_555
C5 C6 1_555 1_555
C9 C15 1_555 1_555
C13 C14 1_555 1_555
C20 C21 1_555 1_555
C26 C27 1_555 1_555
C31 C32 1_555 1_555
C34 N3 1_555 1_555
C35 N3 1_555 1_555

#END
