
#######################################################################
#
#                 Cambridge Crystallographic Data Centre
#                                CCDC 
#
#######################################################################
#
# If this CIF has been generated from an entry in the Cambridge 
# Structural Database, then it will include bibliographic, chemical, 
# crystal, experimental, refinement or atomic coordinate data resulting 
# from the CCDC's data processing and validation procedures.
#
#######################################################################

data_YOZBIZ01
_chemical_formula_moiety         '(C20 H12 N12 O8 Zn2)n'
_chemical_name_systematic        
'catena-(bis((\m~2~-5-Nitrobenzimidazolato)-(\m~2~-2-nitroimidazolato))-di-zinc(ii) unknown solvate)'
_symmetry_cell_setting           hexagonal
_symmetry_space_group_name_H-M   'P 63/m m c'
_symmetry_Int_Tables_number      194
_space_group_name_Hall           '-P 6c 2c'
loop_
_symmetry_equiv_pos_site_id
_symmetry_equiv_pos_as_xyz
1 x,y,z
2 -y,x-y,z
3 -x+y,-x,z
4 -x,-y,1/2+z
5 y,-x+y,1/2+z
6 x-y,x,1/2+z
7 y,x,-z
8 x-y,-y,-z
9 -x,-x+y,-z
10 -y,-x,1/2-z
11 -x+y,y,1/2-z
12 x,x-y,1/2-z
13 -x,-y,-z
14 y,-x+y,-z
15 x-y,x,-z
16 x,y,1/2-z
17 -y,x-y,1/2-z
18 -x+y,-x,1/2-z
19 -y,-x,z
20 -x+y,y,z
21 x,x-y,z
22 y,x,1/2+z
23 x-y,-y,1/2+z
24 -x,-x+y,1/2+z
_cell_length_a                   26.1174(3)
_cell_length_b                   26.1174(3)
_cell_length_c                   19.4910(4)
_cell_angle_alpha                90
_cell_angle_beta                 90
_cell_angle_gamma                120
_cell_volume                     11514
_exptl_crystal_colour            yellow
_exptl_crystal_description       prism
_cell_formula_units_Z            12
loop_
_atom_site_label
_atom_site_type_symbol
_atom_site_fract_x
_atom_site_fract_y
_atom_site_fract_z
_atom_site_U_iso_or_equiv
_atom_site_thermal_displace_type
Zn1 Zn 0.43551(7) 0.33203(6) 0.59613(9) 0.0780 Uani
C1 C 0.3582(7) 0.3250(6) 0.7120(7) 0.1130 Uiso
H1 H 0.3292 0.3258 0.6831 0.1360 Uiso
N1 N 0.4067(5) 0.3238(4) 0.6915(5) 0.0776 Uani
C2 C 0.4306(8) 0.3222(7) 0.7500 0.0610 Uiso
N2 N 0.4861(6) 0.3227(5) 0.7500 0.0503 Uani
O1 O 0.5081(3) 0.3221(3) 0.6948(4) 0.0664 Uani
C3 C 0.5586(13) 0.3777(17) 0.5364(13) 0.1190 Uiso
H2 H 0.5504 0.3399 0.5209 0.1430 Uiso
N3 N 0.5182(8) 0.3954(7) 0.5666(8) 0.0380 Uiso
C6 C 0.5448(8) 0.4552(8) 0.602(2) 0.0470 Uiso
N6 N 0.5189(7) 0.4811(7) 0.6110(13) 0.0750 Uiso
O2 O 0.5486(7) 0.5332(7) 0.6226(8) 0.0790 Uiso
C7 C 0.4329(5) 0.2164(2) 0.6007(5) 0.0710 Uiso
H4 H 0.4343 0.2172 0.6494 0.0850 Uiso
N7 N 0.4317(3) 0.26028(19) 0.5614(4) 0.0697 Uani
C8 C 0.4293(6) 0.2412(3) 0.4969(4) 0.1010 Uiso
C9 C 0.4277(9) 0.2687(5) 0.4348(4) 0.1850 Uiso
H5 H 0.4276 0.3050 0.4343 0.2220 Uiso
C10 C 0.4262(13) 0.2398(6) 0.3759(4) 0.3010 Uiso
N8 N 0.440(6) 0.277(16) 0.313(9) 0.6000 Uiso
O4 O 0.4292(14) 0.3144(16) 0.3099(18) 0.2240 Uiso
C11 C 0.3852(8) 0.3852(8) 0.5000 0.0950 Uiso
H7 H 0.4216 0.4216 0.5000 0.1140 Uiso
N9 N 0.3760(4) 0.3388(4) 0.5402(6) 0.1020 Uani
C12 C 0.3201(6) 0.2971(6) 0.5255(6) 0.0900 Uiso
C13 C 0.2861(7) 0.2389(7) 0.5523(8) 0.1310 Uiso
C14 C 0.2296(7) 0.2073(8) 0.5227(9) 0.1390 Uiso
N10 N 0.1970(15) 0.1418(15) 0.5531(17) 0.1700 Uiso
Zn1R Zn 0.66797(6) 0.56449(7) 0.59613(9) 0.0780 Uani
Zn1T Zn 0.43551(7) 0.10348(9) 0.59613(9) 0.0780 Uani
Zn1O Zn 0.43551(7) 0.33203(6) 0.90387(9) 0.0780 Uani
Zn1F Zn 0.33203(6) 0.43551(7) 0.40387(9) 0.0780 Uani
C1O C 0.3582(7) 0.3250(6) 0.7880(7) 0.1130 Uiso
N1O N 0.4067(5) 0.3238(4) 0.8085(5) 0.0776 Uani
O1O O 0.5081(3) 0.3221(3) 0.8052(4) 0.0664 Uani
C3R C 0.6223(17) 0.4414(13) 0.5364(13) 0.1190 Uiso
N3R N 0.6046(7) 0.4818(8) 0.5666(8) 0.0380 Uiso
O2R O 0.4668(7) 0.4514(7) 0.6226(8) 0.0790 Uiso
N7T N 0.4317(3) 0.17142(36) 0.5614(4) 0.0697 Uani
C8T C 0.4293(6) 0.1881(7) 0.4969(4) 0.1010 Uiso
C9T C 0.4277(9) 0.1590(10) 0.4348(4) 0.1850 Uiso
C10T C 0.4262(13) 0.1864(14) 0.3759(4) 0.3010 Uiso
N8T N 0.440(6) 0.163(17) 0.313(9) 0.6000 Uiso
N9F N 0.3388(4) 0.3760(4) 0.4598(6) 0.1020 Uani
C12F C 0.2971(6) 0.3201(6) 0.4745(6) 0.0900 Uiso
C13F C 0.2389(7) 0.2861(7) 0.4477(8) 0.1310 Uiso
C14F C 0.2073(8) 0.2296(7) 0.4773(9) 0.1390 Uiso
N10F N 0.1418(15) 0.1970(15) 0.4469(17) 0.1700 Uiso
C4? C 0.5519(7) 0.4481(7) 0.5755(17) 0.0340 Uiso
C5? C 0.5494(14) 0.3985(13) 0.5280(17) 0.1130 Uiso
H3? H 0.5757 0.4175 0.4907 0.1360 Uiso
N4? N 0.5092(14) 0.4091(14) 0.5917(15) 0.1340 Uiso
N5? N 0.5250(9) 0.4750(9) 0.658(2) 0.1340 Uiso
O3? O 0.5578(11) 0.5257(11) 0.6773(13) 0.1540 Uiso
H6? H 0.4252 0.2567 0.3331 0.3610 Uiso
O5? O 0.473(3) 0.281(3) 0.2500 0.3300 Uiso
H8? H 0.3001 0.2231 0.5866 0.1570 Uiso
H9? H 0.2053 0.1672 0.5358 0.1670 Uiso
O6? O 0.1434(13) 0.1155(11) 0.5136(15) 0.1870 Uiso
O7? O 0.2237(17) 0.1118(8) 0.5910(17) 0.3280 Uiso
O8? O 0.3708(8) 0.1854(4) 0.7500 0.0911 Uani
C15? C 0.4762(9) 0.9524(18) 0.562(2) 0.2540 Uiso
loop_
_atom_site_aniso_label
_atom_site_aniso_U_11
_atom_site_aniso_U_22
_atom_site_aniso_U_33
_atom_site_aniso_U_23
_atom_site_aniso_U_13
_atom_site_aniso_U_12
Zn1 0.0835(16) 0.0630(14) 0.0952(17) 0.0153(9) -0.0186(9) 0.0425(11)
N1 0.089(8) 0.099(8) 0.086(8) 0.006(6) 0.007(6) 0.078(7)
N2 0.062(10) 0.037(8) 0.047(11) 0.000 0.000 0.021(7)
O1 0.076(6) 0.065(6) 0.058(6) 0.005(4) 0.005(5) 0.035(5)
N7 0.112(8) 0.096(7) 0.017(5) -0.014(5) -0.022(5) 0.064(7)
N9 0.081(8) 0.057(7) 0.146(10) 0.032(7) -0.052(7) 0.018(6)
Zn1R 0.063 0.0835 0.0952 0.0186 -0.0153 0.0425
Zn1T 0.0835 0.0615 0.0952 -0.0339 -0.0186 0.041
Zn1O 0.0835 0.063 0.0952 -0.0153 0.0186 0.0425
Zn1F 0.063 0.0835 0.0952 0.0186 -0.0153 0.0425
N1O 0.089 0.099 0.086 -0.006 -0.007 0.078
O1O 0.076 0.065 0.058 -0.005 -0.005 0.035
N7T 0.112 0.08 0.017 -0.008 -0.022 0.048
N9F 0.057 0.081 0.146 0.052 -0.032 0.018
O8? 0.159(17) 0.087(8) 0.052(10) 0.000 0.000 0.080(8)
loop_
_geom_bond_atom_site_label_1
_geom_bond_atom_site_label_2
_geom_bond_site_symmetry_1
_geom_bond_site_symmetry_2
Zn1 N1 1_555 1_555
C1 H1 1_555 1_555
N1 C1 1_555 1_555
C2 N1 1_555 1_555
N2 C2 1_555 1_555
O1 N2 1_555 1_555
C3 H2 1_555 1_555
N3 Zn1 1_555 1_555
C6 N3 1_555 1_555
N6 C6 1_555 1_555
O2 N6 1_555 1_555
C7 H4 1_555 1_555
N7 Zn1 1_555 1_555
C8 N7 1_555 1_555
C9 C8 1_555 1_555
H5 C9 1_555 1_555
C10 C9 1_555 1_555
N8 C10 1_555 1_555
O4 N8 1_555 1_555
C11 H7 1_555 1_555
N9 Zn1 1_555 1_555
C12 N9 1_555 1_555
C13 C12 1_555 1_555
C14 C13 1_555 1_555
N10 C14 1_555 1_555
Zn1R N3R 1_555 1_555
Zn1T N7T 1_555 1_555
Zn1O N1O 1_555 1_555
Zn1F N9F 1_555 1_555
C1O C1 1_555 1_555
N1O C2 1_555 1_555
O1O N2 1_555 1_555
C3R C3 1_555 1_555
N3R C6 1_555 1_555
O2R N6 1_555 1_555
N7T C7 1_555 1_555
C8T C8 1_555 1_555
C9T C8T 1_555 1_555
C10T C10 1_555 1_555
N8T C10T 1_555 1_555
N9F C11 1_555 1_555
C12F C12 1_555 1_555
C13F C12F 1_555 1_555
C14F C14 1_555 1_555
N10F C14F 1_555 1_555
C3 N3 1_555 1_555
C7 N7 1_555 1_555
C11 N9 1_555 1_555
C1O N1O 1_555 1_555
C3R N3R 1_555 1_555
N7T C8T 1_555 1_555
C9T C10T 1_555 1_555
N9F C12F 1_555 1_555
C13F C14F 1_555 1_555

#END
