
#######################################################################
#
#                 Cambridge Crystallographic Data Centre
#                                CCDC 
#
#######################################################################
#
# If this CIF has been generated from an entry in the Cambridge 
# Structural Database, then it will include bibliographic, chemical, 
# crystal, experimental, refinement or atomic coordinate data resulting 
# from the CCDC's data processing and validation procedures.
#
#######################################################################

data_IBICUT
_chemical_formula_moiety         '(C11 H15 Cl1 N2 O2 Zn1)n'
_chemical_name_systematic        
catena-((\m~3~-3-Methyl-2-(pyridin-4-ylmethylamino)butanoato)-chloro-zinc)
_symmetry_cell_setting           hexagonal
_symmetry_space_group_name_H-M   'P 61'
_symmetry_Int_Tables_number      169
_space_group_name_Hall           'P 61'
loop_
_symmetry_equiv_pos_site_id
_symmetry_equiv_pos_as_xyz
1 x,y,z
2 x-y,x,1/6+z
3 -y,x-y,1/3+z
4 -x,-y,1/2+z
5 -x+y,-x,2/3+z
6 y,-x+y,5/6+z
_cell_length_a                   17.7661(15)
_cell_length_b                   17.7661(15)
_cell_length_c                   10.5104(16)
_cell_angle_alpha                90
_cell_angle_beta                 90
_cell_angle_gamma                120
_cell_volume                     2872.99
_exptl_crystal_colour            colorless
_exptl_crystal_description       rod
_cell_formula_units_Z            6
loop_
_atom_site_label
_atom_site_type_symbol
_atom_site_fract_x
_atom_site_fract_y
_atom_site_fract_z
_atom_site_U_iso_or_equiv
_atom_site_thermal_displace_type
Zn1 Zn 0.54374(5) 0.47053(5) 0.36838(8) 0.0341 Uani
Cl1 Cl 0.46003(19) 0.32803(15) 0.3602(3) 0.0899 Uani
O1 O 0.4251(4) 0.5152(4) 0.6726(5) 0.0511 Uani
O2 O 0.5168(3) 0.4891(3) 0.5651(4) 0.0387 Uani
N1 N 0.5187(4) 0.8447(4) 0.2419(5) 0.0430 Uani
N2 N 0.5064(3) 0.5652(3) 0.3497(5) 0.0313 Uani
H1 H 0.4747 0.5539 0.2770 0.0380 Uiso
C1 C 0.5051(5) 0.7831(6) 0.1583(8) 0.0596 Uani
H2 H 0.4792 0.7815 0.0807 0.0720 Uiso
C2 C 0.5561(4) 0.8478(5) 0.3510(7) 0.0460 Uani
H3 H 0.5668 0.8921 0.4079 0.0550 Uiso
C3 C 0.5799(5) 0.7877(5) 0.3841(8) 0.0542 Uani
H4 H 0.6051 0.7912 0.4630 0.0650 Uiso
C4 C 0.4501(4) 0.5612(5) 0.4591(7) 0.0363 Uani
H5 H 0.4696 0.6214 0.4834 0.0430 Uiso
C5 C 0.4667(4) 0.5183(4) 0.5751(6) 0.0328 Uani
C6 C 0.3547(5) 0.5202(5) 0.4263(7) 0.0490 Uani
H6 H 0.3248 0.5182 0.5057 0.0580 Uiso
C7 C 0.3183(6) 0.4275(7) 0.3847(10) 0.0773 Uani
H7 H 0.3474 0.4259 0.3087 0.1150 Uiso
H8 H 0.2573 0.4022 0.3680 0.1150 Uiso
H9 H 0.3271 0.3954 0.4507 0.1150 Uiso
C8 C 0.5665(5) 0.7214(5) 0.3000(7) 0.0453 Uani
C9 C 0.5865(5) 0.6506(4) 0.3348(7) 0.0426 Uani
H10 H 0.6225 0.6463 0.2689 0.0510 Uiso
H11 H 0.6191 0.6658 0.4138 0.0510 Uiso
C10 C 0.3353(6) 0.5752(7) 0.3323(9) 0.0726 Uani
H12 H 0.3647 0.6347 0.3598 0.1090 Uiso
H13 H 0.2738 0.5536 0.3297 0.1090 Uiso
H14 H 0.3553 0.5716 0.2490 0.1090 Uiso
C11 C 0.5284(5) 0.7217(7) 0.1842(8) 0.0658 Uani
H15 H 0.5186 0.6797 0.1235 0.0790 Uiso
Zn1C Zn 0.45626(5) 0.52947(5) 0.86838(8) 0.0341 Uani
Zn1E Zn 0.47053(5) 0.92679(7) 0.20171(8) 0.0341 Uani
O1C O 0.5749(4) 0.4848(4) 0.1726(5) 0.0511 Uani
N1A N 0.6740(6) 0.5187(4) 0.4086(5) 0.0430 Uani
loop_
_atom_site_aniso_label
_atom_site_aniso_U_11
_atom_site_aniso_U_22
_atom_site_aniso_U_33
_atom_site_aniso_U_23
_atom_site_aniso_U_13
_atom_site_aniso_U_12
Zn1 0.0461(5) 0.0479(5) 0.0274(3) 0.0018(4) 0.0016(4) 0.0378(4)
Cl1 0.129(2) 0.0558(13) 0.084(2) 0.0010(14) 0.0135(18) 0.0455(14)
O1 0.065 0.093 0.024 0.007 0.008 0.061
O2 0.053 0.064 0.024 0.01 0.005 0.048
N1 0.078 0.029 0.029 0.003 0.001 0.032
N2 0.050(3) 0.039(3) 0.018(3) 0.005(2) 0.001(2) 0.032(2)
C1 0.102 0.051 0.04 -0.001 -0.009 0.049
C2 0.072 0.037 0.034 -0.007 -0.002 0.031
C3 0.078 0.045 0.04 -0.004 -0.009 0.031
C4 0.046(4) 0.047(4) 0.033(4) -0.001(3) 0.003(3) 0.036(3)
C5 0.04 0.044 0.025 0.002 -0.002 0.029
C6 0.039(4) 0.079(5) 0.039(4) 0.007(4) 0.002(3) 0.037(4)
C7 0.059(5) 0.094(7) 0.076(7) -0.004(6) -0.020(5) 0.036(5)
C8 0.063 0.041 0.04 0.007 0.008 0.032
C9 0.054(4) 0.050(4) 0.041(5) 0.001(3) 0.004(3) 0.039(4)
C10 0.063(5) 0.121(8) 0.063(6) 0.015(6) -0.007(5) 0.068(6)
C11 0.142 0.047 0.028 -0.007 -0.005 0.062
Zn1C 0.0461 0.0479 0.0274 -0.0018 -0.0016 0.0378
Zn1E 0.0479 0.0184 0.0274 0.0002 0.0018 0.0101
O1C 0.065 0.093 0.024 -0.007 -0.008 0.061
N1A 0.043 0.078 0.029 0.001 -0.002 0.046
loop_
_geom_bond_atom_site_label_1
_geom_bond_atom_site_label_2
_geom_bond_site_symmetry_1
_geom_bond_site_symmetry_2
Zn1 Cl1 1_555 1_555
O1 C5 1_555 1_555
O2 Zn1 1_555 1_555
N1 C1 1_555 1_555
N2 Zn1 1_555 1_555
H1 N2 1_555 1_555
C1 H2 1_555 1_555
C2 N1 1_555 1_555
H3 C2 1_555 1_555
C3 C2 1_555 1_555
H4 C3 1_555 1_555
C4 N2 1_555 1_555
H5 C4 1_555 1_555
C5 O2 1_555 1_555
C6 C4 1_555 1_555
H6 C6 1_555 1_555
C7 C6 1_555 1_555
H7 C7 1_555 1_555
H8 C7 1_555 1_555
H9 C7 1_555 1_555
C8 C3 1_555 1_555
C9 N2 1_555 1_555
H10 C9 1_555 1_555
H11 C9 1_555 1_555
C10 C6 1_555 1_555
H12 C10 1_555 1_555
H13 C10 1_555 1_555
H14 C10 1_555 1_555
C11 C1 1_555 1_555
H15 C11 1_555 1_555
Zn1C O1 1_555 1_555
Zn1E N1 1_555 1_555
O1C Zn1 1_555 1_555
N1A Zn1 1_555 1_555
C4 C5 1_555 1_555
C8 C9 1_555 1_555
C8 C11 1_555 1_555

#END
