
#######################################################################
#
#                 Cambridge Crystallographic Data Centre
#                                CCDC 
#
#######################################################################
#
# If this CIF has been generated from an entry in the Cambridge 
# Structural Database, then it will include bibliographic, chemical, 
# crystal, experimental, refinement or atomic coordinate data resulting 
# from the CCDC's data processing and validation procedures.
#
#######################################################################

data_CUKXUC
_chemical_formula_moiety         '(C15 H20 Eu2 N6 O16)n,9n(H2 O1)'
_chemical_name_systematic        
"catena-((\m~6~-2,2',2'',2''',2'''',2'''''-(1,3,5-Triazine-2,4,6-triyltrinitrilo)-hexaacetato)-tetraaqua-di-europium nonahydrate)"
_symmetry_cell_setting           monoclinic
_symmetry_space_group_name_H-M   'C 2/c'
_symmetry_Int_Tables_number      15
_space_group_name_Hall           '-C 2yc'
loop_
_symmetry_equiv_pos_site_id
_symmetry_equiv_pos_as_xyz
1 x,y,z
2 -x,y,1/2-z
3 1/2+x,1/2+y,z
4 1/2-x,1/2+y,1/2-z
5 -x,-y,-z
6 x,-y,1/2+z
7 1/2-x,1/2-y,-z
8 1/2+x,1/2-y,1/2+z
_cell_length_a                   12.762(4)
_cell_length_b                   16.866(5)
_cell_length_c                   19.373(4)
_cell_angle_alpha                90
_cell_angle_beta                 130.191(13)
_cell_angle_gamma                90
_cell_volume                     3185.39
_exptl_crystal_colour            colorless
_exptl_crystal_description       block
_cell_formula_units_Z            4
loop_
_atom_site_label
_atom_site_type_symbol
_atom_site_fract_x
_atom_site_fract_y
_atom_site_fract_z
_atom_site_U_iso_or_equiv
_atom_site_thermal_displace_type
Eu1 Eu 0.43299(3) 0.448580(18) 0.55728(2) 0.0191 Uani
O1 O 0.0920(6) 0.0771(3) 0.2199(3) 0.0334 Uani
O2 O 0.0652(6) 0.1780(3) 0.1377(3) 0.0335 Uani
O3 O 0.4883(5) 0.4209(3) 0.3847(3) 0.0260 Uani
O4 O 0.4041(5) 0.3653(3) 0.4458(3) 0.0242 Uani
O5 O 0.3645(5) 0.5336(3) 0.4210(3) 0.0242 Uani
O6 O 0.2097(5) 0.5122(3) 0.4353(3) 0.0309 Uani
O7 O 0.2611(6) 0.3415(3) 0.5028(4) 0.0415 Uani
O8 O 0.3205(6) 0.4786(3) 0.6195(3) 0.0380 Uani
N1 N 0.0000 0.2779(4) 0.2500 0.0235 Uani
N2 N 0.1100(6) 0.3996(3) 0.2692(4) 0.0230 Uani
N3 N 0.2115(6) 0.2798(3) 0.2897(4) 0.0240 Uani
N4 N 0.0000 0.5171(4) 0.2500 0.0246 Uani
C1 C 0.1038(7) 0.3209(4) 0.2691(4) 0.0244 Uani
C2 C 0.0000 0.4357(6) 0.2500 0.0256 Uani
C3 C 0.2170(7) 0.1953(3) 0.3009(4) 0.0222 Uani
H1 H 0.1966 0.1830 0.3401 0.0270 Uiso
H2 H 0.3099 0.1776 0.3313 0.0270 Uiso
C4 C 0.1195(7) 0.1484(4) 0.2138(4) 0.0222 Uani
C5 C 0.3211(7) 0.3216(4) 0.3010(4) 0.0241 Uani
H3 H 0.2807 0.3550 0.2485 0.0290 Uiso
H4 H 0.3785 0.2829 0.3023 0.0290 Uiso
C6 C 0.4125(7) 0.3732(4) 0.3856(4) 0.0213 Uani
C7 C 0.1288(8) 0.5570(4) 0.2903(5) 0.0260 Uani
H5 H 0.1150 0.6139 0.2870 0.0310 Uiso
H6 H 0.1578 0.5443 0.2560 0.0310 Uiso
C8 C 0.2412(7) 0.5330(4) 0.3887(4) 0.0210 Uani
Eu1F Eu 0.06701(3) 0.051420(18) 0.44272(2) 0.0191 Uani
Eu1D Eu 0.56701(3) 0.551420(18) 0.44272(2) 0.0191 Uani
Eu1G Eu -0.06701(3) 0.051420(18) 0.05728(2) 0.0191 Uani
Eu1E Eu -0.56701(3) 0.551420(18) 0.05728(2) 0.0191 Uani
Eu1A Eu -0.43299(3) 0.448580(18) -0.05728(2) 0.0191 Uani
O1A O -0.0920(6) 0.0771(3) 0.2801(3) 0.0334 Uani
O1G O 0.5920(6) 0.4229(3) 0.7199(3) 0.0334 Uani
O1F O -0.5920(6) 0.4229(3) -0.2199(3) 0.0334 Uani
O2A O -0.0652(6) 0.1780(3) 0.3623(3) 0.0335 Uani
O2G O 0.5652(6) 0.3220(3) 0.6377(3) 0.0335 Uani
O2F O -0.5652(6) 0.3220(3) -0.1377(3) 0.0335 Uani
O3A O -0.4883(5) 0.4209(3) 0.1153(3) 0.0260 Uani
O3D O 0.5117(5) 0.5791(3) 0.6153(3) 0.0260 Uani
O3E O -0.5117(5) 0.5791(3) -0.1153(3) 0.0260 Uani
O4A O -0.4041(5) 0.3653(3) 0.0542(3) 0.0242 Uani
O5A O -0.3645(5) 0.5336(3) 0.0790(3) 0.0242 Uani
O5D O 0.6355(5) 0.4664(3) 0.5790(3) 0.0242 Uani
O5E O -0.6355(5) 0.4664(3) -0.0790(3) 0.0242 Uani
O6A O -0.2097(5) 0.5122(3) 0.0647(3) 0.0309 Uani
O7A O -0.2611(6) 0.3415(3) -0.0028(4) 0.0415 Uani
O8A O -0.3205(6) 0.4786(3) -0.1195(3) 0.0380 Uani
N2A N -0.1100(6) 0.3996(3) 0.2308(4) 0.0230 Uani
N3A N -0.2115(6) 0.2798(3) 0.2103(4) 0.0240 Uani
C1A C -0.1038(7) 0.3209(4) 0.2309(4) 0.0244 Uani
C3A C -0.2170(7) 0.1953(3) 0.1991(4) 0.0222 Uani
H1A H -0.1966 0.1830 0.1599 0.0270 Uiso
H2A H -0.3099 0.1776 0.1687 0.0270 Uiso
C4A C -0.1195(7) 0.1484(4) 0.2862(4) 0.0222 Uani
C5A C -0.3211(7) 0.3216(4) 0.1990(4) 0.0241 Uani
H3A H -0.2807 0.3550 0.2515 0.0290 Uiso
H4A H -0.3785 0.2829 0.1977 0.0290 Uiso
C6A C -0.4125(7) 0.3732(4) 0.1144(4) 0.0213 Uani
C7A C -0.1288(8) 0.5570(4) 0.2097(5) 0.0260 Uani
H5A H -0.1150 0.6139 0.2130 0.0310 Uiso
H6A H -0.1578 0.5443 0.2440 0.0310 Uiso
C8A C -0.2412(7) 0.5330(4) 0.1113(4) 0.0210 Uani
O9 O 0.4200(9) 0.1597(5) 0.0559(5) 0.1021 Uani
O10 O 0.4951(7) 0.1802(4) 0.5504(4) 0.0645 Uani
O11 O 0.5000 0.3707(5) 0.2500 0.0676 Uani
O12 O 0.0807(12) 0.4784(7) 0.0879(7) 0.1625 Uani
O13 O 0.3262(10) 0.2513(5) 0.1229(5) 0.1195 Uani
loop_
_atom_site_aniso_label
_atom_site_aniso_U_11
_atom_site_aniso_U_22
_atom_site_aniso_U_33
_atom_site_aniso_U_23
_atom_site_aniso_U_13
_atom_site_aniso_U_12
Eu1 0.0174 0.0194 0.0169 0.00153 0.0094 -0.0003
O1 0.044(4) 0.028(3) 0.024(3) -0.006(2) 0.020(3) -0.009(3)
O2 0.046(4) 0.021(3) 0.025(3) 0.000(2) 0.019(3) -0.002(2)
O3 0.025(3) 0.024(3) 0.031(3) -0.007(2) 0.019(3) -0.011(2)
O4 0.027(3) 0.027(3) 0.019(2) 0.000(2) 0.015(2) -0.003(2)
O5 0.014(3) 0.028(3) 0.025(3) -0.001(2) 0.010(2) 0.002(2)
O6 0.016(3) 0.047(3) 0.021(2) 0.010(2) 0.008(2) 0.003(2)
O7 0.05 0.025 0.052 -0.007 0.034 -0.012
O8 0.048 0.042 0.034 0.001 0.031 -0.001
N1 0.026(5) 0.020(4) 0.019(4) 0.000 0.012(4) 0.000
N2 0.015(3) 0.018(3) 0.025(3) -0.004(2) 0.008(3) -0.002(2)
N3 0.022(3) 0.016(3) 0.030(3) -0.005(2) 0.015(3) -0.003(2)
N4 0.017(5) 0.017(4) 0.020(4) 0.000 0.003(4) 0.000
C1 0.022(4) 0.032(4) 0.015(3) -0.004(3) 0.010(3) -0.003(3)
C2 0.030(7) 0.029(5) 0.007(4) 0.000 0.007(5) 0.000
C3 0.017(4) 0.021(4) 0.020(3) -0.004(3) 0.008(3) -0.002(3)
C4 0.021(4) 0.022(3) 0.027(4) -0.007(3) 0.017(3) -0.001(3)
C5 0.025(4) 0.025(4) 0.022(3) -0.002(3) 0.015(3) 0.000(3)
C6 0.024(4) 0.012(3) 0.023(3) -0.003(3) 0.013(3) 0.000(3)
C7 0.023(5) 0.023(4) 0.031(4) -0.001(3) 0.017(4) -0.003(3)
C8 0.018(4) 0.015(3) 0.019(3) -0.002(3) 0.007(3) -0.008(3)
Eu1F 0.0174 0.0194 0.0169 0.00153 0.0094 -0.0003
Eu1D 0.0174 0.0194 0.0169 0.00153 0.0094 -0.0003
Eu1G 0.0174(3) 0.0194(2) 0.0169(2) -0.00153(12) 0.0094(2) 0.00030(12)
Eu1E 0.0174 0.0194 0.0169 -0.00153 0.0094 0.0003
Eu1A 0.0174 0.0194 0.0169 -0.00153 0.0094 0.0003
O1A 0.044 0.028 0.024 0.006 0.02 0.009
O1G 0.044 0.028 0.024 0.006 0.02 0.009
O1F 0.044 0.028 0.024 -0.006 0.02 -0.009
O2A 0.046 0.021 0.025 0 0.019 0.002
O2G 0.046 0.021 0.025 0 0.019 0.002
O2F 0.046 0.021 0.025 0 0.019 -0.002
O3A 0.025 0.024 0.031 0.007 0.019 0.011
O3D 0.025 0.024 0.031 -0.007 0.019 -0.011
O3E 0.025 0.024 0.031 0.007 0.019 0.011
O4A 0.027 0.027 0.019 0 0.015 0.003
O5A 0.014 0.028 0.025 0.001 0.01 -0.002
O5D 0.014 0.028 0.025 -0.001 0.01 0.002
O5E 0.014 0.028 0.025 0.001 0.01 -0.002
O6A 0.016 0.047 0.021 -0.01 0.008 -0.003
O7A 0.05 0.025 0.052 0.007 0.034 0.012
O8A 0.048 0.042 0.034 -0.001 0.031 0.001
N2A 0.015 0.018 0.025 0.004 0.008 0.002
N3A 0.022 0.016 0.03 0.005 0.015 0.003
C1A 0.022 0.032 0.015 0.004 0.01 0.003
C3A 0.017 0.021 0.02 0.004 0.008 0.002
C4A 0.021 0.022 0.027 0.007 0.017 0.001
C5A 0.025 0.025 0.022 0.002 0.015 0
C6A 0.024 0.012 0.023 0.003 0.013 0
C7A 0.023 0.023 0.031 0.001 0.017 0.003
C8A 0.018 0.015 0.019 0.002 0.007 0.008
O9 0.118(8) 0.103(7) 0.118(7) -0.016(5) 0.091(7) -0.039(5)
O10 0.065(5) 0.058(4) 0.067(4) -0.015(3) 0.041(4) -0.007(4)
O11 0.100(9) 0.054(6) 0.094(7) 0.000 0.083(7) 0.000
O12 0.150(11) 0.181(11) 0.176(9) -0.079(9) 0.114(9) -0.094(9)
O13 0.146(10) 0.102(7) 0.125(7) -0.002(6) 0.094(7) 0.021(7)
loop_
_geom_bond_atom_site_label_1
_geom_bond_atom_site_label_2
_geom_bond_site_symmetry_1
_geom_bond_site_symmetry_2
Eu1 O4 1_555 1_555
O1 C4 1_555 1_555
O2 C4 1_555 1_555
O3 C6 1_555 1_555
O4 C6 1_555 1_555
O5 Eu1 1_555 1_555
O6 Eu1 1_555 1_555
O7 Eu1 1_555 1_555
O8 Eu1 1_555 1_555
N1 C1 1_555 1_555
N2 C1 1_555 1_555
N3 C1 1_555 1_555
N4 C2 1_555 1_555
C2 N2 1_555 1_555
C3 N3 1_555 1_555
H1 C3 1_555 1_555
H2 C3 1_555 1_555
C4 C3 1_555 1_555
C5 N3 1_555 1_555
H3 C5 1_555 1_555
H4 C5 1_555 1_555
C6 C5 1_555 1_555
C7 N4 1_555 1_555
H5 C7 1_555 1_555
H6 C7 1_555 1_555
C8 O5 1_555 1_555
Eu1F O1A 1_555 1_555
Eu1D O3 1_555 1_555
Eu1G O1 1_555 1_555
Eu1E O3A 1_555 1_555
Eu1A O1F 1_555 1_555
O1A C4A 1_555 1_555
O1G Eu1 1_555 1_555
O2A Eu1F 1_555 1_555
O2G Eu1 1_555 1_555
O2F Eu1A 1_555 1_555
O3A C6A 1_555 1_555
O3D Eu1 1_555 1_555
O3E Eu1A 1_555 1_555
O4A Eu1A 1_555 1_555
O5A Eu1E 1_555 1_555
O5D Eu1 1_555 1_555
O5E Eu1E 1_555 1_555
O6A Eu1A 1_555 1_555
O7A Eu1A 1_555 1_555
O8A Eu1A 1_555 1_555
N2A C2 1_555 1_555
N3A C1A 1_555 1_555
C1A N1 1_555 1_555
C3A N3A 1_555 1_555
H1A C3A 1_555 1_555
H2A C3A 1_555 1_555
C4A O2A 1_555 1_555
C5A N3A 1_555 1_555
H3A C5A 1_555 1_555
H4A C5A 1_555 1_555
C6A O4A 1_555 1_555
C7A N4 1_555 1_555
H5A C7A 1_555 1_555
H6A C7A 1_555 1_555
C8A O5A 1_555 1_555
O2 Eu1G 1_555 1_555
O5 Eu1D 1_555 1_555
O6 C8 1_555 1_555
C7 C8 1_555 1_555
Eu1D O5D 1_555 1_555
Eu1A O5A 1_555 1_555
Eu1A O5E 1_555 1_555
O6A C8A 1_555 1_555
N2A C1A 1_555 1_555
C3A C4A 1_555 1_555
C5A C6A 1_555 1_555
C7A C8A 1_555 1_555

#END
