
#######################################################################
#
#                 Cambridge Crystallographic Data Centre
#                                CCDC 
#
#######################################################################
#
# If this CIF has been generated from an entry in the Cambridge 
# Structural Database, then it will include bibliographic, chemical, 
# crystal, experimental, refinement or atomic coordinate data resulting 
# from the CCDC's data processing and validation procedures.
#
#######################################################################

data_CUKYAJ
_chemical_formula_moiety         '(C15 H20 Dy2 N6 O16)n,9n(H2 O1)'
_chemical_name_systematic        
"catena-((\m~6~-2,2',2'',2''',2'''',2'''''-(1,3,5-Triazine-2,4,6-triyltrinitrilo)-hexaacetato)-tetraaqua-di-dysprosium nonahydrate)"
_symmetry_cell_setting           monoclinic
_symmetry_space_group_name_H-M   'C 2/c'
_symmetry_Int_Tables_number      15
_space_group_name_Hall           '-C 2yc'
loop_
_symmetry_equiv_pos_site_id
_symmetry_equiv_pos_as_xyz
1 x,y,z
2 -x,y,1/2-z
3 1/2+x,1/2+y,z
4 1/2-x,1/2+y,1/2-z
5 -x,-y,-z
6 x,-y,1/2+z
7 1/2-x,1/2-y,-z
8 1/2+x,1/2-y,1/2+z
_cell_length_a                   12.748(4)
_cell_length_b                   16.844(6)
_cell_length_c                   14.802(6)
_cell_angle_alpha                90
_cell_angle_beta                 90.989(7)
_cell_angle_gamma                90
_cell_volume                     3177.92
_exptl_crystal_colour            colorless
_exptl_crystal_description       block
_cell_formula_units_Z            4
loop_
_atom_site_label
_atom_site_type_symbol
_atom_site_fract_x
_atom_site_fract_y
_atom_site_fract_z
_atom_site_U_iso_or_equiv
_atom_site_thermal_displace_type
Dy1 Dy 0.37485(3) 0.19842(2) 0.55709(2) 0.0187 Uani
O1 O 0.3078(4) 0.2831(3) 0.4199(4) 0.0189 Uani
O2 O 0.4758(5) 0.2637(4) 0.4349(4) 0.0253 Uani
O3 O 0.1472(5) 0.1707(3) 0.3849(4) 0.0237 Uani
O4 O 0.2911(4) 0.1147(3) 0.4457(4) 0.0227 Uani
O5 O 0.3766(5) -0.1719(4) 0.2208(4) 0.0274 Uani
O6 O 0.3233(5) -0.0727(3) 0.1393(4) 0.0271 Uani
O7 O 0.4933(5) 0.0911(4) 0.5030(5) 0.0339 Uani
O8 O 0.5492(5) 0.2288(4) 0.6195(4) 0.0304 Uani
N1 N 0.4088(5) 0.1508(4) 0.2692(5) 0.0216 Uani
N2 N 0.5000 0.0275(6) 0.2500 0.0209 Uani
N3 N 0.5000 0.2669(5) 0.2500 0.0195 Uani
N4 N 0.3280(5) 0.0301(4) 0.2895(4) 0.0189 Uani
C1 C 0.5000 0.1873(7) 0.2500 0.0197 Uani
C2 C 0.4157(6) 0.0707(5) 0.2685(5) 0.0173 Uani
C3 C 0.4134(6) 0.3082(4) 0.2889(5) 0.0163 Uani
H1 H 0.3498 0.2968 0.2544 0.0200 Uiso
H2 H 0.4259 0.3649 0.2864 0.0200 Uiso
C4 C 0.3994(6) 0.2821(4) 0.3886(5) 0.0150 Uani
C5 C 0.2295(6) 0.0723(5) 0.2994(6) 0.0213 Uani
H3 H 0.1728 0.0339 0.3001 0.0250 Uiso
H4 H 0.2185 0.1062 0.2472 0.0250 Uiso
C6 C 0.2244(6) 0.1224(4) 0.3835(5) 0.0176 Uani
C7 C 0.3339(6) -0.0548(4) 0.3004(5) 0.0200 Uani
H5 H 0.2708 -0.0728 0.3299 0.0240 Uiso
H6 H 0.3930 -0.0671 0.3401 0.0240 Uiso
C8 C 0.3456(5) -0.1003(4) 0.2140(5) 0.0160 Uani
Dy1A Dy 0.62515(3) 0.19842(2) -0.05709(2) 0.0187 Uani
Dy1D Dy 0.62515(3) -0.19842(2) 0.44291(2) 0.0187 Uani
Dy1E Dy 0.37485(3) -0.19842(2) 0.05709(2) 0.0187 Uani
Dy1F Dy 0.12515(3) 0.30158(2) 0.44291(2) 0.0187 Uani
Dy1G Dy 0.87485(3) 0.30158(2) 0.05709(2) 0.0187 Uani
O1A O 0.6922(4) 0.2831(3) 0.0801(4) 0.0189 Uani
O1F O 0.1922(4) 0.2169(3) 0.5801(4) 0.0189 Uani
O1G O 0.8078(4) 0.2169(3) -0.0801(4) 0.0189 Uani
O2A O 0.5242(5) 0.2637(4) 0.0651(4) 0.0253 Uani
O3A O 0.8528(5) 0.1707(3) 0.1151(4) 0.0237 Uani
O3F O 0.3528(5) 0.3293(3) 0.6151(4) 0.0237 Uani
O3G O 0.6472(5) 0.3293(3) -0.1151(4) 0.0237 Uani
O4A O 0.7089(4) 0.1147(3) 0.0543(4) 0.0227 Uani
O5A O 0.6234(5) -0.1719(4) 0.2792(4) 0.0274 Uani
O5D O 0.6234(5) 0.1719(4) -0.2208(4) 0.0274 Uani
O5E O 0.3766(5) 0.1719(4) 0.7208(4) 0.0274 Uani
O6A O 0.6767(5) -0.0727(3) 0.3607(4) 0.0271 Uani
O6D O 0.6767(5) 0.0727(3) -0.1393(4) 0.0271 Uani
O6E O 0.3233(5) 0.0727(3) 0.6393(4) 0.0271 Uani
O7A O 0.5067(5) 0.0911(4) -0.0030(5) 0.0339 Uani
O8A O 0.4508(5) 0.2288(4) -0.1195(4) 0.0304 Uani
N1A N 0.5912(5) 0.1508(4) 0.2308(5) 0.0216 Uani
N4A N 0.6720(5) 0.0301(4) 0.2105(4) 0.0189 Uani
C2A C 0.5843(6) 0.0707(5) 0.2315(5) 0.0173 Uani
C3A C 0.5866(6) 0.3082(4) 0.2111(5) 0.0163 Uani
H1A H 0.6502 0.2968 0.2456 0.0200 Uiso
H2A H 0.5741 0.3649 0.2136 0.0200 Uiso
C4A C 0.6006(6) 0.2821(4) 0.1114(5) 0.0150 Uani
C5A C 0.7705(6) 0.0723(5) 0.2006(6) 0.0213 Uani
H3A H 0.8272 0.0339 0.1999 0.0250 Uiso
H4A H 0.7815 0.1062 0.2528 0.0250 Uiso
C6A C 0.7756(6) 0.1224(4) 0.1165(5) 0.0176 Uani
C7A C 0.6661(6) -0.0548(4) 0.1996(5) 0.0200 Uani
H5A H 0.7292 -0.0728 0.1701 0.0240 Uiso
H6A H 0.6070 -0.0671 0.1599 0.0240 Uiso
C8A C 0.6544(5) -0.1003(4) 0.2860(5) 0.0160 Uani
O9 O 0.2607(14) 0.2326(13) 0.0890(14) 0.1536 Uani
O10 O 0.0464(11) 0.0032(9) 0.1261(10) 0.1103 Uani
O11 O 0.3841(7) 0.4089(8) 0.0574(7) 0.0798 Uani
O12 O 0.3049(6) 0.0701(5) 0.0496(6) 0.0565 Uani
O13 O 0.0000 0.1215(6) 0.2500 0.0575 Uani
loop_
_atom_site_aniso_label
_atom_site_aniso_U_11
_atom_site_aniso_U_22
_atom_site_aniso_U_33
_atom_site_aniso_U_23
_atom_site_aniso_U_13
_atom_site_aniso_U_12
Dy1 0.0203(3) 0.0203(3) 0.0154(3) 0.00128(12) 0.00009(17) 0.00163(12)
O1 0.022(3) 0.021(3) 0.014(3) 0.004(2) 0.007(2) 0.000(2)
O2 0.026(3) 0.033(3) 0.017(3) 0.005(2) 0.002(2) 0.001(2)
O3 0.026(3) 0.021(3) 0.024(3) -0.008(2) -0.002(2) 0.007(2)
O4 0.026(3) 0.027(3) 0.015(3) -0.003(2) 0.000(2) 0.004(2)
O5 0.042(4) 0.022(3) 0.018(3) -0.007(2) -0.007(2) 0.009(3)
O6 0.044(4) 0.020(3) 0.017(3) -0.001(2) -0.004(2) 0.001(3)
O7 0.033(3) 0.029(3) 0.040(4) -0.006(3) 0.005(3) 0.012(3)
O8 0.028(3) 0.036(4) 0.027(3) 0.002(3) -0.008(2) -0.007(3)
N1 0.025(3) 0.018(3) 0.022(4) -0.003(3) 0.007(3) -0.004(3)
N2 0.021(5) 0.022(5) 0.020(5) 0.000 0.006(4) 0.000
N3 0.033(5) 0.007(4) 0.019(5) 0.000 0.011(4) 0.000
N4 0.017(3) 0.018(3) 0.022(3) -0.008(2) 0.009(2) -0.002(2)
C1 0.023(5) 0.030(5) 0.006(4) 0.000 0.000(4) 0.000
C2 0.019(4) 0.024(4) 0.009(3) -0.003(3) 0.001(3) 0.004(3)
C3 0.010(3) 0.026(4) 0.013(4) 0.000(3) 0.000(3) 0.002(3)
C4 0.020(4) 0.013(3) 0.012(3) 0.001(3) 0.003(3) 0.005(3)
C5 0.017(4) 0.023(4) 0.024(4) -0.004(3) 0.002(3) 0.002(3)
C6 0.019(4) 0.017(3) 0.017(4) -0.007(3) 0.003(3) -0.001(3)
C7 0.026(4) 0.018(4) 0.016(4) -0.008(3) 0.004(3) -0.005(3)
C8 0.015(3) 0.023(4) 0.010(3) -0.004(3) 0.000(3) -0.006(3)
Dy1A 0.0203 0.0203 0.0154 -0.00128 9e-05 -0.00163
Dy1D 0.0203 0.0203 0.0154 0.00128 9e-05 0.00163
Dy1E 0.0203 0.0203 0.0154 -0.00128 9e-05 -0.00163
Dy1F 0.0203 0.0203 0.0154 0.00128 9e-05 0.00163
Dy1G 0.0203 0.0203 0.0154 -0.00128 9e-05 -0.00163
O1A 0.022 0.021 0.014 -0.004 0.007 0
O1F 0.022 0.021 0.014 0.004 0.007 0
O1G 0.022 0.021 0.014 -0.004 0.007 0
O2A 0.026 0.033 0.017 -0.005 0.002 -0.001
O3A 0.026 0.021 0.024 0.008 -0.002 -0.007
O3F 0.026 0.021 0.024 -0.008 -0.002 0.007
O3G 0.026 0.021 0.024 0.008 -0.002 -0.007
O4A 0.026 0.027 0.015 0.003 0 -0.004
O5A 0.042 0.022 0.018 0.007 -0.007 -0.009
O5D 0.042 0.022 0.018 -0.007 -0.007 0.009
O5E 0.042 0.022 0.018 0.007 -0.007 -0.009
O6A 0.044 0.02 0.017 0.001 -0.004 -0.001
O6D 0.044 0.02 0.017 -0.001 -0.004 0.001
O6E 0.044 0.02 0.017 0.001 -0.004 -0.001
O7A 0.033 0.029 0.04 0.006 0.005 -0.012
O8A 0.028 0.036 0.027 -0.002 -0.008 0.007
N1A 0.025 0.018 0.022 0.003 0.007 0.004
N4A 0.017 0.018 0.022 0.008 0.009 0.002
C2A 0.019 0.024 0.009 0.003 0.001 -0.004
C3A 0.01 0.026 0.013 0 0 -0.002
C4A 0.02 0.013 0.012 -0.001 0.003 -0.005
C5A 0.017 0.023 0.024 0.004 0.002 -0.002
C6A 0.019 0.017 0.017 0.007 0.003 0.001
C7A 0.026 0.018 0.016 0.008 0.004 0.005
C8A 0.015 0.023 0.01 0.004 0 0.006
O9 0.126(13) 0.161(16) 0.174(19) -0.079(15) 0.007(12) 0.049(12)
O10 0.114(11) 0.105(10) 0.112(11) -0.030(8) 0.001(8) -0.031(8)
O11 0.062(7) 0.087(9) 0.090(9) -0.013(6) -0.008(6) 0.018(5)
O12 0.050(5) 0.050(5) 0.070(6) 0.018(4) 0.013(4) 0.000(4)
O13 0.059(7) 0.034(6) 0.078(9) 0.000 -0.040(6) 0.000
loop_
_geom_bond_atom_site_label_1
_geom_bond_atom_site_label_2
_geom_bond_site_symmetry_1
_geom_bond_site_symmetry_2
Dy1 O1 1_555 1_555
O1 C4 1_555 1_555
O2 Dy1 1_555 1_555
O3 C6 1_555 1_555
O4 Dy1 1_555 1_555
O5 C8 1_555 1_555
O6 C8 1_555 1_555
O7 Dy1 1_555 1_555
O8 Dy1 1_555 1_555
N1 C1 1_555 1_555
N2 C2 1_555 1_555
N3 C1 1_555 1_555
N4 C2 1_555 1_555
C1 N1A 1_555 1_555
C2 N1 1_555 1_555
C3 N3 1_555 1_555
H1 C3 1_555 1_555
H2 C3 1_555 1_555
C4 O2 1_555 1_555
C5 N4 1_555 1_555
H3 C5 1_555 1_555
H4 C5 1_555 1_555
C6 O4 1_555 1_555
C7 N4 1_555 1_555
H5 C7 1_555 1_555
H6 C7 1_555 1_555
C8 C7 1_555 1_555
Dy1A O1A 1_555 1_555
Dy1D O5A 1_555 1_555
Dy1E O5 1_555 1_555
Dy1F O1 1_555 1_555
Dy1G O1A 1_555 1_555
O1A C4A 1_555 1_555
O1F Dy1 1_555 1_555
O1G Dy1A 1_555 1_555
O2A Dy1A 1_555 1_555
O3A Dy1G 1_555 1_555
O3F Dy1 1_555 1_555
O3G Dy1A 1_555 1_555
O4A Dy1A 1_555 1_555
O5A C8A 1_555 1_555
O5D Dy1A 1_555 1_555
O5E Dy1 1_555 1_555
O6A Dy1D 1_555 1_555
O6D Dy1A 1_555 1_555
O6E Dy1 1_555 1_555
O7A Dy1A 1_555 1_555
O8A Dy1A 1_555 1_555
N1A C2A 1_555 1_555
N4A C2A 1_555 1_555
C2A N2 1_555 1_555
C3A N3 1_555 1_555
H1A C3A 1_555 1_555
H2A C3A 1_555 1_555
C4A O2A 1_555 1_555
C5A N4A 1_555 1_555
H3A C5A 1_555 1_555
H4A C5A 1_555 1_555
C6A O3A 1_555 1_555
C7A N4A 1_555 1_555
H5A C7A 1_555 1_555
H6A C7A 1_555 1_555
C8A O6A 1_555 1_555
O3 Dy1F 1_555 1_555
O6 Dy1E 1_555 1_555
C3 C4 1_555 1_555
C5 C6 1_555 1_555
Dy1F O1F 1_555 1_555
Dy1G O1G 1_555 1_555
O4A C6A 1_555 1_555
C3A C4A 1_555 1_555
C5A C6A 1_555 1_555
C7A C8A 1_555 1_555

#END
