
#######################################################################
#
#                 Cambridge Crystallographic Data Centre
#                                CCDC 
#
#######################################################################
#
# If this CIF has been generated from an entry in the Cambridge 
# Structural Database, then it will include bibliographic, chemical, 
# crystal, experimental, refinement or atomic coordinate data resulting 
# from the CCDC's data processing and validation procedures.
#
#######################################################################

data_FUTZOK
_chemical_formula_moiety         '(C15 H20 Gd2 N6 O16)n,9n(H2 O1)'
_chemical_name_systematic        
"catena-((\m~6~-2,2',2'',2''',2'''',2'''''-(1,3,5-Triazine-2,4,6-triyltrinitrilo)-hexaacetato)-tetraaqua-di-gadolinium nonahydrate)"
_symmetry_cell_setting           monoclinic
_symmetry_space_group_name_H-M   'C 2/c'
_symmetry_Int_Tables_number      15
_space_group_name_Hall           '-C 2yc'
loop_
_symmetry_equiv_pos_site_id
_symmetry_equiv_pos_as_xyz
1 x,y,z
2 -x,y,1/2-z
3 1/2+x,1/2+y,z
4 1/2-x,1/2+y,1/2-z
5 -x,-y,-z
6 x,-y,1/2+z
7 1/2-x,1/2-y,-z
8 1/2+x,1/2-y,1/2+z
_cell_length_a                   12.767(4)
_cell_length_b                   16.867(5)
_cell_length_c                   19.354(5)
_cell_angle_alpha                90
_cell_angle_beta                 130.276(14)
_cell_angle_gamma                90
_cell_volume                     3179.71
_exptl_crystal_colour            colorless
_exptl_crystal_description       block
_cell_formula_units_Z            4
loop_
_atom_site_label
_atom_site_type_symbol
_atom_site_fract_x
_atom_site_fract_y
_atom_site_fract_z
_atom_site_U_iso_or_equiv
_atom_site_thermal_displace_type
Gd1 Gd 0.06646(2) 0.448690(12) -0.057460(14) 0.0156 Uani
O1 O 0.4070(4) 0.0774(2) 0.2801(2) 0.0309 Uani
O2 O 0.4335(4) 0.1771(2) 0.3615(2) 0.0310 Uani
O3 O 0.0958(4) 0.3658(2) 0.0542(2) 0.0245 Uani
O4 O 0.0117(4) 0.4211(2) 0.1151(2) 0.0255 Uani
O5 O 0.2891(3) 0.5112(2) 0.0640(2) 0.0284 Uani
O6 O 0.1361(3) 0.5331(2) 0.0790(2) 0.0225 Uani
O7 O 0.1766(4) 0.4785(3) -0.1200(3) 0.0335 Uani
O8 O 0.2370(4) 0.3421(2) -0.0042(3) 0.0393 Uani
N1 N 0.5000 0.2767(3) 0.2500 0.0227 Uani
N2 N 0.3903(4) 0.4000(2) 0.2312(3) 0.0233 Uani
N3 N 0.2874(4) 0.2792(2) 0.2096(3) 0.0227 Uani
N4 N 0.5000 0.5156(3) 0.2500 0.0226 Uani
C1 C 0.3965(4) 0.3201(3) 0.2307(3) 0.0194 Uani
C2 C 0.5000 0.4358(4) 0.2500 0.0202 Uani
C3 C 0.2829(4) 0.1945(3) 0.1991(3) 0.0205 Uani
H1 H 0.3024 0.1821 0.1594 0.0250 Uiso
H2 H 0.1904 0.1763 0.1695 0.0250 Uiso
C4 C 0.3817(5) 0.1489(3) 0.2862(3) 0.0199 Uani
C5 C 0.1800(5) 0.3213(3) 0.2000(3) 0.0230 Uani
H3 H 0.2219 0.3545 0.2529 0.0270 Uiso
H4 H 0.1225 0.2829 0.1990 0.0270 Uiso
C6 C 0.0886(5) 0.3732(3) 0.1154(3) 0.0203 Uani
C7 C 0.3730(5) 0.5573(3) 0.2100(3) 0.0205 Uani
H5 H 0.3882 0.6139 0.2125 0.0250 Uiso
H6 H 0.3440 0.5462 0.2446 0.0250 Uiso
C8 C 0.2600(4) 0.5321(3) 0.1116(3) 0.0175 Uani
Gd1F Gd 0.43354(2) 0.051310(12) 0.057460(14) 0.0156 Uani
Gd1G Gd 0.56646(2) 0.051310(12) 0.442540(14) 0.0156 Uani
Gd1D Gd -0.06646(2) 0.551310(12) 0.057460(14) 0.0156 Uani
Gd1A Gd 0.93354(2) 0.448690(12) 0.557460(14) 0.0156 Uani
Gd1E Gd 1.06646(2) 0.551310(12) 0.442540(14) 0.0156 Uani
O1A O 0.5930(4) 0.0774(2) 0.2199(2) 0.0309 Uani
O1G O -0.0930(4) 0.4226(2) -0.2199(2) 0.0309 Uani
O1F O 1.0930(4) 0.4226(2) 0.7199(2) 0.0309 Uani
O2A O 0.5665(4) 0.1771(2) 0.1385(2) 0.0310 Uani
O2G O -0.0665(4) 0.3229(2) -0.1385(2) 0.0310 Uani
O2F O 1.0665(4) 0.3229(2) 0.6385(2) 0.0310 Uani
O3A O 0.9042(4) 0.3658(2) 0.4458(2) 0.0245 Uani
O4A O 0.9883(4) 0.4211(2) 0.3849(2) 0.0255 Uani
O4D O -0.0117(4) 0.5789(2) -0.1151(2) 0.0255 Uani
O4E O 1.0117(4) 0.5789(2) 0.6151(2) 0.0255 Uani
O5A O 0.7109(3) 0.5112(2) 0.4360(2) 0.0284 Uani
O6A O 0.8639(3) 0.5331(2) 0.4210(2) 0.0225 Uani
O6D O -0.1361(3) 0.4669(2) -0.0790(2) 0.0225 Uani
O6E O 1.1361(3) 0.4669(2) 0.5790(2) 0.0225 Uani
O7A O 0.8234(4) 0.4785(3) 0.6200(3) 0.0335 Uani
O8A O 0.7630(4) 0.3421(2) 0.5042(3) 0.0393 Uani
N2A N 0.6097(4) 0.4000(2) 0.2688(3) 0.0233 Uani
N3A N 0.7126(4) 0.2792(2) 0.2904(3) 0.0227 Uani
C1A C 0.6035(4) 0.3201(3) 0.2693(3) 0.0194 Uani
C3A C 0.7171(4) 0.1945(3) 0.3009(3) 0.0205 Uani
H1A H 0.6976 0.1821 0.3406 0.0250 Uiso
H2A H 0.8096 0.1763 0.3305 0.0250 Uiso
C4A C 0.6183(5) 0.1489(3) 0.2138(3) 0.0199 Uani
C5A C 0.8200(5) 0.3213(3) 0.3000(3) 0.0230 Uani
H3A H 0.7781 0.3545 0.2471 0.0270 Uiso
H4A H 0.8775 0.2829 0.3010 0.0270 Uiso
C6A C 0.9114(5) 0.3732(3) 0.3846(3) 0.0203 Uani
C7A C 0.6270(5) 0.5573(3) 0.2900(3) 0.0205 Uani
H5A H 0.6118 0.6139 0.2875 0.0250 Uiso
H6A H 0.6560 0.5462 0.2554 0.0250 Uiso
C8A C 0.7400(4) 0.5321(3) 0.3884(3) 0.0175 Uani
O9 O 0.4215(13) 0.4787(7) 0.4110(8) 0.1570 Uiso
O10 O 0.1738(8) 0.2518(5) 0.3749(5) 0.1160 Uiso
O11 O 0.0785(7) 0.1607(5) 0.4435(4) 0.0920 Uiso
O12 O 0.4941(5) 0.3209(3) 0.0507(4) 0.0600 Uiso
O13 O 0.0000 0.3709(5) 0.2500 0.0606 Uiso
loop_
_atom_site_aniso_label
_atom_site_aniso_U_11
_atom_site_aniso_U_22
_atom_site_aniso_U_33
_atom_site_aniso_U_23
_atom_site_aniso_U_13
_atom_site_aniso_U_12
Gd1 0.0135 0.01671 0.01267 -0.00148 0.00664 0.00029
O1 0.041(2) 0.0265(19) 0.0234(19) 0.0069(16) 0.0200(18) 0.0102(17)
O2 0.041(2) 0.0250(19) 0.0199(18) 0.0023(15) 0.0165(17) 0.0032(16)
O3 0.0285(18) 0.0242(18) 0.0201(17) 0.0043(14) 0.0154(15) 0.0047(14)
O4 0.0318(19) 0.0229(18) 0.0287(19) 0.0086(15) 0.0226(17) 0.0100(15)
O5 0.0212(17) 0.039(2) 0.0203(17) -0.0039(15) 0.0113(15) 0.0018(15)
O6 0.0128(16) 0.0243(17) 0.0210(17) 0.0009(14) 0.0067(14) 0.0018(13)
O7 0.038 0.04 0.032 -0.0047 0.0269 -0.006
O8 0.039 0.035 0.048 0.0081 0.03 0.0107
N1 0.014(3) 0.025(3) 0.024(3) 0.000 0.010(2) 0.000
N2 0.0136(18) 0.020(2) 0.024(2) 0.0032(16) 0.0066(17) 0.0001(15)
N3 0.0140(18) 0.020(2) 0.028(2) 0.0088(16) 0.0108(17) 0.0048(15)
N4 0.013(3) 0.012(3) 0.022(3) 0.000 0.002(2) 0.000
C1 0.016(2) 0.020(2) 0.014(2) 0.0031(17) 0.0060(18) -0.0009(17)
C2 0.011(3) 0.022(3) 0.014(3) 0.000 0.002(3) 0.000
C3 0.013(2) 0.024(2) 0.018(2) 0.0024(18) 0.0071(18) -0.0009(17)
C4 0.019(2) 0.021(2) 0.018(2) 0.0019(18) 0.0112(19) 0.0015(18)
C5 0.020(2) 0.024(2) 0.023(2) 0.0045(19) 0.013(2) 0.0029(18)
C6 0.020(2) 0.017(2) 0.021(2) 0.0032(18) 0.012(2) 0.0028(17)
C7 0.012(2) 0.021(2) 0.018(2) 0.0007(17) 0.005(2) -0.0021(16)
C8 0.012(2) 0.017(2) 0.013(2) 0.0010(17) 0.0034(18) -0.0011(16)
Gd1F 0.0135 0.01671 0.01267 -0.00148 0.00664 0.00029
Gd1G 0.01350(15) 0.01671(16) 0.01267(15) 0.00148(7) 0.00664(12) -0.00029(7)
Gd1D 0.0135 0.01671 0.01267 -0.00148 0.00664 0.00029
Gd1A 0.0135 0.01671 0.01267 0.00148 0.00664 -0.00029
Gd1E 0.0135 0.01671 0.01267 0.00148 0.00664 -0.00029
O1A 0.041 0.0265 0.0234 -0.0069 0.02 -0.0102
O1G 0.041 0.0265 0.0234 -0.0069 0.02 -0.0102
O1F 0.041 0.0265 0.0234 0.0069 0.02 0.0102
O2A 0.041 0.025 0.0199 -0.0023 0.0165 -0.0032
O2G 0.041 0.025 0.0199 -0.0023 0.0165 -0.0032
O2F 0.041 0.025 0.0199 0.0023 0.0165 0.0032
O3A 0.0285 0.0242 0.0201 -0.0043 0.0154 -0.0047
O4A 0.0318 0.0229 0.0287 -0.0086 0.0226 -0.01
O4D 0.0318 0.0229 0.0287 0.0086 0.0226 0.01
O4E 0.0318 0.0229 0.0287 -0.0086 0.0226 -0.01
O5A 0.0212 0.039 0.0203 0.0039 0.0113 -0.0018
O6A 0.0128 0.0243 0.021 -0.0009 0.0067 -0.0018
O6D 0.0128 0.0243 0.021 0.0009 0.0067 0.0018
O6E 0.0128 0.0243 0.021 -0.0009 0.0067 -0.0018
O7A 0.038 0.04 0.032 0.0047 0.0269 0.006
O8A 0.039 0.035 0.048 -0.0081 0.03 -0.0107
N2A 0.0136 0.02 0.024 -0.0032 0.0066 -0.0001
N3A 0.014 0.02 0.028 -0.0088 0.0108 -0.0048
C1A 0.016 0.02 0.014 -0.0031 0.006 0.0009
C3A 0.013 0.024 0.018 -0.0024 0.0071 0.0009
C4A 0.019 0.021 0.018 -0.0019 0.0112 -0.0015
C5A 0.02 0.024 0.023 -0.0045 0.013 -0.0029
C6A 0.02 0.017 0.021 -0.0032 0.012 -0.0028
C7A 0.012 0.021 0.018 -0.0007 0.005 0.0021
C8A 0.012 0.017 0.013 -0.001 0.0034 0.0011
loop_
_geom_bond_atom_site_label_1
_geom_bond_atom_site_label_2
_geom_bond_site_symmetry_1
_geom_bond_site_symmetry_2
Gd1 O3 1_555 1_555
O1 C4 1_555 1_555
O2 C4 1_555 1_555
O3 C6 1_555 1_555
O4 C6 1_555 1_555
O5 Gd1 1_555 1_555
O6 Gd1 1_555 1_555
O7 Gd1 1_555 1_555
O8 Gd1 1_555 1_555
N1 C1 1_555 1_555
N2 C1 1_555 1_555
N3 C1 1_555 1_555
N4 C2 1_555 1_555
C2 N2 1_555 1_555
C3 N3 1_555 1_555
H1 C3 1_555 1_555
H2 C3 1_555 1_555
C4 C3 1_555 1_555
C5 N3 1_555 1_555
H3 C5 1_555 1_555
H4 C5 1_555 1_555
C6 C5 1_555 1_555
C7 N4 1_555 1_555
H5 C7 1_555 1_555
H6 C7 1_555 1_555
C8 O5 1_555 1_555
Gd1F O1A 1_555 1_555
Gd1G O1 1_555 1_555
Gd1D O4 1_555 1_555
Gd1A O1F 1_555 1_555
Gd1E O4A 1_555 1_555
O1A C4A 1_555 1_555
O1G Gd1 1_555 1_555
O2A Gd1F 1_555 1_555
O2G Gd1 1_555 1_555
O2F Gd1A 1_555 1_555
O3A Gd1A 1_555 1_555
O4A C6A 1_555 1_555
O4D Gd1 1_555 1_555
O4E Gd1A 1_555 1_555
O5A Gd1A 1_555 1_555
O6A Gd1A 1_555 1_555
O6D Gd1 1_555 1_555
O6E Gd1A 1_555 1_555
O7A Gd1A 1_555 1_555
O8A Gd1A 1_555 1_555
N2A C2 1_555 1_555
N3A C1A 1_555 1_555
C1A N1 1_555 1_555
C3A N3A 1_555 1_555
H1A C3A 1_555 1_555
H2A C3A 1_555 1_555
C4A O2A 1_555 1_555
C5A N3A 1_555 1_555
H3A C5A 1_555 1_555
H4A C5A 1_555 1_555
C6A O3A 1_555 1_555
C7A N4 1_555 1_555
H5A C7A 1_555 1_555
H6A C7A 1_555 1_555
C8A O5A 1_555 1_555
O2 Gd1G 1_555 1_555
O6 C8 1_555 1_555
O6 Gd1D 1_555 1_555
C7 C8 1_555 1_555
Gd1D O6D 1_555 1_555
Gd1E O6A 1_555 1_555
Gd1E O6E 1_555 1_555
O6A C8A 1_555 1_555
N2A C1A 1_555 1_555
C3A C4A 1_555 1_555
C5A C6A 1_555 1_555
C7A C8A 1_555 1_555

#END
