
#######################################################################
#
#                 Cambridge Crystallographic Data Centre
#                                CCDC 
#
#######################################################################
#
# If this CIF has been generated from an entry in the Cambridge 
# Structural Database, then it will include bibliographic, chemical, 
# crystal, experimental, refinement or atomic coordinate data resulting 
# from the CCDC's data processing and validation procedures.
#
#######################################################################

data_KALGUB
_chemical_formula_moiety         '(C6 O12 Zn2 2-)n,n(C4 H14 N2 2+),4n(C1 H4 O1)'
_chemical_name_systematic        
'catena-(Butane-1,4-diaminium tris(\m~2~-oxalato)-di-zinc methanol solvate)'
_symmetry_cell_setting           triclinic
_symmetry_space_group_name_H-M   'P -1'
_symmetry_Int_Tables_number      2
_space_group_name_Hall           '-P 1'
loop_
_symmetry_equiv_pos_site_id
_symmetry_equiv_pos_as_xyz
1 x,y,z
2 -x,-y,-z
_cell_length_a                   8.7526
_cell_length_b                   9.5769
_cell_length_c                   9.0567
_cell_angle_alpha                60.9979
_cell_angle_beta                 73.2077
_cell_angle_gamma                75.0512
_cell_volume                     629.317
_cell_formula_units_Z            1
loop_
_atom_site_label
_atom_site_type_symbol
_atom_site_fract_x
_atom_site_fract_y
_atom_site_fract_z
_atom_site_U_iso_or_equiv
_atom_site_thermal_displace_type
Zn1 Zn 0.00002 0.16923 0.66800 0.0000 Uiso
O1 O -0.14475 0.02790 0.88485 0.0000 Uiso
O2 O -0.13439 -0.12925 1.16359 0.0000 Uiso
O3 O -0.15042 0.38810 0.65527 0.0000 Uiso
O4 O 0.14610 -0.04550 0.62012 0.0000 Uiso
O5 O 0.11712 -0.16737 0.47430 0.0000 Uiso
O6 O -0.12768 0.64803 0.55521 0.0000 Uiso
C1 C 0.07652 -0.06227 0.52779 0.0000 Uiso
C2 C -0.08128 -0.02875 1.01419 0.0000 Uiso
C3 C -0.08083 0.51045 0.56161 0.0000 Uiso
Zn1A Zn -0.00002 -0.16923 0.33200 0.0000 Uiso
Zn1A_2 Zn -0.00002 -0.16923 1.33200 0.0000 Uiso
Zn1A_3 Zn -0.00002 0.83077 0.33200 0.0000 Uiso
O1A O 0.14475 -0.02790 1.11515 0.0000 Uiso
O1A_2 O 0.14475 -0.02790 0.11515 0.0000 Uiso
O2A O 0.13439 0.12925 0.83641 0.0000 Uiso
O2_2 O -0.13439 -0.12925 0.16359 0.0000 Uiso
O3A O 0.15042 0.61190 0.34473 0.0000 Uiso
O3A_2 O 0.15042 -0.38810 0.34473 0.0000 Uiso
O4A O -0.14610 0.04550 0.37988 0.0000 Uiso
O5A O -0.11712 0.16737 0.52570 0.0000 Uiso
O6A O 0.12768 0.35197 0.44479 0.0000 Uiso
O6_2 O -0.12768 -0.35197 0.55521 0.0000 Uiso
C1A C -0.07652 0.06227 0.47221 0.0000 Uiso
C2A C 0.08128 0.02875 0.98581 0.0000 Uiso
C3A C 0.08083 0.48955 0.43839 0.0000 Uiso
N1 N 0.34299 0.61176 0.82667 0.0000 Uiso
C4 C 0.18486 0.58125 0.82579 0.0000 Uiso
C5 C 0.08199 0.51113 1.00401 0.0000 Uiso
N1A N -0.34299 0.38824 1.17333 0.0000 Uiso
C4A C -0.18486 0.41875 1.17421 0.0000 Uiso
C5A C -0.08199 0.48887 0.99599 0.0000 Uiso
C6 C 0.47641 0.13491 0.22425 0.0000 Uiso
O8 O 0.40060 0.22503 0.32011 0.0000 Uiso
O7 O 0.42047 0.27072 0.80948 0.0000 Uiso
C7 C 0.49489 0.28245 0.64208 0.0000 Uiso
loop_
_geom_bond_atom_site_label_1
_geom_bond_atom_site_label_2
_geom_bond_site_symmetry_1
_geom_bond_site_symmetry_2
Zn1 O1 1_555 1_555
O1 C2 1_555 1_555
O2 C2 1_555 1_555
O3 Zn1 1_555 1_555
O4 Zn1 1_555 1_555
O5 C1 1_555 1_555
O6 C3 1_555 1_555
C1 O4 1_555 1_555
C2 C2A 1_555 1_555
C3 O3 1_555 1_555
N1 C4 1_555 1_555
C4 C5 1_555 1_555
C5 C5A 1_555 1_555
C6 O8 1_555 1_555
O7 C7 1_555 1_555
Zn1A O5 1_555 1_555
Zn1A_2 O2 1_555 1_555
Zn1A_3 O6 1_555 1_555
O1A Zn1A_2 1_555 1_555
O1A_2 Zn1A 1_555 1_555
O2A Zn1 1_555 1_555
O2_2 Zn1A 1_555 1_555
O3A Zn1A_3 1_555 1_555
O3A_2 Zn1A 1_555 1_555
O4A Zn1A 1_555 1_555
O5A Zn1 1_555 1_555
O6A Zn1 1_555 1_555
O6_2 Zn1A 1_555 1_555
C1A C1 1_555 1_555
C2A O1A 1_555 1_555
C3A C3 1_555 1_555
N1A C4A 1_555 1_555
C4A C5A 1_555 1_555
O2A C2A 1_555 1_555
O3A C3A 1_555 1_555
O4A C1A 1_555 1_555
O5A C1A 1_555 1_555
O6A C3A 1_555 1_555

#END
