
#######################################################################
#
#                 Cambridge Crystallographic Data Centre
#                                CCDC 
#
#######################################################################
#
# If this CIF has been generated from an entry in the Cambridge 
# Structural Database, then it will include bibliographic, chemical, 
# crystal, experimental, refinement or atomic coordinate data resulting 
# from the CCDC's data processing and validation procedures.
#
#######################################################################

data_REGYOT
_chemical_formula_moiety         
'(C168 H72 Cl3 Cu12 O48 3-)n,26n(C5 H11 N1 O1),3n(C4 H12 N1 1+)'
_chemical_name_systematic        
'catena-(tris(Diethylammonium) octakis(\m~6~-triphenylene-2,6,10-tricarboxylato)-tris(\m~4~-chloro)-dodeca-copper N,N-diethylformamide solvate)'
_symmetry_cell_setting           cubic
_symmetry_space_group_name_H-M   'F m -3 c'
_symmetry_Int_Tables_number      226
_space_group_name_Hall           '-F 4a 2 3'
loop_
_symmetry_equiv_pos_site_id
_symmetry_equiv_pos_as_xyz
1 x,y,z
2 -y,x,1/2+z
3 -x,-y,z
4 y,-x,1/2+z
5 x,-y,-z
6 y,x,1/2-z
7 -x,y,-z
8 -y,-x,1/2-z
9 z,x,y
10 -x,z,1/2+y
11 -z,-x,y
12 x,-z,1/2+y
13 z,-x,-y
14 x,z,1/2-y
15 -z,x,-y
16 -x,-z,1/2-y
17 y,z,x
18 1/2-z,-y,-x
19 1/2-z,y,x
20 1/2+z,y,-x
21 1/2+z,-y,x
22 y,1/2-z,1/2-x
23 -y,1/2-z,1/2+x
24 -y,1/2+z,1/2-x
25 x,1/2+y,1/2+z
26 -y,1/2+x,z
27 -x,1/2-y,1/2+z
28 y,1/2-x,z
29 x,1/2-y,1/2-z
30 y,1/2+x,-z
31 -x,1/2+y,1/2-z
32 -y,1/2-x,-z
33 z,1/2+x,1/2+y
34 -x,1/2+z,y
35 -z,1/2-x,1/2+y
36 x,1/2-z,y
37 z,1/2-x,1/2-y
38 x,1/2+z,-y
39 -z,1/2+x,1/2-y
40 -x,1/2-z,-y
41 y,1/2+z,1/2+x
42 1/2-z,1/2-y,1/2-x
43 1/2-z,1/2+y,1/2+x
44 1/2+z,1/2+y,1/2-x
45 1/2+z,1/2-y,1/2+x
46 y,-z,-x
47 -y,-z,x
48 -y,z,-x
49 1/2+x,y,1/2+z
50 1/2-y,x,z
51 1/2-x,-y,1/2+z
52 1/2+y,-x,z
53 1/2+x,-y,1/2-z
54 1/2+y,x,-z
55 1/2-x,y,1/2-z
56 1/2-y,-x,-z
57 1/2+z,x,1/2+y
58 1/2-x,z,y
59 1/2-z,-x,1/2+y
60 1/2+x,-z,y
61 1/2+z,-x,1/2-y
62 1/2+x,z,-y
63 1/2-z,x,1/2-y
64 1/2-x,-z,-y
65 1/2+y,z,1/2+x
66 -z,-y,1/2-x
67 -z,y,1/2+x
68 z,y,1/2-x
69 z,-y,1/2+x
70 1/2+y,1/2-z,-x
71 1/2-y,1/2-z,x
72 1/2-y,1/2+z,-x
73 1/2+x,1/2+y,z
74 1/2-y,1/2+x,1/2+z
75 1/2-x,1/2-y,z
76 1/2+y,1/2-x,1/2+z
77 1/2+x,1/2-y,-z
78 1/2+y,1/2+x,1/2-z
79 1/2-x,1/2+y,-z
80 1/2-y,1/2-x,1/2-z
81 1/2+z,1/2+x,y
82 1/2-x,1/2+z,1/2+y
83 1/2-z,1/2-x,y
84 1/2+x,1/2-z,1/2+y
85 1/2+z,1/2-x,-y
86 1/2+x,1/2+z,1/2-y
87 1/2-z,1/2+x,-y
88 1/2-x,1/2-z,1/2-y
89 1/2+y,1/2+z,x
90 -z,1/2-y,-x
91 -z,1/2+y,x
92 z,1/2+y,-x
93 z,1/2-y,x
94 1/2+y,-z,1/2-x
95 1/2-y,-z,1/2+x
96 1/2-y,z,1/2-x
97 -x,-y,-z
98 y,-x,1/2-z
99 x,y,-z
100 -y,x,1/2-z
101 -x,y,z
102 -y,-x,1/2+z
103 x,-y,z
104 y,x,1/2+z
105 -z,-x,-y
106 x,-z,1/2-y
107 z,x,-y
108 -x,z,1/2-y
109 -z,x,y
110 -x,-z,1/2+y
111 z,-x,y
112 x,z,1/2+y
113 -y,-z,-x
114 1/2+z,y,x
115 1/2+z,-y,-x
116 1/2-z,-y,x
117 1/2-z,y,-x
118 -y,1/2+z,1/2+x
119 y,1/2+z,1/2-x
120 y,1/2-z,1/2+x
121 -x,1/2-y,1/2-z
122 y,1/2-x,-z
123 x,1/2+y,1/2-z
124 -y,1/2+x,-z
125 -x,1/2+y,1/2+z
126 -y,1/2-x,z
127 x,1/2-y,1/2+z
128 y,1/2+x,z
129 -z,1/2-x,1/2-y
130 x,1/2-z,-y
131 z,1/2+x,1/2-y
132 -x,1/2+z,-y
133 -z,1/2+x,1/2+y
134 -x,1/2-z,y
135 z,1/2-x,1/2+y
136 x,1/2+z,y
137 -y,1/2-z,1/2-x
138 1/2+z,1/2+y,1/2+x
139 1/2+z,1/2-y,1/2-x
140 1/2-z,1/2-y,1/2+x
141 1/2-z,1/2+y,1/2-x
142 -y,z,x
143 y,z,-x
144 y,-z,x
145 1/2-x,-y,1/2-z
146 1/2+y,-x,-z
147 1/2+x,y,1/2-z
148 1/2-y,x,-z
149 1/2-x,y,1/2+z
150 1/2-y,-x,z
151 1/2+x,-y,1/2+z
152 1/2+y,x,z
153 1/2-z,-x,1/2-y
154 1/2+x,-z,-y
155 1/2+z,x,1/2-y
156 1/2-x,z,-y
157 1/2-z,x,1/2+y
158 1/2-x,-z,y
159 1/2+z,-x,1/2+y
160 1/2+x,z,y
161 1/2-y,-z,1/2-x
162 z,y,1/2+x
163 z,-y,1/2-x
164 -z,-y,1/2+x
165 -z,y,1/2-x
166 1/2-y,1/2+z,x
167 1/2+y,1/2+z,-x
168 1/2+y,1/2-z,x
169 1/2-x,1/2-y,-z
170 1/2+y,1/2-x,1/2-z
171 1/2+x,1/2+y,-z
172 1/2-y,1/2+x,1/2-z
173 1/2-x,1/2+y,z
174 1/2-y,1/2-x,1/2+z
175 1/2+x,1/2-y,z
176 1/2+y,1/2+x,1/2+z
177 1/2-z,1/2-x,-y
178 1/2+x,1/2-z,1/2-y
179 1/2+z,1/2+x,-y
180 1/2-x,1/2+z,1/2-y
181 1/2-z,1/2+x,y
182 1/2-x,1/2-z,1/2+y
183 1/2+z,1/2-x,y
184 1/2+x,1/2+z,1/2+y
185 1/2-y,1/2-z,-x
186 z,1/2+y,x
187 z,1/2-y,-x
188 -z,1/2-y,x
189 -z,1/2+y,-x
190 1/2-y,z,1/2+x
191 1/2+y,z,1/2-x
192 1/2+y,-z,1/2+x
_cell_length_a                   41.4543(15)
_cell_length_b                   41.4543(15)
_cell_length_c                   41.4543(15)
_cell_angle_alpha                90
_cell_angle_beta                 90
_cell_angle_gamma                90
_cell_volume                     71237.5
_exptl_crystal_colour            green
_exptl_crystal_description       block
_cell_formula_units_Z            4
loop_
_atom_site_label
_atom_site_type_symbol
_atom_site_fract_x
_atom_site_fract_y
_atom_site_fract_z
_atom_site_U_iso_or_equiv
_atom_site_thermal_displace_type
Cu1 Cu 0.262905(6) 0.190603(6) 0.0000 0.0176 Uani
Cl1 Cl 0.2500 0.2500 0.0000 0.0400 Uani
O1 O 0.23442(3) 0.17463(4) 0.03324(3) 0.0465 Uani
C1 C 0.20807(4) 0.18324(4) 0.04406(4) 0.0283 Uani
C2 C 0.19621(4) 0.16588(5) 0.07350(4) 0.0357 Uani
C3 C 0.16920(4) 0.17675(5) 0.08944(4) 0.0387 Uani
H1 H 0.1584 0.1947 0.0815 0.0460 Uiso
C4 C 0.15746(5) 0.16165(5) 0.11729(5) 0.0401 Uani
C5 C 0.17366(5) 0.13404(5) 0.12892(5) 0.0418 Uani
C6 C 0.20130(6) 0.12362(6) 0.11241(6) 0.0619 Uani
H2 H 0.2124 0.1057 0.1200 0.0740 Uiso
C7 C 0.21242(5) 0.13914(6) 0.08546(5) 0.0553 Uani
H3 H 0.2309 0.1317 0.0751 0.0660 Uiso
O2 O 0.19033(3) 0.20463(4) 0.03349(4) 0.0529 Uani
Cu1P Cu 0.190603(6) 0.0000 0.262905(6) 0.0176 Uani
Cu1H Cu 0.0000 0.262905(6) 0.190603(6) 0.0176 Uani
Cu1SA Cu 0.190603(6) 0.0000 -0.262905(6) 0.0176 Uani
Cu1N Cu 0.0000 0.262905(6) -0.190603(6) 0.0176 Uani
Cu1WA Cu 0.309397(6) 0.262905(6) 0.0000 0.0176 Uani
Cu1R Cu 0.5000 0.190603(6) 0.262905(6) 0.0176 Uani
Cu1EB Cu 0.237095(6) 0.0000 0.190603(6) 0.0176 Uani
Cu1S Cu 0.5000 0.190603(6) -0.262905(6) 0.0176 Uani
Cu1KB Cu 0.237095(6) 0.0000 -0.190603(6) 0.0176 Uani
Cu1AA Cu 0.190603(6) 0.237095(6) 0.0000 0.0176 Uani
Cu1OB Cu 0.0000 0.190603(6) 0.237095(6) 0.0176 Uani
Cu1VB Cu 0.237095(6) 0.309397(6) 0.0000 0.0176 Uani
Cu1NB Cu 0.0000 0.190603(6) -0.237095(6) 0.0176 Uani
Cu1DC Cu 0.5000 0.237095(6) 0.190603(6) 0.0176 Uani
Cu1QC Cu 0.309397(6) 0.0000 0.237095(6) 0.0176 Uani
Cu1FC Cu 0.5000 0.237095(6) -0.190603(6) 0.0176 Uani
Cu1PC Cu 0.309397(6) 0.0000 -0.237095(6) 0.0176 Uani
Cu1M Cu 0.262905(6) 0.0000 0.309397(6) 0.0176 Uani
Cu1J Cu 0.0000 -0.262905(6) 0.190603(6) 0.0176 Uani
Cu1MB Cu 0.0000 -0.190603(6) 0.237095(6) 0.0176 Uani
Cu1D Cu 0.262905(6) -0.190603(6) 0.0000 0.0176 Uani
Cu1CA Cu 0.190603(6) -0.237095(6) 0.0000 0.0176 Uani
Cu1E Cu 0.190603(6) 0.262905(6) 0.5000 0.0176 Uani
Cu1BB Cu 0.237095(6) 0.190603(6) 0.5000 0.0176 Uani
Cu1JA Cu 0.0000 0.237095(6) 0.309397(6) 0.0176 Uani
Cu1C Cu 0.190603(6) -0.262905(6) 0.5000 0.0176 Uani
Cu1XA Cu 0.237095(6) -0.190603(6) 0.5000 0.0176 Uani
Cu1LA Cu 0.0000 -0.237095(6) 0.309397(6) 0.0176 Uani
Cu1NC Cu 0.0000 0.309397(6) 0.262905(6) 0.0176 Uani
Cu1F Cu -0.262905(6) 0.190603(6) 0.0000 0.0176 Uani
Cu1EA Cu -0.190603(6) 0.237095(6) 0.0000 0.0176 Uani
Cu1TA Cu -0.190603(6) 0.0000 0.262905(6) 0.0176 Uani
Cu1GB Cu -0.237095(6) 0.0000 0.190603(6) 0.0176 Uani
Cl1M Cl 0.2500 0.0000 0.2500 0.0400 Uani
Cl1H Cl 0.0000 0.2500 0.2500 0.0400 Uani
Cl1K Cl 0.2500 0.0000 -0.2500 0.0400 Uani
Cl1N Cl 0.0000 0.2500 -0.2500 0.0400 Uani
Cl1R Cl 0.5000 0.2500 0.2500 0.0400 Uani
Cl1S Cl 0.5000 0.2500 -0.2500 0.0400 Uani
O1P O 0.17463(4) 0.03324(3) 0.23442(3) 0.0465 Uani
O1H O 0.03324(3) 0.23442(3) 0.17463(4) 0.0465 Uani
O1TC O 0.23442(3) 0.17463(4) -0.03324(3) 0.0465 Uani
O1LE O 0.17463(4) 0.03324(3) -0.23442(3) 0.0465 Uani
O1BD O 0.03324(3) 0.23442(3) -0.17463(4) 0.0465 Uani
O1WA O 0.32537(4) 0.23442(3) 0.03324(3) 0.0465 Uani
O1R O 0.46676(3) 0.17463(4) 0.23442(3) 0.0465 Uani
O1EB O 0.26558(3) 0.03324(3) 0.17463(4) 0.0465 Uani
O1QE O 0.32537(4) 0.23442(3) -0.03324(3) 0.0465 Uani
O1LD O 0.46676(3) 0.17463(4) -0.23442(3) 0.0465 Uani
O1YE O 0.26558(3) 0.03324(3) -0.17463(4) 0.0465 Uani
O1ME O 0.17463(4) -0.03324(3) 0.23442(3) 0.0465 Uani
O1FD O 0.03324(3) -0.23442(3) 0.17463(4) 0.0465 Uani
O1XC O 0.23442(3) -0.17463(4) 0.03324(3) 0.0465 Uani
O1M O 0.23442(3) 0.03324(3) 0.32537(4) 0.0465 Uani
O1E O 0.17463(4) 0.23442(3) 0.46676(3) 0.0465 Uani
O1OB O 0.03324(3) 0.17463(4) 0.26558(3) 0.0465 Uani
O1AD O 0.23442(3) -0.03324(3) 0.32537(4) 0.0465 Uani
O1SC O 0.17463(4) -0.23442(3) 0.46676(3) 0.0465 Uani
O1FF O 0.03324(3) -0.17463(4) 0.26558(3) 0.0465 Uani
O1DD O -0.03324(3) 0.23442(3) 0.17463(4) 0.0465 Uani
O1VC O -0.23442(3) 0.17463(4) 0.03324(3) 0.0465 Uani
O1KE O -0.17463(4) 0.03324(3) 0.23442(3) 0.0465 Uani
O1SA O 0.17463(4) -0.03324(3) -0.23442(3) 0.0465 Uani
O1N O -0.03324(3) 0.23442(3) -0.17463(4) 0.0465 Uani
O1ID O 0.53324(3) 0.17463(4) 0.23442(3) 0.0465 Uani
O1AF O 0.26558(3) -0.03324(3) 0.17463(4) 0.0465 Uani
O1S O 0.53324(3) 0.17463(4) -0.23442(3) 0.0465 Uani
O1KB O 0.26558(3) -0.03324(3) -0.17463(4) 0.0465 Uani
O1AA O 0.17463(4) 0.26558(3) 0.03324(3) 0.0465 Uani
O1QD O 0.17463(4) 0.26558(3) -0.03324(3) 0.0465 Uani
O1HF O -0.03324(3) 0.17463(4) 0.26558(3) 0.0465 Uani
C1P C 0.18324(4) 0.04406(4) 0.20807(4) 0.0283 Uani
C1H C 0.04406(4) 0.20807(4) 0.18324(4) 0.0283 Uani
C1TC C 0.20807(4) 0.18324(4) -0.04406(4) 0.0283 Uani
C1LE C 0.18324(4) 0.04406(4) -0.20807(4) 0.0283 Uani
C1BD C 0.04406(4) 0.20807(4) -0.18324(4) 0.0283 Uani
C1WA C 0.31676(4) 0.20807(4) 0.04406(4) 0.0283 Uani
C1R C 0.45594(4) 0.18324(4) 0.20807(4) 0.0283 Uani
C1EB C 0.29193(4) 0.04406(4) 0.18324(4) 0.0283 Uani
C1QE C 0.31676(4) 0.20807(4) -0.04406(4) 0.0283 Uani
C1LD C 0.45594(4) 0.18324(4) -0.20807(4) 0.0283 Uani
C1YE C 0.29193(4) 0.04406(4) -0.18324(4) 0.0283 Uani
C1ME C 0.18324(4) -0.04406(4) 0.20807(4) 0.0283 Uani
C1FD C 0.04406(4) -0.20807(4) 0.18324(4) 0.0283 Uani
C1XC C 0.20807(4) -0.18324(4) 0.04406(4) 0.0283 Uani
C1M C 0.20807(4) 0.04406(4) 0.31676(4) 0.0283 Uani
C1E C 0.18324(4) 0.20807(4) 0.45594(4) 0.0283 Uani
C1OB C 0.04406(4) 0.18324(4) 0.29193(4) 0.0283 Uani
C1AD C 0.20807(4) -0.04406(4) 0.31676(4) 0.0283 Uani
C1SC C 0.18324(4) -0.20807(4) 0.45594(4) 0.0283 Uani
C1FF C 0.04406(4) -0.18324(4) 0.29193(4) 0.0283 Uani
C1DD C -0.04406(4) 0.20807(4) 0.18324(4) 0.0283 Uani
C1VC C -0.20807(4) 0.18324(4) 0.04406(4) 0.0283 Uani
C1KE C -0.18324(4) 0.04406(4) 0.20807(4) 0.0283 Uani
C2P C 0.16588(5) 0.07350(4) 0.19621(4) 0.0357 Uani
C2H C 0.07350(4) 0.19621(4) 0.16588(5) 0.0357 Uani
C2TC C 0.19621(4) 0.16588(5) -0.07350(4) 0.0357 Uani
C2LE C 0.16588(5) 0.07350(4) -0.19621(4) 0.0357 Uani
C2BD C 0.07350(4) 0.19621(4) -0.16588(5) 0.0357 Uani
C2WA C 0.33412(5) 0.19621(4) 0.07350(4) 0.0357 Uani
C2R C 0.42650(4) 0.16588(5) 0.19621(4) 0.0357 Uani
C2EB C 0.30379(4) 0.07350(4) 0.16588(5) 0.0357 Uani
C2QE C 0.33412(5) 0.19621(4) -0.07350(4) 0.0357 Uani
C2LD C 0.42650(4) 0.16588(5) -0.19621(4) 0.0357 Uani
C2YE C 0.30379(4) 0.07350(4) -0.16588(5) 0.0357 Uani
C2ME C 0.16588(5) -0.07350(4) 0.19621(4) 0.0357 Uani
C2FD C 0.07350(4) -0.19621(4) 0.16588(5) 0.0357 Uani
C2XC C 0.19621(4) -0.16588(5) 0.07350(4) 0.0357 Uani
C2M C 0.19621(4) 0.07350(4) 0.33412(5) 0.0357 Uani
C2E C 0.16588(5) 0.19621(4) 0.42650(4) 0.0357 Uani
C2OB C 0.07350(4) 0.16588(5) 0.30379(4) 0.0357 Uani
C2AD C 0.19621(4) -0.07350(4) 0.33412(5) 0.0357 Uani
C2SC C 0.16588(5) -0.19621(4) 0.42650(4) 0.0357 Uani
C2FF C 0.07350(4) -0.16588(5) 0.30379(4) 0.0357 Uani
C2DD C -0.07350(4) 0.19621(4) 0.16588(5) 0.0357 Uani
C2VC C -0.19621(4) 0.16588(5) 0.07350(4) 0.0357 Uani
C2KE C -0.16588(5) 0.07350(4) 0.19621(4) 0.0357 Uani
C3P C 0.17675(5) 0.08944(4) 0.16920(4) 0.0387 Uani
C3H C 0.08944(4) 0.16920(4) 0.17675(5) 0.0387 Uani
C3TC C 0.16920(4) 0.17675(5) -0.08944(4) 0.0387 Uani
C3LE C 0.17675(5) 0.08944(4) -0.16920(4) 0.0387 Uani
C3BD C 0.08944(4) 0.16920(4) -0.17675(5) 0.0387 Uani
C3WA C 0.32325(5) 0.16920(4) 0.08944(4) 0.0387 Uani
C3R C 0.41056(4) 0.17675(5) 0.16920(4) 0.0387 Uani
C3EB C 0.33080(4) 0.08944(4) 0.17675(5) 0.0387 Uani
C3QE C 0.32325(5) 0.16920(4) -0.08944(4) 0.0387 Uani
C3LD C 0.41056(4) 0.17675(5) -0.16920(4) 0.0387 Uani
C3YE C 0.33080(4) 0.08944(4) -0.17675(5) 0.0387 Uani
C3ME C 0.17675(5) -0.08944(4) 0.16920(4) 0.0387 Uani
C3FD C 0.08944(4) -0.16920(4) 0.17675(5) 0.0387 Uani
C3XC C 0.16920(4) -0.17675(5) 0.08944(4) 0.0387 Uani
C3M C 0.16920(4) 0.08944(4) 0.32325(5) 0.0387 Uani
C3E C 0.17675(5) 0.16920(4) 0.41056(4) 0.0387 Uani
C3OB C 0.08944(4) 0.17675(5) 0.33080(4) 0.0387 Uani
C3AD C 0.16920(4) -0.08944(4) 0.32325(5) 0.0387 Uani
C3SC C 0.17675(5) -0.16920(4) 0.41056(4) 0.0387 Uani
C3FF C 0.08944(4) -0.17675(5) 0.33080(4) 0.0387 Uani
C3DD C -0.08944(4) 0.16920(4) 0.17675(5) 0.0387 Uani
C3VC C -0.16920(4) 0.17675(5) 0.08944(4) 0.0387 Uani
C3KE C -0.17675(5) 0.08944(4) 0.16920(4) 0.0387 Uani
H1H H 0.0815 0.1584 0.1947 0.0460 Uiso
H1P H 0.1947 0.0815 0.1584 0.0460 Uiso
H1TC H 0.1584 0.1947 -0.0815 0.0460 Uiso
H1BD H 0.0815 0.1584 -0.1947 0.0460 Uiso
H1LE H 0.1947 0.0815 -0.1584 0.0460 Uiso
H1WA H 0.3053 0.1584 0.0815 0.0460 Uiso
H1EB H 0.3416 0.0815 0.1947 0.0460 Uiso
H1R H 0.4185 0.1947 0.1584 0.0460 Uiso
H1QE H 0.3053 0.1584 -0.0815 0.0460 Uiso
H1YE H 0.3416 0.0815 -0.1947 0.0460 Uiso
H1LD H 0.4185 0.1947 -0.1584 0.0460 Uiso
H1ME H 0.1947 -0.0815 0.1584 0.0460 Uiso
H1XC H 0.1584 -0.1947 0.0815 0.0460 Uiso
H1FD H 0.0815 -0.1584 0.1947 0.0460 Uiso
H1M H 0.1584 0.0815 0.3053 0.0460 Uiso
H1OB H 0.0815 0.1947 0.3416 0.0460 Uiso
H1E H 0.1947 0.1584 0.4185 0.0460 Uiso
H1AD H 0.1584 -0.0815 0.3053 0.0460 Uiso
H1FF H 0.0815 -0.1947 0.3416 0.0460 Uiso
H1SC H 0.1947 -0.1584 0.4185 0.0460 Uiso
H1DD H -0.0815 0.1584 0.1947 0.0460 Uiso
H1KE H -0.1947 0.0815 0.1584 0.0460 Uiso
H1VC H -0.1584 0.1947 0.0815 0.0460 Uiso
C4P C 0.16165(5) 0.11729(5) 0.15746(5) 0.0401 Uani
C4H C 0.11729(5) 0.15746(5) 0.16165(5) 0.0401 Uani
C4TC C 0.15746(5) 0.16165(5) -0.11729(5) 0.0401 Uani
C4LE C 0.16165(5) 0.11729(5) -0.15746(5) 0.0401 Uani
C4BD C 0.11729(5) 0.15746(5) -0.16165(5) 0.0401 Uani
C4WA C 0.33835(5) 0.15746(5) 0.11729(5) 0.0401 Uani
C4R C 0.38271(5) 0.16165(5) 0.15746(5) 0.0401 Uani
C4EB C 0.34254(5) 0.11729(5) 0.16165(5) 0.0401 Uani
C4QE C 0.33835(5) 0.15746(5) -0.11729(5) 0.0401 Uani
C4LD C 0.38271(5) 0.16165(5) -0.15746(5) 0.0401 Uani
C4YE C 0.34254(5) 0.11729(5) -0.16165(5) 0.0401 Uani
C4ME C 0.16165(5) -0.11729(5) 0.15746(5) 0.0401 Uani
C4FD C 0.11729(5) -0.15746(5) 0.16165(5) 0.0401 Uani
C4XC C 0.15746(5) -0.16165(5) 0.11729(5) 0.0401 Uani
C4M C 0.15746(5) 0.11729(5) 0.33835(5) 0.0401 Uani
C4E C 0.16165(5) 0.15746(5) 0.38271(5) 0.0401 Uani
C4OB C 0.11729(5) 0.16165(5) 0.34254(5) 0.0401 Uani
C4AD C 0.15746(5) -0.11729(5) 0.33835(5) 0.0401 Uani
C4SC C 0.16165(5) -0.15746(5) 0.38271(5) 0.0401 Uani
C4FF C 0.11729(5) -0.16165(5) 0.34254(5) 0.0401 Uani
C4DD C -0.11729(5) 0.15746(5) 0.16165(5) 0.0401 Uani
C4VC C -0.15746(5) 0.16165(5) 0.11729(5) 0.0401 Uani
C4KE C -0.16165(5) 0.11729(5) 0.15746(5) 0.0401 Uani
C5P C 0.13404(5) 0.12892(5) 0.17366(5) 0.0418 Uani
C5H C 0.12892(5) 0.17366(5) 0.13404(5) 0.0418 Uani
C5TC C 0.17366(5) 0.13404(5) -0.12892(5) 0.0418 Uani
C5LE C 0.13404(5) 0.12892(5) -0.17366(5) 0.0418 Uani
C5BD C 0.12892(5) 0.17366(5) -0.13404(5) 0.0418 Uani
C5WA C 0.36596(5) 0.17366(5) 0.12892(5) 0.0418 Uani
C5R C 0.37108(5) 0.13404(5) 0.17366(5) 0.0418 Uani
C5EB C 0.32634(5) 0.12892(5) 0.13404(5) 0.0418 Uani
C5QE C 0.36596(5) 0.17366(5) -0.12892(5) 0.0418 Uani
C5LD C 0.37108(5) 0.13404(5) -0.17366(5) 0.0418 Uani
C5YE C 0.32634(5) 0.12892(5) -0.13404(5) 0.0418 Uani
C5ME C 0.13404(5) -0.12892(5) 0.17366(5) 0.0418 Uani
C5FD C 0.12892(5) -0.17366(5) 0.13404(5) 0.0418 Uani
C5XC C 0.17366(5) -0.13404(5) 0.12892(5) 0.0418 Uani
C5M C 0.17366(5) 0.12892(5) 0.36596(5) 0.0418 Uani
C5E C 0.13404(5) 0.17366(5) 0.37108(5) 0.0418 Uani
C5OB C 0.12892(5) 0.13404(5) 0.32634(5) 0.0418 Uani
C5AD C 0.17366(5) -0.12892(5) 0.36596(5) 0.0418 Uani
C5SC C 0.13404(5) -0.17366(5) 0.37108(5) 0.0418 Uani
C5FF C 0.12892(5) -0.13404(5) 0.32634(5) 0.0418 Uani
C5DD C -0.12892(5) 0.17366(5) 0.13404(5) 0.0418 Uani
C5VC C -0.17366(5) 0.13404(5) 0.12892(5) 0.0418 Uani
C5KE C -0.13404(5) 0.12892(5) 0.17366(5) 0.0418 Uani
C6P C 0.12362(6) 0.11241(6) 0.20130(6) 0.0619 Uani
C6H C 0.11241(6) 0.20130(6) 0.12362(6) 0.0619 Uani
C6TC C 0.20130(6) 0.12362(6) -0.11241(6) 0.0619 Uani
C6LE C 0.12362(6) 0.11241(6) -0.20130(6) 0.0619 Uani
C6BD C 0.11241(6) 0.20130(6) -0.12362(6) 0.0619 Uani
C6WA C 0.37638(6) 0.20130(6) 0.11241(6) 0.0619 Uani
C6R C 0.38759(6) 0.12362(6) 0.20130(6) 0.0619 Uani
C6EB C 0.29870(6) 0.11241(6) 0.12362(6) 0.0619 Uani
C6QE C 0.37638(6) 0.20130(6) -0.11241(6) 0.0619 Uani
C6LD C 0.38759(6) 0.12362(6) -0.20130(6) 0.0619 Uani
C6YE C 0.29870(6) 0.11241(6) -0.12362(6) 0.0619 Uani
C6ME C 0.12362(6) -0.11241(6) 0.20130(6) 0.0619 Uani
C6FD C 0.11241(6) -0.20130(6) 0.12362(6) 0.0619 Uani
C6XC C 0.20130(6) -0.12362(6) 0.11241(6) 0.0619 Uani
C6M C 0.20130(6) 0.11241(6) 0.37638(6) 0.0619 Uani
C6E C 0.12362(6) 0.20130(6) 0.38759(6) 0.0619 Uani
C6OB C 0.11241(6) 0.12362(6) 0.29870(6) 0.0619 Uani
C6AD C 0.20130(6) -0.11241(6) 0.37638(6) 0.0619 Uani
C6SC C 0.12362(6) -0.20130(6) 0.38759(6) 0.0619 Uani
C6FF C 0.11241(6) -0.12362(6) 0.29870(6) 0.0619 Uani
C6DD C -0.11241(6) 0.20130(6) 0.12362(6) 0.0619 Uani
C6VC C -0.20130(6) 0.12362(6) 0.11241(6) 0.0619 Uani
C6KE C -0.12362(6) 0.11241(6) 0.20130(6) 0.0619 Uani
H2H H 0.1200 0.2124 0.1057 0.0740 Uiso
H2P H 0.1057 0.1200 0.2124 0.0740 Uiso
H2TC H 0.2124 0.1057 -0.1200 0.0740 Uiso
H2BD H 0.1200 0.2124 -0.1057 0.0740 Uiso
H2LE H 0.1057 0.1200 -0.2124 0.0740 Uiso
H2WA H 0.3943 0.2124 0.1200 0.0740 Uiso
H2EB H 0.2876 0.1200 0.1057 0.0740 Uiso
H2R H 0.3800 0.1057 0.2124 0.0740 Uiso
H2QE H 0.3943 0.2124 -0.1200 0.0740 Uiso
H2YE H 0.2876 0.1200 -0.1057 0.0740 Uiso
H2LD H 0.3800 0.1057 -0.2124 0.0740 Uiso
H2ME H 0.1057 -0.1200 0.2124 0.0740 Uiso
H2XC H 0.2124 -0.1057 0.1200 0.0740 Uiso
H2FD H 0.1200 -0.2124 0.1057 0.0740 Uiso
H2M H 0.2124 0.1200 0.3943 0.0740 Uiso
H2OB H 0.1200 0.1057 0.2876 0.0740 Uiso
H2E H 0.1057 0.2124 0.3800 0.0740 Uiso
H2AD H 0.2124 -0.1200 0.3943 0.0740 Uiso
H2FF H 0.1200 -0.1057 0.2876 0.0740 Uiso
H2SC H 0.1057 -0.2124 0.3800 0.0740 Uiso
H2DD H -0.1200 0.2124 0.1057 0.0740 Uiso
H2KE H -0.1057 0.1200 0.2124 0.0740 Uiso
H2VC H -0.2124 0.1057 0.1200 0.0740 Uiso
C7P C 0.13914(6) 0.08546(5) 0.21242(5) 0.0553 Uani
C7H C 0.08546(5) 0.21242(5) 0.13914(6) 0.0553 Uani
C7TC C 0.21242(5) 0.13914(6) -0.08546(5) 0.0553 Uani
C7LE C 0.13914(6) 0.08546(5) -0.21242(5) 0.0553 Uani
C7BD C 0.08546(5) 0.21242(5) -0.13914(6) 0.0553 Uani
C7WA C 0.36086(6) 0.21242(5) 0.08546(5) 0.0553 Uani
C7R C 0.41454(5) 0.13914(6) 0.21242(5) 0.0553 Uani
C7EB C 0.28758(5) 0.08546(5) 0.13914(6) 0.0553 Uani
C7QE C 0.36086(6) 0.21242(5) -0.08546(5) 0.0553 Uani
C7LD C 0.41454(5) 0.13914(6) -0.21242(5) 0.0553 Uani
C7YE C 0.28758(5) 0.08546(5) -0.13914(6) 0.0553 Uani
C7ME C 0.13914(6) -0.08546(5) 0.21242(5) 0.0553 Uani
C7FD C 0.08546(5) -0.21242(5) 0.13914(6) 0.0553 Uani
C7XC C 0.21242(5) -0.13914(6) 0.08546(5) 0.0553 Uani
C7M C 0.21242(5) 0.08546(5) 0.36086(6) 0.0553 Uani
C7E C 0.13914(6) 0.21242(5) 0.41454(5) 0.0553 Uani
C7OB C 0.08546(5) 0.13914(6) 0.28758(5) 0.0553 Uani
C7AD C 0.21242(5) -0.08546(5) 0.36086(6) 0.0553 Uani
C7SC C 0.13914(6) -0.21242(5) 0.41454(5) 0.0553 Uani
C7FF C 0.08546(5) -0.13914(6) 0.28758(5) 0.0553 Uani
C7DD C -0.08546(5) 0.21242(5) 0.13914(6) 0.0553 Uani
C7VC C -0.21242(5) 0.13914(6) 0.08546(5) 0.0553 Uani
C7KE C -0.13914(6) 0.08546(5) 0.21242(5) 0.0553 Uani
H3H H 0.0751 0.2309 0.1317 0.0660 Uiso
H3P H 0.1317 0.0751 0.2309 0.0660 Uiso
H3TC H 0.2309 0.1317 -0.0751 0.0660 Uiso
H3BD H 0.0751 0.2309 -0.1317 0.0660 Uiso
H3LE H 0.1317 0.0751 -0.2309 0.0660 Uiso
H3WA H 0.3683 0.2309 0.0751 0.0660 Uiso
H3EB H 0.2691 0.0751 0.1317 0.0660 Uiso
H3R H 0.4249 0.1317 0.2309 0.0660 Uiso
H3QE H 0.3683 0.2309 -0.0751 0.0660 Uiso
H3YE H 0.2691 0.0751 -0.1317 0.0660 Uiso
H3LD H 0.4249 0.1317 -0.2309 0.0660 Uiso
H3ME H 0.1317 -0.0751 0.2309 0.0660 Uiso
H3XC H 0.2309 -0.1317 0.0751 0.0660 Uiso
H3FD H 0.0751 -0.2309 0.1317 0.0660 Uiso
H3M H 0.2309 0.0751 0.3683 0.0660 Uiso
H3OB H 0.0751 0.1317 0.2691 0.0660 Uiso
H3E H 0.1317 0.2309 0.4249 0.0660 Uiso
H3AD H 0.2309 -0.0751 0.3683 0.0660 Uiso
H3FF H 0.0751 -0.1317 0.2691 0.0660 Uiso
H3SC H 0.1317 -0.2309 0.4249 0.0660 Uiso
H3DD H -0.0751 0.2309 0.1317 0.0660 Uiso
H3KE H -0.1317 0.0751 0.2309 0.0660 Uiso
H3VC H -0.2309 0.1317 0.0751 0.0660 Uiso
O2P O 0.20463(4) 0.03349(4) 0.19033(3) 0.0529 Uani
O2H O 0.03349(4) 0.19033(3) 0.20463(4) 0.0529 Uani
O2TC O 0.19033(3) 0.20463(4) -0.03349(4) 0.0529 Uani
O2LE O 0.20463(4) 0.03349(4) -0.19033(3) 0.0529 Uani
O2BD O 0.03349(4) 0.19033(3) -0.20463(4) 0.0529 Uani
O2WA O 0.29537(4) 0.19033(3) 0.03349(4) 0.0529 Uani
O2R O 0.46651(4) 0.20463(4) 0.19033(3) 0.0529 Uani
O2EB O 0.30967(3) 0.03349(4) 0.20463(4) 0.0529 Uani
O2QE O 0.29537(4) 0.19033(3) -0.03349(4) 0.0529 Uani
O2LD O 0.46651(4) 0.20463(4) -0.19033(3) 0.0529 Uani
O2YE O 0.30967(3) 0.03349(4) -0.20463(4) 0.0529 Uani
O2ME O 0.20463(4) -0.03349(4) 0.19033(3) 0.0529 Uani
O2FD O 0.03349(4) -0.19033(3) 0.20463(4) 0.0529 Uani
O2XC O 0.19033(3) -0.20463(4) 0.03349(4) 0.0529 Uani
O2M O 0.19033(3) 0.03349(4) 0.29537(4) 0.0529 Uani
O2E O 0.20463(4) 0.19033(3) 0.46651(4) 0.0529 Uani
O2OB O 0.03349(4) 0.20463(4) 0.30967(3) 0.0529 Uani
O2AD O 0.19033(3) -0.03349(4) 0.29537(4) 0.0529 Uani
O2SC O 0.20463(4) -0.19033(3) 0.46651(4) 0.0529 Uani
O2FF O 0.03349(4) -0.20463(4) 0.30967(3) 0.0529 Uani
O2DD O -0.03349(4) 0.19033(3) 0.20463(4) 0.0529 Uani
O2VC O -0.19033(3) 0.20463(4) 0.03349(4) 0.0529 Uani
O2KE O -0.20463(4) 0.03349(4) 0.19033(3) 0.0529 Uani
O2NC O 0.03349(4) 0.29537(4) 0.19033(3) 0.0529 Uani
O2EG O -0.03349(4) 0.29537(4) 0.19033(3) 0.0529 Uani
O2GD O 0.19033(3) 0.03349(4) -0.29537(4) 0.0529 Uani
O2K O 0.19033(3) -0.03349(4) -0.29537(4) 0.0529 Uani
O2DG O 0.03349(4) 0.29537(4) -0.19033(3) 0.0529 Uani
O2KC O -0.03349(4) 0.29537(4) -0.19033(3) 0.0529 Uani
O2VB O 0.30967(3) 0.29537(4) 0.03349(4) 0.0529 Uani
O2LF O 0.30967(3) 0.29537(4) -0.03349(4) 0.0529 Uani
O2JB O 0.46651(4) 0.19033(3) 0.29537(4) 0.0529 Uani
O2XE O 0.53349(4) 0.19033(3) 0.29537(4) 0.0529 Uani
O2ZE O 0.46651(4) 0.19033(3) -0.29537(4) 0.0529 Uani
O2DB O 0.53349(4) 0.19033(3) -0.29537(4) 0.0529 Uani
O2SA O 0.20463(4) -0.03349(4) -0.19033(3) 0.0529 Uani
loop_
_atom_site_aniso_label
_atom_site_aniso_U_11
_atom_site_aniso_U_22
_atom_site_aniso_U_33
_atom_site_aniso_U_23
_atom_site_aniso_U_13
_atom_site_aniso_U_12
Cu1 0.01611(15) 0.02312(16) 0.01362(15) 0.000 0.000 -0.00116(10)
Cl1 0.0184(3) 0.0184(3) 0.0831(10) 0.000 0.000 0.000
O1 0.0413(8) 0.0510(9) 0.0472(9) 0.0250(7) 0.0279(7) 0.0169(6)
C1 0.0304(9) 0.0301(9) 0.0243(9) 0.0085(7) 0.0076(7) 0.0021(7)
C2 0.0339(10) 0.0401(11) 0.0331(10) 0.0170(8) 0.0183(8) 0.0140(8)
C3 0.0368(11) 0.0402(11) 0.0391(10) 0.0223(9) 0.0193(8) 0.0206(8)
C4 0.0381(11) 0.0440(11) 0.0383(10) 0.0238(9) 0.0204(9) 0.0212(9)
C5 0.0413(11) 0.0434(12) 0.0406(11) 0.0242(9) 0.0241(9) 0.0232(9)
C6 0.0574(14) 0.0659(15) 0.0624(14) 0.0437(12) 0.0410(12) 0.0443(12)
C7 0.0476(13) 0.0645(15) 0.0537(13) 0.0344(11) 0.0357(11) 0.0369(11)
O2 0.0409(8) 0.0667(10) 0.0510(9) 0.0418(8) 0.0219(7) 0.0216(7)
Cu1P 0.02312 0.01362 0.01611 0 -0.00116 0
Cu1H 0.01362 0.01611 0.02312 -0.00116 0 0
Cu1SA 0.02312 0.01362 0.01611 0 0.00116 0
Cu1N 0.01362 0.01611 0.02312 0.00116 0 0
Cu1WA 0.02312 0.01611 0.01362 0 0 0.00116
Cu1R 0.01362 0.02312 0.01611 -0.00116 0 0
Cu1EB 0.01611 0.01362 0.02312 0 0.00116 0
Cu1S 0.01362 0.02312 0.01611 0.00116 0 0
Cu1KB 0.01611 0.01362 0.02312 0 -0.00116 0
Cu1AA 0.02312 0.01611 0.01362 0 0 0.00116
Cu1OB 0.01362 0.02312 0.01611 0.00116 0 0
Cu1VB 0.01611 0.02312 0.01362 0 0 -0.00116
Cu1NB 0.01362 0.02312 0.01611 -0.00116 0 0
Cu1DC 0.01362 0.01611 0.02312 0.00116 0 0
Cu1QC 0.02312 0.01362 0.01611 0 -0.00116 0
Cu1FC 0.01362 0.01611 0.02312 -0.00116 0 0
Cu1PC 0.02312 0.01362 0.01611 0 0.00116 0
Cu1M 0.01611 0.01362 0.02312 0 0.00116 0
Cu1J 0.01362 0.01611 0.02312 0.00116 0 0
Cu1MB 0.01362 0.02312 0.01611 -0.00116 0 0
Cu1D 0.01611 0.02312 0.01362 0 0 0.00116
Cu1CA 0.02312 0.01611 0.01362 0 0 -0.00116
Cu1E 0.02312 0.01611 0.01362 0 0 -0.00116
Cu1BB 0.01611 0.02312 0.01362 0 0 0.00116
Cu1JA 0.01362 0.01611 0.02312 -0.00116 0 0
Cu1C 0.02312 0.01611 0.01362 0 0 0.00116
Cu1XA 0.01611 0.02312 0.01362 0 0 -0.00116
Cu1LA 0.01362 0.01611 0.02312 0.00116 0 0
Cu1NC 0.01362 0.02312 0.01611 0.00116 0 0
Cu1F 0.01611 0.02312 0.01362 0 0 0.00116
Cu1EA 0.02312 0.01611 0.01362 0 0 -0.00116
Cu1TA 0.02312 0.01362 0.01611 0 0.00116 0
Cu1GB 0.01611 0.01362 0.02312 0 -0.00116 0
Cl1M 0.0184 0.0831 0.0184 0 0 0
Cl1H 0.0831 0.0184 0.0184 0 0 0
Cl1K 0.0184 0.0831 0.0184 0 0 0
Cl1N 0.0831 0.0184 0.0184 0 0 0
Cl1R 0.0831 0.0184 0.0184 0 0 0
Cl1S 0.0831 0.0184 0.0184 0 0 0
O1P 0.051 0.0472 0.0413 0.0279 0.0169 0.025
O1H 0.0472 0.0413 0.051 0.0169 0.025 0.0279
O1TC 0.0413 0.051 0.0472 -0.025 -0.0279 0.0169
O1LE 0.051 0.0472 0.0413 -0.0279 -0.0169 0.025
O1BD 0.0472 0.0413 0.051 -0.0169 -0.025 0.0279
O1WA 0.051 0.0413 0.0472 0.0279 -0.025 -0.0169
O1R 0.0472 0.051 0.0413 0.0169 -0.0279 -0.025
O1EB 0.0413 0.0472 0.051 0.025 -0.0169 -0.0279
O1QE 0.051 0.0413 0.0472 -0.0279 0.025 -0.0169
O1LD 0.0472 0.051 0.0413 -0.0169 0.0279 -0.025
O1YE 0.0413 0.0472 0.051 -0.025 0.0169 -0.0279
O1ME 0.051 0.0472 0.0413 -0.0279 0.0169 -0.025
O1FD 0.0472 0.0413 0.051 -0.0169 0.025 -0.0279
O1XC 0.0413 0.051 0.0472 -0.025 0.0279 -0.0169
O1M 0.0413 0.0472 0.051 -0.025 -0.0169 0.0279
O1E 0.051 0.0413 0.0472 -0.0279 -0.025 0.0169
O1OB 0.0472 0.051 0.0413 -0.0169 -0.0279 0.025
O1AD 0.0413 0.0472 0.051 0.025 -0.0169 -0.0279
O1SC 0.051 0.0413 0.0472 0.0279 -0.025 -0.0169
O1FF 0.0472 0.051 0.0413 0.0169 -0.0279 -0.025
O1DD 0.0472 0.0413 0.051 0.0169 -0.025 -0.0279
O1VC 0.0413 0.051 0.0472 0.025 -0.0279 -0.0169
O1KE 0.051 0.0472 0.0413 0.0279 -0.0169 -0.025
O1SA 0.051 0.0472 0.0413 0.0279 -0.0169 -0.025
O1N 0.0472 0.0413 0.051 -0.0169 0.025 -0.0279
O1ID 0.0472 0.051 0.0413 0.0169 0.0279 0.025
O1AF 0.0413 0.0472 0.051 -0.025 -0.0169 0.0279
O1S 0.0472 0.051 0.0413 -0.0169 -0.0279 0.025
O1KB 0.0413 0.0472 0.051 0.025 0.0169 0.0279
O1AA 0.051 0.0413 0.0472 -0.0279 0.025 -0.0169
O1QD 0.051 0.0413 0.0472 0.0279 -0.025 -0.0169
O1HF 0.0472 0.051 0.0413 -0.0169 0.0279 -0.025
C1P 0.0301 0.0243 0.0304 0.0076 0.0021 0.0085
C1H 0.0243 0.0304 0.0301 0.0021 0.0085 0.0076
C1TC 0.0304 0.0301 0.0243 -0.0085 -0.0076 0.0021
C1LE 0.0301 0.0243 0.0304 -0.0076 -0.0021 0.0085
C1BD 0.0243 0.0304 0.0301 -0.0021 -0.0085 0.0076
C1WA 0.0301 0.0304 0.0243 0.0076 -0.0085 -0.0021
C1R 0.0243 0.0301 0.0304 0.0021 -0.0076 -0.0085
C1EB 0.0304 0.0243 0.0301 0.0085 -0.0021 -0.0076
C1QE 0.0301 0.0304 0.0243 -0.0076 0.0085 -0.0021
C1LD 0.0243 0.0301 0.0304 -0.0021 0.0076 -0.0085
C1YE 0.0304 0.0243 0.0301 -0.0085 0.0021 -0.0076
C1ME 0.0301 0.0243 0.0304 -0.0076 0.0021 -0.0085
C1FD 0.0243 0.0304 0.0301 -0.0021 0.0085 -0.0076
C1XC 0.0304 0.0301 0.0243 -0.0085 0.0076 -0.0021
C1M 0.0304 0.0243 0.0301 -0.0085 -0.0021 0.0076
C1E 0.0301 0.0304 0.0243 -0.0076 -0.0085 0.0021
C1OB 0.0243 0.0301 0.0304 -0.0021 -0.0076 0.0085
C1AD 0.0304 0.0243 0.0301 0.0085 -0.0021 -0.0076
C1SC 0.0301 0.0304 0.0243 0.0076 -0.0085 -0.0021
C1FF 0.0243 0.0301 0.0304 0.0021 -0.0076 -0.0085
C1DD 0.0243 0.0304 0.0301 0.0021 -0.0085 -0.0076
C1VC 0.0304 0.0301 0.0243 0.0085 -0.0076 -0.0021
C1KE 0.0301 0.0243 0.0304 0.0076 -0.0021 -0.0085
C2P 0.0401 0.0331 0.0339 0.0183 0.014 0.017
C2H 0.0331 0.0339 0.0401 0.014 0.017 0.0183
C2TC 0.0339 0.0401 0.0331 -0.017 -0.0183 0.014
C2LE 0.0401 0.0331 0.0339 -0.0183 -0.014 0.017
C2BD 0.0331 0.0339 0.0401 -0.014 -0.017 0.0183
C2WA 0.0401 0.0339 0.0331 0.0183 -0.017 -0.014
C2R 0.0331 0.0401 0.0339 0.014 -0.0183 -0.017
C2EB 0.0339 0.0331 0.0401 0.017 -0.014 -0.0183
C2QE 0.0401 0.0339 0.0331 -0.0183 0.017 -0.014
C2LD 0.0331 0.0401 0.0339 -0.014 0.0183 -0.017
C2YE 0.0339 0.0331 0.0401 -0.017 0.014 -0.0183
C2ME 0.0401 0.0331 0.0339 -0.0183 0.014 -0.017
C2FD 0.0331 0.0339 0.0401 -0.014 0.017 -0.0183
C2XC 0.0339 0.0401 0.0331 -0.017 0.0183 -0.014
C2M 0.0339 0.0331 0.0401 -0.017 -0.014 0.0183
C2E 0.0401 0.0339 0.0331 -0.0183 -0.017 0.014
C2OB 0.0331 0.0401 0.0339 -0.014 -0.0183 0.017
C2AD 0.0339 0.0331 0.0401 0.017 -0.014 -0.0183
C2SC 0.0401 0.0339 0.0331 0.0183 -0.017 -0.014
C2FF 0.0331 0.0401 0.0339 0.014 -0.0183 -0.017
C2DD 0.0331 0.0339 0.0401 0.014 -0.017 -0.0183
C2VC 0.0339 0.0401 0.0331 0.017 -0.0183 -0.014
C2KE 0.0401 0.0331 0.0339 0.0183 -0.014 -0.017
C3P 0.0402 0.0391 0.0368 0.0193 0.0206 0.0223
C3H 0.0391 0.0368 0.0402 0.0206 0.0223 0.0193
C3TC 0.0368 0.0402 0.0391 -0.0223 -0.0193 0.0206
C3LE 0.0402 0.0391 0.0368 -0.0193 -0.0206 0.0223
C3BD 0.0391 0.0368 0.0402 -0.0206 -0.0223 0.0193
C3WA 0.0402 0.0368 0.0391 0.0193 -0.0223 -0.0206
C3R 0.0391 0.0402 0.0368 0.0206 -0.0193 -0.0223
C3EB 0.0368 0.0391 0.0402 0.0223 -0.0206 -0.0193
C3QE 0.0402 0.0368 0.0391 -0.0193 0.0223 -0.0206
C3LD 0.0391 0.0402 0.0368 -0.0206 0.0193 -0.0223
C3YE 0.0368 0.0391 0.0402 -0.0223 0.0206 -0.0193
C3ME 0.0402 0.0391 0.0368 -0.0193 0.0206 -0.0223
C3FD 0.0391 0.0368 0.0402 -0.0206 0.0223 -0.0193
C3XC 0.0368 0.0402 0.0391 -0.0223 0.0193 -0.0206
C3M 0.0368 0.0391 0.0402 -0.0223 -0.0206 0.0193
C3E 0.0402 0.0368 0.0391 -0.0193 -0.0223 0.0206
C3OB 0.0391 0.0402 0.0368 -0.0206 -0.0193 0.0223
C3AD 0.0368 0.0391 0.0402 0.0223 -0.0206 -0.0193
C3SC 0.0402 0.0368 0.0391 0.0193 -0.0223 -0.0206
C3FF 0.0391 0.0402 0.0368 0.0206 -0.0193 -0.0223
C3DD 0.0391 0.0368 0.0402 0.0206 -0.0223 -0.0193
C3VC 0.0368 0.0402 0.0391 0.0223 -0.0193 -0.0206
C3KE 0.0402 0.0391 0.0368 0.0193 -0.0206 -0.0223
C4P 0.044 0.0383 0.0381 0.0204 0.0212 0.0238
C4H 0.0383 0.0381 0.044 0.0212 0.0238 0.0204
C4TC 0.0381 0.044 0.0383 -0.0238 -0.0204 0.0212
C4LE 0.044 0.0383 0.0381 -0.0204 -0.0212 0.0238
C4BD 0.0383 0.0381 0.044 -0.0212 -0.0238 0.0204
C4WA 0.044 0.0381 0.0383 0.0204 -0.0238 -0.0212
C4R 0.0383 0.044 0.0381 0.0212 -0.0204 -0.0238
C4EB 0.0381 0.0383 0.044 0.0238 -0.0212 -0.0204
C4QE 0.044 0.0381 0.0383 -0.0204 0.0238 -0.0212
C4LD 0.0383 0.044 0.0381 -0.0212 0.0204 -0.0238
C4YE 0.0381 0.0383 0.044 -0.0238 0.0212 -0.0204
C4ME 0.044 0.0383 0.0381 -0.0204 0.0212 -0.0238
C4FD 0.0383 0.0381 0.044 -0.0212 0.0238 -0.0204
C4XC 0.0381 0.044 0.0383 -0.0238 0.0204 -0.0212
C4M 0.0381 0.0383 0.044 -0.0238 -0.0212 0.0204
C4E 0.044 0.0381 0.0383 -0.0204 -0.0238 0.0212
C4OB 0.0383 0.044 0.0381 -0.0212 -0.0204 0.0238
C4AD 0.0381 0.0383 0.044 0.0238 -0.0212 -0.0204
C4SC 0.044 0.0381 0.0383 0.0204 -0.0238 -0.0212
C4FF 0.0383 0.044 0.0381 0.0212 -0.0204 -0.0238
C4DD 0.0383 0.0381 0.044 0.0212 -0.0238 -0.0204
C4VC 0.0381 0.044 0.0383 0.0238 -0.0204 -0.0212
C4KE 0.044 0.0383 0.0381 0.0204 -0.0212 -0.0238
C5P 0.0434 0.0406 0.0413 0.0241 0.0232 0.0242
C5H 0.0406 0.0413 0.0434 0.0232 0.0242 0.0241
C5TC 0.0413 0.0434 0.0406 -0.0242 -0.0241 0.0232
C5LE 0.0434 0.0406 0.0413 -0.0241 -0.0232 0.0242
C5BD 0.0406 0.0413 0.0434 -0.0232 -0.0242 0.0241
C5WA 0.0434 0.0413 0.0406 0.0241 -0.0242 -0.0232
C5R 0.0406 0.0434 0.0413 0.0232 -0.0241 -0.0242
C5EB 0.0413 0.0406 0.0434 0.0242 -0.0232 -0.0241
C5QE 0.0434 0.0413 0.0406 -0.0241 0.0242 -0.0232
C5LD 0.0406 0.0434 0.0413 -0.0232 0.0241 -0.0242
C5YE 0.0413 0.0406 0.0434 -0.0242 0.0232 -0.0241
C5ME 0.0434 0.0406 0.0413 -0.0241 0.0232 -0.0242
C5FD 0.0406 0.0413 0.0434 -0.0232 0.0242 -0.0241
C5XC 0.0413 0.0434 0.0406 -0.0242 0.0241 -0.0232
C5M 0.0413 0.0406 0.0434 -0.0242 -0.0232 0.0241
C5E 0.0434 0.0413 0.0406 -0.0241 -0.0242 0.0232
C5OB 0.0406 0.0434 0.0413 -0.0232 -0.0241 0.0242
C5AD 0.0413 0.0406 0.0434 0.0242 -0.0232 -0.0241
C5SC 0.0434 0.0413 0.0406 0.0241 -0.0242 -0.0232
C5FF 0.0406 0.0434 0.0413 0.0232 -0.0241 -0.0242
C5DD 0.0406 0.0413 0.0434 0.0232 -0.0242 -0.0241
C5VC 0.0413 0.0434 0.0406 0.0242 -0.0241 -0.0232
C5KE 0.0434 0.0406 0.0413 0.0241 -0.0232 -0.0242
C6P 0.0659 0.0624 0.0574 0.041 0.0443 0.0437
C6H 0.0624 0.0574 0.0659 0.0443 0.0437 0.041
C6TC 0.0574 0.0659 0.0624 -0.0437 -0.041 0.0443
C6LE 0.0659 0.0624 0.0574 -0.041 -0.0443 0.0437
C6BD 0.0624 0.0574 0.0659 -0.0443 -0.0437 0.041
C6WA 0.0659 0.0574 0.0624 0.041 -0.0437 -0.0443
C6R 0.0624 0.0659 0.0574 0.0443 -0.041 -0.0437
C6EB 0.0574 0.0624 0.0659 0.0437 -0.0443 -0.041
C6QE 0.0659 0.0574 0.0624 -0.041 0.0437 -0.0443
C6LD 0.0624 0.0659 0.0574 -0.0443 0.041 -0.0437
C6YE 0.0574 0.0624 0.0659 -0.0437 0.0443 -0.041
C6ME 0.0659 0.0624 0.0574 -0.041 0.0443 -0.0437
C6FD 0.0624 0.0574 0.0659 -0.0443 0.0437 -0.041
C6XC 0.0574 0.0659 0.0624 -0.0437 0.041 -0.0443
C6M 0.0574 0.0624 0.0659 -0.0437 -0.0443 0.041
C6E 0.0659 0.0574 0.0624 -0.041 -0.0437 0.0443
C6OB 0.0624 0.0659 0.0574 -0.0443 -0.041 0.0437
C6AD 0.0574 0.0624 0.0659 0.0437 -0.0443 -0.041
C6SC 0.0659 0.0574 0.0624 0.041 -0.0437 -0.0443
C6FF 0.0624 0.0659 0.0574 0.0443 -0.041 -0.0437
C6DD 0.0624 0.0574 0.0659 0.0443 -0.0437 -0.041
C6VC 0.0574 0.0659 0.0624 0.0437 -0.041 -0.0443
C6KE 0.0659 0.0624 0.0574 0.041 -0.0443 -0.0437
C7P 0.0645 0.0537 0.0476 0.0357 0.0369 0.0344
C7H 0.0537 0.0476 0.0645 0.0369 0.0344 0.0357
C7TC 0.0476 0.0645 0.0537 -0.0344 -0.0357 0.0369
C7LE 0.0645 0.0537 0.0476 -0.0357 -0.0369 0.0344
C7BD 0.0537 0.0476 0.0645 -0.0369 -0.0344 0.0357
C7WA 0.0645 0.0476 0.0537 0.0357 -0.0344 -0.0369
C7R 0.0537 0.0645 0.0476 0.0369 -0.0357 -0.0344
C7EB 0.0476 0.0537 0.0645 0.0344 -0.0369 -0.0357
C7QE 0.0645 0.0476 0.0537 -0.0357 0.0344 -0.0369
C7LD 0.0537 0.0645 0.0476 -0.0369 0.0357 -0.0344
C7YE 0.0476 0.0537 0.0645 -0.0344 0.0369 -0.0357
C7ME 0.0645 0.0537 0.0476 -0.0357 0.0369 -0.0344
C7FD 0.0537 0.0476 0.0645 -0.0369 0.0344 -0.0357
C7XC 0.0476 0.0645 0.0537 -0.0344 0.0357 -0.0369
C7M 0.0476 0.0537 0.0645 -0.0344 -0.0369 0.0357
C7E 0.0645 0.0476 0.0537 -0.0357 -0.0344 0.0369
C7OB 0.0537 0.0645 0.0476 -0.0369 -0.0357 0.0344
C7AD 0.0476 0.0537 0.0645 0.0344 -0.0369 -0.0357
C7SC 0.0645 0.0476 0.0537 0.0357 -0.0344 -0.0369
C7FF 0.0537 0.0645 0.0476 0.0369 -0.0357 -0.0344
C7DD 0.0537 0.0476 0.0645 0.0369 -0.0344 -0.0357
C7VC 0.0476 0.0645 0.0537 0.0344 -0.0357 -0.0369
C7KE 0.0645 0.0537 0.0476 0.0357 -0.0369 -0.0344
O2P 0.0667 0.051 0.0409 0.0219 0.0216 0.0418
O2H 0.051 0.0409 0.0667 0.0216 0.0418 0.0219
O2TC 0.0409 0.0667 0.051 -0.0418 -0.0219 0.0216
O2LE 0.0667 0.051 0.0409 -0.0219 -0.0216 0.0418
O2BD 0.051 0.0409 0.0667 -0.0216 -0.0418 0.0219
O2WA 0.0667 0.0409 0.051 0.0219 -0.0418 -0.0216
O2R 0.051 0.0667 0.0409 0.0216 -0.0219 -0.0418
O2EB 0.0409 0.051 0.0667 0.0418 -0.0216 -0.0219
O2QE 0.0667 0.0409 0.051 -0.0219 0.0418 -0.0216
O2LD 0.051 0.0667 0.0409 -0.0216 0.0219 -0.0418
O2YE 0.0409 0.051 0.0667 -0.0418 0.0216 -0.0219
O2ME 0.0667 0.051 0.0409 -0.0219 0.0216 -0.0418
O2FD 0.051 0.0409 0.0667 -0.0216 0.0418 -0.0219
O2XC 0.0409 0.0667 0.051 -0.0418 0.0219 -0.0216
O2M 0.0409 0.051 0.0667 -0.0418 -0.0216 0.0219
O2E 0.0667 0.0409 0.051 -0.0219 -0.0418 0.0216
O2OB 0.051 0.0667 0.0409 -0.0216 -0.0219 0.0418
O2AD 0.0409 0.051 0.0667 0.0418 -0.0216 -0.0219
O2SC 0.0667 0.0409 0.051 0.0219 -0.0418 -0.0216
O2FF 0.051 0.0667 0.0409 0.0216 -0.0219 -0.0418
O2DD 0.051 0.0409 0.0667 0.0216 -0.0418 -0.0219
O2VC 0.0409 0.0667 0.051 0.0418 -0.0219 -0.0216
O2KE 0.0667 0.051 0.0409 0.0219 -0.0216 -0.0418
O2NC 0.051 0.0667 0.0409 -0.0216 0.0219 -0.0418
O2EG 0.051 0.0667 0.0409 -0.0216 -0.0219 0.0418
O2GD 0.0409 0.051 0.0667 0.0418 0.0216 0.0219
O2K 0.0409 0.051 0.0667 -0.0418 0.0216 -0.0219
O2DG 0.051 0.0667 0.0409 0.0216 -0.0219 -0.0418
O2KC 0.051 0.0667 0.0409 0.0216 0.0219 0.0418
O2VB 0.0409 0.0667 0.051 -0.0418 -0.0219 0.0216
O2LF 0.0409 0.0667 0.051 0.0418 0.0219 0.0216
O2JB 0.051 0.0409 0.0667 -0.0216 0.0418 -0.0219
O2XE 0.051 0.0409 0.0667 -0.0216 -0.0418 0.0219
O2ZE 0.051 0.0409 0.0667 0.0216 -0.0418 -0.0219
O2DB 0.051 0.0409 0.0667 0.0216 0.0418 0.0219
O2SA 0.0667 0.051 0.0409 0.0219 -0.0216 -0.0418
loop_
_geom_bond_atom_site_label_1
_geom_bond_atom_site_label_2
_geom_bond_site_symmetry_1
_geom_bond_site_symmetry_2
Cu1 Cl1 1_555 1_555
Cl1 Cu1WA 1_555 1_555
O1 Cu1 1_555 1_555
C1 O1 1_555 1_555
C2 C1 1_555 1_555
C3 C2 1_555 1_555
H1 C3 1_555 1_555
C4 C3 1_555 1_555
C5 C4 1_555 1_555
C6 C5 1_555 1_555
H2 C6 1_555 1_555
C7 C2 1_555 1_555
H3 C7 1_555 1_555
O2 C1 1_555 1_555
Cu1P Cl1M 1_555 1_555
Cu1H Cl1H 1_555 1_555
Cu1SA Cl1K 1_555 1_555
Cu1N Cl1N 1_555 1_555
Cu1WA O1WA 1_555 1_555
Cu1R Cl1R 1_555 1_555
Cu1EB Cl1M 1_555 1_555
Cu1S Cl1S 1_555 1_555
Cu1KB Cl1K 1_555 1_555
Cu1AA Cl1 1_555 1_555
Cu1OB Cl1H 1_555 1_555
Cu1VB Cl1 1_555 1_555
Cu1NB Cl1N 1_555 1_555
Cu1DC Cl1R 1_555 1_555
Cu1QC Cl1M 1_555 1_555
Cu1FC Cl1S 1_555 1_555
Cu1PC Cl1K 1_555 1_555
Cu1M Cl1M 1_555 1_555
Cu1J O1FD 1_555 1_555
Cu1MB O1FF 1_555 1_555
Cu1D O1XC 1_555 1_555
Cu1CA O2XC 1_555 1_555
Cu1E O1E 1_555 1_555
Cu1BB O2E 1_555 1_555
Cu1JA Cl1H 1_555 1_555
Cu1C O1SC 1_555 1_555
Cu1XA O2SC 1_555 1_555
Cu1LA O2FF 1_555 1_555
Cu1NC Cl1H 1_555 1_555
Cu1F O1VC 1_555 1_555
Cu1EA O2VC 1_555 1_555
Cu1TA O1KE 1_555 1_555
Cu1GB O2KE 1_555 1_555
O1P Cu1P 1_555 1_555
O1H Cu1H 1_555 1_555
O1TC Cu1 1_555 1_555
O1LE Cu1SA 1_555 1_555
O1BD Cu1N 1_555 1_555
O1WA C1WA 1_555 1_555
O1R Cu1R 1_555 1_555
O1EB Cu1EB 1_555 1_555
O1QE Cu1WA 1_555 1_555
O1LD Cu1S 1_555 1_555
O1YE Cu1KB 1_555 1_555
O1ME Cu1P 1_555 1_555
O1FD C1FD 1_555 1_555
O1XC C1XC 1_555 1_555
O1M Cu1M 1_555 1_555
O1E C1E 1_555 1_555
O1OB Cu1OB 1_555 1_555
O1AD Cu1M 1_555 1_555
O1SC C1SC 1_555 1_555
O1FF C1FF 1_555 1_555
O1DD Cu1H 1_555 1_555
O1VC C1VC 1_555 1_555
O1KE C1KE 1_555 1_555
O1SA Cu1SA 1_555 1_555
O1N Cu1N 1_555 1_555
O1ID Cu1R 1_555 1_555
O1AF Cu1EB 1_555 1_555
O1S Cu1S 1_555 1_555
O1KB Cu1KB 1_555 1_555
O1AA Cu1AA 1_555 1_555
O1QD Cu1AA 1_555 1_555
O1HF Cu1OB 1_555 1_555
C1P O1P 1_555 1_555
C1H O1H 1_555 1_555
C1TC O1TC 1_555 1_555
C1LE O1LE 1_555 1_555
C1BD O1BD 1_555 1_555
C1WA C2WA 1_555 1_555
C1R O1R 1_555 1_555
C1EB O1EB 1_555 1_555
C1QE O1QE 1_555 1_555
C1LD O1LD 1_555 1_555
C1YE O1YE 1_555 1_555
C1ME O1ME 1_555 1_555
C1FD C2FD 1_555 1_555
C1XC C2XC 1_555 1_555
C1M O1M 1_555 1_555
C1E C2E 1_555 1_555
C1OB O1OB 1_555 1_555
C1AD O1AD 1_555 1_555
C1SC C2SC 1_555 1_555
C1FF C2FF 1_555 1_555
C1DD O1DD 1_555 1_555
C1VC C2VC 1_555 1_555
C1KE C2KE 1_555 1_555
C2P C1P 1_555 1_555
C2H C1H 1_555 1_555
C2TC C1TC 1_555 1_555
C2LE C1LE 1_555 1_555
C2BD C1BD 1_555 1_555
C2WA C3WA 1_555 1_555
C2R C1R 1_555 1_555
C2EB C1EB 1_555 1_555
C2QE C1QE 1_555 1_555
C2LD C1LD 1_555 1_555
C2YE C1YE 1_555 1_555
C2ME C1ME 1_555 1_555
C2FD C3FD 1_555 1_555
C2XC C3XC 1_555 1_555
C2M C1M 1_555 1_555
C2E C3E 1_555 1_555
C2OB C1OB 1_555 1_555
C2AD C1AD 1_555 1_555
C2SC C3SC 1_555 1_555
C2FF C3FF 1_555 1_555
C2DD C1DD 1_555 1_555
C2VC C3VC 1_555 1_555
C2KE C3KE 1_555 1_555
C3P C2P 1_555 1_555
C3H C2H 1_555 1_555
C3TC C2TC 1_555 1_555
C3LE C2LE 1_555 1_555
C3BD C2BD 1_555 1_555
C3WA H1WA 1_555 1_555
C3R C2R 1_555 1_555
C3EB C2EB 1_555 1_555
C3QE C2QE 1_555 1_555
C3LD C2LD 1_555 1_555
C3YE C2YE 1_555 1_555
C3ME C2ME 1_555 1_555
C3FD H1FD 1_555 1_555
C3XC H1XC 1_555 1_555
C3M C2M 1_555 1_555
C3E H1E 1_555 1_555
C3OB C2OB 1_555 1_555
C3AD C2AD 1_555 1_555
C3SC H1SC 1_555 1_555
C3FF H1FF 1_555 1_555
C3DD C2DD 1_555 1_555
C3VC H1VC 1_555 1_555
C3KE H1KE 1_555 1_555
H1H C3H 1_555 1_555
H1P C3P 1_555 1_555
H1TC C3TC 1_555 1_555
H1BD C3BD 1_555 1_555
H1LE C3LE 1_555 1_555
H1EB C3EB 1_555 1_555
H1R C3R 1_555 1_555
H1QE C3QE 1_555 1_555
H1YE C3YE 1_555 1_555
H1LD C3LD 1_555 1_555
H1ME C3ME 1_555 1_555
H1M C3M 1_555 1_555
H1OB C3OB 1_555 1_555
H1AD C3AD 1_555 1_555
H1DD C3DD 1_555 1_555
C4P C5 1_555 1_555
C4H C3H 1_555 1_555
C4TC C3TC 1_555 1_555
C4LE C3LE 1_555 1_555
C4BD C3BD 1_555 1_555
C4WA C3WA 1_555 1_555
C4R C3R 1_555 1_555
C4EB C3EB 1_555 1_555
C4QE C3QE 1_555 1_555
C4LD C3LD 1_555 1_555
C4YE C3YE 1_555 1_555
C4ME C3ME 1_555 1_555
C4FD C3FD 1_555 1_555
C4XC C3XC 1_555 1_555
C4M C3M 1_555 1_555
C4E C3E 1_555 1_555
C4OB C3OB 1_555 1_555
C4AD C3AD 1_555 1_555
C4SC C3SC 1_555 1_555
C4FF C3FF 1_555 1_555
C4DD C3DD 1_555 1_555
C4VC C3VC 1_555 1_555
C4KE C3KE 1_555 1_555
C5P C4P 1_555 1_555
C5H C4 1_555 1_555
C5TC C4TC 1_555 1_555
C5LE C4LE 1_555 1_555
C5BD C4TC 1_555 1_555
C5WA C4WA 1_555 1_555
C5R C4R 1_555 1_555
C5EB C4WA 1_555 1_555
C5QE C4QE 1_555 1_555
C5LD C4LD 1_555 1_555
C5YE C4QE 1_555 1_555
C5ME C4ME 1_555 1_555
C5FD C4FD 1_555 1_555
C5XC C4ME 1_555 1_555
C5M C4M 1_555 1_555
C5E C4E 1_555 1_555
C5OB C4M 1_555 1_555
C5AD C4AD 1_555 1_555
C5SC C4SC 1_555 1_555
C5FF C4AD 1_555 1_555
C5DD C4DD 1_555 1_555
C5VC C4VC 1_555 1_555
C5KE C4DD 1_555 1_555
C6P C5P 1_555 1_555
C6H C5H 1_555 1_555
C6TC C5TC 1_555 1_555
C6LE C5LE 1_555 1_555
C6BD C5BD 1_555 1_555
C6WA C5WA 1_555 1_555
C6R C5R 1_555 1_555
C6EB C5EB 1_555 1_555
C6QE C5QE 1_555 1_555
C6LD C5LD 1_555 1_555
C6YE C5YE 1_555 1_555
C6ME C5ME 1_555 1_555
C6FD C5FD 1_555 1_555
C6XC C5XC 1_555 1_555
C6M C5M 1_555 1_555
C6E C5E 1_555 1_555
C6OB C5OB 1_555 1_555
C6AD C5AD 1_555 1_555
C6SC C5SC 1_555 1_555
C6FF C5FF 1_555 1_555
C6DD C5DD 1_555 1_555
C6VC C5VC 1_555 1_555
C6KE C5KE 1_555 1_555
H2H C6H 1_555 1_555
H2P C6P 1_555 1_555
H2TC C6TC 1_555 1_555
H2BD C6BD 1_555 1_555
H2LE C6LE 1_555 1_555
H2WA C6WA 1_555 1_555
H2EB C6EB 1_555 1_555
H2R C6R 1_555 1_555
H2QE C6QE 1_555 1_555
H2YE C6YE 1_555 1_555
H2LD C6LD 1_555 1_555
H2ME C6ME 1_555 1_555
H2XC C6XC 1_555 1_555
H2FD C6FD 1_555 1_555
H2M C6M 1_555 1_555
H2OB C6OB 1_555 1_555
H2E C6E 1_555 1_555
H2AD C6AD 1_555 1_555
H2FF C6FF 1_555 1_555
H2SC C6SC 1_555 1_555
H2DD C6DD 1_555 1_555
H2KE C6KE 1_555 1_555
H2VC C6VC 1_555 1_555
C7P C2P 1_555 1_555
C7H C2H 1_555 1_555
C7TC C2TC 1_555 1_555
C7LE C2LE 1_555 1_555
C7BD C2BD 1_555 1_555
C7WA C2WA 1_555 1_555
C7R C2R 1_555 1_555
C7EB C2EB 1_555 1_555
C7QE C2QE 1_555 1_555
C7LD C2LD 1_555 1_555
C7YE C2YE 1_555 1_555
C7ME C2ME 1_555 1_555
C7FD C2FD 1_555 1_555
C7XC C2XC 1_555 1_555
C7M C2M 1_555 1_555
C7E C2E 1_555 1_555
C7OB C2OB 1_555 1_555
C7AD C2AD 1_555 1_555
C7SC C2SC 1_555 1_555
C7FF C2FF 1_555 1_555
C7DD C2DD 1_555 1_555
C7VC C2VC 1_555 1_555
C7KE C2KE 1_555 1_555
H3H C7H 1_555 1_555
H3P C7P 1_555 1_555
H3TC C7TC 1_555 1_555
H3BD C7BD 1_555 1_555
H3LE C7LE 1_555 1_555
H3WA C7WA 1_555 1_555
H3EB C7EB 1_555 1_555
H3R C7R 1_555 1_555
H3QE C7QE 1_555 1_555
H3YE C7YE 1_555 1_555
H3LD C7LD 1_555 1_555
H3ME C7ME 1_555 1_555
H3XC C7XC 1_555 1_555
H3FD C7FD 1_555 1_555
H3M C7M 1_555 1_555
H3OB C7OB 1_555 1_555
H3E C7E 1_555 1_555
H3AD C7AD 1_555 1_555
H3FF C7FF 1_555 1_555
H3SC C7SC 1_555 1_555
H3DD C7DD 1_555 1_555
H3KE C7KE 1_555 1_555
H3VC C7VC 1_555 1_555
O2P Cu1EB 1_555 1_555
O2H Cu1OB 1_555 1_555
O2TC Cu1AA 1_555 1_555
O2LE Cu1KB 1_555 1_555
O2BD Cu1NB 1_555 1_555
O2WA Cu1 1_555 1_555
O2R Cu1DC 1_555 1_555
O2EB Cu1QC 1_555 1_555
O2QE Cu1 1_555 1_555
O2LD Cu1FC 1_555 1_555
O2YE Cu1PC 1_555 1_555
O2ME Cu1EB 1_555 1_555
O2FD Cu1MB 1_555 1_555
O2XC C1XC 1_555 1_555
O2M Cu1P 1_555 1_555
O2E C1E 1_555 1_555
O2OB Cu1JA 1_555 1_555
O2AD Cu1P 1_555 1_555
O2SC C1SC 1_555 1_555
O2FF C1FF 1_555 1_555
O2DD Cu1OB 1_555 1_555
O2VC C1VC 1_555 1_555
O2KE C1KE 1_555 1_555
O2NC Cu1H 1_555 1_555
O2EG Cu1H 1_555 1_555
O2GD Cu1SA 1_555 1_555
O2K Cu1SA 1_555 1_555
O2DG Cu1N 1_555 1_555
O2KC Cu1N 1_555 1_555
O2VB Cu1WA 1_555 1_555
O2LF Cu1WA 1_555 1_555
O2JB Cu1R 1_555 1_555
O2XE Cu1R 1_555 1_555
O2ZE Cu1S 1_555 1_555
O2DB Cu1S 1_555 1_555
O2SA Cu1KB 1_555 1_555
C6 C7 1_555 1_555
O2 Cu1AA 1_555 1_555
C1P O2P 1_555 1_555
C1H O2H 1_555 1_555
C1TC O2TC 1_555 1_555
C1LE O2LE 1_555 1_555
C1BD O2BD 1_555 1_555
C1WA O2WA 1_555 1_555
C1R O2R 1_555 1_555
C1EB O2EB 1_555 1_555
C1QE O2QE 1_555 1_555
C1LD O2LD 1_555 1_555
C1YE O2YE 1_555 1_555
C1ME O2ME 1_555 1_555
C1FD O2FD 1_555 1_555
C1M O2M 1_555 1_555
C1OB O2OB 1_555 1_555
C1AD O2AD 1_555 1_555
C1DD O2DD 1_555 1_555
C3P C4P 1_555 1_555
C4H C5P 1_555 1_555
C4H C5H 1_555 1_555
C4LE C5TC 1_555 1_555
C4BD C5LE 1_555 1_555
C4BD C5BD 1_555 1_555
C4R C5WA 1_555 1_555
C4EB C5R 1_555 1_555
C4EB C5EB 1_555 1_555
C4LD C5QE 1_555 1_555
C4YE C5LD 1_555 1_555
C4YE C5YE 1_555 1_555
C4FD C5ME 1_555 1_555
C4XC C5FD 1_555 1_555
C4XC C5XC 1_555 1_555
C4E C5M 1_555 1_555
C4OB C5E 1_555 1_555
C4OB C5OB 1_555 1_555
C4SC C5AD 1_555 1_555
C4FF C5SC 1_555 1_555
C4FF C5FF 1_555 1_555
C4VC C5DD 1_555 1_555
C4KE C5VC 1_555 1_555
C4KE C5KE 1_555 1_555
C6P C7P 1_555 1_555
C6H C7H 1_555 1_555
C6TC C7TC 1_555 1_555
C6LE C7LE 1_555 1_555
C6BD C7BD 1_555 1_555
C6WA C7WA 1_555 1_555
C6R C7R 1_555 1_555
C6EB C7EB 1_555 1_555
C6QE C7QE 1_555 1_555
C6LD C7LD 1_555 1_555
C6YE C7YE 1_555 1_555
C6ME C7ME 1_555 1_555
C6FD C7FD 1_555 1_555
C6XC C7XC 1_555 1_555
C6M C7M 1_555 1_555
C6E C7E 1_555 1_555
C6OB C7OB 1_555 1_555
C6AD C7AD 1_555 1_555
C6SC C7SC 1_555 1_555
C6FF C7FF 1_555 1_555
C6DD C7DD 1_555 1_555
C6VC C7VC 1_555 1_555
C6KE C7KE 1_555 1_555

#END
