
#######################################################################
#
#                 Cambridge Crystallographic Data Centre
#                                CCDC 
#
#######################################################################
#
# If this CIF has been generated from an entry in the Cambridge 
# Structural Database, then it will include bibliographic, chemical, 
# crystal, experimental, refinement or atomic coordinate data resulting 
# from the CCDC's data processing and validation procedures.
#
#######################################################################

data_CANYIB
_chemical_formula_moiety         '(C16 H12 Co3 N1 O12)n'
_chemical_name_systematic        
'catena-((\m~5~-5-(Pyridin-4-yl)isophthalato)-tris(\m~3~-formato)-(\m~3~-oxo)-aqua-tri-cobalt unknown solvate)'
_symmetry_cell_setting           hexagonal
_symmetry_space_group_name_H-M   'P 61'
_symmetry_Int_Tables_number      169
_space_group_name_Hall           'P 61'
loop_
_symmetry_equiv_pos_site_id
_symmetry_equiv_pos_as_xyz
1 x,y,z
2 x-y,x,1/6+z
3 -y,x-y,1/3+z
4 -x,-y,1/2+z
5 -x+y,-x,2/3+z
6 y,-x+y,5/6+z
_cell_length_a                   23.4983(6)
_cell_length_b                   23.4983(6)
_cell_length_c                   11.0628(2)
_cell_angle_alpha                90
_cell_angle_beta                 90
_cell_angle_gamma                120
_cell_volume                     5290.16
_cell_formula_units_Z            6
loop_
_atom_site_label
_atom_site_type_symbol
_atom_site_fract_x
_atom_site_fract_y
_atom_site_fract_z
Co1 Co 0.90947(4) 0.28581(3) 0.06509(6)
Co2 Co 0.96098(3) 0.19520(3) -0.02414(6)
Co3 Co 0.87527(3) 0.13256(3) 0.20565(6)
O1 O 0.90443(18) 0.28936(17) -0.1228(3)
O2 O 0.87791(15) 0.18664(15) 0.0601(3)
O3 O 0.9219(2) 0.29487(19) -0.7527(3)
O4 O 1.04923(16) 0.20635(16) -0.0859(3)
O5 O 0.97342(15) 0.16642(16) 0.1489(3)
O6 O 1.09763(17) 0.18611(16) -0.2448(3)
O7 O 0.94205(18) 0.22457(17) -0.1915(3)
O8 O 1.07814(18) 0.19306(17) 0.1750(3)
C1 C 1.0185(3) 0.1664(3) 0.2068(5)
H1 H 1.0075 0.1447 0.2807
C2 C 0.9208(3) 0.2624(3) -0.6641(5)
O9 O 1.10701(19) 0.32599(18) 0.0913(4)
C3 C 1.0012(3) 0.5703(3) -0.5114(6)
H2 H 0.9844 0.5889 -0.5643
C4 C 0.9287(3) 0.2669(3) -0.4321(5)
H3 H 0.9163 0.2226 -0.4301
O10 O 1.00473(18) 0.29345(17) 0.0368(3)
C5 C 0.9391(3) 0.3009(2) -0.3256(4)
O11 O 0.90790(18) 0.20394(16) -0.6618(3)
C6 C 0.9275(2) 0.2676(2) -0.2043(4)
N1 N 1.0500(2) 0.6096(2) -0.4368(4)
C7 C 1.0490(3) 0.1825(3) -0.1876(5)
H4 H 1.0084 0.1593 -0.2256
C8 C 0.9599(3) 0.3693(3) -0.3301(5)
H5 H 0.9641 0.3913 -0.2580
C9 C 0.9594(3) 0.3668(3) -0.5464(5)
H6 H 0.9650 0.3883 -0.6197
C10 C 0.9369(3) 0.2986(2) -0.5449(4)
C11 C 1.0576(3) 0.3304(3) 0.0889(5)
H7 H 1.0595 0.3655 0.1311
C12 C 0.9982(3) 0.4728(3) -0.4376(5)
C13 C 0.9737(3) 0.4033(2) -0.4347(4)
H8 H 0.7810 0.2521 0.0182
H9 H 0.7925 0.2701 0.1462
C14 C 0.9742(3) 0.5011(3) -0.5127(6)
H10 H 0.9400 0.4752 -0.5652
C15 C 1.0723(4) 0.5814(3) -0.3603(6)
H11 H 1.1064 0.6073 -0.3076
C16 C 1.0440(4) 0.5116(3) -0.3588(6)
H12 H 1.0580 0.4927 -0.3008
O12 O 0.8114(2) 0.2697(2) 0.0784(4)
Co1_2 Co 0.90947(4) 0.28581(3) -0.93491(6)
Co1C Co 1.09053(4) 0.71419(3) -0.43491(6)
Co2E Co 1.19520(3) 0.23422(4) -0.19081(6)
Co3E Co 1.13256(3) 0.25729(4) 0.03898(6)
Co3_2 Co 0.87527(3) 0.13256(3) -0.79435(6)
O3_2 O 0.9219(2) 0.29487(19) 0.2473(3)
O4A O 0.84288(23) 0.04923(16) 0.0808(3)
O6A O 0.91152(23) 0.09763(17) -0.0781(3)
O8A O 0.88508(25) 0.07814(18) 0.3417(3)
O9A O 0.78102(26) 0.10701(19) 0.2580(4)
O11_2 O 0.90790(18) 0.20394(16) 0.3382(3)
N1C N 0.9500(2) 0.3904(2) 0.0632(4)
loop_
_geom_bond_atom_site_label_1
_geom_bond_atom_site_label_2
_geom_bond_site_symmetry_1
_geom_bond_site_symmetry_2
Co1 O1 1_555 1_555
Co2 O2 1_555 1_555
Co3 O2 1_555 1_555
O1 C6 1_555 1_555
O2 Co1 1_555 1_555
O3 C2 1_555 1_555
O4 Co2 1_555 1_555
O5 Co2 1_555 1_555
O6 C7 1_555 1_555
O7 Co2 1_555 1_555
O8 C1 1_555 1_555
C1 O5 1_555 1_555
H1 C1 1_555 1_555
C2 O11 1_555 1_555
O9 C11 1_555 1_555
C3 H2 1_555 1_555
C4 H3 1_555 1_555
O10 Co1 1_555 1_555
C5 C4 1_555 1_555
O11 Co3_2 1_555 1_555
C6 O7 1_555 1_555
N1 C3 1_555 1_555
C7 O4 1_555 1_555
H4 C7 1_555 1_555
C8 C5 1_555 1_555
H5 C8 1_555 1_555
C9 H6 1_555 1_555
C10 C2 1_555 1_555
C11 O10 1_555 1_555
H7 C11 1_555 1_555
C12 C13 1_555 1_555
C13 C8 1_555 1_555
H8 O12 1_555 1_555
H9 O12 1_555 1_555
C14 C3 1_555 1_555
H10 C14 1_555 1_555
C15 N1 1_555 1_555
H11 C15 1_555 1_555
C16 C12 1_555 1_555
H12 C16 1_555 1_555
O12 Co1 1_555 1_555
Co1_2 O3 1_555 1_555
Co1C N1 1_555 1_555
Co2E O6 1_555 1_555
Co3E O4 1_555 1_555
O3_2 Co1 1_555 1_555
O4A Co3 1_555 1_555
O6A Co2 1_555 1_555
O8A Co3 1_555 1_555
O9A Co3 1_555 1_555
O11_2 Co3 1_555 1_555
N1C Co1 1_555 1_555
Co2 O10 1_555 1_555
Co3 O5 1_555 1_555
O8 Co3E 1_555 1_555
O9 Co3E 1_555 1_555
C4 C10 1_555 1_555
C5 C6 1_555 1_555
C9 C10 1_555 1_555
C9 C13 1_555 1_555
C12 C14 1_555 1_555
C15 C16 1_555 1_555

#END
