
#######################################################################
#
#                 Cambridge Crystallographic Data Centre
#                                CCDC 
#
#######################################################################
#
# If this CIF has been generated from an entry in the Cambridge 
# Structural Database, then it will include bibliographic, chemical, 
# crystal, experimental, refinement or atomic coordinate data resulting 
# from the CCDC's data processing and validation procedures.
#
#######################################################################

data_OSADUK
_chemical_formula_moiety         
'(C32 H16 O16 Zn3 2-)n,2(C2 H8 N1 1+),C3 H7 N1 O1,H2 O1'
_chemical_name_systematic        
'catena-[bis(dimethylammonium) tetrakis(\m-terephthalato)-tri-zinc N,N-dimethylformamide solvate monohydrate]'
_symmetry_cell_setting           monoclinic
_symmetry_space_group_name_H-M   'C 2/c'
_symmetry_Int_Tables_number      15
_space_group_name_Hall           '-C 2yc'
loop_
_symmetry_equiv_pos_site_id
_symmetry_equiv_pos_as_xyz
1 x,y,z
2 -x,y,1/2-z
3 1/2+x,1/2+y,z
4 1/2-x,1/2+y,1/2-z
5 -x,-y,-z
6 x,-y,1/2+z
7 1/2-x,1/2-y,-z
8 1/2+x,1/2-y,1/2+z
_cell_length_a                   33.299(3)
_cell_length_b                   9.790(4)
_cell_length_c                   18.185(5)
_cell_angle_alpha                90
_cell_angle_beta                 93.420(6)
_cell_angle_gamma                90
_cell_volume                     5917.7
_exptl_crystal_colour            'pale yellow'
_exptl_crystal_description       prism
_cell_formula_units_Z            8
loop_
_atom_site_label
_atom_site_type_symbol
_atom_site_fract_x
_atom_site_fract_y
_atom_site_fract_z
Zn1 Zn 0.2500 0.2500 0.5000
Zn2 Zn 0.347290(17) 0.19939(6) 0.51542(3)
O1 O 0.21615(11) 0.1166(4) 0.55479(19)
O2 O 0.15405(11) 0.1880(4) 0.5753(2)
O3 O 0.22701(11) -0.1892(4) 0.8995(2)
O4 O 0.15915(11) -0.1820(4) 0.8997(2)
O5 O 0.29779(9) 0.0875(4) 0.4940(2)
O6 O 0.32452(14) -0.0208(5) 0.5919(3)
O7 O 0.40385(12) 0.1510(5) 0.5358(3)
O8 O 0.39244(15) 0.0177(7) 0.4388(3)
C1 C 0.18543(17) 0.1249(5) 0.5923(3)
C2 C 0.18710(16) 0.0509(6) 0.6647(3)
C3 C 0.15308(16) 0.0366(7) 0.7039(3)
H1 H 0.1287 0.0728 0.6852
C4 C 0.15505(17) -0.0307(7) 0.7703(3)
H2 H 0.1319 -0.0396 0.7962
C5 C 0.19074(16) -0.0851(6) 0.7991(3)
C6 C 0.22505(17) -0.0709(7) 0.7619(3)
H3 H 0.2494 -0.1049 0.7821
C7 C 0.22352(17) -0.0057(7) 0.6942(3)
H4 H 0.2466 0.0007 0.6681
C8 C 0.19245(18) -0.1571(6) 0.8726(3)
C9 C 0.30076(17) -0.0168(6) 0.5388(4)
C10 C 0.27409(16) -0.1370(6) 0.5189(3)
C11 C 0.27420(19) -0.2505(6) 0.5655(3)
H5 H 0.2903 -0.2504 0.6091
C12 C 0.24928(18) -0.1375(6) 0.4527(3)
H6 H 0.2489 -0.0621 0.4216
C13 C 0.4151(2) 0.0701(8) 0.4884(4)
C14 C 0.45914(19) 0.0341(8) 0.4923(4)
C15 C 0.4739(2) -0.0601(10) 0.4460(4)
H7 H 0.4570 -0.0994 0.4093
C16 C 0.4856(2) 0.0979(10) 0.5463(5)
H8 H 0.4759 0.1650 0.5768
O5F O 0.20221(9) -0.5875(4) 0.5060(2)
O6F O 0.17548(14) -0.4792(5) 0.4081(3)
C9F C 0.19924(17) -0.4832(6) 0.4612(4)
C10F C 0.22591(16) -0.3630(6) 0.4811(3)
C11F C 0.22580(19) -0.2495(6) 0.4345(3)
H5F H 0.2097 -0.2496 0.3909
C12F C 0.25072(18) -0.3625(6) 0.5473(3)
H6F H 0.2511 -0.4379 0.5784
O7D O 0.59615(12) -0.1510(5) 0.4642(3)
O8D O 0.60756(15) -0.0177(7) 0.5612(3)
C13D C 0.5849(2) -0.0701(8) 0.5116(4)
C14D C 0.54086(19) -0.0341(8) 0.5077(4)
C15D C 0.5261(2) 0.0601(10) 0.5540(4)
H7D H 0.5430 0.0994 0.5907
C16D C 0.5144(2) -0.0979(10) 0.4537(5)
H8D H 0.5241 -0.1650 0.4232
Zn2D Zn 0.652710(17) -0.19939(6) 0.48458(3)
O1F O 0.28385(11) 0.3834(4) 0.44521(19)
O2F O 0.34595(11) 0.3120(4) 0.4247(2)
O3F O 0.27299(11) 0.6892(4) 0.1005(2)
O4F O 0.34085(11) 0.6820(4) 0.1003(2)
C1F C 0.31457(17) 0.3751(5) 0.4077(3)
C2F C 0.31290(16) 0.4491(6) 0.3353(3)
C3F C 0.34692(16) 0.4634(7) 0.2961(3)
H1F H 0.3713 0.4272 0.3148
C4F C 0.34495(17) 0.5307(7) 0.2297(3)
H2F H 0.3681 0.5396 0.2038
C5F C 0.30926(16) 0.5851(6) 0.2009(3)
C6F C 0.27495(17) 0.5709(7) 0.2381(3)
H3F H 0.2506 0.6049 0.2179
C7F C 0.27648(17) 0.5057(7) 0.3058(3)
H4F H 0.2534 0.4993 0.3319
C8F C 0.30755(18) 0.6571(6) 0.1274(3)
Zn1_2 Zn 0.2500 -0.7500 0.5000
Zn1C Zn 0.2500 -0.2500 1.0000
Zn1C_2 Zn 0.2500 0.7500 0.0000
Zn2C Zn 0.152710(17) -0.30061(6) 0.98458(3)
Zn2E Zn 0.347290(17) 0.80061(6) 0.01542(3)
Zn2F Zn 0.152710(17) -0.69939(6) 0.48458(3)
Zn2F_2 Zn 0.152710(17) 0.30061(6) 0.48458(3)
O2B O 0.65405(11) -0.3120(4) 0.5753(2)
O3C O 0.27299(11) 0.3108(4) 0.6005(2)
O3E O 0.22701(11) 0.1892(4) 0.3995(2)
O4C O 0.34085(11) 0.3180(4) 0.6003(2)
O4G O 0.65915(11) -0.3180(4) 0.3997(2)
O5D O 0.70221(9) -0.0875(4) 0.5060(2)
O5F_2 O 0.20221(9) 0.4125(4) 0.5060(2)
loop_
_geom_bond_atom_site_label_1
_geom_bond_atom_site_label_2
_geom_bond_site_symmetry_1
_geom_bond_site_symmetry_2
Zn1 O1 1_555 1_555
Zn2 O5 1_555 1_555
O1 C1 1_555 1_555
O2 C1 1_555 1_555
O3 C8 1_555 1_555
O4 C8 1_555 1_555
O5 Zn1 1_555 1_555
O6 C9 1_555 1_555
O7 Zn2 1_555 1_555
O8 C13 1_555 1_555
C1 C2 1_555 1_555
C2 C3 1_555 1_555
C3 H1 1_555 1_555
C4 C3 1_555 1_555
H2 C4 1_555 1_555
C5 C4 1_555 1_555
C6 C5 1_555 1_555
H3 C6 1_555 1_555
C7 C2 1_555 1_555
H4 C7 1_555 1_555
C8 C5 1_555 1_555
C9 O5 1_555 1_555
C10 C9 1_555 1_555
C11 C10 1_555 1_555
H5 C11 1_555 1_555
C12 C10 1_555 1_555
H6 C12 1_555 1_555
C13 O7 1_555 1_555
C14 C13 1_555 1_555
C15 C14 1_555 1_555
H7 C15 1_555 1_555
C16 C14 1_555 1_555
H8 C16 1_555 1_555
O5F C9F 1_555 1_555
O6F C9F 1_555 1_555
C9F C10F 1_555 1_555
C10F C11F 1_555 1_555
C11F C12 1_555 1_555
H5F C11F 1_555 1_555
C12F C11 1_555 1_555
H6F C12F 1_555 1_555
O7D C13D 1_555 1_555
O8D C13D 1_555 1_555
C13D C14D 1_555 1_555
C14D C15D 1_555 1_555
C15D C16 1_555 1_555
H7D C15D 1_555 1_555
C16D C15 1_555 1_555
H8D C16D 1_555 1_555
Zn2D O7D 1_555 1_555
O1F Zn1 1_555 1_555
O2F Zn2 1_555 1_555
O3F C8F 1_555 1_555
O4F C8F 1_555 1_555
C1F O1F 1_555 1_555
C2F C1F 1_555 1_555
C3F C2F 1_555 1_555
H1F C3F 1_555 1_555
C4F C3F 1_555 1_555
H2F C4F 1_555 1_555
C5F C4F 1_555 1_555
C6F C5F 1_555 1_555
H3F C6F 1_555 1_555
C7F C2F 1_555 1_555
H4F C7F 1_555 1_555
C8F C5F 1_555 1_555
Zn1_2 O5F 1_555 1_555
Zn1C O3 1_555 1_555
Zn1C_2 O3F 1_555 1_555
Zn2C O4 1_555 1_555
Zn2E O4F 1_555 1_555
Zn2F O5F 1_555 1_555
Zn2F_2 O2 1_555 1_555
O2B Zn2D 1_555 1_555
O3C Zn1 1_555 1_555
O3E Zn1 1_555 1_555
O4C Zn2 1_555 1_555
O4G Zn2D 1_555 1_555
O5D Zn2D 1_555 1_555
O5F_2 Zn1 1_555 1_555
C6 C7 1_555 1_555
C10F C12F 1_555 1_555
C14D C16D 1_555 1_555
O2F C1F 1_555 1_555
C6F C7F 1_555 1_555
Zn2F_2 O5F_2 1_555 1_555

#END
