
#######################################################################
#
#                 Cambridge Crystallographic Data Centre
#                                CCDC 
#
#######################################################################
#
# If this CIF has been generated from an entry in the Cambridge 
# Structural Database, then it will include bibliographic, chemical, 
# crystal, experimental, refinement or atomic coordinate data resulting 
# from the CCDC's data processing and validation procedures.
#
#######################################################################

data_VETMIS
_chemical_formula_moiety         '(C180 H114 Cu6 N6 O30)n,5.5n(C4 H9 N1 O1)'
_chemical_name_systematic        
"catena-(bis(\m~12~-6,6',6'',6'''-((5'-(4-(bis(6-carboxynaphthalen-2-yl)amino)phenyl)-[1,1':3',1''-terphenyl]-4,4''-diyl)bis(azanetriy-l))-tetrakis(2-naphthoato))-hexa-aqua-hexa-copper dimethylacetamide solvate)"
_symmetry_cell_setting           hexagonal
_symmetry_space_group_name_H-M   'P 63 2 2'
_symmetry_Int_Tables_number      182
_space_group_name_Hall           'P 6c 2c'
loop_
_symmetry_equiv_pos_site_id
_symmetry_equiv_pos_as_xyz
1 x,y,z
2 x-y,x,1/2+z
3 -y,x-y,z
4 -x,-y,1/2+z
5 -x+y,-x,z
6 y,-x+y,1/2+z
7 -y,-x,1/2-z
8 x-y,-y,-z
9 x,x-y,1/2-z
10 y,x,-z
11 -x+y,y,1/2-z
12 -x,-x+y,-z
_cell_length_a                   43.252(10)
_cell_length_b                   43.252(10)
_cell_length_c                   20.463(6)
_cell_angle_alpha                90
_cell_angle_beta                 90
_cell_angle_gamma                120
_cell_volume                     33152.2
_exptl_crystal_colour            brown
_exptl_crystal_description       block
_cell_formula_units_Z            4
loop_
_atom_site_label
_atom_site_type_symbol
_atom_site_fract_x
_atom_site_fract_y
_atom_site_fract_z
Cu1 Cu 0.31913(8) 0.34650(8) 0.0487(2)
C1 C 0.4197(5) 0.3715(4) 0.1107(10)
C2 C 0.4505(7) 0.3724(4) 0.0886(7)
H1 H 0.4508 0.3633 0.0476
C3 C 0.4808(5) 0.3869(4) 0.1277(10)
C4 C 0.4803(4) 0.4005(4) 0.1890(10)
C5 C 0.4495(5) 0.3996(4) 0.2111(8)
H2 H 0.4492 0.4087 0.2522
C6 C 0.4192(4) 0.3851(4) 0.1720(11)
H3 H 0.3986 0.3845 0.1869
C7 C 0.5098(8) 0.3858(8) 0.1070(13)
H4 H 0.5112 0.3756 0.0679
C8 C 0.5408(5) 0.4040(6) 0.1580(14)
H5 H 0.5634 0.4084 0.1465
C9 C 0.5888(7) 0.4112(7) 0.2500
C10 C 0.6262(6) 0.4255(6) 0.2308(10)
H6 H 0.6385 0.4482 0.2126
C11 C 0.6436(5) 0.4066(6) 0.2387(9)
H7 H 0.6684 0.4200 0.2361
C12 C 0.6296(5) 0.3704(5) 0.2500
C13 C 0.6498(5) 0.3502(5) 0.2500
C14 C 0.6877(3) 0.3754(7) 0.2500
H8 H 0.7001 0.4002 0.2500
C15 C 0.2804(4) 0.3058(4) -0.0695(11)
C16 C 0.1908(5) 0.2238(5) -0.2168(10)
H9 H 0.2095 0.2208 -0.2311
C17 C 0.1314(5) 0.2121(5) -0.2181(11)
C18 C 0.1968(3) 0.2477(6) -0.1691(6)
C19 C 0.2318(4) 0.2641(5) -0.1466(8)
H10 H 0.2483 0.2593 -0.1663
C20 C 0.2422(4) 0.2879(3) -0.0945(8)
C21 C 0.2175(3) 0.2952(6) -0.0650(5)
H11 H 0.2245 0.3111 -0.0301
C22 C 0.1826(5) 0.2787(5) -0.0875(9)
H12 H 0.1661 0.2836 -0.0678
C23 C 0.1722(4) 0.2549(3) -0.1396(9)
C24 C 0.3892(5) 0.3545(4) 0.0617(11)
N1 N 0.5708(4) 0.4292(4) 0.2500
O1 O 0.2770(3) 0.3230(3) -0.0153(8)
O2 O 0.3027(3) 0.2977(4) -0.0984(7)
O3 O 0.2990(5) 0.3669(5) 0.1252(10)
O4 O 0.3637(4) 0.3615(2) 0.0955(6)
O5 O 0.3884(4) 0.3424(4) 0.0008(12)
C25 C 0.1566(4) 0.2030(6) -0.2457(9)
H13 H 0.1511 0.1858 -0.2780
C26 C 0.5079(5) 0.4121(6) 0.2437(14)
H14 H 0.5064 0.4175 0.2872
C27 C 0.5364(8) 0.4123(5) 0.2098(13)
C28 C 0.1349(6) 0.2341(6) -0.1666(12)
H15 H 0.1159 0.2360 -0.1500
N2 N 0.0951(10) 0.1902(5) -0.2500
C29 C 0.0399(9) 0.0798(5) -0.2500
C30 C 0.0199(10) 0.0397(5) -0.2500
C31 C -0.0192(4) 0.0192(4) -0.2500
H16 H -0.0316 0.0316 -0.2500
C32 C 0.0331(6) 0.0962(5) -0.3062(12)
H17 H 0.0165 0.0830 -0.3384
C33 C 0.0544(8) 0.1350(6) -0.3077(15)
H18 H 0.0547 0.1486 -0.3429
C34 C 0.0750(10) 0.1500(5) -0.2500
Cu1J Cu 0.02737(11) 0.34650(8) -0.5487(2)
Cu1B Cu -0.34650(8) -0.02737(11) 0.0487(2)
Cu1F Cu -0.34650(8) -0.31913(8) -0.5487(2)
Cu1D Cu 0.02737(11) -0.31913(8) 0.0487(2)
Cu1H Cu 0.31913(8) -0.02737(11) -0.5487(2)
Cu1I Cu 0.34650(8) 0.31913(8) -0.0487(2)
Cu1D_2 Cu 1.02737(11) 0.68087(8) 0.0487(2)
Cu1G Cu 0.97263(11) 0.65350(8) -0.0487(2)
Cu1J_2 Cu 1.02737(11) 0.34650(8) 0.4513(2)
Cu1A Cu 0.97263(11) 0.31913(8) 0.5487(2)
Cu1B_2 Cu 0.65350(8) -0.02737(11) 0.0487(2)
Cu1K Cu 0.68087(8) 0.02737(11) -0.0487(2)
Cu1H_2 Cu 0.31913(8) -0.02737(11) 0.4513(2)
Cu1E Cu 0.34650(8) 0.02737(11) 0.5487(2)
Cu1F_2 Cu 0.65350(8) 0.68087(8) 0.4513(2)
Cu1C Cu 0.68087(8) 0.65350(8) 0.5487(2)
Cu1A_2 Cu -0.02737(11) 0.31913(8) -0.4513(2)
Cu1K_2 Cu -0.31913(8) 0.02737(11) -0.0487(2)
Cu1C_2 Cu -0.31913(8) -0.34650(8) -0.4513(2)
Cu1G_2 Cu -0.02737(11) -0.34650(8) -0.0487(2)
Cu1E_2 Cu 0.34650(8) 0.02737(11) -0.4513(2)
C1D C 0.9518(6) 0.5803(5) 0.1107(10)
C1J C 0.9518(6) 0.3715(4) 0.3893(10)
C1B C 0.6285(4) 0.0482(6) 0.1107(10)
C1H C 0.4197(5) 0.0482(6) 0.3893(10)
C1F C 0.6285(4) 0.5803(5) 0.3893(10)
C2D C 0.9219(8) 0.5495(7) 0.0886(7)
C2J C 0.9219(8) 0.3724(4) 0.4114(7)
C2B C 0.6276(4) 0.0781(8) 0.0886(7)
C2H C 0.4505(7) 0.0781(8) 0.4114(7)
C2F C 0.6276(4) 0.5495(7) 0.4114(7)
H1D H 0.9125 0.5492 0.0476
H1J H 0.9125 0.3633 0.4524
H1B H 0.6367 0.0875 0.0476
H1H H 0.4508 0.0875 0.4524
H1F H 0.6367 0.5492 0.4524
C3D C 0.9061(6) 0.5192(5) 0.1277(10)
C3J C 0.9061(6) 0.3869(4) 0.3723(10)
C3B C 0.6131(4) 0.0939(6) 0.1277(10)
C3H C 0.4808(5) 0.0939(6) 0.3723(10)
C3F C 0.6131(4) 0.5192(5) 0.3723(10)
C4D C 0.9202(6) 0.5197(4) 0.1890(10)
C4J C 0.9202(6) 0.4005(4) 0.3110(10)
C4B C 0.5995(4) 0.0798(6) 0.1890(10)
C4H C 0.4803(4) 0.0798(6) 0.3110(10)
C4F C 0.5995(4) 0.5197(4) 0.3110(10)
C5D C 0.9501(6) 0.5505(5) 0.2111(8)
C5J C 0.9501(6) 0.3996(4) 0.2889(8)
C5B C 0.6004(4) 0.0499(6) 0.2111(8)
C5H C 0.4495(5) 0.0499(6) 0.2889(8)
C5F C 0.6004(4) 0.5505(5) 0.2889(8)
H2D H 0.9595 0.5508 0.2522
H2J H 0.9595 0.4087 0.2478
H2B H 0.5913 0.0405 0.2522
H2H H 0.4492 0.0405 0.2478
H2F H 0.5913 0.5508 0.2478
C6D C 0.9659(6) 0.5808(4) 0.1720(11)
C6J C 0.9659(6) 0.3851(4) 0.3280(11)
C6B C 0.6149(4) 0.0341(6) 0.1720(11)
C6H C 0.4192(4) 0.0341(6) 0.3280(11)
C6F C 0.6149(4) 0.5808(4) 0.3280(11)
H3D H 0.9859 0.6014 0.1869
H3J H 0.9859 0.3845 0.3131
H3B H 0.6155 0.0141 0.1869
H3H H 0.3986 0.0141 0.3131
H3F H 0.6155 0.6014 0.3131
C7D C 0.8760(11) 0.4902(8) 0.1070(13)
C7J C 0.8760(11) 0.3858(8) 0.3930(13)
C7B C 0.6142(8) 0.1240(11) 0.1070(13)
C7H C 0.5098(8) 0.1240(11) 0.3930(13)
C7F C 0.6142(8) 0.4902(8) 0.3930(13)
H4D H 0.8644 0.4888 0.0679
H4J H 0.8644 0.3756 0.4321
H4B H 0.6244 0.1356 0.0679
H4H H 0.5112 0.1356 0.4321
H4F H 0.6244 0.4888 0.4321
C8D C 0.8632(8) 0.4592(5) 0.1580(14)
C8J C 0.8632(8) 0.4040(6) 0.3420(14)
C8B C 0.5960(6) 0.1368(8) 0.1580(14)
C8H C 0.5408(5) 0.1368(8) 0.3420(14)
C8F C 0.5960(6) 0.4592(5) 0.3420(14)
H5D H 0.8450 0.4366 0.1465
H5J H 0.8450 0.4084 0.3535
H5B H 0.5916 0.1550 0.1465
H5H H 0.5634 0.1550 0.3535
H5F H 0.5916 0.4366 0.3535
C9D C 0.8224(10) 0.4112(7) 0.2500
C9B C 0.5888(7) 0.1776(10) 0.2500
C10F C 0.5745(6) 0.3738(6) 0.2692(10)
C10D C 0.7993(8) 0.3738(6) 0.2308(10)
C10J C 0.7993(8) 0.4255(6) 0.2692(10)
C10B C 0.5745(6) 0.2007(8) 0.2308(10)
C10H C 0.6262(6) 0.2007(8) 0.2692(10)
H6F H 0.5518 0.3615 0.2874
H6J H 0.8097 0.4482 0.2874
H6D H 0.8097 0.3615 0.2126
H6H H 0.6385 0.1903 0.2874
H6B H 0.5518 0.1903 0.2126
C11F C 0.5934(6) 0.3564(5) 0.2613(9)
C11D C 0.7630(8) 0.3564(5) 0.2387(9)
C11J C 0.7630(8) 0.4066(6) 0.2613(9)
C11B C 0.5934(6) 0.2370(8) 0.2387(9)
C11H C 0.6436(5) 0.2370(8) 0.2613(9)
H7F H 0.5800 0.3316 0.2639
H7J H 0.7516 0.4200 0.2639
H7D H 0.7516 0.3316 0.2361
H7H H 0.6684 0.2484 0.2639
H7B H 0.5800 0.2484 0.2361
C12D C 0.7408(7) 0.3704(5) 0.2500
C12B C 0.6296(5) 0.2592(7) 0.2500
C13D C 0.7004(7) 0.3502(5) 0.2500
C13B C 0.6498(5) 0.2996(7) 0.2500
C14D C 0.6877(8) 0.3123(3) 0.2500
C14B C 0.6246(7) 0.3123(8) 0.2500
H8B H 0.5998 0.2999 0.2500
H8D H 0.7001 0.2999 0.2500
C15J C 0.0254(6) 0.3058(4) -0.4305(11)
C15B C -0.3058(4) -0.0254(6) -0.0695(11)
C15F C -0.3058(4) -0.2804(4) -0.4305(11)
C15D C 0.0254(6) -0.2804(4) -0.0695(11)
C15H C 0.2804(4) -0.0254(6) -0.4305(11)
C16J C 0.0330(7) 0.2238(5) -0.2832(10)
C16B C -0.2238(5) -0.0330(7) -0.2168(10)
C16F C -0.2238(5) -0.1908(5) -0.2832(10)
C16D C 0.0330(7) -0.1908(5) -0.2168(10)
C16H C 0.1908(5) -0.0330(7) -0.2832(10)
H9J H 0.0113 0.2208 -0.2689
H9B H -0.2208 -0.0113 -0.2311
H9F H -0.2208 -0.2095 -0.2689
H9D H 0.0113 -0.2095 -0.2311
H9H H 0.2095 -0.0113 -0.2689
C17J C 0.0807(7) 0.2121(5) -0.2819(11)
C17B C -0.2121(5) -0.0807(7) -0.2181(11)
C17F C -0.2121(5) -0.1314(5) -0.2819(11)
C17D C 0.0807(7) -0.1314(5) -0.2181(11)
C17H C 0.1314(5) -0.0807(7) -0.2819(11)
C18J C 0.0509(7) 0.2477(6) -0.3309(6)
C18B C -0.2477(6) -0.0509(7) -0.1691(6)
C18F C -0.2477(6) -0.1968(3) -0.3309(6)
C18D C 0.0509(7) -0.1968(3) -0.1691(6)
C18H C 0.1968(3) -0.0509(7) -0.3309(6)
C19J C 0.0323(6) 0.2641(5) -0.3534(8)
C19B C -0.2641(5) -0.0323(6) -0.1466(8)
C19F C -0.2641(5) -0.2318(4) -0.3534(8)
C19D C 0.0323(6) -0.2318(4) -0.1466(8)
C19H C 0.2318(4) -0.0323(6) -0.3534(8)
H10J H 0.0110 0.2593 -0.3337
H10B H -0.2593 -0.0110 -0.1663
H10F H -0.2593 -0.2483 -0.3337
H10D H 0.0110 -0.2483 -0.1663
H10H H 0.2483 -0.0110 -0.3337
C20J C 0.0457(5) 0.2879(3) -0.4055(8)
C20B C -0.2879(3) -0.0457(5) -0.0945(8)
C20F C -0.2879(3) -0.2422(4) -0.4055(8)
C20D C 0.0457(5) -0.2422(4) -0.0945(8)
C20H C 0.2422(4) -0.0457(5) -0.4055(8)
C21J C 0.0777(7) 0.2952(6) -0.4350(5)
C21B C -0.2952(6) -0.0777(7) -0.0650(5)
C21F C -0.2952(6) -0.2175(3) -0.4350(5)
C21D C 0.0777(7) -0.2175(3) -0.0650(5)
C21H C 0.2175(3) -0.0777(7) -0.4350(5)
H11J H 0.0866 0.3111 -0.4699
H11B H -0.3111 -0.0866 -0.0301
H11F H -0.3111 -0.2245 -0.4699
H11D H 0.0866 -0.2245 -0.0301
H11H H 0.2245 -0.0866 -0.4699
C22J C 0.0961(7) 0.2787(5) -0.4125(9)
C22B C -0.2787(5) -0.0961(7) -0.0875(9)
C22F C -0.2787(5) -0.1826(5) -0.4125(9)
C22D C 0.0961(7) -0.1826(5) -0.0875(9)
C22H C 0.1826(5) -0.0961(7) -0.4125(9)
H12J H 0.1175 0.2836 -0.4322
H12B H -0.2836 -0.1175 -0.0678
H12F H -0.2836 -0.1661 -0.4322
H12D H 0.1175 -0.1661 -0.0678
H12H H 0.1661 -0.1175 -0.4322
C23J C 0.0827(5) 0.2549(3) -0.3604(9)
C23B C -0.2549(3) -0.0827(5) -0.1396(9)
C23F C -0.2549(3) -0.1722(4) -0.3604(9)
C23D C 0.0827(5) -0.1722(4) -0.1396(9)
C23H C 0.1722(4) -0.0827(5) -0.3604(9)
C24D C 0.9653(6) 0.6108(5) 0.0617(11)
C24J C 0.9653(6) 0.3545(4) 0.4383(11)
C24B C 0.6455(4) 0.0347(6) 0.0617(11)
C24H C 0.3892(5) 0.0347(6) 0.4383(11)
C24F C 0.6455(4) 0.6108(5) 0.4383(11)
N1D N 0.8584(6) 0.4292(4) 0.2500
N1B N 0.5708(4) 0.1416(6) 0.2500
O1J O 0.0460(4) 0.3230(3) -0.4847(8)
O1B O -0.3230(3) -0.0460(4) -0.0153(8)
O1F O -0.3230(3) -0.2770(3) -0.4847(8)
O1D O 0.0460(4) -0.2770(3) -0.0153(8)
O1H O 0.2770(3) -0.0460(4) -0.4847(8)
O2J O -0.0050(5) 0.2977(4) -0.4016(7)
O2B O -0.2977(4) 0.0050(5) -0.0984(7)
O2F O -0.2977(4) -0.3027(3) -0.4016(7)
O2D O -0.0050(5) -0.3027(3) -0.0984(7)
O2H O 0.3027(3) 0.0050(5) -0.4016(7)
O2I O 0.2977(4) 0.3027(3) 0.0984(7)
O2A O 0.0050(5) 0.3027(3) -0.5984(7)
O2K O -0.3027(3) -0.0050(5) 0.0984(7)
O2C O -0.3027(3) -0.2977(4) -0.5984(7)
O2G O 0.0050(5) -0.2977(4) 0.0984(7)
O2E O 0.2977(4) -0.0050(5) -0.5984(7)
O3J O 0.0679(7) 0.3669(5) -0.6252(10)
O3B O -0.3669(5) -0.0679(7) 0.1252(10)
O3F O -0.3669(5) -0.2990(5) -0.6252(10)
O3D O 0.0679(7) -0.2990(5) 0.1252(10)
O3H O 0.2990(5) -0.0679(7) -0.6252(10)
O4D O 0.9978(4) 0.6363(4) 0.0955(6)
O4J O 0.9978(4) 0.3615(2) 0.4045(6)
O4B O 0.6385(2) 0.0022(4) 0.0955(6)
O4H O 0.3637(4) 0.0022(4) 0.4045(6)
O4F O 0.6385(2) 0.6363(4) 0.4045(6)
O4J_2 O -0.0022(4) 0.3615(2) -0.5955(6)
O4B_2 O -0.3615(2) 0.0022(4) 0.0955(6)
O4F_2 O -0.3615(2) -0.3637(4) -0.5955(6)
O4D_2 O -0.0022(4) -0.3637(4) 0.0955(6)
O4H_2 O 0.3637(4) 0.0022(4) -0.5955(6)
O5D O 0.9540(6) 0.6116(4) 0.0008(12)
O5J O 0.9540(6) 0.3424(4) 0.4992(12)
O5B O 0.6576(4) 0.0460(6) 0.0008(12)
O5H O 0.3884(4) 0.0460(6) 0.4992(12)
O5F O 0.6576(4) 0.6116(4) 0.4992(12)
O5I O 0.3424(4) 0.3884(4) -0.0008(12)
O5A O 0.0460(6) 0.3884(4) -0.4992(12)
O5K O -0.3884(4) -0.0460(6) -0.0008(12)
O5C O -0.3884(4) -0.3424(4) -0.4992(12)
O5G O 0.0460(6) -0.3424(4) -0.0008(12)
O5E O 0.3424(4) -0.0460(6) -0.4992(12)
C25J C 0.0464(7) 0.2030(6) -0.2543(9)
C25B C -0.2030(6) -0.0464(7) -0.2457(9)
C25F C -0.2030(6) -0.1566(4) -0.2543(9)
C25D C 0.0464(7) -0.1566(4) -0.2457(9)
C25H C 0.1566(4) -0.0464(7) -0.2543(9)
H13J H 0.0347 0.1858 -0.2220
H13B H -0.1858 -0.0347 -0.2780
H13F H -0.1858 -0.1511 -0.2220
H13D H 0.0347 -0.1511 -0.2780
H13H H 0.1511 -0.0347 -0.2220
C26D C 0.9042(8) 0.4921(5) 0.2437(14)
C26J C 0.9042(8) 0.4121(6) 0.2563(14)
C26B C 0.5879(6) 0.0958(8) 0.2437(14)
C26H C 0.5079(5) 0.0958(8) 0.2563(14)
C26F C 0.5879(6) 0.4921(5) 0.2563(14)
H14D H 0.9111 0.4936 0.2872
H14J H 0.9111 0.4175 0.2128
H14B H 0.5825 0.0889 0.2872
H14H H 0.5064 0.0889 0.2128
H14F H 0.5825 0.4936 0.2128
C27D C 0.8759(9) 0.4636(8) 0.2098(13)
C27J C 0.8759(9) 0.4123(5) 0.2902(13)
C27B C 0.5877(5) 0.1241(9) 0.2098(13)
C27H C 0.5364(8) 0.1241(9) 0.2902(13)
C27F C 0.5877(5) 0.4636(8) 0.2902(13)
C28J C 0.0992(8) 0.2341(6) -0.3334(12)
C28B C -0.2341(6) -0.0992(8) -0.1666(12)
C28F C -0.2341(6) -0.1349(6) -0.3334(12)
C28D C 0.0992(8) -0.1349(6) -0.1666(12)
C28H C 0.1349(6) -0.0992(8) -0.3334(12)
H15J H 0.1201 0.2360 -0.3500
H15B H -0.2360 -0.1201 -0.1500
H15F H -0.2360 -0.1159 -0.3500
H15D H 0.1201 -0.1159 -0.1500
H15H H 0.1159 -0.1201 -0.3500
N2B N -0.1902(5) -0.0951(11) -0.2500
N2D N 0.0951(11) -0.0951(10) -0.2500
C29B C -0.0798(5) -0.0399(10) -0.2500
C29D C 0.0399(10) -0.0399(9) -0.2500
C30B C -0.0397(5) -0.0198(11) -0.2500
C30D C 0.0198(11) -0.0199(10) -0.2500
C31B C -0.0192(4) -0.0384(6) -0.2500
C31D C 0.0384(6) 0.0192(4) -0.2500
H16D H 0.0632 0.0316 -0.2500
H16B H -0.0316 -0.0632 -0.2500
C32B C -0.0962(5) -0.0631(8) -0.3062(12)
C32F C -0.0962(5) -0.0331(6) -0.1938(12)
C32D C 0.0631(8) -0.0331(6) -0.3062(12)
C32H C 0.0331(6) -0.0631(8) -0.1938(12)
C32J C 0.0631(8) 0.0962(5) -0.1938(12)
H17F H -0.0830 -0.0165 -0.1616
H17B H -0.0830 -0.0665 -0.3384
H17H H 0.0165 -0.0665 -0.1616
H17D H 0.0665 -0.0165 -0.3384
H17J H 0.0665 0.0830 -0.1616
C33B C -0.1350(6) -0.0806(10) -0.3077(15)
C33F C -0.1350(6) -0.0544(8) -0.1923(15)
C33D C 0.0806(10) -0.0544(8) -0.3077(15)
C33H C 0.0544(8) -0.0806(10) -0.1923(15)
C33J C 0.0806(10) 0.1350(6) -0.1923(15)
H18F H -0.1486 -0.0547 -0.1571
H18B H -0.1486 -0.0939 -0.3429
H18H H 0.0547 -0.0939 -0.1571
H18D H 0.0939 -0.0547 -0.3429
H18J H 0.0939 0.1486 -0.1571
C34B C -0.1500(5) -0.0750(11) -0.2500
C34D C 0.0750(11) -0.0750(10) -0.2500
loop_
_geom_bond_atom_site_label_1
_geom_bond_atom_site_label_2
_geom_bond_site_symmetry_1
_geom_bond_site_symmetry_2
Cu1 O1 1_555 1_555
C1 C2 1_555 1_555
C2 H1 1_555 1_555
C3 C2 1_555 1_555
C4 C3 1_555 1_555
C5 C4 1_555 1_555
H2 C5 1_555 1_555
C6 C1 1_555 1_555
H3 C6 1_555 1_555
C7 C3 1_555 1_555
H4 C7 1_555 1_555
C8 C7 1_555 1_555
H5 C8 1_555 1_555
C9 C10 1_555 1_555
C10 H6 1_555 1_555
C11 C10 1_555 1_555
H7 C11 1_555 1_555
C12 C11 1_555 1_555
C13 C12 1_555 1_555
C14 C13 1_555 1_555
H8 C14 1_555 1_555
C15 C20 1_555 1_555
C16 H9 1_555 1_555
C17 C25 1_555 1_555
C18 C16 1_555 1_555
C19 C18 1_555 1_555
H10 C19 1_555 1_555
C20 C19 1_555 1_555
C21 C20 1_555 1_555
H11 C21 1_555 1_555
C22 C21 1_555 1_555
H12 C22 1_555 1_555
C23 C18 1_555 1_555
C24 C1 1_555 1_555
N1 C9 1_555 1_555
O1 C15 1_555 1_555
O2 C15 1_555 1_555
O3 Cu1 1_555 1_555
O4 Cu1 1_555 1_555
O5 C24 1_555 1_555
C25 C16 1_555 1_555
H13 C25 1_555 1_555
C26 C4 1_555 1_555
H14 C26 1_555 1_555
C27 C8 1_555 1_555
C28 C17 1_555 1_555
H15 C28 1_555 1_555
N2 C17 1_555 1_555
C29 C30 1_555 1_555
C30 C31 1_555 1_555
C31 H16 1_555 1_555
C32 C29 1_555 1_555
H17 C32 1_555 1_555
C33 C32 1_555 1_555
H18 C33 1_555 1_555
C34 N2 1_555 1_555
Cu1J O1J 1_555 1_555
Cu1B O1B 1_555 1_555
Cu1F O1F 1_555 1_555
Cu1D O1D 1_555 1_555
Cu1H O1H 1_555 1_555
Cu1I O2 1_555 1_555
Cu1D_2 O4D 1_555 1_555
Cu1G O5D 1_555 1_555
Cu1J_2 O4J 1_555 1_555
Cu1A O5J 1_555 1_555
Cu1B_2 O4B 1_555 1_555
Cu1K O5B 1_555 1_555
Cu1H_2 O4H 1_555 1_555
Cu1E O5H 1_555 1_555
Cu1F_2 O4F 1_555 1_555
Cu1C O5F 1_555 1_555
Cu1A_2 O2J 1_555 1_555
Cu1K_2 O2B 1_555 1_555
Cu1C_2 O2F 1_555 1_555
Cu1G_2 O2D 1_555 1_555
Cu1E_2 O2H 1_555 1_555
C1D C2D 1_555 1_555
C1J C2J 1_555 1_555
C1B C2B 1_555 1_555
C1H C2H 1_555 1_555
C1F C2F 1_555 1_555
C2D H1D 1_555 1_555
C2J H1J 1_555 1_555
C2B H1B 1_555 1_555
C2H H1H 1_555 1_555
C2F H1F 1_555 1_555
C3D C2D 1_555 1_555
C3J C2J 1_555 1_555
C3B C2B 1_555 1_555
C3H C2H 1_555 1_555
C3F C2F 1_555 1_555
C4D C3D 1_555 1_555
C4J C3J 1_555 1_555
C4B C3B 1_555 1_555
C4H C3H 1_555 1_555
C4F C3F 1_555 1_555
C5D C4D 1_555 1_555
C5J C4J 1_555 1_555
C5B C4B 1_555 1_555
C5H C4H 1_555 1_555
C5F C4F 1_555 1_555
H2D C5D 1_555 1_555
H2J C5J 1_555 1_555
H2B C5B 1_555 1_555
H2H C5H 1_555 1_555
H2F C5F 1_555 1_555
C6D C1D 1_555 1_555
C6J C1J 1_555 1_555
C6B C1B 1_555 1_555
C6H C1H 1_555 1_555
C6F C1F 1_555 1_555
H3D C6D 1_555 1_555
H3J C6J 1_555 1_555
H3B C6B 1_555 1_555
H3H C6H 1_555 1_555
H3F C6F 1_555 1_555
C7D C3D 1_555 1_555
C7J C3J 1_555 1_555
C7B C3B 1_555 1_555
C7H C3H 1_555 1_555
C7F C3F 1_555 1_555
H4D C7D 1_555 1_555
H4J C7J 1_555 1_555
H4B C7B 1_555 1_555
H4H C7H 1_555 1_555
H4F C7F 1_555 1_555
C8D C7D 1_555 1_555
C8J C7J 1_555 1_555
C8B C7B 1_555 1_555
C8H C7H 1_555 1_555
C8F C7F 1_555 1_555
H5D C8D 1_555 1_555
H5J C8J 1_555 1_555
H5B C8B 1_555 1_555
H5H C8H 1_555 1_555
H5F C8F 1_555 1_555
C9D C10D 1_555 1_555
C9B C10B 1_555 1_555
C10F C9 1_555 1_555
C10D H6D 1_555 1_555
C10J C9D 1_555 1_555
C10B H6B 1_555 1_555
C10H C9B 1_555 1_555
H6F C10F 1_555 1_555
H6J C10J 1_555 1_555
H6H C10H 1_555 1_555
C11F C12 1_555 1_555
C11D C10D 1_555 1_555
C11J C10J 1_555 1_555
C11B C10B 1_555 1_555
C11H C10H 1_555 1_555
H7F C11F 1_555 1_555
H7J C11J 1_555 1_555
H7D C11D 1_555 1_555
H7H C11H 1_555 1_555
H7B C11B 1_555 1_555
C12D C11D 1_555 1_555
C12B C11B 1_555 1_555
C13D C14 1_555 1_555
C13B C12B 1_555 1_555
C14D C13D 1_555 1_555
C14B C13 1_555 1_555
H8B C14B 1_555 1_555
H8D C14D 1_555 1_555
C15J C20J 1_555 1_555
C15B C20B 1_555 1_555
C15F C20F 1_555 1_555
C15D C20D 1_555 1_555
C15H C20H 1_555 1_555
C16J H9J 1_555 1_555
C16B H9B 1_555 1_555
C16F H9F 1_555 1_555
C16D H9D 1_555 1_555
C16H H9H 1_555 1_555
C17J N2 1_555 1_555
C17B C25B 1_555 1_555
C17F C25F 1_555 1_555
C17D C25D 1_555 1_555
C17H C25H 1_555 1_555
C18J C16J 1_555 1_555
C18B C16B 1_555 1_555
C18F C16F 1_555 1_555
C18D C16D 1_555 1_555
C18H C16H 1_555 1_555
C19J C18J 1_555 1_555
C19B C18B 1_555 1_555
C19F C18F 1_555 1_555
C19D C18D 1_555 1_555
C19H C18H 1_555 1_555
H10J C19J 1_555 1_555
H10B C19B 1_555 1_555
H10F C19F 1_555 1_555
H10D C19D 1_555 1_555
H10H C19H 1_555 1_555
C20J C19J 1_555 1_555
C20B C19B 1_555 1_555
C20F C19F 1_555 1_555
C20D C19D 1_555 1_555
C20H C19H 1_555 1_555
C21J C20J 1_555 1_555
C21B C20B 1_555 1_555
C21F C20F 1_555 1_555
C21D C20D 1_555 1_555
C21H C20H 1_555 1_555
H11J C21J 1_555 1_555
H11B C21B 1_555 1_555
H11F C21F 1_555 1_555
H11D C21D 1_555 1_555
H11H C21H 1_555 1_555
C22J C21J 1_555 1_555
C22B C21B 1_555 1_555
C22F C21F 1_555 1_555
C22D C21D 1_555 1_555
C22H C21H 1_555 1_555
H12J C22J 1_555 1_555
H12B C22B 1_555 1_555
H12F C22F 1_555 1_555
H12D C22D 1_555 1_555
H12H C22H 1_555 1_555
C23J C18J 1_555 1_555
C23B C18B 1_555 1_555
C23F C18F 1_555 1_555
C23D C18D 1_555 1_555
C23H C18H 1_555 1_555
C24D C1D 1_555 1_555
C24J C1J 1_555 1_555
C24B C1B 1_555 1_555
C24H C1H 1_555 1_555
C24F C1F 1_555 1_555
N1D C9D 1_555 1_555
N1B C9B 1_555 1_555
O1J C15J 1_555 1_555
O1B C15B 1_555 1_555
O1F C15F 1_555 1_555
O1D C15D 1_555 1_555
O1H C15H 1_555 1_555
O2J C15J 1_555 1_555
O2B C15B 1_555 1_555
O2F C15F 1_555 1_555
O2D C15D 1_555 1_555
O2H C15H 1_555 1_555
O2I Cu1 1_555 1_555
O2A Cu1J 1_555 1_555
O2K Cu1B 1_555 1_555
O2C Cu1F 1_555 1_555
O2G Cu1D 1_555 1_555
O2E Cu1H 1_555 1_555
O3J Cu1J 1_555 1_555
O3B Cu1B 1_555 1_555
O3F Cu1F 1_555 1_555
O3D Cu1D 1_555 1_555
O3H Cu1H 1_555 1_555
O4D C24D 1_555 1_555
O4J C24J 1_555 1_555
O4B C24B 1_555 1_555
O4H C24H 1_555 1_555
O4F C24F 1_555 1_555
O4J_2 Cu1J 1_555 1_555
O4B_2 Cu1B 1_555 1_555
O4F_2 Cu1F 1_555 1_555
O4D_2 Cu1D 1_555 1_555
O4H_2 Cu1H 1_555 1_555
O5D C24D 1_555 1_555
O5J C24J 1_555 1_555
O5B C24B 1_555 1_555
O5H C24H 1_555 1_555
O5F C24F 1_555 1_555
O5I Cu1 1_555 1_555
O5A Cu1J 1_555 1_555
O5K Cu1B 1_555 1_555
O5C Cu1F 1_555 1_555
O5G Cu1D 1_555 1_555
O5E Cu1H 1_555 1_555
C25J C16J 1_555 1_555
C25B C16B 1_555 1_555
C25F C16F 1_555 1_555
C25D C16D 1_555 1_555
C25H C16H 1_555 1_555
H13J C25J 1_555 1_555
H13B C25B 1_555 1_555
H13F C25F 1_555 1_555
H13D C25D 1_555 1_555
H13H C25H 1_555 1_555
C26D C4D 1_555 1_555
C26J C4J 1_555 1_555
C26B C4B 1_555 1_555
C26H C4H 1_555 1_555
C26F C4F 1_555 1_555
H14D C26D 1_555 1_555
H14J C26J 1_555 1_555
H14B C26B 1_555 1_555
H14H C26H 1_555 1_555
H14F C26F 1_555 1_555
C27D C8D 1_555 1_555
C27J C8J 1_555 1_555
C27B C8B 1_555 1_555
C27H C8H 1_555 1_555
C27F N1 1_555 1_555
C28J C17J 1_555 1_555
C28B C17B 1_555 1_555
C28F C17F 1_555 1_555
C28D C17D 1_555 1_555
C28H C17H 1_555 1_555
H15J C28J 1_555 1_555
H15B C28B 1_555 1_555
H15F C28F 1_555 1_555
H15D C28D 1_555 1_555
H15H C28H 1_555 1_555
N2B C17B 1_555 1_555
N2D C17D 1_555 1_555
C29B C30B 1_555 1_555
C29D C30D 1_555 1_555
C30B C31 1_555 1_555
C30D C31B 1_555 1_555
C31B C30B 1_555 1_555
C31D C30 1_555 1_555
H16D C31D 1_555 1_555
H16B C31B 1_555 1_555
C32B C29B 1_555 1_555
C32F C29B 1_555 1_555
C32D C29D 1_555 1_555
C32H C29D 1_555 1_555
C32J C29 1_555 1_555
H17F C32F 1_555 1_555
H17B C32B 1_555 1_555
H17H C32H 1_555 1_555
H17D C32D 1_555 1_555
H17J C32J 1_555 1_555
C33B C32B 1_555 1_555
C33F C32F 1_555 1_555
C33D C32D 1_555 1_555
C33H C32H 1_555 1_555
C33J C34 1_555 1_555
H18F C33F 1_555 1_555
H18B C33B 1_555 1_555
H18H C33H 1_555 1_555
H18D C33D 1_555 1_555
H18J C33J 1_555 1_555
C34B N2B 1_555 1_555
C34D N2D 1_555 1_555
C5 C6 1_555 1_555
C22 C23 1_555 1_555
C23 C28 1_555 1_555
C24 O4 1_555 1_555
N1 C27 1_555 1_555
O5 Cu1I 1_555 1_555
C26 C27 1_555 1_555
C33 C34 1_555 1_555
C5D C6D 1_555 1_555
C5J C6J 1_555 1_555
C5B C6B 1_555 1_555
C5H C6H 1_555 1_555
C5F C6F 1_555 1_555
C8F C27F 1_555 1_555
C10F C11F 1_555 1_555
C11J C12D 1_555 1_555
C11H C12B 1_555 1_555
C12D C13D 1_555 1_555
C13B C14D 1_555 1_555
C13B C14B 1_555 1_555
C17J C25J 1_555 1_555
C17F N2B 1_555 1_555
C17H N2D 1_555 1_555
C22J C23J 1_555 1_555
C22B C23B 1_555 1_555
C22F C23F 1_555 1_555
C22D C23D 1_555 1_555
C22H C23H 1_555 1_555
C23J C28J 1_555 1_555
C23B C28B 1_555 1_555
C23F C28F 1_555 1_555
C23D C28D 1_555 1_555
C23H C28H 1_555 1_555
N1D C27D 1_555 1_555
N1D C27J 1_555 1_555
N1B C27B 1_555 1_555
N1B C27H 1_555 1_555
C26D C27D 1_555 1_555
C26J C27J 1_555 1_555
C26B C27B 1_555 1_555
C26H C27H 1_555 1_555
C26F C27F 1_555 1_555
C30D C31D 1_555 1_555
C32J C33J 1_555 1_555
C33B C34B 1_555 1_555
C33F C34B 1_555 1_555
C33D C34D 1_555 1_555
C33H C34D 1_555 1_555

#END
