
#######################################################################
#
#                 Cambridge Crystallographic Data Centre
#                                CCDC 
#
#######################################################################
#
# If this CIF has been generated from an entry in the Cambridge 
# Structural Database, then it will include bibliographic, chemical, 
# crystal, experimental, refinement or atomic coordinate data resulting 
# from the CCDC's data processing and validation procedures.
#
#######################################################################

data_RUGZAW
_chemical_formula_moiety         
'(C76 H52 N16 O13 Zn4)n,4n(C3 H7 N1 O1),5n(C2 H6 O1),8n(H2 O1)'
_chemical_name_systematic        
"catena-(tris(\m~3~-4,4'-(4,4'-Bipyridine-2,6-diyl)dibenzoato)-bis(\m~3~-3,5-diamino-1,2,4-triazolato)-aqua-tetra-zinc dimethylformamide ethanol solvate octahydrate)"
_symmetry_cell_setting           triclinic
_symmetry_space_group_name_H-M   'P -1'
_symmetry_Int_Tables_number      2
_space_group_name_Hall           '-P 1'
loop_
_symmetry_equiv_pos_site_id
_symmetry_equiv_pos_as_xyz
1 x,y,z
2 -x,-y,-z
_cell_length_a                   14.7979(4)
_cell_length_b                   18.6413(5)
_cell_length_c                   22.2879(5)
_cell_angle_alpha                86.672(2)
_cell_angle_beta                 79.485(2)
_cell_angle_gamma                75.825(3)
_cell_volume                     5860.29
_exptl_crystal_colour            yellow
_exptl_crystal_description       block
_cell_formula_units_Z            2
loop_
_atom_site_label
_atom_site_type_symbol
_atom_site_fract_x
_atom_site_fract_y
_atom_site_fract_z
Zn1 Zn 0.40363(3) 0.80348(2) 0.872094(18)
Zn2 Zn 0.36145(3) 1.06322(2) 0.695656(18)
Zn3 Zn 0.31222(3) 0.70247(2) 0.133193(18)
Zn4 Zn 0.27045(5) 0.95898(3) -0.04439(2)
O1 O 0.14149(18) 0.79778(14) 0.19063(11)
O2 O 1.1294(2) 0.03402(14) 0.06348(13)
O3 O 0.53778(18) 0.73632(14) 0.76636(12)
O4 O 0.44089(18) 0.64721(13) 0.13907(12)
O5 O 1.18534(19) 0.15774(13) 0.74954(13)
N1 N 0.3610(2) 1.00201(15) 0.77339(13)
N2 N 0.2774(2) 1.02136(15) 0.65273(13)
N3 N 0.3970(3) 0.67450(16) -0.01525(15)
H1 H 0.3518 0.6558 -0.0217
H2 H 0.4378 0.6726 -0.0486
O6 O 1.32493(18) 0.17115(13) 0.70336(13)
N4 N 0.3195(2) 0.76660(15) 0.05856(13)
O7 O 0.53972(17) 0.75867(13) 0.86261(12)
C1 C 0.3623(2) 0.74654(18) 0.00089(17)
C2 C -0.4656(2) 0.9920(2) 0.62738(16)
N5 N 0.3790(2) 0.90307(15) 0.83542(13)
C3 C 0.3908(2) 0.92753(18) 0.77820(16)
O8 O 0.28150(17) 0.74301(14) 0.21496(11)
N6 N 1.2215(2) 0.63967(15) 0.12296(13)
N7 N 0.3156(2) 0.86634(15) -0.00213(13)
N8 N 1.3254(2) 0.74719(15) 0.83561(14)
N9 N 0.3374(2) 0.96717(15) 0.87122(13)
N10 N 0.3619(2) 0.80223(15) -0.03719(13)
N11 N 0.2489(2) 0.88628(16) 0.10224(15)
H3 H 0.2098 0.9242 0.0902
H4 H 0.2186 0.8620 0.1293
O9 O -0.50488(17) 1.05081(13) 0.65765(12)
O10 O 0.43757(17) 0.56097(13) 0.07512(12)
N12 N 0.4268(2) 0.88164(16) 0.73021(15)
H5 H 0.4140 0.8393 0.7393
H6 H 0.4010 0.9008 0.6995
C4 C -0.3139(2) 0.91551(19) 0.57324(17)
H7 H -0.3485 0.8852 0.5612
O11 O 1.2156(2) 0.05878(15) -0.02461(14)
C5 C 0.7299(3) 0.6512(2) 0.75636(18)
H8 H 0.6944 0.6356 0.7316
O12 O -0.50801(17) 0.94638(14) 0.61586(12)
N13 N -0.0267(2) 0.88941(16) 0.49975(13)
C6 C 0.5796(2) 0.73429(18) 0.80972(18)
N14 N 0.9219(2) 0.41932(15) 0.06577(14)
C7 C 1.2406(3) 0.19645(19) 0.72761(17)
C8 C 0.2047(2) 0.9983(2) 0.68521(17)
H9 H 0.1928 1.0040 0.7273
C9 C 1.1466(2) 0.66948(19) 0.09585(17)
H10 H 1.1350 0.7196 0.0857
N15 N 1.0179(2) 0.54518(15) 0.75757(14)
C10 C 0.0360(2) 0.8591(2) 0.37478(16)
H11 H -0.0266 0.8843 0.3875
N16 N 0.2935(2) 1.09505(16) 0.84910(15)
H12 H 0.2584 1.1182 0.8237
H13 H 0.2599 1.0972 0.8852
C11 C 0.8265(3) 0.62277(19) 0.74802(18)
H14 H 0.8547 0.5869 0.7186
C12 C 0.1613(3) 0.80134(19) 0.29457(16)
C13 C 0.2922(2) 0.84219(18) 0.05338(16)
C14 C 0.0982(2) 0.84333(19) 0.41619(16)
O13 O 0.1580(3) 0.92128(19) -0.06811(15)
H15 H 0.1448 0.8770 -0.0577
H16 H 0.1152 0.9468 -0.0904
C15 C 0.6850(2) 0.70294(19) 0.80137(16)
C16 C 0.1619(2) 0.95713(19) 0.59672(16)
C17 C -0.3597(2) 0.9765(2) 0.60805(16)
C18 C 0.0674(3) 0.8373(2) 0.31433(17)
H17 H 0.0252 0.8470 0.2870
C19 C -0.2164(2) 0.8989(2) 0.55604(17)
H18 H -0.1864 0.8580 0.5318
C20 C 1.1793(2) 0.52369(19) 0.12681(17)
H19 H 1.1927 0.4738 0.1377
C21 C 0.1455(3) 0.9662(2) 0.65926(17)
H20 H 0.0955 0.9509 0.6838
C22 C 1.2933(3) 0.63380(19) 0.81357(17)
H21 H 1.3123 0.5824 0.8124
C23 C 1.0865(3) 0.62979(18) 0.08238(17)
H22 H 1.0358 0.6524 0.0631
C24 C 0.3274(2) 1.02327(18) 0.83301(16)
C25 C 1.0155(2) 0.39255(18) 0.05911(16)
C26 C 1.0510(3) 0.31207(18) 0.04563(16)
C27 C 0.1915(3) 0.8057(2) 0.39622(18)
H23 H 0.2337 0.7949 0.4235
C28 C 1.0770(2) 0.43455(18) 0.06896(16)
H24 H 1.1417 0.4137 0.0646
C29 C 0.8825(2) 0.64652(18) 0.78246(17)
C30 C 1.2361(2) 0.56864(19) 0.13909(17)
H25 H 1.2862 0.5481 0.1594
C31 C 0.9864(2) 0.61607(19) 0.77393(16)
C32 C 1.1031(2) 0.55359(18) 0.09836(16)
C33 C 0.1952(3) 0.77978(19) 0.22886(17)
C34 C 0.0672(2) 0.87385(18) 0.47890(16)
C35 C 0.9437(2) 0.53654(19) 0.09031(17)
H26 H 0.9173 0.5861 0.0996
C36 C 1.1439(2) 0.62830(19) 0.77902(16)
C37 C 0.2944(2) 1.01092(18) 0.59172(16)
H27 H 0.3456 1.0259 0.5684
C38 C 0.7403(3) 0.7256(2) 0.83681(17)
H28 H 0.7116 0.7592 0.8679
C39 C 0.1307(2) 0.89229(19) 0.51007(16)
H29 H 0.1951 0.8804 0.4942
C40 C 0.8364(3) 0.69938(19) 0.82690(16)
H30 H 0.8720 0.7171 0.8503
C41 C -0.2098(2) 1.0032(2) 0.60949(16)
H31 H -0.1752 1.0329 0.6225
C42 C 1.2465(3) 0.78301(19) 0.81537(18)
H32 H 1.2316 0.8345 0.8146
C43 C 0.0980(2) 0.92868(19) 0.56528(16)
C44 C 0.2406(2) 0.97971(19) 0.56272(16)
H33 H 0.2557 0.9733 0.5207
C45 C -0.1632(2) 0.94231(19) 0.57440(15)
C46 C 0.0017(2) 0.94457(19) 0.58709(16)
H34 H -0.0227 0.9685 0.6241
C47 C 1.0405(3) 0.50808(18) 0.08534(16)
C48 C 1.0472(2) 0.65786(19) 0.78504(16)
H35 H 1.0226 0.7068 0.7968
C49 C 1.1752(2) 0.55461(18) 0.76087(17)
H36 H 1.2396 0.5323 0.7549
C50 C 0.7824(2) 0.51685(18) 0.08802(17)
C51 C -0.0584(2) 0.92459(19) 0.55353(16)
C52 C 0.6351(3) 0.5980(2) 0.13302(19)
H37 H 0.6032 0.6366 0.1593
C53 C 0.5847(2) 0.56391(18) 0.10215(16)
C54 C 0.6340(3) 0.50533(19) 0.06373(18)
H38 H 0.6013 0.4823 0.0420
C55 C -0.3064(3) 1.0208(2) 0.62543(16)
H39 H -0.3366 1.0629 0.6482
C56 C 0.8860(3) 0.49048(18) 0.08127(17)
C57 C 1.1866(3) 0.74740(19) 0.79572(18)
H40 H 1.1318 0.7747 0.7829
C58 C 1.2080(3) 0.66994(19) 0.79505(17)
C59 C 1.2062(3) 0.28036(19) 0.73044(17)
C60 C 0.4806(3) 0.59115(19) 0.10616(17)
C61 C 1.1427(2) 0.4336(2) 0.74039(18)
C62 C 1.1124(3) 0.51426(19) 0.75157(17)
C63 C 0.7312(2) 0.48134(18) 0.05775(17)
H41 H 0.7630 0.4410 0.0332
C64 C 1.0263(3) 0.18838(19) 0.06058(18)
H42 H 0.9880 0.1564 0.0762
C65 C 0.9921(3) 0.26492(19) 0.06723(17)
H43 H 0.9300 0.2843 0.0861
C66 C 1.1414(3) 0.2831(2) 0.01522(18)
H44 H 1.1808 0.3144 0.0002
C67 C 1.1177(3) 0.1609(2) 0.03048(18)
C68 C 1.0815(3) 0.3886(2) 0.75691(19)
H45 H 1.0179 0.4096 0.7713
C69 C 1.3490(2) 0.6727(2) 0.83327(17)
H46 H 1.4051 0.6470 0.8455
C70 C 0.2221(3) 0.7843(2) 0.33606(17)
H47 H 0.2843 0.7581 0.3235
C71 C 0.7328(3) 0.5753(2) 0.12517(18)
H48 H 0.7657 0.5999 0.1454
C72 C 1.1739(3) 0.2076(2) 0.00697(18)
H49 H 1.2343 0.1885 -0.0147
C73 C 1.2381(3) 0.4006(2) 0.7163(2)
H50 H 1.2805 0.4301 0.7033
C74 C 1.1125(3) 0.3126(2) 0.75253(19)
H51 H 1.0699 0.2830 0.7645
C75 C 1.2684(3) 0.3246(2) 0.7120(2)
H52 H 1.3315 0.3032 0.6965
C76 C 1.1547(3) 0.0791(2) 0.02410(19)
Zn1_2 Zn 0.40363(3) 0.80348(2) -0.127906(18)
Zn1_3 Zn 1.40363(3) 0.80348(2) 0.872094(18)
Zn2_2 Zn -0.63855(3) 1.06322(2) 0.695656(18)
Zn2_3 Zn 1.36145(3) 0.06322(2) 0.695656(18)
Zn3_2 Zn 1.31222(3) 0.70247(2) 0.133193(18)
Zn4_2 Zn 0.27045(5) 0.95898(3) 0.95561(2)
Zn4_3 Zn 1.27045(5) -0.04102(3) -0.04439(2)
O6_2 O 0.32493(18) 1.17115(13) 0.70336(13)
N6_2 N 0.2215(2) 0.63967(15) 0.12296(13)
N8_2 N 0.3254(2) 0.74719(15) 0.83561(14)
N9_2 N 0.3374(2) 0.96717(15) -0.12878(13)
N10_2 N 0.3619(2) 0.80223(15) 0.96281(13)
O9_2 O 0.49512(17) 1.05081(13) 0.65765(12)
O11_2 O 0.2156(2) 1.05878(15) -0.02461(14)
loop_
_geom_bond_atom_site_label_1
_geom_bond_atom_site_label_2
_geom_bond_site_symmetry_1
_geom_bond_site_symmetry_2
Zn1 O7 1_555 1_555
Zn2 N1 1_555 1_555
Zn3 O4 1_555 1_555
Zn4 N7 1_555 1_555
O1 C33 1_555 1_555
O2 C76 1_555 1_555
O3 C6 1_555 1_555
O4 C60 1_555 1_555
O5 C7 1_555 1_555
N1 C3 1_555 1_555
N2 Zn2 1_555 1_555
N3 H1 1_555 1_555
H2 N3 1_555 1_555
O6 C7 1_555 1_555
N4 Zn3 1_555 1_555
O7 C6 1_555 1_555
C1 N3 1_555 1_555
C2 O9 1_555 1_555
N5 Zn1 1_555 1_555
C3 N5 1_555 1_555
O8 Zn3 1_555 1_555
N6 C9 1_555 1_555
N7 N10 1_555 1_555
N8 C42 1_555 1_555
N9 N5 1_555 1_555
N10 C1 1_555 1_555
N11 H3 1_555 1_555
H4 N11 1_555 1_555
O9 Zn2_2 1_555 1_555
O10 C60 1_555 1_555
N12 C3 1_555 1_555
H5 N12 1_555 1_555
H6 N12 1_555 1_555
C4 H7 1_555 1_555
O11 C76 1_555 1_555
C5 H8 1_555 1_555
O12 C2 1_555 1_555
N13 C34 1_555 1_555
C6 C15 1_555 1_555
N14 C25 1_555 1_555
C7 C59 1_555 1_555
C8 N2 1_555 1_555
H9 C8 1_555 1_555
C9 H10 1_555 1_555
N15 C31 1_555 1_555
C10 H11 1_555 1_555
N16 H12 1_555 1_555
H13 N16 1_555 1_555
C11 C5 1_555 1_555
H14 C11 1_555 1_555
C12 C18 1_555 1_555
C13 N4 1_555 1_555
C14 C10 1_555 1_555
O13 Zn4 1_555 1_555
H15 O13 1_555 1_555
H16 O13 1_555 1_555
C15 C5 1_555 1_555
C16 C21 1_555 1_555
C17 C2 1_555 1_555
C18 C10 1_555 1_555
H17 C18 1_555 1_555
C19 C4 1_555 1_555
H18 C19 1_555 1_555
C20 H19 1_555 1_555
C21 C8 1_555 1_555
H20 C21 1_555 1_555
C22 H21 1_555 1_555
C23 C9 1_555 1_555
H22 C23 1_555 1_555
C24 N1 1_555 1_555
C25 C26 1_555 1_555
C26 C65 1_555 1_555
C27 C14 1_555 1_555
H23 C27 1_555 1_555
C28 C25 1_555 1_555
H24 C28 1_555 1_555
C29 C11 1_555 1_555
C30 N6 1_555 1_555
H25 C30 1_555 1_555
C31 C29 1_555 1_555
C32 C20 1_555 1_555
C33 O8 1_555 1_555
C34 C14 1_555 1_555
C35 H26 1_555 1_555
C36 C48 1_555 1_555
C37 N2 1_555 1_555
H27 C37 1_555 1_555
C38 C15 1_555 1_555
H28 C38 1_555 1_555
C39 C34 1_555 1_555
H29 C39 1_555 1_555
C40 C29 1_555 1_555
H30 C40 1_555 1_555
C41 H31 1_555 1_555
C42 H32 1_555 1_555
C43 C16 1_555 1_555
C44 C16 1_555 1_555
H33 C44 1_555 1_555
C45 C19 1_555 1_555
C46 C43 1_555 1_555
H34 C46 1_555 1_555
C47 C28 1_555 1_555
C48 C31 1_555 1_555
H35 C48 1_555 1_555
C49 C36 1_555 1_555
H36 C49 1_555 1_555
C50 C56 1_555 1_555
C51 N13 1_555 1_555
C52 H37 1_555 1_555
C53 C52 1_555 1_555
C54 C53 1_555 1_555
H38 C54 1_555 1_555
C55 C17 1_555 1_555
H39 C55 1_555 1_555
C56 N14 1_555 1_555
C57 C42 1_555 1_555
H40 C57 1_555 1_555
C58 C22 1_555 1_555
C59 C74 1_555 1_555
C60 C53 1_555 1_555
C61 C62 1_555 1_555
C62 N15 1_555 1_555
C63 C50 1_555 1_555
H41 C63 1_555 1_555
C64 H42 1_555 1_555
C65 C64 1_555 1_555
H43 C65 1_555 1_555
C66 C26 1_555 1_555
H44 C66 1_555 1_555
C67 C64 1_555 1_555
C68 C61 1_555 1_555
H45 C68 1_555 1_555
C69 N8 1_555 1_555
H46 C69 1_555 1_555
C70 C12 1_555 1_555
H47 C70 1_555 1_555
C71 C50 1_555 1_555
H48 C71 1_555 1_555
C72 C66 1_555 1_555
H49 C72 1_555 1_555
C73 C61 1_555 1_555
H50 C73 1_555 1_555
C74 C68 1_555 1_555
H51 C74 1_555 1_555
C75 C59 1_555 1_555
H52 C75 1_555 1_555
C76 C67 1_555 1_555
Zn1_2 N10 1_555 1_555
Zn1_3 N8 1_555 1_555
Zn2_3 O6 1_555 1_555
Zn3_2 N6 1_555 1_555
Zn4_2 N9 1_555 1_555
Zn4_3 O11 1_555 1_555
O6_2 Zn2 1_555 1_555
N6_2 Zn3 1_555 1_555
N8_2 Zn1 1_555 1_555
N9_2 Zn4 1_555 1_555
N10_2 Zn1 1_555 1_555
O9_2 Zn2 1_555 1_555
O11_2 Zn4 1_555 1_555
N4 C1 1_555 1_555
N7 C13 1_555 1_555
N9 C24 1_555 1_555
N11 C13 1_555 1_555
C4 C17 1_555 1_555
N16 C24 1_555 1_555
C12 C33 1_555 1_555
C20 C30 1_555 1_555
C22 C69 1_555 1_555
C23 C32 1_555 1_555
C27 C70 1_555 1_555
C32 C47 1_555 1_555
C35 C47 1_555 1_555
C35 C56 1_555 1_555
C36 C58 1_555 1_555
C37 C44 1_555 1_555
C38 C40 1_555 1_555
C39 C43 1_555 1_555
C41 C45 1_555 1_555
C41 C55 1_555 1_555
C45 C51 1_555 1_555
C46 C51 1_555 1_555
C49 C62 1_555 1_555
C52 C71 1_555 1_555
C54 C63 1_555 1_555
C57 C58 1_555 1_555
C67 C72 1_555 1_555
C73 C75 1_555 1_555

#END
