
#######################################################################
#
#                 Cambridge Crystallographic Data Centre
#                                CCDC 
#
#######################################################################
#
# If this CIF has been generated from an entry in the Cambridge 
# Structural Database, then it will include bibliographic, chemical, 
# crystal, experimental, refinement or atomic coordinate data resulting 
# from the CCDC's data processing and validation procedures.
#
#######################################################################

data_EPOTAF
_chemical_formula_moiety         
'(C33 H28 Cu2 O14)n,7n(C3 H7 N1 O1),3n(C4 H8 O2),n(C1 H4 O1)'
_chemical_name_systematic        
'catena-((\m~8~-4-(3-(4-Carboxyphenoxy)-2,2-bis((4-carboxyphenoxy)methyl)propoxy)benzoato)-diaqua-di-copper(ii) heptakis(N,N-dimethylformamide) tris(1,4-dioxane) methanol clathrate)'
_symmetry_cell_setting           monoclinic
_symmetry_space_group_name_H-M   'C 2/c'
_symmetry_Int_Tables_number      15
_space_group_name_Hall           '-C 2yc'
loop_
_symmetry_equiv_pos_site_id
_symmetry_equiv_pos_as_xyz
1 x,y,z
2 -x,y,1/2-z
3 1/2+x,1/2+y,z
4 1/2-x,1/2+y,1/2-z
5 -x,-y,-z
6 x,-y,1/2+z
7 1/2-x,1/2-y,-z
8 1/2+x,1/2-y,1/2+z
_cell_length_a                   10.7765(9)
_cell_length_b                   28.1439(13)
_cell_length_c                   28.487(2)
_cell_angle_alpha                90
_cell_angle_beta                 98.706(2)
_cell_angle_gamma                90
_cell_volume                     8540.35
_exptl_crystal_colour            'light blue'
_exptl_crystal_description       prism
_cell_formula_units_Z            4
loop_
_atom_site_label
_atom_site_type_symbol
_atom_site_fract_x
_atom_site_fract_y
_atom_site_fract_z
_atom_site_U_iso_or_equiv
_atom_site_thermal_displace_type
C1 C 1.00000 0.7722(2) 0.25000 0.0658 Uani
C2 C 0.6452(6) 0.8898(2) 0.1303(2) 0.0937 Uani
H1 H 0.5584 0.8876 0.1282 0.1120 Uiso
C3 C 0.6937(6) 0.91949(19) 0.1017(2) 0.0811 Uani
C4 C 0.8215(9) 0.9229(2) 0.1062(2) 0.1311 Uani
H2 H 0.8559 0.9444 0.087 0.1570 Uiso
C5 C 0.9098(7) 0.8934(3) 0.1411(3) 0.1437 Uani
H3 H 0.9968 0.8962 0.1448 0.1720 Uiso
C6 C 0.6188(7) 0.95041(19) 0.06561(19) 0.0745 Uani
C7 C 1.0438(5) 0.74110(16) 0.21088(19) 0.0836 Uani
H4 H 1.0641 0.7608 0.1851 0.1000 Uiso
H5 H 1.1175 0.7228 0.2237 0.1000 Uiso
C8 C 1.0648(6) 0.64021(18) 0.1032(2) 0.0888 Uiso
H6 H 1.1318 0.639 0.0861 0.1070 Uiso
O1 O 0.6798(4) 0.97782(12) 0.04246(14) 0.0901 Uani
O2 O 0.5041(4) 0.94600(11) 0.06122(12) 0.0819 Uani
O3 O 0.8966(4) 0.53499(13) 0.05487(13) 0.0894 Uani
O4 O 1.0723(4) 0.56759(12) 0.03640(14) 0.0826 Uani
O5 O 0.7084(4) 0.45045(13) 0.01617(18) 0.1330 Uani
C9 C 0.8854(5) 0.80224(19) 0.22759(19) 0.0863 Uani
H7 H 0.822 0.7822 0.2096 0.1040 Uiso
H8 H 0.8484 0.8187 0.252 0.1040 Uiso
C10 C 0.8476(7) 0.86158(19) 0.1672(2) 0.0848 Uani
C11 C 0.7240(7) 0.86056(19) 0.1649(2) 0.0994 Uani
H9 H 0.6876 0.8411 0.1855 0.1190 Uiso
C12 C 0.9608(7) 0.67775(18) 0.1597(2) 0.0816 Uani
C13 C 0.8636(7) 0.6442(2) 0.1535(2) 0.1103 Uani
H10 H 0.7969 0.6455 0.1707 0.1320 Uiso
C14 C 0.8734(7) 0.6074(2) 0.1187(2) 0.0953 Uani
H11 H 0.8112 0.5842 0.1136 0.1150 Uiso
C15 C 0.9697(6) 0.60567(17) 0.0936(2) 0.0764 Uani
C16 C 1.0638(7) 0.67612(18) 0.1367(2) 0.0918 Uani
H12 H 1.1293 0.6978 0.1432 0.1100 Uiso
C17 C 0.9832(6) 0.56647(19) 0.0595(2) 0.0749 Uani
Cu1 Cu 0.89678(6) 0.481058(17) 0.01088(2) 0.0700 Uani
O6 O 0.9342(4) 0.83557(13) 0.19698(15) 0.1027 Uani
O7 O 0.9408(4) 0.71014(12) 0.19438(13) 0.0906 Uani
C2A C 1.3548(6) 0.8898(2) 0.3697(2) 0.0937 Uani
H1A H 1.4416 0.8876 0.3718 0.1120 Uiso
C3A C 1.3063(6) 0.91949(19) 0.3983(2) 0.0811 Uani
C4A C 1.1785(9) 0.9229(2) 0.3938(2) 0.1311 Uani
H2A H 1.1441 0.9444 0.413 0.1570 Uiso
C5A C 1.0902(7) 0.8934(3) 0.3589(3) 0.1437 Uani
H3A H 1.0032 0.8962 0.3552 0.1720 Uiso
C6A C 1.3812(7) 0.95041(19) 0.43439(19) 0.0745 Uani
C7A C 0.9562(5) 0.74110(16) 0.28912(19) 0.0836 Uani
H4A H 0.9359 0.7608 0.3149 0.1000 Uiso
H5A H 0.8825 0.7228 0.2763 0.1000 Uiso
C8A C 0.9352(6) 0.64021(18) 0.3968(2) 0.0888 Uiso
H6A H 0.8682 0.639 0.4139 0.1070 Uiso
O1A O 1.3202(4) 0.97782(12) 0.45754(14) 0.0901 Uani
O1F O 0.8202(4) 0.52218(12) -0.04246(14) 0.0901 Uani
O1G O 1.1798(4) 0.52218(12) 0.54246(14) 0.0901 Uani
O2A O 1.4959(4) 0.94600(11) 0.43878(12) 0.0819 Uani
O2B O 1.0041(4) 0.44600(11) 0.06122(12) 0.0819 Uani
O2C O 0.9959(4) 0.44600(11) 0.43878(12) 0.0819 Uani
O3A O 1.1034(4) 0.53499(13) 0.44513(13) 0.0894 Uani
O4A O 0.9277(4) 0.56759(12) 0.46360(14) 0.0826 Uani
O4D O 0.9277(4) 0.43241(12) -0.03640(14) 0.0826 Uani
O4E O 1.0723(4) 0.43241(12) 0.53640(14) 0.0826 Uani
O5A O 1.2916(4) 0.45045(13) 0.48383(18) 0.1330 Uani
C9A C 1.1146(5) 0.80224(19) 0.27241(19) 0.0863 Uani
H7A H 1.178 0.7822 0.2904 0.1040 Uiso
H8A H 1.1516 0.8187 0.248 0.1040 Uiso
C10A C 1.1524(7) 0.86158(19) 0.3328(2) 0.0848 Uani
C11A C 1.2760(7) 0.86056(19) 0.3351(2) 0.0994 Uani
H9A H 1.3124 0.8411 0.3145 0.1190 Uiso
C12A C 1.0392(7) 0.67775(18) 0.3403(2) 0.0816 Uani
C13A C 1.1364(7) 0.6442(2) 0.3465(2) 0.1103 Uani
H10A H 1.2031 0.6455 0.3293 0.1320 Uiso
C14A C 1.1266(7) 0.6074(2) 0.3813(2) 0.0953 Uani
H11A H 1.1888 0.5842 0.3864 0.1150 Uiso
C15A C 1.0303(6) 0.60567(17) 0.4064(2) 0.0764 Uani
C16A C 0.9362(7) 0.67612(18) 0.3633(2) 0.0918 Uani
H12A H 0.8707 0.6978 0.3568 0.1100 Uiso
C17A C 1.0168(6) 0.56647(19) 0.4405(2) 0.0749 Uani
Cu1A Cu 1.10322(6) 0.481058(17) 0.48912(2) 0.0700 Uani
Cu1B Cu 0.39678(6) 0.981058(17) 0.01088(2) 0.0700 Uani
Cu1C Cu 1.60322(6) 0.981058(17) 0.48912(2) 0.0700 Uani
Cu1D Cu 1.10322(6) 0.518942(17) -0.01088(2) 0.0700 Uani
Cu1E Cu 0.89678(6) 0.518942(17) 0.51088(2) 0.0700 Uani
Cu1F Cu 0.60322(6) 1.018942(17) -0.01088(2) 0.0700 Uani
Cu1G Cu 1.39678(6) 1.018942(17) 0.51088(2) 0.0700 Uani
O6A O 1.0658(4) 0.83557(13) 0.30302(15) 0.1027 Uani
O7A O 1.0592(4) 0.71014(12) 0.30562(13) 0.0906 Uani
loop_
_atom_site_aniso_label
_atom_site_aniso_U_11
_atom_site_aniso_U_22
_atom_site_aniso_U_33
_atom_site_aniso_U_23
_atom_site_aniso_U_13
_atom_site_aniso_U_12
C1 0.067(5) 0.070(4) 0.058(5) 0 0.002(4) 0
C2 0.084 0.112 0.081 0.02 -0.001 -0.002
C3 0.068 0.086 0.082 0.012 -0.012 -0.009
C4 0.17 0.108 0.104 0.041 -0.016 -0.019
C5 0.095 0.179 0.152 0.063 0.002 -0.021
C6 0.089 0.066 0.061 0.002 -0.013 0.014
C7 0.105(5) 0.062(3) 0.081(4) 0.004(3) 0.005(4) -0.006(3)
O1 0.101 0.079 0.083 0.015 -0.01 0.008
O2 0.082 0.083 0.073 0.0124 -0.013 0.011
O3 0.097(3) 0.080(2) 0.086(3) -0.0088(19) -0.003(2) -0.008(2)
O4 0.095(3) 0.073(2) 0.076(3) -0.0152(19) 0.001(2) -0.007(2)
O5 0.113(4) 0.105(3) 0.189(5) 0.007(3) 0.049(3) -0.011(3)
C9 0.097(5) 0.088(4) 0.067(4) -0.009(3) -0.010(3) -0.004(3)
C10 0.08 0.086 0.083 0.009 -0.005 -0.006
C11 0.111 0.087 0.096 0.023 0.002 -0.006
C12 0.097(5) 0.068(3) 0.075(4) -0.011(3) -0.002(4) -0.008(3)
C13 0.120(6) 0.100(4) 0.112(6) -0.031(4) 0.021(4) -0.015(4)
C14 0.106(6) 0.089(4) 0.090(5) -0.002(3) 0.012(4) -0.021(4)
C15 0.094(5) 0.069(3) 0.063(4) -0.006(3) 0.002(3) -0.012(3)
C16 0.102(5) 0.076(4) 0.097(5) -0.029(3) 0.014(4) -0.015(3)
C17 0.078(5) 0.066(3) 0.074(4) -0.001(3) -0.010(4) 0.006(3)
Cu1 0.0913(6) 0.0517(3) 0.0587(4) 0.0010(3) -0.0156(3) -0.0021(3)
O6 0.108 0.099 0.094 0.028 -0.008 0.003
O7 0.112(3) 0.080(2) 0.077(3) -0.017(2) 0.005(2) -0.010(2)
C2A 0.084 0.112 0.081 -0.02 -0.001 0.002
C3A 0.068 0.086 0.082 -0.012 -0.012 0.009
C4A 0.17 0.108 0.104 -0.041 -0.016 0.019
C5A 0.095 0.179 0.152 -0.063 0.002 0.021
C6A 0.089 0.066 0.061 -0.002 -0.013 -0.014
C7A 0.105 0.062 0.081 -0.004 0.005 0.006
O1A 0.101 0.079 0.083 -0.015 -0.01 -0.008
O1F 0.101 0.079 0.083 0.015 -0.01 0.008
O1G 0.101 0.079 0.083 -0.015 -0.01 -0.008
O2A 0.082 0.083 0.073 -0.0124 -0.013 -0.011
O2B 0.082 0.083 0.073 0.0124 -0.013 0.011
O2C 0.082 0.083 0.073 -0.0124 -0.013 -0.011
O3A 0.097 0.08 0.086 0.0088 -0.003 0.008
O4A 0.095 0.073 0.076 0.0152 0.001 0.007
O4D 0.095 0.073 0.076 -0.0152 0.001 -0.007
O4E 0.095 0.073 0.076 0.0152 0.001 0.007
O5A 0.113 0.105 0.189 -0.007 0.049 0.011
C9A 0.097 0.088 0.067 0.009 -0.01 0.004
C10A 0.08 0.086 0.083 -0.009 -0.005 0.006
C11A 0.111 0.087 0.096 -0.023 0.002 0.006
C12A 0.097 0.068 0.075 0.011 -0.002 0.008
C13A 0.12 0.1 0.112 0.031 0.021 0.015
C14A 0.106 0.089 0.09 0.002 0.012 0.021
C15A 0.094 0.069 0.063 0.006 0.002 0.012
C16A 0.102 0.076 0.097 0.029 0.014 0.015
C17A 0.078 0.066 0.074 0.001 -0.01 -0.006
Cu1A 0.0913 0.0517 0.0587 -0.001 -0.0156 0.0021
Cu1B 0.0913 0.0517 0.0587 0.001 -0.0156 -0.0021
Cu1C 0.0913 0.0517 0.0587 -0.001 -0.0156 0.0021
Cu1D 0.0913 0.0517 0.0587 0.001 -0.0156 -0.0021
Cu1E 0.0913 0.0517 0.0587 -0.001 -0.0156 0.0021
Cu1F 0.0913 0.0517 0.0587 0.001 -0.0156 -0.0021
Cu1G 0.0913 0.0517 0.0587 -0.001 -0.0156 0.0021
O6A 0.108 0.099 0.094 -0.028 -0.008 -0.003
O7A 0.112 0.08 0.077 0.017 0.005 0.01
loop_
_geom_bond_atom_site_label_1
_geom_bond_atom_site_label_2
_geom_bond_site_symmetry_1
_geom_bond_site_symmetry_2
C1 C7 1_555 1_555
C2 H1 1_555 1_555
C3 C2 1_555 1_555
C4 C3 1_555 1_555
H2 C4 1_555 1_555
C5 C4 1_555 1_555
H3 C5 1_555 1_555
C6 C3 1_555 1_555
C7 H4 1_555 1_555
H5 C7 1_555 1_555
C8 H6 1_555 1_555
O1 C6 1_555 1_555
O2 C6 1_555 1_555
O3 C17 1_555 1_555
O4 C17 1_555 1_555
O5 Cu1 1_555 1_555
C9 C1 1_555 1_555
H7 C9 1_555 1_555
H8 C9 1_555 1_555
C10 C5 1_555 1_555
C11 C2 1_555 1_555
H9 C11 1_555 1_555
C12 C13 1_555 1_555
C13 H10 1_555 1_555
C14 C13 1_555 1_555
H11 C14 1_555 1_555
C15 C8 1_555 1_555
C16 C8 1_555 1_555
H12 C16 1_555 1_555
C17 C15 1_555 1_555
Cu1 O3 1_555 1_555
O6 C9 1_555 1_555
O7 C7 1_555 1_555
C2A H1A 1_555 1_555
C3A C2A 1_555 1_555
C4A C3A 1_555 1_555
H2A C4A 1_555 1_555
C5A C4A 1_555 1_555
H3A C5A 1_555 1_555
C6A C3A 1_555 1_555
C7A C1 1_555 1_555
H4A C7A 1_555 1_555
H5A C7A 1_555 1_555
C8A H6A 1_555 1_555
O1A C6A 1_555 1_555
O1F Cu1 1_555 1_555
O1G Cu1A 1_555 1_555
O2A C6A 1_555 1_555
O2B Cu1 1_555 1_555
O2C Cu1A 1_555 1_555
O3A C17A 1_555 1_555
O4A C17A 1_555 1_555
O4D Cu1 1_555 1_555
O4E Cu1A 1_555 1_555
O5A Cu1A 1_555 1_555
C9A C1 1_555 1_555
H7A C9A 1_555 1_555
H8A C9A 1_555 1_555
C10A C5A 1_555 1_555
C11A C2A 1_555 1_555
H9A C11A 1_555 1_555
C12A C13A 1_555 1_555
C13A H10A 1_555 1_555
C14A C13A 1_555 1_555
H11A C14A 1_555 1_555
C15A C8A 1_555 1_555
C16A C8A 1_555 1_555
H12A C16A 1_555 1_555
C17A C15A 1_555 1_555
Cu1A O3A 1_555 1_555
Cu1B O2 1_555 1_555
Cu1C O2A 1_555 1_555
Cu1D O4 1_555 1_555
Cu1E O4A 1_555 1_555
Cu1F O1 1_555 1_555
Cu1G O1A 1_555 1_555
O6A C9A 1_555 1_555
O7A C7A 1_555 1_555
C10 C11 1_555 1_555
C10 O6 1_555 1_555
C12 C16 1_555 1_555
C12 O7 1_555 1_555
C14 C15 1_555 1_555
Cu1 Cu1D 1_555 1_555
C10A C11A 1_555 1_555
C10A O6A 1_555 1_555
C12A C16A 1_555 1_555
C12A O7A 1_555 1_555
C14A C15A 1_555 1_555
Cu1A Cu1E 1_555 1_555
Cu1B Cu1F 1_555 1_555
Cu1C Cu1G 1_555 1_555

#END
