
#######################################################################
#
#                 Cambridge Crystallographic Data Centre
#                                CCDC 
#
#######################################################################
#
# If this CIF has been generated from an entry in the Cambridge 
# Structural Database, then it will include bibliographic, chemical, 
# crystal, experimental, refinement or atomic coordinate data resulting 
# from the CCDC's data processing and validation procedures.
#
#######################################################################

data_ARAFEF
_chemical_formula_moiety         '(C13 H13 Cu1 N7 O1)n,n(H2 O1),0.5n(C1 H4 O1)'
_chemical_name_systematic        
"catena-((\m~4~-5,5'-benzene-1,4-diylbis(1,2,3-triazol-1-yl))-(\m~2~-dimethylformamide)-copper methanol solvate monohydrate)"
_symmetry_cell_setting           orthorhombic
_symmetry_space_group_name_H-M   'I m m a'
_symmetry_Int_Tables_number      74
_space_group_name_Hall           '-I 2b 2'
loop_
_symmetry_equiv_pos_site_id
_symmetry_equiv_pos_as_xyz
1 x,y,z
2 -x,1/2-y,z
3 -x,1/2+y,-z
4 x,-y,-z
5 1/2+x,1/2+y,1/2+z
6 1/2-x,-y,1/2+z
7 1/2-x,y,1/2-z
8 1/2+x,1/2-y,1/2-z
9 -x,-y,-z
10 x,1/2+y,-z
11 x,1/2-y,z
12 -x,y,z
13 1/2-x,1/2-y,1/2-z
14 1/2+x,y,1/2-z
15 1/2+x,-y,1/2+z
16 1/2-x,1/2+y,1/2+z
_cell_length_a                   22.538(10)
_cell_length_b                   7.044(3)
_cell_length_c                   13.772(6)
_cell_angle_alpha                90
_cell_angle_beta                 90
_cell_angle_gamma                90
_cell_volume                     2186.41
_cell_formula_units_Z            4
loop_
_atom_site_label
_atom_site_type_symbol
_atom_site_fract_x
_atom_site_fract_y
_atom_site_fract_z
_atom_site_U_iso_or_equiv
_atom_site_thermal_displace_type
O2 O 0.648(3) 0.386(11) 0.931(5) 0.1700 Uiso
Cu1 Cu 1.0000 0.5000 1.0000 0.0352 Uani
N1 N 0.93758(13) 0.3443(4) 0.9361(2) 0.0350 Uani
C2 C 0.8035(3) 0.2500 0.8038(5) 0.0480 Uani
H1 H 0.8783 0.5331 0.8782 0.0570 Uiso
N2 N 0.88937(17) 0.4046(6) 0.8887(3) 0.0477 Uani
C3 C 0.8593(2) 0.2500 0.8584(5) 0.0443 Uani
C4 C 0.7764(3) 0.4125(8) 0.7773(6) 0.1057 Uani
H2 H 0.7934 0.5304 0.7960 0.1270 Uiso
O3 O 1.0000 0.2500 1.1312(4) 0.0397 Uani
C5 C 1.0378(10) 0.2500 1.199(2) 0.2217 Uani
N3 N 1.1000(12) 0.2500 1.239(4) 0.2590 Uani
C6 C 1.041(4) 0.2500 1.283(10) 0.5000 Uiso
C7 C 1.128(4) 0.2500 1.334(4) 0.4400 Uiso
Cu1A Cu 1.0000 0.0000 1.0000 0.0352 Uani
Cu1E Cu 0.5000 0.5000 0.5000 0.0352 Uani
Cu1D Cu 0.5000 0.0000 0.5000 0.0352 Uani
N1J N 0.93758(13) 0.1557(4) 0.9361(2) 0.0350 Uani
N1F N 0.56242(13) 0.3443(4) 0.5639(2) 0.0350 Uani
N1L N 0.56242(13) 0.1557(4) 0.5639(2) 0.0350 Uani
N1C N 0.93758(13) 0.6557(4) 1.0639(2) 0.0350 Uani
N1H N 1.06242(13) 0.6557(4) 1.0639(2) 0.0350 Uani
N1K N 1.06242(13) 0.3443(4) 0.9361(2) 0.0350 Uani
C2F C 0.6965(3) 0.2500 0.6962(5) 0.0480 Uani
H1J H 0.8783 -0.0331 0.8782 0.0570 Uiso
H1F H 0.6217 0.5331 0.6218 0.0570 Uiso
H1L H 0.6217 -0.0331 0.6218 0.0570 Uiso
N2J N 0.88937(17) 0.0954(6) 0.8887(3) 0.0477 Uani
N2F N 0.61063(17) 0.4046(6) 0.6113(3) 0.0477 Uani
N2L N 0.61063(17) 0.0954(6) 0.6113(3) 0.0477 Uani
C3F C 0.6407(2) 0.2500 0.6416(5) 0.0443 Uani
C4F C 0.7236(3) 0.4125(8) 0.7227(6) 0.1057 Uani
C4L C 0.7236(3) 0.0875(8) 0.7227(6) 0.1057 Uani
C4J C 0.7764(3) 0.0875(8) 0.7773(6) 0.1057 Uani
H2L H 0.7066 -0.0304 0.7040 0.1270 Uiso
H2J H 0.7934 -0.0304 0.7960 0.1270 Uiso
H2F H 0.7066 0.5304 0.7040 0.1270 Uiso
O3B O 1.0000 0.7500 0.8688(4) 0.0397 Uani
C5A C 0.9622(10) 0.2500 1.199(2) 0.2217 Uani
N3A N 0.9000(12) 0.2500 1.239(4) 0.2590 Uani
C6A C 0.959(4) 0.2500 1.283(10) 0.5000 Uiso
C7A C 0.872(4) 0.2500 1.334(4) 0.4400 Uiso
O1 O 1.0000 0.2500 0.62(2) 1.4000 Uiso
C1 C 1.0000 0.2500 0.691(7) 0.2500 Uiso
C8? C 0.88937(17) 0.4046(6) 0.8887(3) 0.0477 Uani
O4? O 0.7105(18) 0.356(5) 1.028(3) 0.4000 Uiso
loop_
_atom_site_aniso_label
_atom_site_aniso_U_11
_atom_site_aniso_U_22
_atom_site_aniso_U_33
_atom_site_aniso_U_23
_atom_site_aniso_U_13
_atom_site_aniso_U_12
Cu1 0.0186(6) 0.0217(6) 0.0653(7) -0.0061(4) 0.000 0.000
N1 0.0218(15) 0.0251(15) 0.058(2) 0.0008(15) -0.0077(14) 0.0019(13)
C2 0.027(3) 0.041(4) 0.076(4) 0.000 -0.019(3) 0.000
N2 0.029(2) 0.037(2) 0.077(3) 0.006(2) -0.0177(17) 0.0068(17)
C3 0.025(3) 0.039(3) 0.069(4) 0.000 -0.009(3) 0.000
C4 0.069(4) 0.031(3) 0.217(8) -0.004(4) -0.087(5) -0.002(3)
O3 0.027 0.028 0.064 0 0 0
C5 0.078 0.077 0.51 0 0.05 0
N3 0.12 0.097 0.56 0 -0.19 0
Cu1A 0.0186 0.0217 0.0653 0.0061 0 0
Cu1E 0.0186 0.0217 0.0653 0.0061 0 0
Cu1D 0.0186 0.0217 0.0653 -0.0061 0 0
N1J 0.0218 0.0251 0.058 -0.0008 -0.0077 -0.0019
N1F 0.0218 0.0251 0.058 -0.0008 -0.0077 -0.0019
N1L 0.0218 0.0251 0.058 0.0008 -0.0077 0.0019
N1C 0.0218 0.0251 0.058 0.0008 0.0077 -0.0019
N1H 0.0218 0.0251 0.058 0.0008 -0.0077 0.0019
N1K 0.0218 0.0251 0.058 0.0008 0.0077 -0.0019
C2F 0.027 0.041 0.076 0 -0.019 0
N2J 0.029 0.037 0.077 -0.006 -0.0177 -0.0068
N2F 0.029 0.037 0.077 -0.006 -0.0177 -0.0068
N2L 0.029 0.037 0.077 0.006 -0.0177 0.0068
C3F 0.025 0.039 0.069 0 -0.009 0
C4F 0.069 0.031 0.217 0.004 -0.087 0.002
C4L 0.069 0.031 0.217 -0.004 -0.087 -0.002
C4J 0.069 0.031 0.217 0.004 -0.087 0.002
O3B 0.027 0.028 0.064 0 0 0
C5A 0.078 0.077 0.51 0 -0.05 0
N3A 0.12 0.097 0.56 0 0.19 0
C8? 0.029(2) 0.037(2) 0.077(3) 0.006(2) -0.0177(17) 0.0068(17)
loop_
_geom_bond_atom_site_label_1
_geom_bond_atom_site_label_2
_geom_bond_site_symmetry_1
_geom_bond_site_symmetry_2
O1 C1 1_555 1_555
Cu1 N1 1_555 1_555
N1 N2 1_555 1_555
C2 C3 1_555 1_555
H1 N2 1_555 1_555
N2 C3 1_555 1_555
C3 N2J 1_555 1_555
C4 C2 1_555 1_555
H2 C4 1_555 1_555
O3 Cu1 1_555 1_555
C5 O3 1_555 1_555
N3 C5 1_555 1_555
C6 C5 1_555 1_555
C7 N3 1_555 1_555
Cu1A O3 1_555 1_555
Cu1E N1F 1_555 1_555
Cu1D N1L 1_555 1_555
N1J N1 1_555 1_555
N1F N1L 1_555 1_555
N1L N2L 1_555 1_555
N1C Cu1 1_555 1_555
N1H Cu1 1_555 1_555
N1K Cu1 1_555 1_555
C2F C3F 1_555 1_555
H1J N2J 1_555 1_555
H1F N2F 1_555 1_555
H1L N2L 1_555 1_555
N2J N1J 1_555 1_555
N2F N1F 1_555 1_555
N2L C3F 1_555 1_555
C3F N2F 1_555 1_555
C4F C4 1_555 1_555
C4L C2F 1_555 1_555
C4J C2 1_555 1_555
H2L C4L 1_555 1_555
H2J C4J 1_555 1_555
H2F C4F 1_555 1_555
O3B Cu1 1_555 1_555
C5A O3 1_555 1_555
N3A C5A 1_555 1_555
C6A C5A 1_555 1_555
C7A N3A 1_555 1_555
C5 C5A 1_555 1_555
N3 C6 1_555 1_555
Cu1A N1J 1_555 1_555
C2F C4F 1_555 1_555
C4L C4J 1_555 1_555
N3A C6A 1_555 1_555

#END
