
#######################################################################
#
#                 Cambridge Crystallographic Data Centre
#                                CCDC 
#
#######################################################################
#
# If this CIF has been generated from an entry in the Cambridge 
# Structural Database, then it will include bibliographic, chemical, 
# crystal, experimental, refinement or atomic coordinate data resulting 
# from the CCDC's data processing and validation procedures.
#
#######################################################################

data_UNEZAP
_chemical_formula_moiety         '(C20 H20 N14 Ni3 O12)n,2.18n(H2 O1)'
_chemical_name_systematic        
"catena-[bis(\m~3~-3,5-Pyrazoledicarboxylato-N,N',O,O,O')-bis(\m~2~-7H-adenine-N^3^,N^9^)-tetra-aqua-tri-nickel(ii) hydrate]"
_symmetry_cell_setting           triclinic
_symmetry_space_group_name_H-M   'P -1'
_symmetry_Int_Tables_number      2
_space_group_name_Hall           '-P 1'
loop_
_symmetry_equiv_pos_site_id
_symmetry_equiv_pos_as_xyz
1 x,y,z
2 -x,-y,-z
_cell_length_a                   7.332(5)
_cell_length_b                   9.916(6)
_cell_length_c                   11.832(7)
_cell_angle_alpha                67.278(8)
_cell_angle_beta                 80.572(9)
_cell_angle_gamma                72.566(8)
_cell_volume                     755.891
_exptl_crystal_colour            blue
_exptl_crystal_description       plate
_chemical_melting_point          '653 K'
_cell_formula_units_Z            1
loop_
_atom_site_label
_atom_site_type_symbol
_atom_site_fract_x
_atom_site_fract_y
_atom_site_fract_z
Ni1 Ni 0.44768(9) 0.50482(7) 0.37973(5)
Ni2 Ni 0.5000 0.5000 0.0000
O1 O 0.6705(4) 0.5388(3) 0.4425(3)
O2 O 0.7275(5) 0.2982(4) 0.0470(3)
H1 H 0.815(5) 0.301(4) 0.086(4)
H2 H 0.694(6) 0.218(3) 0.089(4)
O3 O 0.8872(5) 0.6768(4) 0.3719(3)
O4 O 0.2204(5) 0.4897(4) 0.3175(3)
H3 H 0.225(5) 0.457(6) 0.262(4)
H4 H 0.113(4) 0.555(4) 0.314(4)
O5 O 0.6939(5) 0.6049(4) -0.1302(3)
O6 O 0.9330(4) 0.7119(3) -0.1540(3)
N1 N 0.6119(5) 0.5645(4) 0.2192(3)
N2 N 0.6177(6) 0.5749(4) 0.1024(3)
N3 N 0.3213(6) 0.7354(4) 0.3624(3)
N4 N 0.1793(6) 0.9828(4) 0.2895(3)
H5 H 0.1182 1.0716 0.2396
N5 N 0.1359(6) 1.1867(4) 0.4416(4)
H6 H 0.1279 1.2358 0.4911
H7 H 0.0867 1.2350 0.3692
N6 N 0.2990(6) 0.9642(4) 0.5888(3)
N7 N 0.4070(5) 0.7255(4) 0.5592(3)
C1 C 0.7725(7) 0.6140(5) 0.3571(4)
C2 C 0.7502(7) 0.6217(5) 0.2327(4)
C3 C 0.8499(7) 0.6725(5) 0.1191(4)
H8 H 0.9529 0.7188 0.0997
C4 C 0.7610(7) 0.6384(5) 0.0412(4)
C5 C 0.7996(7) 0.6551(5) -0.0900(4)
C6 C 0.2315(7) 0.8498(5) 0.2695(4)
H9 H 0.2065 0.8401 0.1970
C7 C 0.2404(7) 0.9516(5) 0.4029(4)
C8 C 0.2231(7) 1.0383(5) 0.4766(4)
C9 C 0.3843(7) 0.8164(5) 0.6208(4)
H10 H 0.4362 0.7696 0.6994
C10 C 0.3289(7) 0.7973(5) 0.4474(4)
Ni1A Ni 0.55232(9) 0.49518(7) -0.37973(5)
Ni1A_2 Ni 0.55232(9) 0.49518(7) 0.62027(5)
Ni1_2 Ni 0.44768(9) 0.50482(7) -0.62027(5)
O1A O 0.3295(4) 0.4612(3) -0.4425(3)
O1A_2 O 0.3295(4) 0.4612(3) 0.5575(3)
O1_2 O 0.6705(4) 0.5388(3) -0.5575(3)
O2A O 0.2725(5) 0.7018(4) -0.0470(3)
H1A H 0.185(5) 0.699(4) -0.086(4)
H2A H 0.306(6) 0.782(3) -0.089(4)
O3A O 0.1128(5) 0.3232(4) -0.3719(3)
O4A O 0.7796(5) 0.5103(4) -0.3175(3)
H3A H 0.775(5) 0.543(6) -0.262(4)
H4A H 0.887(4) 0.445(4) -0.314(4)
O5A O 0.3061(5) 0.3951(4) 0.1302(3)
O6A O 0.0670(4) 0.2881(3) 0.1540(3)
N1A N 0.3881(5) 0.4355(4) -0.2192(3)
N2A N 0.3823(6) 0.4251(4) -0.1024(3)
N3A N 0.6787(6) 0.2646(4) 0.6376(3)
N3A_2 N 0.6787(6) 0.2646(4) -0.3624(3)
N4A N 0.8207(6) 0.0172(4) 0.7105(3)
H5A H 0.8818 -0.0716 0.7604
N5A N 0.8641(6) -0.1867(4) 0.5584(4)
H6A H 0.8721 -0.2358 0.5089
H7A H 0.9133 -0.2350 0.6308
N6A N 0.7010(6) 0.0358(4) 0.4112(3)
N7A N 0.5930(5) 0.2745(4) 0.4408(3)
N7_2 N 0.4070(5) 0.7255(4) -0.4408(3)
C1A C 0.2275(7) 0.3860(5) -0.3571(4)
C2A C 0.2498(7) 0.3783(5) -0.2327(4)
C3A C 0.1501(7) 0.3275(5) -0.1191(4)
H8A H 0.0471 0.2812 -0.0997
C4A C 0.2390(7) 0.3616(5) -0.0412(4)
C5A C 0.2004(7) 0.3449(5) 0.0900(4)
C6A C 0.7685(7) 0.1502(5) 0.7305(4)
H9A H 0.7935 0.1599 0.8030
C7A C 0.7596(7) 0.0484(5) 0.5971(4)
C8A C 0.7769(7) -0.0383(5) 0.5234(4)
C9A C 0.6157(7) 0.1836(5) 0.3792(4)
H10A H 0.5638 0.2304 0.3006
C10A C 0.6711(7) 0.2027(5) 0.5526(4)
O7 O 0.3182(8) 0.9884(5) 0.8162(4)
H11 H 0.296(10) 1.007(9) 0.742(3)
H12 H 0.207(6) 1.014(10) 0.848(6)
O8 O 0.5000 1.0000 0.0000
loop_
_geom_bond_atom_site_label_1
_geom_bond_atom_site_label_2
_geom_bond_site_symmetry_1
_geom_bond_site_symmetry_2
Ni1 O1 1_555 1_555
Ni2 O2 1_555 1_555
O1 C1 1_555 1_555
O2 H1 1_555 1_555
H2 O2 1_555 1_555
O3 C1 1_555 1_555
O4 Ni1 1_555 1_555
H3 O4 1_555 1_555
H4 O4 1_555 1_555
O5 Ni2 1_555 1_555
O6 C5 1_555 1_555
N1 Ni1 1_555 1_555
N2 Ni2 1_555 1_555
N3 Ni1 1_555 1_555
N4 H5 1_555 1_555
N5 H6 1_555 1_555
H7 N5 1_555 1_555
N6 C8 1_555 1_555
N7 C9 1_555 1_555
C1 C2 1_555 1_555
C2 N1 1_555 1_555
C3 C2 1_555 1_555
H8 C3 1_555 1_555
C4 N2 1_555 1_555
C5 O5 1_555 1_555
C6 N3 1_555 1_555
H9 C6 1_555 1_555
C7 N4 1_555 1_555
C8 N5 1_555 1_555
C9 N6 1_555 1_555
H10 C9 1_555 1_555
C10 N3 1_555 1_555
O7 H11 1_555 1_555
H12 O7 1_555 1_555
Ni1A O1A 1_555 1_555
Ni1A_2 O1 1_555 1_555
Ni1_2 O1A 1_555 1_555
O1A C1A 1_555 1_555
O1A_2 Ni1 1_555 1_555
O1_2 Ni1A 1_555 1_555
O2A Ni2 1_555 1_555
H1A O2A 1_555 1_555
H2A O2A 1_555 1_555
O3A C1A 1_555 1_555
O4A Ni1A 1_555 1_555
H3A O4A 1_555 1_555
H4A O4A 1_555 1_555
O5A Ni2 1_555 1_555
O6A C5A 1_555 1_555
N1A Ni1A 1_555 1_555
N2A Ni2 1_555 1_555
N3A Ni1A_2 1_555 1_555
N3A_2 Ni1A 1_555 1_555
N4A H5A 1_555 1_555
N5A H6A 1_555 1_555
H7A N5A 1_555 1_555
N6A C8A 1_555 1_555
N7A Ni1 1_555 1_555
N7_2 Ni1A 1_555 1_555
C1A C2A 1_555 1_555
C2A N1A 1_555 1_555
C3A C2A 1_555 1_555
H8A C3A 1_555 1_555
C4A N2A 1_555 1_555
C5A O5A 1_555 1_555
C6A N3A 1_555 1_555
H9A C6A 1_555 1_555
C7A N4A 1_555 1_555
C8A N5A 1_555 1_555
C9A N6A 1_555 1_555
H10A C9A 1_555 1_555
C10A N3A 1_555 1_555
N1 N2 1_555 1_555
N4 C6 1_555 1_555
N7 C10 1_555 1_555
N7 Ni1A_2 1_555 1_555
C3 C4 1_555 1_555
C4 C5 1_555 1_555
C7 C8 1_555 1_555
C7 C10 1_555 1_555
Ni1A_2 O1A_2 1_555 1_555
Ni1_2 O1_2 1_555 1_555
N1A N2A 1_555 1_555
N4A C6A 1_555 1_555
N7A C9A 1_555 1_555
N7A C10A 1_555 1_555
C3A C4A 1_555 1_555
C4A C5A 1_555 1_555
C7A C8A 1_555 1_555
C7A C10A 1_555 1_555

#END
