
#######################################################################
#
#                 Cambridge Crystallographic Data Centre
#                                CCDC 
#
#######################################################################
#
# If this CIF has been generated from an entry in the Cambridge 
# Structural Database, then it will include bibliographic, chemical, 
# crystal, experimental, refinement or atomic coordinate data resulting 
# from the CCDC's data processing and validation procedures.
#
#######################################################################

data_TONKIR
_chemical_formula_moiety         '(C26 H36 Co2 N2 O8)n,3.5n(C3 H7 N1 O1)'
_chemical_name_systematic        
'catena-(bis(\m~4~-Bicyclo(2.2.2)octane-1,4-dicarboxylato)-(\m~2~-1,4-diazabicyclo(2.2.2)octane)-di-cobalt dimethylformamide sovlate)'
_symmetry_cell_setting           tetragonal
_symmetry_space_group_name_H-M   'P 42 21 2'
_symmetry_Int_Tables_number      94
_space_group_name_Hall           'P 4n 2n'
loop_
_symmetry_equiv_pos_site_id
_symmetry_equiv_pos_as_xyz
1 x,y,z
2 1/2-y,1/2+x,1/2+z
3 -x,-y,z
4 1/2+y,1/2-x,1/2+z
5 1/2-x,1/2+y,1/2-z
6 y,x,-z
7 1/2+x,1/2-y,1/2-z
8 -y,-x,-z
_cell_length_a                   15.2597(6)
_cell_length_b                   15.2597(6)
_cell_length_c                   19.0917(14)
_cell_angle_alpha                90
_cell_angle_beta                 90
_cell_angle_gamma                90
_cell_volume                     4445.66
_exptl_crystal_colour            'dark violet'
_exptl_crystal_description       lath
_cell_formula_units_Z            4
loop_
_atom_site_label
_atom_site_type_symbol
_atom_site_fract_x
_atom_site_fract_y
_atom_site_fract_z
O5 O 0.2542(8) 0.1190(9) 0.0006(7)
C17 C 0.3276(9) 0.1505(10) 0.0124(8)
H25 H 0.3451 0.1984 -0.0142
N3 N 0.3829(10) 0.1206(10) 0.0602(10)
C18 C 0.3621(12) 0.0417(10) 0.1004(10)
H26 H 0.4097 0.0284 0.1314
H27 H 0.3531 -0.0065 0.0689
H28 H 0.3098 0.0514 0.1272
C19 C 0.4564(10) 0.1736(12) 0.0840(10)
H29 H 0.4901 0.1411 0.1176
H30 H 0.4347 0.2263 0.1054
H31 H 0.4927 0.1885 0.0448
Co1 Co 0.5000 0.5000 -0.17882(4)
Co2 Co 0.5000 0.5000 -0.32127(4)
N1 N 0.5000 0.5000 -0.0673(2)
N2 N 0.5000 0.5000 -0.4315(3)
O1 O 0.5758(3) 0.6079(3) -0.19243(18)
O2 O 0.5779(3) 0.6064(3) -0.30970(17)
O3 O 0.8914(3) 0.9239(3) -0.30865(17)
O4 O 0.8937(3) 0.9228(3) -0.19289(18)
C1 C 0.6009(3) 0.6360(3) -0.2507(3)
C2 C 0.8637(3) 0.8980(3) -0.2493(3)
C3 C 0.4678(9) 0.4178(6) -0.0384(6)
H1 H 0.5000 0.3695 -0.0590
C4 C 0.4392(8) 0.5709(8) -0.0406(5)
C5 C 0.5851(5) 0.5223(8) -0.0407(5)
C6 C 0.5861(6) 0.4771(9) -0.4589(6)
C7 C 0.4404(9) 0.4281(9) -0.4589(5)
C8 C 0.4669(10) 0.5802(7) -0.4597(7)
C9 C 0.6676(4) 0.7116(4) -0.2488(4)
C10 C 0.6495(5) 0.7804(4) -0.3047(4)
H13 H 0.5911 0.8041 -0.2984
H14 H 0.6524 0.7536 -0.3507
C11 C 0.7581(4) 0.6693(5) -0.2653(4)
H15 H 0.7754 0.6307 -0.2273
H16 H 0.7545 0.6350 -0.3079
C12 C 0.6733(6) 0.7527(5) -0.1769(4)
H17 H 0.6836 0.7079 -0.1418
H18 H 0.6188 0.7824 -0.1658
C13 C 0.7924(6) 0.8298(6) -0.2495(4)
C14 C 0.7182(6) 0.8558(6) -0.2998(5)
H19 H 0.7422 0.8676 -0.3458
H20 H 0.6900 0.9087 -0.2830
C15 C 0.8257(6) 0.7431(6) -0.2740(5)
H21 H 0.8781 0.7282 -0.2478
H22 H 0.8418 0.7475 -0.3230
C16 C 0.7498(6) 0.8189(5) -0.1776(3)
H23 H 0.7283 0.8754 -0.1620
H24 H 0.7940 0.7997 -0.1444
Co1E Co 0.5000 0.5000 0.17882(4)
Co1D Co 1.0000 1.0000 -0.32118(4)
Co1D_2 Co 0.0000 0.0000 -0.32118(4)
Co1D_3 Co 1.0000 0.0000 -0.32118(4)
Co1D_4 Co 0.0000 1.0000 -0.32118(4)
Co2D Co 1.0000 0.0000 -0.17873(4)
Co2D_2 Co 1.0000 1.0000 -0.17873(4)
Co2E Co 0.5000 0.5000 -0.67873(4)
Co2D_3 Co 0.0000 0.0000 -0.17873(4)
Co2D_4 Co 0.0000 1.0000 -0.17873(4)
N1E N 0.5000 0.5000 0.0673(2)
N2E N 0.5000 0.5000 -0.5685(3)
N2D N 1.0000 0.0000 -0.0685(3)
O1B O 0.4242(3) 0.3921(3) -0.19243(18)
O1D O 0.9242(3) 0.1079(3) -0.30757(18)
O1F O 0.0758(3) 0.8921(3) -0.30757(18)
O1E O 0.6079(3) 0.5758(3) 0.19243(18)
O1G O 0.3921(3) 0.4242(3) 0.19243(18)
O2B O 0.4221(3) 0.3936(3) -0.30970(17)
O2D O 0.9221(3) 0.1064(3) -0.19030(17)
O2F O 0.0779(3) 0.8936(3) -0.19030(17)
O2F_2 O 1.0779(3) -0.1064(3) -0.19030(17)
O3B O 0.1086(3) 0.0761(3) -0.30865(17)
O3D O 0.6086(3) 0.4239(3) -0.19135(17)
O3F O 0.3914(3) 0.5761(3) -0.19135(17)
O3C O 0.4239(3) 0.6086(3) 0.19135(17)
O3A O 0.5761(3) 0.3914(3) 0.19135(17)
O4B O 0.1063(3) 0.0772(3) -0.19289(18)
O4D O 0.6063(3) 0.4228(3) -0.30711(18)
O4F O 0.3937(3) 0.5772(3) -0.30711(18)
O4_2 O 0.8937(3) -0.0772(3) -0.19289(18)
O4B_2 O 1.1063(3) 0.0772(3) -0.19289(18)
C1B C 0.3991(3) 0.3640(3) -0.2507(3)
C1D C 0.8991(3) 0.1360(3) -0.2493(3)
C1F C 0.1009(3) 0.8640(3) -0.2493(3)
C2B C 0.1363(3) 0.1020(3) -0.2493(3)
C2D C 0.6363(3) 0.3980(3) -0.2507(3)
C2F C 0.3637(3) 0.6020(3) -0.2507(3)
C3B C 0.5322(9) 0.5822(6) -0.0384(6)
C3E C 0.4178(6) 0.4678(9) 0.0384(6)
C3G C 0.5822(6) 0.5322(9) 0.0384(6)
H1B H 0.5000 0.6305 -0.0590
H1E H 0.3695 0.5000 0.0590
H1G H 0.6305 0.5000 0.0590
C4B C 0.5608(8) 0.4291(8) -0.0406(5)
C4G C 0.4291(8) 0.5608(8) 0.0406(5)
C4E C 0.5709(8) 0.4392(8) 0.0406(5)
C5E C 0.5223(8) 0.5851(5) 0.0407(5)
C5G C 0.4777(8) 0.4149(5) 0.0407(5)
C5B C 0.4149(5) 0.4777(8) -0.0407(5)
C6B C 0.4139(6) 0.5229(9) -0.4589(6)
C6G C 0.5229(9) 0.4139(6) -0.5411(6)
C6E C 0.4771(9) 0.5861(6) -0.5411(6)
C7B C 0.5596(9) 0.5719(9) -0.4589(5)
C7E C 0.4281(9) 0.4404(9) -0.5411(5)
C7G C 0.5719(9) 0.5596(9) -0.5411(5)
C8G C 0.4198(7) 0.5331(10) -0.5403(7)
C8E C 0.5802(7) 0.4669(10) -0.5403(7)
C8B C 0.5331(10) 0.4198(7) -0.4597(7)
C9B C 0.3324(4) 0.2884(4) -0.2488(4)
C9D C 0.8324(4) 0.2116(4) -0.2512(4)
C9F C 0.1676(4) 0.7884(4) -0.2512(4)
C10B C 0.3505(5) 0.2196(4) -0.3047(4)
C10D C 0.8505(5) 0.2804(4) -0.1953(4)
C10F C 0.1495(5) 0.7196(4) -0.1953(4)
H13B H 0.4089 0.1959 -0.2984
H13D H 0.9089 0.3041 -0.2016
H13F H 0.0911 0.6959 -0.2016
H14B H 0.3476 0.2464 -0.3507
H14D H 0.8476 0.2536 -0.1493
H14F H 0.1524 0.7464 -0.1493
C11B C 0.2419(4) 0.3307(5) -0.2653(4)
C11D C 0.7419(4) 0.1693(5) -0.2347(4)
C11F C 0.2581(4) 0.8307(5) -0.2347(4)
H15B H 0.2246 0.3693 -0.2273
H15D H 0.7246 0.1307 -0.2727
H15F H 0.2754 0.8693 -0.2727
H16B H 0.2455 0.3650 -0.3079
H16D H 0.7455 0.1350 -0.1921
H16F H 0.2545 0.8650 -0.1921
C12B C 0.3267(6) 0.2473(5) -0.1769(4)
C12D C 0.8267(6) 0.2527(5) -0.3231(4)
C12F C 0.1733(6) 0.7473(5) -0.3231(4)
H17B H 0.3164 0.2921 -0.1418
H17D H 0.8164 0.2079 -0.3582
H17F H 0.1836 0.7921 -0.3582
H18B H 0.3812 0.2176 -0.1658
H18D H 0.8812 0.2824 -0.3342
H18F H 0.1188 0.7176 -0.3342
C13B C 0.2076(6) 0.1702(6) -0.2495(4)
C13D C 0.7076(6) 0.3298(6) -0.2505(4)
C13F C 0.2924(6) 0.6702(6) -0.2505(4)
C14B C 0.2818(6) 0.1442(6) -0.2998(5)
C14D C 0.7818(6) 0.3558(6) -0.2002(5)
C14F C 0.2182(6) 0.6442(6) -0.2002(5)
H19B H 0.2578 0.1324 -0.3458
H19D H 0.7578 0.3676 -0.1542
H19F H 0.2422 0.6324 -0.1542
H20B H 0.3100 0.0913 -0.2830
H20D H 0.8100 0.4087 -0.2170
H20F H 0.1900 0.5913 -0.2170
C15B C 0.1743(6) 0.2569(6) -0.2740(5)
C15D C 0.6743(6) 0.2431(6) -0.2260(5)
C15F C 0.3257(6) 0.7569(6) -0.2260(5)
H21B H 0.1219 0.2718 -0.2478
H21D H 0.6219 0.2282 -0.2522
H21F H 0.3781 0.7718 -0.2522
H22B H 0.1582 0.2525 -0.3230
H22D H 0.6582 0.2475 -0.1770
H22F H 0.3418 0.7525 -0.1770
C16B C 0.2502(6) 0.1811(5) -0.1776(3)
C16D C 0.7502(6) 0.3189(5) -0.3224(3)
C16F C 0.2498(6) 0.6811(5) -0.3224(3)
H23B H 0.2717 0.1246 -0.1620
H23D H 0.7717 0.3754 -0.3380
H23F H 0.2283 0.6246 -0.3380
H24B H 0.2060 0.2003 -0.1444
H24D H 0.7060 0.2997 -0.3556
H24F H 0.2940 0.7003 -0.3556
H2? H 0.4065 0.4108 -0.0506
H3? H 0.3824 0.5657 -0.0631
H4? H 0.5369 0.3718 -0.0517
H5? H 0.3954 0.4232 -0.0617
H6? H 0.3733 0.5231 -0.0532
H7? H 0.3941 0.5774 -0.4380
H8? H 0.3721 0.4774 -0.4471
H9? H 0.3839 0.4312 -0.4357
H10? H 0.5340 0.6288 -0.4492
H11? H 0.4977 0.6289 -0.4383
H12? H 0.4053 0.5856 -0.4477
O6? O 0.3266(11) 0.2385(8) 0.0068(9)
C20? C 0.3900(9) 0.1970(9) 0.0305(11)
H32? H 0.4452 0.2224 0.0269
N4? N 0.3842(12) 0.1189(10) 0.0608(12)
C21? C 0.3065(12) 0.0649(10) 0.0508(14)
H33? H 0.3128 0.0114 0.0767
H34? H 0.2998 0.0517 0.0019
H35? H 0.2558 0.0960 0.0672
C22? C 0.4473(13) 0.0912(13) 0.1142(11)
H36? H 0.4328 0.0332 0.1300
H37? H 0.4453 0.1310 0.1530
H38? H 0.5052 0.0910 0.0945
O7? O 0.2580(16) 0.7420(16) 0.0000
C23? C 0.2289(16) 0.6702(16) 0.019(2)
H39? H 0.2639 0.6210 0.0122
N5? N 0.1506(17) 0.6588(19) 0.048(2)
C24? C 0.0834(19) 0.726(3) 0.041(3)
H40? H 0.0280 0.7023 0.0563
H41? H 0.0794 0.7438 -0.0066
H42? H 0.0984 0.7751 0.0701
C25? C 0.129(3) 0.577(2) 0.083(3)
H43? H 0.0675 0.5774 0.0956
H44? H 0.1632 0.5715 0.1252
H45? H 0.1404 0.5288 0.0528
O8? O -0.1927(16) 0.3825(10) 0.009(2)
C26? C -0.1810(12) 0.3027(10) 0.009(3)
H46? H -0.1241 0.2824 0.0154
N6? N -0.2436(11) 0.2436(11) 0.0000
C27? C -0.3331(12) 0.2699(18) -0.017(3)
H47? H -0.2211 0.3640 0.0365
H48? H -0.3320 0.3174 -0.0495
H49? H -0.3622 0.2885 0.0255
C28? C -0.2241(19) 0.1502(10) 0.000(3)
H50? H -0.1179 0.2759 0.0118
H51? H -0.2044 0.1330 0.0459
H52? H -0.1789 0.1381 -0.0335
O9? O 0.0000 0.5000 0.2580(8)
C29? C -0.0231(18) 0.4685(16) 0.2019(8)
H53? H -0.0590 0.4193 0.2030
N7? N 0.0000 0.5000 0.1391(8)
C30? C 0.0755(14) 0.5575(17) 0.1329(8)
H54? H -0.1035 0.4520 0.0885
H55? H 0.1162 0.5451 0.1700
H56? H 0.0567 0.6174 0.1361
C31? C -0.0235(16) 0.4478(13) 0.0768(8)
H57? H 0.0051 0.4717 0.0363
H58? H 0.0859 0.5506 0.0701
H59? H -0.0051 0.3882 0.0835
C32? C 0.2915(8) 0.3291(8) 0.2511(8)
C33? C 0.2710(12) 0.3006(13) 0.3258(7)
C34? C 0.3183(13) 0.2456(11) 0.2107(10)
C35? C 0.2080(12) 0.3641(11) 0.2198(10)
C36? C 0.1780(12) 0.2564(13) 0.3230(8)
C37? C 0.1711(14) 0.2547(12) -0.2321(9)
C38? C 0.1497(13) 0.2852(12) 0.1980(9)
C39? C 0.1683(17) 0.2130(16) 0.2515(9)
H60? H 0.2705 0.3508 0.3570
H61? H 0.3146 0.2592 0.3424
H62? H 0.3781 0.2296 0.2222
H63? H 0.3147 0.2559 0.1606
H64? H 0.2212 0.4000 0.1792
H65? H 0.1774 0.4001 0.2538
H66? H 0.1726 0.2130 0.3599
H67? H 0.1326 0.3002 0.3295
H68? H 0.1306 0.2467 -0.1935
H69? H 0.1390 0.2782 -0.2717
H70? H 0.0882 0.3014 0.1990
H71? H 0.1645 0.2657 0.1511
loop_
_geom_bond_atom_site_label_1
_geom_bond_atom_site_label_2
_geom_bond_site_symmetry_1
_geom_bond_site_symmetry_2
Co1 N1 1_555 1_555
Co2 N2 1_555 1_555
N1 C3 1_555 1_555
N2 C6 1_555 1_555
O1 Co1 1_555 1_555
O2 Co2 1_555 1_555
O3 C2 1_555 1_555
O4 C2 1_555 1_555
C1 O1 1_555 1_555
C2 C13 1_555 1_555
C3 H1 1_555 1_555
C4 N1 1_555 1_555
C5 N1 1_555 1_555
C6 C7B 1_555 1_555
C7 N2 1_555 1_555
C8 N2 1_555 1_555
C9 C1 1_555 1_555
C10 C9 1_555 1_555
H13 C10 1_555 1_555
H14 C10 1_555 1_555
C11 C9 1_555 1_555
H15 C11 1_555 1_555
H16 C11 1_555 1_555
C12 C9 1_555 1_555
H17 C12 1_555 1_555
H18 C12 1_555 1_555
C13 C14 1_555 1_555
C14 C10 1_555 1_555
H19 C14 1_555 1_555
H20 C14 1_555 1_555
C15 C11 1_555 1_555
H21 C15 1_555 1_555
H22 C15 1_555 1_555
C16 C12 1_555 1_555
H23 C16 1_555 1_555
H24 C16 1_555 1_555
O5 C17 1_555 1_555
C17 H25 1_555 1_555
N3 C17 1_555 1_555
C18 N3 1_555 1_555
H26 C18 1_555 1_555
H27 C18 1_555 1_555
H28 C18 1_555 1_555
C19 N3 1_555 1_555
H29 C19 1_555 1_555
H30 C19 1_555 1_555
H31 C19 1_555 1_555
Co1E N1E 1_555 1_555
Co1D O3 1_555 1_555
Co1D_2 O3B 1_555 1_555
Co1D_3 O1D 1_555 1_555
Co1D_4 O1F 1_555 1_555
Co2D N2D 1_555 1_555
Co2D_2 O4 1_555 1_555
Co2E N2E 1_555 1_555
Co2D_3 O4B 1_555 1_555
Co2D_4 O2F 1_555 1_555
N1E C3E 1_555 1_555
N2E C6G 1_555 1_555
O1B Co1 1_555 1_555
O1D C1D 1_555 1_555
O1F C1F 1_555 1_555
O1E Co1E 1_555 1_555
O1G Co1E 1_555 1_555
O2B Co2 1_555 1_555
O2D Co2D 1_555 1_555
O2F C1F 1_555 1_555
O2F_2 Co2D 1_555 1_555
O3B C2B 1_555 1_555
O3D Co1 1_555 1_555
O3F Co1 1_555 1_555
O3C Co1E 1_555 1_555
O3A Co1E 1_555 1_555
O4B C2B 1_555 1_555
O4D Co2 1_555 1_555
O4F Co2 1_555 1_555
O4_2 Co2D 1_555 1_555
O4B_2 Co2D 1_555 1_555
C1B O1B 1_555 1_555
C1D O2D 1_555 1_555
C1F C9F 1_555 1_555
C2B C13B 1_555 1_555
C2D O3D 1_555 1_555
C2F O3F 1_555 1_555
C3B N1 1_555 1_555
C3E H1E 1_555 1_555
C3G C5 1_555 1_555
H1B C3B 1_555 1_555
H1G C3G 1_555 1_555
C4B N1 1_555 1_555
C4G C4 1_555 1_555
C4E N1E 1_555 1_555
C5E N1E 1_555 1_555
C5G C3 1_555 1_555
C5B N1 1_555 1_555
C6B N2 1_555 1_555
C6G C7E 1_555 1_555
C6E C8 1_555 1_555
C7B N2 1_555 1_555
C7E C7 1_555 1_555
C7G N2E 1_555 1_555
C8G N2E 1_555 1_555
C8E C6 1_555 1_555
C8B N2 1_555 1_555
C9B C1B 1_555 1_555
C9D C1D 1_555 1_555
C9F C10F 1_555 1_555
C10B C9B 1_555 1_555
C10D C9D 1_555 1_555
C10F H13F 1_555 1_555
H13B C10B 1_555 1_555
H13D C10D 1_555 1_555
H14B C10B 1_555 1_555
H14D C10D 1_555 1_555
H14F C10F 1_555 1_555
C11B C9B 1_555 1_555
C11D C9D 1_555 1_555
C11F C9F 1_555 1_555
H15B C11B 1_555 1_555
H15D C11D 1_555 1_555
H15F C11F 1_555 1_555
H16B C11B 1_555 1_555
H16D C11D 1_555 1_555
H16F C11F 1_555 1_555
C12B C9B 1_555 1_555
C12D C9D 1_555 1_555
C12F C9F 1_555 1_555
H17B C12B 1_555 1_555
H17D C12D 1_555 1_555
H17F C12F 1_555 1_555
H18B C12B 1_555 1_555
H18D C12D 1_555 1_555
H18F C12F 1_555 1_555
C13B C14B 1_555 1_555
C13D C2D 1_555 1_555
C13F C2F 1_555 1_555
C14B C10B 1_555 1_555
C14D C10D 1_555 1_555
C14F C10F 1_555 1_555
H19B C14B 1_555 1_555
H19D C14D 1_555 1_555
H19F C14F 1_555 1_555
H20B C14B 1_555 1_555
H20D C14D 1_555 1_555
H20F C14F 1_555 1_555
C15B C11B 1_555 1_555
C15D C11D 1_555 1_555
C15F C11F 1_555 1_555
H21B C15B 1_555 1_555
H21D C15D 1_555 1_555
H21F C15F 1_555 1_555
H22B C15B 1_555 1_555
H22D C15D 1_555 1_555
H22F C15F 1_555 1_555
C16B C12B 1_555 1_555
C16D C12D 1_555 1_555
C16F C12F 1_555 1_555
H23B C16B 1_555 1_555
H23D C16D 1_555 1_555
H23F C16F 1_555 1_555
H24B C16B 1_555 1_555
H24D C16D 1_555 1_555
H24F C16F 1_555 1_555
O2 C1 1_555 1_555
C3 C4B 1_555 1_555
C3 C5B 1_555 1_555
C4 C3B 1_555 1_555
C4 C5B 1_555 1_555
C5 C3B 1_555 1_555
C5 C4B 1_555 1_555
C6 C8B 1_555 1_555
C7 C6B 1_555 1_555
C7 C8B 1_555 1_555
C8 C6B 1_555 1_555
C8 C7B 1_555 1_555
C13 C15 1_555 1_555
C13 C16 1_555 1_555
N1E C3G 1_555 1_555
N1E C4G 1_555 1_555
N1E C5G 1_555 1_555
N2E C6E 1_555 1_555
N2E C7E 1_555 1_555
N2E C8E 1_555 1_555
O2B C1B 1_555 1_555
O4D C2D 1_555 1_555
O4F C2F 1_555 1_555
C3B C5E 1_555 1_555
C3E C4G 1_555 1_555
C3E C5G 1_555 1_555
C3E C5B 1_555 1_555
C3G C4E 1_555 1_555
C3G C5E 1_555 1_555
C4B C4E 1_555 1_555
C4G C5E 1_555 1_555
C4E C5G 1_555 1_555
C6B C8G 1_555 1_555
C6G C8E 1_555 1_555
C6G C8B 1_555 1_555
C6E C7G 1_555 1_555
C6E C8G 1_555 1_555
C7B C7G 1_555 1_555
C7E C8G 1_555 1_555
C7G C8E 1_555 1_555
C13B C15B 1_555 1_555
C13B C16B 1_555 1_555
C13D C14D 1_555 1_555
C13D C15D 1_555 1_555
C13D C16D 1_555 1_555
C13F C14F 1_555 1_555
C13F C15F 1_555 1_555
C13F C16F 1_555 1_555

#END
