
#######################################################################
#
#                 Cambridge Crystallographic Data Centre
#                                CCDC 
#
#######################################################################
#
# If this CIF has been generated from an entry in the Cambridge 
# Structural Database, then it will include bibliographic, chemical, 
# crystal, experimental, refinement or atomic coordinate data resulting 
# from the CCDC's data processing and validation procedures.
#
#######################################################################

data_BOHJOZ
_chemical_name_common            MOF-801-SC
_chemical_formula_moiety         '(C24 H16 O32 Zr6)n,2.7n(H2 O1)'
_chemical_name_systematic        
'catena-(hexakis(\m~4~-Fumarato)-tetrakis(\m~3~-hydroxo)-tetrakis(\m~3~-oxo)-hexa-zirconium hydrate)'
_symmetry_cell_setting           cubic
_symmetry_space_group_name_H-M   'P n -3'
_symmetry_Int_Tables_number      201
_space_group_name_Hall           '-P 2ab 2bc 3'
loop_
_symmetry_equiv_pos_site_id
_symmetry_equiv_pos_as_xyz
1 x,y,z
2 1/2-x,1/2-y,z
3 1/2-x,y,1/2-z
4 x,1/2-y,1/2-z
5 z,x,y
6 z,1/2-x,1/2-y
7 1/2-z,1/2-x,y
8 1/2-z,x,1/2-y
9 y,z,x
10 1/2-y,z,1/2-x
11 y,1/2-z,1/2-x
12 1/2-y,1/2-z,x
13 -x,-y,-z
14 1/2+x,1/2+y,-z
15 1/2+x,-y,1/2+z
16 -x,1/2+y,1/2+z
17 -z,-x,-y
18 -z,1/2+x,1/2+y
19 1/2+z,1/2+x,-y
20 1/2+z,-x,1/2+y
21 -y,-z,-x
22 1/2+y,-z,1/2+x
23 -y,1/2+z,1/2+x
24 1/2+y,1/2+z,-x
_cell_length_a                   17.9309(4)
_cell_length_b                   17.9309(4)
_cell_length_c                   17.9309(4)
_cell_angle_alpha                90
_cell_angle_beta                 90
_cell_angle_gamma                90
_cell_volume                     5765.09
_exptl_crystal_colour            colorless
_exptl_crystal_description       octahedral
_cell_formula_units_Z            4
loop_
_atom_site_label
_atom_site_type_symbol
_atom_site_fract_x
_atom_site_fract_y
_atom_site_fract_z
Zr1 Zr 0.36231(2) 0.51117(2) 0.01197(3)
O1 O 0.4507(6) 0.5590(6) 0.0687(5)
O2 O 0.3106(3) 0.6235(3) 0.0240(3)
O3 O 0.4211(4) 0.4211(4) 0.0789(4)
O4 O 0.2908(3) 0.4095(3) 0.0086(3)
O5 O 0.4101(3) 0.7082(3) 0.0239(3)
O6 O 0.3756(3) 0.3105(3) -0.0072(3)
C1 C 0.3398(4) 0.6895(4) 0.0241(4)
C2 C 0.2871(4) 0.7550(5) 0.0250(5)
H1 H 0.3067 0.8042 0.0256
C3 C 0.3101(4) 0.3401(4) 0.0004(4)
C4 C 0.2447(5) 0.2872(4) 0.0001(4)
H2 H 0.1953 0.3065 -0.0001
O2A O 0.1894(3) 0.8765(3) 0.0240(3)
O5A O 0.0899(3) 0.7918(3) 0.0239(3)
C1A C 0.1602(4) 0.8105(4) 0.0241(4)
C2A C 0.2129(4) 0.7450(5) 0.0250(5)
H1A H 0.1933 0.6958 0.0256
O4A O 0.2092(3) 0.0905(3) 0.0086(3)
O6A O 0.1244(3) 0.1895(3) -0.0072(3)
C3A C 0.1899(4) 0.1599(4) 0.0004(4)
C4A C 0.2553(5) 0.2128(4) 0.0001(4)
H2A H 0.3047 0.1935 -0.0001
Zr1A Zr 0.13769(2) -0.01117(2) 0.01197(3)
O1A O 0.0493(6) -0.0590(6) 0.0687(5)
O2A_2 O 0.1894(3) -0.1235(3) 0.0240(3)
O3A O 0.0789(4) 0.0789(4) 0.0789(4)
O5A_2 O 0.0899(3) -0.2082(3) 0.0239(3)
C1A_2 C 0.1602(4) -0.1895(4) 0.0241(4)
C2A_2 C 0.2129(4) -0.2550(5) 0.0250(5)
H1A_2 H 0.1933 -0.3042 0.0256
O2_2 O 0.3106(3) -0.3765(3) 0.0240(3)
O5_2 O 0.4101(3) -0.2918(3) 0.0239(3)
C1_2 C 0.3398(4) -0.3105(4) 0.0241(4)
C2_2 C 0.2871(4) -0.2450(5) 0.0250(5)
H1_2 H 0.3067 -0.1958 0.0256
Zr1E Zr 0.01197(3) 0.13769(2) -0.01117(2)
O1E O 0.0687(5) 0.0493(6) -0.0590(6)
O4E O 0.0086(3) 0.2092(3) 0.0905(3)
O6E O -0.0072(3) 0.1244(3) 0.1895(3)
C3E C 0.0004(4) 0.1899(4) 0.1599(4)
C4E C 0.0001(4) 0.2553(5) 0.2128(4)
H2E H -0.0001 0.3047 0.1935
O4D O 0.0086(3) 0.2908(3) 0.4095(3)
O6D O -0.0072(3) 0.3756(3) 0.3105(3)
C3D C 0.0004(4) 0.3101(4) 0.3401(4)
C4D C 0.0001(4) 0.2447(5) 0.2872(4)
H2D H -0.0001 0.1953 0.3065
Zr1G Zr 0.48803(3) 0.36231(2) -0.01117(2)
O1G O 0.4313(5) 0.4507(6) -0.0590(6)
O4G O 0.4914(3) 0.2908(3) 0.0905(3)
O6G O 0.5072(3) 0.3756(3) 0.1895(3)
C3G C 0.4996(4) 0.3101(4) 0.1599(4)
C4G C 0.4999(4) 0.2447(5) 0.2128(4)
H2G H 0.5001 0.1953 0.1935
O4F O 0.4914(3) 0.2092(3) 0.4095(3)
O6F O 0.5072(3) 0.1244(3) 0.3105(3)
C3F C 0.4996(4) 0.1899(4) 0.3401(4)
C4F C 0.4999(4) 0.2553(5) 0.2872(4)
H2F H 0.5001 0.3047 0.3065
Zr1H Zr 0.51117(2) 0.01197(3) 0.36231(2)
O1H O 0.5590(6) 0.0687(5) 0.4507(6)
Zr1I Zr -0.01117(2) 0.01197(3) 0.13769(2)
O1I O -0.0590(6) 0.0687(5) 0.0493(6)
O2V O 0.3765(3) 0.5240(3) -0.1894(3)
O5V O 0.2918(3) 0.5239(3) -0.0899(3)
C1V C 0.3105(4) 0.5241(4) -0.1602(4)
C2V C 0.2450(5) 0.5250(5) -0.2129(4)
H1V H 0.1958 0.5256 -0.1933
O2W O 0.1235(3) 0.5240(3) -0.3106(3)
O5W O 0.2082(3) 0.5239(3) -0.4101(3)
C1W C 0.1895(4) 0.5241(4) -0.3398(4)
C2W C 0.2550(5) 0.5250(5) -0.2871(4)
H1W H 0.3042 0.5256 -0.3067
Zr1_2 Zr 0.36231(2) -0.48883(2) 0.01197(3)
Zr1A_2 Zr 0.13769(2) 0.98883(2) 0.01197(3)
Zr1B Zr 0.13769(2) 0.51117(2) -0.51197(3)
Zr1D Zr 0.01197(3) 0.36231(2) 0.51117(2)
Zr1F Zr 0.48803(3) 0.13769(2) 0.51117(2)
Zr1J Zr 0.51117(2) 0.48803(3) 0.13769(2)
Zr1K Zr -0.01117(2) 0.48803(3) 0.36231(2)
Zr1M Zr -0.13769(2) 0.01117(2) -0.01197(3)
Zr1O Zr 0.63769(2) 0.01117(2) 0.51197(3)
Zr1Q Zr -0.01197(3) -0.13769(2) 0.01117(2)
Zr1Q_2 Zr -0.01197(3) 0.86231(2) 0.01117(2)
Zr1S Zr 0.51197(3) -0.36231(2) 0.01117(2)
Zr1S_2 Zr 0.51197(3) 0.63769(2) 0.01117(2)
Zr1U Zr 0.01117(2) -0.01197(3) -0.13769(2)
Zr1V Zr 0.48883(2) 0.51197(3) -0.13769(2)
Zr1W Zr 0.01117(2) 0.51197(3) -0.36231(2)
O1C O 0.4507(6) -0.0590(6) 0.4313(5)
O1J O 0.5590(6) 0.4313(5) 0.0493(6)
O1L O 0.5493(6) 0.4410(6) -0.0687(5)
O1M O -0.0493(6) 0.0590(6) -0.0687(5)
O1Q O -0.0687(5) -0.0493(6) 0.0590(6)
O1R O 0.5687(5) -0.0493(6) 0.4410(6)
O1U O 0.0590(6) -0.0687(5) -0.0493(6)
O1V O 0.4410(6) 0.5687(5) -0.0493(6)
O2E O 0.0240(3) 0.1894(3) -0.1235(3)
O2G O 0.4760(3) 0.3106(3) -0.1235(3)
O2H O 0.6235(3) 0.0240(3) 0.3106(3)
O2I O -0.1235(3) 0.0240(3) 0.1894(3)
O3C O 0.4211(4) 0.0789(4) 0.4211(4)
O4H O 0.4095(3) 0.0086(3) 0.2908(3)
O4I O 0.0905(3) 0.0086(3) 0.2092(3)
O5L O 0.5899(3) 0.2918(3) -0.0239(3)
O5M O -0.0899(3) 0.2082(3) -0.0239(3)
O5Q O -0.0239(3) -0.0899(3) 0.2082(3)
O5R O 0.5239(3) -0.0899(3) 0.2918(3)
O5U O 0.2082(3) -0.0239(3) -0.0899(3)
O6I O 0.1895(3) -0.0072(3) 0.1244(3)
O6J O 0.3105(3) 0.5072(3) 0.1244(3)
O7 O 0.3315(9) 0.3315(9) 0.1685(9)
O8 O 0.3610(14) 0.6653(14) 0.1943(13)
O9 O 0.1714(15) 0.3286(15) 0.1714(15)
O10? O 0.4350(6) 0.5777(5) 0.0918(5)
O11? O 0.4402(4) 0.4402(4) 0.0598(4)
loop_
_geom_bond_atom_site_label_1
_geom_bond_atom_site_label_2
_geom_bond_site_symmetry_1
_geom_bond_site_symmetry_2
Zr1 O1 1_555 1_555
O1 Zr1J 1_555 1_555
O2 Zr1 1_555 1_555
O3 Zr1 1_555 1_555
O4 Zr1 1_555 1_555
O5 C1 1_555 1_555
O6 C3 1_555 1_555
C1 O2 1_555 1_555
C2 C1 1_555 1_555
H1 C2 1_555 1_555
C3 O4 1_555 1_555
C4 C3 1_555 1_555
H2 C4 1_555 1_555
O2A C1A 1_555 1_555
O5A C1A 1_555 1_555
C1A C2A 1_555 1_555
C2A C2 1_555 1_555
H1A C2A 1_555 1_555
O4A C3A 1_555 1_555
O6A C3A 1_555 1_555
C3A C4A 1_555 1_555
C4A C4 1_555 1_555
H2A C4A 1_555 1_555
Zr1A O4A 1_555 1_555
O1A Zr1A 1_555 1_555
O2A_2 Zr1A 1_555 1_555
O3A Zr1A 1_555 1_555
O5A_2 C1A_2 1_555 1_555
C1A_2 O2A_2 1_555 1_555
C2A_2 C1A_2 1_555 1_555
H1A_2 C2A_2 1_555 1_555
O2_2 C1_2 1_555 1_555
O5_2 C1_2 1_555 1_555
C1_2 C2_2 1_555 1_555
C2_2 C2A_2 1_555 1_555
H1_2 C2_2 1_555 1_555
Zr1E O6A 1_555 1_555
O1E Zr1A 1_555 1_555
O4E Zr1E 1_555 1_555
O6E C3E 1_555 1_555
C3E O4E 1_555 1_555
C4E C3E 1_555 1_555
H2E C4E 1_555 1_555
O4D C3D 1_555 1_555
O6D C3D 1_555 1_555
C3D C4D 1_555 1_555
C4D C4E 1_555 1_555
H2D C4D 1_555 1_555
Zr1G O3 1_555 1_555
O1G Zr1 1_555 1_555
O4G Zr1G 1_555 1_555
O6G C3G 1_555 1_555
C3G O4G 1_555 1_555
C4G C3G 1_555 1_555
H2G C4G 1_555 1_555
O4F C3F 1_555 1_555
O6F C3F 1_555 1_555
C3F C4F 1_555 1_555
C4F C4G 1_555 1_555
H2F C4F 1_555 1_555
Zr1H O6F 1_555 1_555
O1H Zr1H 1_555 1_555
Zr1I O1A 1_555 1_555
O1I Zr1E 1_555 1_555
O2V C1V 1_555 1_555
O5V Zr1 1_555 1_555
C1V O5V 1_555 1_555
C2V C1V 1_555 1_555
H1V C2V 1_555 1_555
O2W C1W 1_555 1_555
O5W C1W 1_555 1_555
C1W C2W 1_555 1_555
C2W C2V 1_555 1_555
H1W C2W 1_555 1_555
Zr1_2 O2_2 1_555 1_555
Zr1A_2 O2A 1_555 1_555
Zr1B O5W 1_555 1_555
Zr1D O4D 1_555 1_555
Zr1F O4F 1_555 1_555
Zr1J O3 1_555 1_555
Zr1K O6D 1_555 1_555
Zr1M O1I 1_555 1_555
Zr1O O1H 1_555 1_555
Zr1Q O1A 1_555 1_555
Zr1Q_2 O5A 1_555 1_555
Zr1S O5_2 1_555 1_555
Zr1S_2 O1 1_555 1_555
Zr1U O1E 1_555 1_555
Zr1V O1G 1_555 1_555
Zr1W O2W 1_555 1_555
O1C Zr1H 1_555 1_555
O1J Zr1G 1_555 1_555
O1L Zr1G 1_555 1_555
O1M Zr1E 1_555 1_555
O1Q Zr1I 1_555 1_555
O1R Zr1H 1_555 1_555
O1U Zr1A 1_555 1_555
O1V Zr1 1_555 1_555
O2E Zr1E 1_555 1_555
O2G Zr1G 1_555 1_555
O2H Zr1H 1_555 1_555
O2I Zr1I 1_555 1_555
O3C Zr1H 1_555 1_555
O4H Zr1H 1_555 1_555
O4I Zr1I 1_555 1_555
O5L Zr1G 1_555 1_555
O5M Zr1E 1_555 1_555
O5Q Zr1I 1_555 1_555
O5R Zr1H 1_555 1_555
O5U Zr1A 1_555 1_555
O6I Zr1A 1_555 1_555
O6J Zr1 1_555 1_555
O5 Zr1S_2 1_555 1_555
O6 Zr1G 1_555 1_555
O3A Zr1E 1_555 1_555
O3A Zr1I 1_555 1_555
O5A_2 Zr1Q 1_555 1_555
Zr1E O1E 1_555 1_555
O6E Zr1I 1_555 1_555
Zr1G O1G 1_555 1_555
O6G Zr1J 1_555 1_555
O1H Zr1F 1_555 1_555
Zr1I O1I 1_555 1_555
O2V Zr1V 1_555 1_555
Zr1F O3C 1_555 1_555
Zr1J O1J 1_555 1_555
Zr1M O1M 1_555 1_555
Zr1M O1Q 1_555 1_555
Zr1O O1R 1_555 1_555
Zr1Q O1Q 1_555 1_555
Zr1Q O1U 1_555 1_555
Zr1S_2 O1V 1_555 1_555
Zr1U O1M 1_555 1_555
Zr1U O1U 1_555 1_555
Zr1V O1L 1_555 1_555
Zr1V O1V 1_555 1_555

#END
