
#######################################################################
#
#                 Cambridge Crystallographic Data Centre
#                                CCDC 
#
#######################################################################
#
# If this CIF has been generated from an entry in the Cambridge 
# Structural Database, then it will include bibliographic, chemical, 
# crystal, experimental, refinement or atomic coordinate data resulting 
# from the CCDC's data processing and validation procedures.
#
#######################################################################

data_BOHKAM
_chemical_name_common            MOF-801
_chemical_formula_moiety         '(C24 H16 O32 Zr6)n'
_chemical_name_systematic        
catena-(hexakis(\m~4~-Fumarato)-tetrakis(\m~3~-hydroxo)-tetrakis(\m~3~-oxo)-hexa-zirconium)
_symmetry_cell_setting           cubic
_symmetry_space_group_name_H-M   'P n -3'
_symmetry_Int_Tables_number      201
_space_group_name_Hall           '-P 2ab 2bc 3'
loop_
_symmetry_equiv_pos_site_id
_symmetry_equiv_pos_as_xyz
1 x,y,z
2 1/2-x,1/2-y,z
3 1/2-x,y,1/2-z
4 x,1/2-y,1/2-z
5 z,x,y
6 z,1/2-x,1/2-y
7 1/2-z,1/2-x,y
8 1/2-z,x,1/2-y
9 y,z,x
10 1/2-y,z,1/2-x
11 y,1/2-z,1/2-x
12 1/2-y,1/2-z,x
13 -x,-y,-z
14 1/2+x,1/2+y,-z
15 1/2+x,-y,1/2+z
16 -x,1/2+y,1/2+z
17 -z,-x,-y
18 -z,1/2+x,1/2+y
19 1/2+z,1/2+x,-y
20 1/2+z,-x,1/2+y
21 -y,-z,-x
22 1/2+y,-z,1/2+x
23 -y,1/2+z,1/2+x
24 1/2+y,1/2+z,-x
_cell_length_a                   17.8348(17)
_cell_length_b                   17.8348(17)
_cell_length_c                   17.8348(17)
_cell_angle_alpha                90
_cell_angle_beta                 90
_cell_angle_gamma                90
_cell_volume                     5672.89
_exptl_crystal_colour            colorless
_exptl_crystal_description       octahedral
_cell_formula_units_Z            4
loop_
_atom_site_label
_atom_site_type_symbol
_atom_site_fract_x
_atom_site_fract_y
_atom_site_fract_z
Zr1 Zr 0.13785(4) 0.51113(4) 0.01188(4)
O1 O 0.2090(4) 0.4085(4) 0.0080(4)
O2 O 0.1904(4) 0.6246(4) 0.0246(5)
O3 O 0.1263(4) 0.3104(4) -0.0073(4)
O4 O 0.0906(4) 0.7088(4) 0.0239(4)
C1 C 0.1604(7) 0.6891(7) 0.0240(7)
C2 C 0.2142(7) 0.7555(9) 0.0243(9)
H1 H 0.1955 0.8042 0.0244
C3 C 0.1906(6) 0.3398(7) 0.0000(7)
C4 C 0.2567(9) 0.2865(6) 0.0001(8)
H2 H 0.3056 0.3046 0.0001
O5 O 0.0765(10) 0.5917(9) -0.0647(10)
O6 O 0.0785(6) 0.4215(6) 0.0785(6)
O1A O 0.2910(4) 0.0915(4) 0.0080(4)
O3A O 0.3737(4) 0.1896(4) -0.0073(4)
C3A C 0.3094(6) 0.1602(7) 0.0000(7)
C4A C 0.2433(9) 0.2135(6) 0.0001(8)
H2A H 0.1944 0.1954 0.0001
O2A O 0.3096(4) 0.8754(4) 0.0246(5)
O4A O 0.4094(4) 0.7912(4) 0.0239(4)
C1A C 0.3396(7) 0.8109(7) 0.0240(7)
C2A C 0.2858(7) 0.7445(9) 0.0243(9)
H1A H 0.3045 0.6958 0.0244
Zr1A Zr 0.36215(4) -0.01113(4) 0.01188(4)
O2A_2 O 0.3096(4) -0.1246(4) 0.0246(5)
O4A_2 O 0.4094(4) -0.2088(4) 0.0239(4)
C1A_2 C 0.3396(7) -0.1891(7) 0.0240(7)
C2A_2 C 0.2858(7) -0.2555(9) 0.0243(9)
H1A_2 H 0.3045 -0.3042 0.0244
O5A O 0.4235(10) -0.0917(9) -0.0647(10)
O6A O 0.4215(6) 0.0785(6) 0.0785(6)
O2_2 O 0.1904(4) -0.3754(4) 0.0246(5)
O4_2 O 0.0906(4) -0.2912(4) 0.0239(4)
C1_2 C 0.1604(7) -0.3109(7) 0.0240(7)
C2_2 C 0.2142(7) -0.2445(9) 0.0243(9)
H1_2 H 0.1955 -0.1958 0.0244
Zr1E Zr 0.01188(4) 0.36215(4) -0.01113(4)
O1E O 0.0080(4) 0.2910(4) 0.0915(4)
O3E O -0.0073(4) 0.3737(4) 0.1896(4)
C3E C 0.0000(7) 0.3094(6) 0.1602(7)
C4E C 0.0001(8) 0.2433(9) 0.2135(6)
H2E H 0.0001 0.1944 0.1954
O5E O -0.0647(10) 0.4235(10) -0.0917(9)
O1D O 0.0080(4) 0.2090(4) 0.4085(4)
O3D O -0.0073(4) 0.1263(4) 0.3104(4)
C3D C 0.0000(7) 0.1906(6) 0.3398(7)
C4D C 0.0001(8) 0.2567(9) 0.2865(6)
H2D H 0.0001 0.3056 0.3046
Zr1G Zr 0.48812(4) 0.13785(4) -0.01113(4)
O1G O 0.4920(4) 0.2090(4) 0.0915(4)
O3G O 0.5073(4) 0.1263(4) 0.1896(4)
C3G C 0.5000(7) 0.1906(6) 0.1602(7)
C4G C 0.4999(8) 0.2567(9) 0.2135(6)
H2G H 0.4999 0.3056 0.1954
O5G O 0.5647(10) 0.0765(10) -0.0917(9)
O1F O 0.4920(4) 0.2910(4) 0.4085(4)
O3F O 0.5073(4) 0.3737(4) 0.3104(4)
C3F C 0.5000(7) 0.3094(6) 0.3398(7)
C4F C 0.4999(8) 0.2433(9) 0.2865(6)
H2F H 0.4999 0.1944 0.3046
Zr1H Zr 0.51113(4) 0.01188(4) 0.13785(4)
O5H O 0.5917(9) -0.0647(10) 0.0765(10)
Zr1I Zr -0.01113(4) 0.01188(4) 0.36215(4)
O5I O -0.0917(9) -0.0647(10) 0.4235(10)
O2W O 0.1246(4) 0.5246(5) -0.1904(4)
O4W O 0.2088(4) 0.5239(4) -0.0906(4)
C1W C 0.1891(7) 0.5240(7) -0.1604(7)
C2W C 0.2555(9) 0.5243(9) -0.2142(7)
H1W H 0.3042 0.5244 -0.1955
O2V O 0.3754(4) 0.5246(5) -0.3096(4)
O4V O 0.2912(4) 0.5239(4) -0.4094(4)
C1V C 0.3109(7) 0.5240(7) -0.3396(7)
C2V C 0.2445(9) 0.5243(9) -0.2858(7)
H1V H 0.1958 0.5244 -0.3045
Zr1_2 Zr 0.13785(4) -0.48887(4) 0.01188(4)
Zr1A_2 Zr 0.36215(4) 0.98887(4) 0.01188(4)
Zr1B Zr 0.36215(4) 0.51113(4) -0.51188(4)
Zr1D Zr 0.01188(4) 0.13785(4) 0.51113(4)
Zr1F Zr 0.48812(4) 0.36215(4) 0.51113(4)
Zr1J Zr 0.51113(4) 0.48812(4) 0.36215(4)
Zr1K Zr -0.01113(4) 0.48812(4) 0.13785(4)
Zr1L Zr -0.13785(4) 0.48887(4) -0.01188(4)
Zr1M Zr 0.63785(4) 0.01113(4) -0.01188(4)
Zr1O Zr -0.13785(4) 0.01113(4) 0.51188(4)
Zr1P Zr -0.01188(4) -0.13785(4) 0.48887(4)
Zr1Q Zr -0.01188(4) -0.36215(4) 0.01113(4)
Zr1Q_2 Zr -0.01188(4) 0.63785(4) 0.01113(4)
Zr1S Zr 0.51188(4) -0.13785(4) 0.01113(4)
Zr1S_2 Zr 0.51188(4) 0.86215(4) 0.01113(4)
Zr1T Zr 0.48887(4) -0.01188(4) -0.13785(4)
Zr1V Zr 0.48887(4) 0.51188(4) -0.36215(4)
Zr1W Zr 0.01113(4) 0.51188(4) -0.13785(4)
O1H O 0.4085(4) 0.0080(4) 0.2090(4)
O1I O 0.0915(4) 0.0080(4) 0.2910(4)
O2E O 0.0246(5) 0.3096(4) -0.1246(4)
O2G O 0.4754(5) 0.1904(4) -0.1246(4)
O2H O 0.6246(4) 0.0246(5) 0.1904(4)
O2I O -0.1246(4) 0.0246(5) 0.3096(4)
O3H O 0.3104(4) -0.0073(4) 0.1263(4)
O3K O 0.1896(4) 0.5073(4) 0.1263(4)
O4L O -0.0906(4) 0.2912(4) -0.0239(4)
O4M O 0.5906(4) 0.2088(4) -0.0239(4)
O4P O -0.0239(4) -0.0906(4) 0.2912(4)
O4S O 0.5239(4) -0.0906(4) 0.2088(4)
O4T O 0.2912(4) -0.0239(4) -0.0906(4)
O5L O -0.0765(10) 0.4083(9) 0.0647(10)
O5M O 0.5765(10) 0.0917(9) 0.0647(10)
O5O O -0.0765(10) 0.0917(9) 0.4353(10)
O5P O 0.0647(10) -0.0765(10) 0.4083(9)
O5Q O 0.0647(10) 0.5765(10) 0.0917(9)
O5S O 0.4353(10) -0.0765(10) 0.0917(9)
O5T O 0.4083(9) 0.0647(10) -0.0765(10)
O5W O 0.0917(9) 0.4353(10) -0.0765(10)
O6C O 0.0785(6) 0.0785(6) 0.4215(6)
O7? O 0.0596(6) 0.4404(6) 0.0596(6)
O8? O 0.0596(10) 0.5686(9) -0.0496(10)
loop_
_geom_bond_atom_site_label_1
_geom_bond_atom_site_label_2
_geom_bond_site_symmetry_1
_geom_bond_site_symmetry_2
Zr1 O1 1_555 1_555
O1 C3 1_555 1_555
O2 Zr1 1_555 1_555
O3 C3 1_555 1_555
O4 C1 1_555 1_555
C1 O2 1_555 1_555
C2 C1 1_555 1_555
H1 C2 1_555 1_555
C3 C4 1_555 1_555
C4 H2 1_555 1_555
O5 Zr1 1_555 1_555
O6 Zr1 1_555 1_555
O1A C3A 1_555 1_555
O3A C3A 1_555 1_555
C3A C4A 1_555 1_555
C4A C4 1_555 1_555
H2A C4A 1_555 1_555
O2A C1A 1_555 1_555
O4A C1A 1_555 1_555
C1A C2A 1_555 1_555
C2A C2 1_555 1_555
H1A C2A 1_555 1_555
Zr1A O1A 1_555 1_555
O2A_2 Zr1A 1_555 1_555
O4A_2 C1A_2 1_555 1_555
C1A_2 O2A_2 1_555 1_555
C2A_2 C1A_2 1_555 1_555
H1A_2 C2A_2 1_555 1_555
O5A Zr1A 1_555 1_555
O6A Zr1A 1_555 1_555
O2_2 C1_2 1_555 1_555
O4_2 C1_2 1_555 1_555
C1_2 C2_2 1_555 1_555
C2_2 C2A_2 1_555 1_555
H1_2 C2_2 1_555 1_555
Zr1E O3 1_555 1_555
O1E Zr1E 1_555 1_555
O3E C3E 1_555 1_555
C3E O1E 1_555 1_555
C4E C3E 1_555 1_555
H2E C4E 1_555 1_555
O5E Zr1E 1_555 1_555
O1D C3D 1_555 1_555
O3D C3D 1_555 1_555
C3D C4D 1_555 1_555
C4D C4E 1_555 1_555
H2D C4D 1_555 1_555
Zr1G O3A 1_555 1_555
O1G Zr1G 1_555 1_555
O3G C3G 1_555 1_555
C3G O1G 1_555 1_555
C4G C3G 1_555 1_555
H2G C4G 1_555 1_555
O5G Zr1G 1_555 1_555
O1F C3F 1_555 1_555
O3F C3F 1_555 1_555
C3F C4F 1_555 1_555
C4F C4G 1_555 1_555
H2F C4F 1_555 1_555
Zr1H O6A 1_555 1_555
O5H Zr1H 1_555 1_555
Zr1I O3D 1_555 1_555
O5I Zr1I 1_555 1_555
O2W C1W 1_555 1_555
O4W Zr1 1_555 1_555
C1W O4W 1_555 1_555
C2W C1W 1_555 1_555
H1W C2W 1_555 1_555
O2V C1V 1_555 1_555
O4V C1V 1_555 1_555
C1V C2V 1_555 1_555
C2V C2W 1_555 1_555
H1V C2V 1_555 1_555
Zr1_2 O2_2 1_555 1_555
Zr1A_2 O2A 1_555 1_555
Zr1B O4V 1_555 1_555
Zr1D O1D 1_555 1_555
Zr1F O1F 1_555 1_555
Zr1J O3F 1_555 1_555
Zr1K O6 1_555 1_555
Zr1L O5E 1_555 1_555
Zr1M O5G 1_555 1_555
Zr1O O5I 1_555 1_555
Zr1P O5I 1_555 1_555
Zr1Q O4_2 1_555 1_555
Zr1Q_2 O4 1_555 1_555
Zr1S O4A_2 1_555 1_555
Zr1S_2 O4A 1_555 1_555
Zr1T O5A 1_555 1_555
Zr1V O2V 1_555 1_555
Zr1W O5 1_555 1_555
O1H Zr1H 1_555 1_555
O1I Zr1I 1_555 1_555
O2E Zr1E 1_555 1_555
O2G Zr1G 1_555 1_555
O2H Zr1H 1_555 1_555
O2I Zr1I 1_555 1_555
O3H Zr1A 1_555 1_555
O3K Zr1 1_555 1_555
O4L Zr1E 1_555 1_555
O4M Zr1G 1_555 1_555
O4P Zr1I 1_555 1_555
O4S Zr1H 1_555 1_555
O4T Zr1A 1_555 1_555
O5L Zr1E 1_555 1_555
O5M Zr1G 1_555 1_555
O5O Zr1I 1_555 1_555
O5P Zr1I 1_555 1_555
O5Q Zr1 1_555 1_555
O5S Zr1A 1_555 1_555
O5T Zr1A 1_555 1_555
O5W Zr1 1_555 1_555
O6C Zr1I 1_555 1_555
O5 Zr1Q_2 1_555 1_555
O6 Zr1E 1_555 1_555
O5A Zr1S 1_555 1_555
O6A Zr1G 1_555 1_555
Zr1E O5W 1_555 1_555
O3E Zr1K 1_555 1_555
O5E Zr1W 1_555 1_555
Zr1G O5T 1_555 1_555
O3G Zr1H 1_555 1_555
O5G Zr1T 1_555 1_555
Zr1H O5M 1_555 1_555
Zr1H O5S 1_555 1_555
O5H Zr1M 1_555 1_555
O5H Zr1S 1_555 1_555
O2W Zr1W 1_555 1_555
Zr1D O5O 1_555 1_555
Zr1D O6C 1_555 1_555
Zr1K O5L 1_555 1_555
Zr1K O5Q 1_555 1_555
Zr1L O5L 1_555 1_555
Zr1M O5M 1_555 1_555
Zr1O O5O 1_555 1_555
Zr1P O5P 1_555 1_555
Zr1Q_2 O5Q 1_555 1_555
Zr1S O5S 1_555 1_555
Zr1T O5T 1_555 1_555
Zr1W O5W 1_555 1_555

#END
