
#######################################################################
#
#                 Cambridge Crystallographic Data Centre
#                                CCDC 
#
#######################################################################
#
# If this CIF has been generated from an entry in the Cambridge 
# Structural Database, then it will include bibliographic, chemical, 
# crystal, experimental, refinement or atomic coordinate data resulting 
# from the CCDC's data processing and validation procedures.
#
#######################################################################

data_BOHWUS
_chemical_name_common            MOF-808
_chemical_formula_moiety         '(C12 H8 O16 Zr3)n,6.18(H2 O1)'
_chemical_name_systematic        
'catena-((\m-benzene-1,3,5-tricarboxylato)-bis(\m-oxo)-bis(\m-hydroxo)-tris(\m-formato)-tri-zirconium hydrate)'
_symmetry_cell_setting           cubic
_symmetry_space_group_name_H-M   'F d -3 m'
_symmetry_Int_Tables_number      227
_space_group_name_Hall           '-F 4vw 2vw 3'
loop_
_symmetry_equiv_pos_site_id
_symmetry_equiv_pos_as_xyz
1 x,y,z
2 3/4-x,1/4-y,1/2+z
3 1/4-x,1/2+y,3/4-z
4 1/2+x,3/4-y,1/4-z
5 z,x,y
6 1/2+z,3/4-x,1/4-y
7 3/4-z,1/4-x,1/2+y
8 1/4-z,1/2+x,3/4-y
9 y,z,x
10 1/4-y,1/2+z,3/4-x
11 1/2+y,3/4-z,1/4-x
12 3/4-y,1/4-z,1/2+x
13 3/4+y,1/4+x,1/2-z
14 -y,-x,-z
15 1/4+y,1/2-x,3/4+z
16 1/2-y,3/4+x,1/4+z
17 3/4+x,1/4+z,1/2-y
18 1/2-x,3/4+z,1/4+y
19 -x,-z,-y
20 1/4+x,1/2-z,3/4+y
21 3/4+z,1/4+y,1/2-x
22 1/4+z,1/2-y,3/4+x
23 1/2-z,3/4+y,1/4+x
24 -z,-y,-x
25 x,1/2+y,1/2+z
26 3/4-x,3/4-y,z
27 1/4-x,y,1/4-z
28 1/2+x,1/4-y,3/4-z
29 z,1/2+x,1/2+y
30 1/2+z,1/4-x,3/4-y
31 3/4-z,3/4-x,y
32 1/4-z,x,1/4-y
33 y,1/2+z,1/2+x
34 1/4-y,z,1/4-x
35 1/2+y,1/4-z,3/4-x
36 3/4-y,3/4-z,x
37 3/4+y,3/4+x,-z
38 -y,1/2-x,1/2-z
39 1/4+y,-x,1/4+z
40 1/2-y,1/4+x,3/4+z
41 3/4+x,3/4+z,-y
42 1/2-x,1/4+z,3/4+y
43 -x,1/2-z,1/2-y
44 1/4+x,-z,1/4+y
45 3/4+z,3/4+y,-x
46 1/4+z,-y,1/4+x
47 1/2-z,1/4+y,3/4+x
48 -z,1/2-y,1/2-x
49 1/2+x,y,1/2+z
50 1/4-x,1/4-y,z
51 3/4-x,1/2+y,1/4-z
52 x,3/4-y,3/4-z
53 1/2+z,x,1/2+y
54 z,3/4-x,3/4-y
55 1/4-z,1/4-x,y
56 3/4-z,1/2+x,1/4-y
57 1/2+y,z,1/2+x
58 3/4-y,1/2+z,1/4-x
59 y,3/4-z,3/4-x
60 1/4-y,1/4-z,x
61 1/4+y,1/4+x,-z
62 1/2-y,-x,1/2-z
63 3/4+y,1/2-x,1/4+z
64 -y,3/4+x,3/4+z
65 1/4+x,1/4+z,-y
66 -x,3/4+z,3/4+y
67 1/2-x,-z,1/2-y
68 3/4+x,1/2-z,1/4+y
69 1/4+z,1/4+y,-x
70 3/4+z,1/2-y,1/4+x
71 -z,3/4+y,3/4+x
72 1/2-z,-y,1/2-x
73 1/2+x,1/2+y,z
74 1/4-x,3/4-y,1/2+z
75 3/4-x,y,3/4-z
76 x,1/4-y,1/4-z
77 1/2+z,1/2+x,y
78 z,1/4-x,1/4-y
79 1/4-z,3/4-x,1/2+y
80 3/4-z,x,3/4-y
81 1/2+y,1/2+z,x
82 3/4-y,z,3/4-x
83 y,1/4-z,1/4-x
84 1/4-y,3/4-z,1/2+x
85 1/4+y,3/4+x,1/2-z
86 1/2-y,1/2-x,-z
87 3/4+y,-x,3/4+z
88 -y,1/4+x,1/4+z
89 1/4+x,3/4+z,1/2-y
90 -x,1/4+z,1/4+y
91 1/2-x,1/2-z,-y
92 3/4+x,-z,3/4+y
93 1/4+z,3/4+y,1/2-x
94 3/4+z,-y,3/4+x
95 -z,1/4+y,1/4+x
96 1/2-z,1/2-y,-x
97 -x,-y,-z
98 1/4+x,3/4+y,1/2-z
99 3/4+x,1/2-y,1/4+z
100 1/2-x,1/4+y,3/4+z
101 -z,-x,-y
102 1/2-z,1/4+x,3/4+y
103 1/4+z,3/4+x,1/2-y
104 3/4+z,1/2-x,1/4+y
105 -y,-z,-x
106 3/4+y,1/2-z,1/4+x
107 1/2-y,1/4+z,3/4+x
108 1/4+y,3/4+z,1/2-x
109 1/4-y,3/4-x,1/2+z
110 y,x,z
111 3/4-y,1/2+x,1/4-z
112 1/2+y,1/4-x,3/4-z
113 1/4-x,3/4-z,1/2+y
114 1/2+x,1/4-z,3/4-y
115 x,z,y
116 3/4-x,1/2+z,1/4-y
117 1/4-z,3/4-y,1/2+x
118 3/4-z,1/2+y,1/4-x
119 1/2+z,1/4-y,3/4-x
120 z,y,x
121 -x,1/2-y,1/2-z
122 1/4+x,1/4+y,-z
123 3/4+x,-y,3/4+z
124 1/2-x,3/4+y,1/4+z
125 -z,1/2-x,1/2-y
126 1/2-z,3/4+x,1/4+y
127 1/4+z,1/4+x,-y
128 3/4+z,-x,3/4+y
129 -y,1/2-z,1/2-x
130 3/4+y,-z,3/4+x
131 1/2-y,3/4+z,1/4+x
132 1/4+y,1/4+z,-x
133 1/4-y,1/4-x,z
134 y,1/2+x,1/2+z
135 3/4-y,x,3/4-z
136 1/2+y,3/4-x,1/4-z
137 1/4-x,1/4-z,y
138 1/2+x,3/4-z,1/4-y
139 x,1/2+z,1/2+y
140 3/4-x,z,3/4-y
141 1/4-z,1/4-y,x
142 3/4-z,y,3/4-x
143 1/2+z,3/4-y,1/4-x
144 z,1/2+y,1/2+x
145 1/2-x,-y,1/2-z
146 3/4+x,3/4+y,-z
147 1/4+x,1/2-y,3/4+z
148 -x,1/4+y,1/4+z
149 1/2-z,-x,1/2-y
150 -z,1/4+x,1/4+y
151 3/4+z,3/4+x,-y
152 1/4+z,1/2-x,3/4+y
153 1/2-y,-z,1/2-x
154 1/4+y,1/2-z,3/4+x
155 -y,1/4+z,1/4+x
156 3/4+y,3/4+z,-x
157 3/4-y,3/4-x,z
158 1/2+y,x,1/2+z
159 1/4-y,1/2+x,3/4-z
160 y,1/4-x,1/4-z
161 3/4-x,3/4-z,y
162 x,1/4-z,1/4-y
163 1/2+x,z,1/2+y
164 1/4-x,1/2+z,3/4-y
165 3/4-z,3/4-y,x
166 1/4-z,1/2+y,3/4-x
167 z,1/4-y,1/4-x
168 1/2+z,y,1/2+x
169 1/2-x,1/2-y,-z
170 3/4+x,1/4+y,1/2-z
171 1/4+x,-y,1/4+z
172 -x,3/4+y,3/4+z
173 1/2-z,1/2-x,-y
174 -z,3/4+x,3/4+y
175 3/4+z,1/4+x,1/2-y
176 1/4+z,-x,1/4+y
177 1/2-y,1/2-z,-x
178 1/4+y,-z,1/4+x
179 -y,3/4+z,3/4+x
180 3/4+y,1/4+z,1/2-x
181 3/4-y,1/4-x,1/2+z
182 1/2+y,1/2+x,z
183 1/4-y,x,1/4-z
184 y,3/4-x,3/4-z
185 3/4-x,1/4-z,1/2+y
186 x,3/4-z,3/4-y
187 1/2+x,1/2+z,y
188 1/4-x,z,1/4-y
189 3/4-z,1/4-y,1/2+x
190 1/4-z,y,1/4-x
191 z,3/4-y,3/4-x
192 1/2+z,1/2+y,x
_cell_length_a                   35.0764(10)
_cell_length_b                   35.0764(10)
_cell_length_c                   35.0764(10)
_cell_angle_alpha                90
_cell_angle_beta                 90
_cell_angle_gamma                90
_cell_volume                     43156.4
_exptl_crystal_colour            colorless
_exptl_crystal_description       octahedral
_cell_formula_units_Z            32
loop_
_atom_site_label
_atom_site_type_symbol
_atom_site_fract_x
_atom_site_fract_y
_atom_site_fract_z
_atom_site_U_iso_or_equiv
_atom_site_thermal_displace_type
Zr1 Zr 0.79704(2) 0.22661(2) 0.45296(2) 0.0197 Uani
O1 O 0.77813(14) 0.27813(14) 0.47187(14) 0.0202 Uani
O2 O 0.79866(4) 0.25340(5) 0.39586(4) 0.0262 Uani
C1 C 0.78129(6) 0.28129(6) 0.38143(9) 0.0237 Uani
C2 C 0.77938(9) 0.32807(6) 0.32807(6) 0.0251 Uani
H1 H 0.7572 0.3391 0.3391 0.0300 Uiso
C3 C 0.79564(6) 0.29564(6) 0.34434(9) 0.0237 Uani
O3 O 0.76548(12) 0.18441(16) 0.48452(12) 0.0225 Uani
O4 O 0.7949(3) 0.1819(2) 0.4090(3) 0.0660 Uani
C4 C 0.7500 0.15939(15) 0.40939(15) 0.0457 Uani
O2DB O 0.75340(5) 0.39586(4) 0.29866(4) 0.0262 Uani
C1DB C 0.78129(6) 0.38143(9) 0.28129(6) 0.0237 Uani
C2DB C 0.82807(6) 0.32807(6) 0.27938(9) 0.0251 Uani
H1DB H 0.8391 0.3391 0.2572 0.0300 Uiso
C3DB C 0.79564(6) 0.34434(9) 0.29564(6) 0.0237 Uani
O2XB O 0.89586(4) 0.29866(4) 0.25340(5) 0.0262 Uani
C1XB C 0.88143(9) 0.28129(6) 0.28129(6) 0.0237 Uani
C2XB C 0.82807(6) 0.27938(9) 0.32807(6) 0.0251 Uani
H1XB H 0.8391 0.2572 0.3391 0.0300 Uiso
C3XB C 0.84434(9) 0.29564(6) 0.29564(6) 0.0237 Uani
O2JD O 0.79866(4) 0.39586(4) 0.25340(5) 0.0262 Uani
O2KF O 0.89586(4) 0.25340(5) 0.29866(4) 0.0262 Uani
O2YF O 0.75340(5) 0.29866(4) 0.39586(4) 0.0262 Uani
O4Q O 0.7051(3) 0.1590(3) 0.4319(2) 0.0660 Uani
Zr1G Zr 0.79704(2) 0.29704(2) 0.52339(2) 0.0197 Uani
O3G O 0.76548(12) 0.26548(12) 0.56559(16) 0.0225 Uani
O4G O 0.8410(3) 0.2949(3) 0.5681(2) 0.0660 Uani
C4G C 0.84061(15) 0.2500 0.59061(15) 0.0457 Uani
O4M O 0.8181(2) 0.2051(3) 0.5910(3) 0.0660 Uani
Zr1J Zr 0.72661(2) 0.29704(2) 0.45296(2) 0.0197 Uani
O3J O 0.68441(16) 0.26548(12) 0.48452(12) 0.0225 Uani
O4J O 0.6819(2) 0.3410(3) 0.4551(3) 0.0660 Uani
C4J C 0.65939(15) 0.34061(15) 0.5000 0.0457 Uani
O4U O 0.6590(3) 0.3181(2) 0.5449(3) 0.0660 Uani
Zr1M Zr 0.77339(2) 0.20296(2) 0.54704(2) 0.0197 Uani
Zr1Q Zr 0.70296(2) 0.20296(2) 0.47661(2) 0.0197 Uani
Zr1U Zr 0.70296(2) 0.27339(2) 0.54704(2) 0.0197 Uani
Zr1BB Zr 0.79704(2) 0.45296(2) 0.22661(2) 0.0197 Uani
Zr1DB Zr 0.72661(2) 0.45296(2) 0.29704(2) 0.0197 Uani
Zr1VB Zr 0.95296(2) 0.22661(2) 0.29704(2) 0.0197 Uani
Zr1XB Zr 0.95296(2) 0.29704(2) 0.22661(2) 0.0197 Uani
O2G O 0.85414(4) 0.29866(4) 0.49660(5) 0.0262 Uani
O2J O 0.75340(5) 0.35414(4) 0.45134(4) 0.0262 Uani
O2CG O 0.79866(4) 0.35414(4) 0.49660(5) 0.0262 Uani
O2GG O 0.85414(4) 0.25340(5) 0.45134(4) 0.0262 Uani
O3M O 0.81559(16) 0.23452(12) 0.51548(12) 0.0225 Uani
O3Q O 0.73452(12) 0.23452(12) 0.43441(16) 0.0225 Uani
O3U O 0.73452(12) 0.31559(16) 0.51548(12) 0.0225 Uani
O4YF O 0.6819(2) 0.2949(3) 0.4090(3) 0.0660 Uani
O4CG O 0.7949(3) 0.3410(3) 0.5681(2) 0.0660 Uani
O4GG O 0.8410(3) 0.1819(2) 0.4551(3) 0.0660 Uani
O5 O 0.7481(9) 0.2032(7) 0.3640(7) 0.0923 Uani
O6 O 0.7810(11) 0.1496(9) 0.3583(9) 0.0923 Uani
O7 O 0.8382(2) 0.3382(2) 0.4118(2) 0.1130 Uiso
O8 O 0.8023(7) 0.1276(11) 0.4477(7) 0.1510 Uiso
O9 O 1.502(3) 1.002(3) -0.252(3) 0.3400 Uiso
O10 O 0.7721(15) 0.184(2) 0.3149(19) 0.1600 Uiso
O11? O 0.7808(2) 0.1791(2) 0.4130(2) 0.0380 Uani
O12? O 0.78930(16) 0.28930(16) 0.46070(16) 0.0202 Uani
O13? O 0.75995(12) 0.19794(16) 0.49005(12) 0.0215 Uani
O14? O 0.7196(7) 0.2196(7) 0.3552(10) 0.0640 Uiso
C5? C 0.7773(6) 0.1794(6) 0.3781(5) 0.0760 Uani
O15? O 0.8750 0.3544(5) 0.3750 0.0610 Uiso
O16? O 0.6805(9) 0.3837(5) 0.3837(5) 0.0630 Uiso
O17? O 0.6274(9) 0.3610(8) 0.4056(8) 0.0720 Uiso
O18? O 0.6496(11) 0.3809(13) 0.3924(12) 0.1100 Uiso
loop_
_atom_site_aniso_label
_atom_site_aniso_U_11
_atom_site_aniso_U_22
_atom_site_aniso_U_33
_atom_site_aniso_U_23
_atom_site_aniso_U_13
_atom_site_aniso_U_12
Zr1 0.01938(13) 0.02026(15) 0.01938(13) 0.00095(6) 0.00245(8) -0.00095(6)
O1 0.0202(14) 0.0202(14) 0.0202(14) 0.0053(16) 0.0053(16) -0.0053(16)
O2 0.0264(7) 0.0263(7) 0.0258(7) 0.0065(6) 0.0053(5) 0.0043(6)
C1 0.0227(8) 0.0227(8) 0.0258(13) 0.0036(7) 0.0036(7) -0.0022(10)
C2 0.0238(13) 0.0258(8) 0.0258(8) 0.0048(11) 0.0039(7) 0.0039(7)
C3 0.0233(8) 0.0233(8) 0.0244(13) 0.0050(7) 0.0050(7) 0.0003(10)
O3 0.0243(17) 0.019(3) 0.0243(17) 0.0027(14) 0.0030(18) -0.0027(14)
O4 0.135(9) 0.027(3) 0.036(3) -0.0002(19) 0.034(5) 0.000(5)
C4 0.049(4) 0.044(3) 0.044(3) -0.021(3) 0.017(3) -0.017(3)
O2DB 0.0263 0.0258 0.0264 0.0053 0.0043 0.0065
C1DB 0.0227 0.0258 0.0227 0.0036 -0.0022 0.0036
C2DB 0.0258 0.0258 0.0238 0.0039 0.0039 0.0048
C3DB 0.0233 0.0244 0.0233 0.005 0.0003 0.005
O2XB 0.0258 0.0264 0.0263 0.0043 0.0065 0.0053
C1XB 0.0258 0.0227 0.0227 -0.0022 0.0036 0.0036
C2XB 0.0258 0.0238 0.0258 0.0039 0.0048 0.0039
C3XB 0.0244 0.0233 0.0233 0.0003 0.005 0.005
O2JD 0.0264 0.0258 0.0263 0.0065 0.0043 0.0053
O2KF 0.0258 0.0263 0.0264 0.0043 0.0053 0.0065
O2YF 0.0263 0.0264 0.0258 0.0053 0.0065 0.0043
O4Q 0.135 0.036 0.027 -0.0002 0 -0.034
Zr1G 0.01938 0.01938 0.02026 0.00095 0.00095 -0.00245
O3G 0.0243 0.0243 0.019 0.0027 0.0027 -0.003
O4G 0.036 0.135 0.027 0 -0.0002 -0.034
C4G 0.044 0.049 0.044 0.017 -0.021 -0.017
O4M 0.027 0.135 0.036 0.034 -0.0002 0
Zr1J 0.02026 0.01938 0.01938 0.00245 0.00095 -0.00095
O3J 0.019 0.0243 0.0243 0.003 0.0027 -0.0027
O4J 0.027 0.036 0.135 0.034 0 0.0002
C4J 0.044 0.044 0.049 0.017 0.017 0.021
O4U 0.036 0.027 0.135 0 0.034 0.0002
Zr1M 0.02026 0.01938 0.01938 0.00245 0.00095 -0.00095
Zr1Q 0.01938 0.01938 0.02026 0.00095 0.00095 -0.00245
Zr1U 0.01938 0.02026 0.01938 0.00095 0.00245 -0.00095
Zr1BB 0.01938 0.01938 0.02026 0.00095 -0.00095 0.00245
Zr1DB 0.02026 0.01938 0.01938 0.00245 -0.00095 0.00095
Zr1VB 0.01938 0.02026 0.01938 -0.00095 0.00245 0.00095
Zr1XB 0.01938 0.01938 0.02026 -0.00095 0.00095 0.00245
O2G 0.0258 0.0264 0.0263 -0.0043 0.0065 -0.0053
O2J 0.0263 0.0258 0.0264 0.0053 -0.0043 -0.0065
O2CG 0.0264 0.0258 0.0263 0.0065 -0.0043 -0.0053
O2GG 0.0258 0.0263 0.0264 -0.0043 0.0053 -0.0065
O3M 0.019 0.0243 0.0243 0.003 0.0027 -0.0027
O3Q 0.0243 0.0243 0.019 0.0027 0.0027 -0.003
O3U 0.0243 0.019 0.0243 0.0027 0.003 -0.0027
O4YF 0.027 0.135 0.036 0.034 -0.0002 0
O4CG 0.135 0.036 0.027 -0.0002 0 -0.034
O4GG 0.036 0.027 0.135 0 0.034 0.0002
O5 0.118(17) 0.084(13) 0.075(12) -0.041(10) -0.014(12) 0.000(12)
O6 0.118(17) 0.084(13) 0.075(12) -0.041(10) -0.014(12) 0.000(12)
O11? 0.054(3) 0.031(2) 0.029(3) -0.0066(19) 0.017(2) -0.012(2)
O12? 0.0202(13) 0.0202(13) 0.0202(13) 0.0001(18) 0.0001(18) -0.0001(18)
O13? 0.0223(16) 0.020(3) 0.0223(16) 0.0023(14) 0.0020(18) -0.0023(14)
C5? 0.102(14) 0.079(12) 0.047(8) -0.025(8) -0.014(8) -0.021(10)
loop_
_geom_bond_atom_site_label_1
_geom_bond_atom_site_label_2
_geom_bond_site_symmetry_1
_geom_bond_site_symmetry_2
Zr1 O1 1_555 1_555
O1 Zr1G 1_555 1_555
O2 Zr1 1_555 1_555
C1 O2 1_555 1_555
C2 H1 1_555 1_555
C3 C1 1_555 1_555
O3 Zr1 1_555 1_555
O4 Zr1 1_555 1_555
C4 O4 1_555 1_555
O2DB C1DB 1_555 1_555
C1DB C3DB 1_555 1_555
C2DB H1DB 1_555 1_555
C3DB C2 1_555 1_555
O2XB C1XB 1_555 1_555
C1XB C3XB 1_555 1_555
C2XB C3 1_555 1_555
H1XB C2XB 1_555 1_555
C3XB C2DB 1_555 1_555
O2JD C1DB 1_555 1_555
O2KF C1XB 1_555 1_555
O2YF C1 1_555 1_555
O4Q C4 1_555 1_555
Zr1G O3G 1_555 1_555
O3G Zr1M 1_555 1_555
O4G Zr1G 1_555 1_555
C4G O4G 1_555 1_555
O4M C4G 1_555 1_555
Zr1J O1 1_555 1_555
O3J Zr1J 1_555 1_555
O4J Zr1J 1_555 1_555
C4J O4J 1_555 1_555
O4U C4J 1_555 1_555
Zr1M O3 1_555 1_555
Zr1Q O3 1_555 1_555
Zr1U O3G 1_555 1_555
Zr1BB O2JD 1_555 1_555
Zr1DB O2DB 1_555 1_555
Zr1VB O2KF 1_555 1_555
Zr1XB O2XB 1_555 1_555
O2G Zr1G 1_555 1_555
O2J Zr1J 1_555 1_555
O2CG Zr1G 1_555 1_555
O2GG Zr1 1_555 1_555
O3M Zr1 1_555 1_555
O3Q Zr1 1_555 1_555
O3U Zr1G 1_555 1_555
O4YF Zr1J 1_555 1_555
O4CG Zr1G 1_555 1_555
O4GG Zr1 1_555 1_555
C2 C3 1_555 1_555
C2DB C3DB 1_555 1_555
C2XB C3XB 1_555 1_555
O2YF Zr1J 1_555 1_555
O4Q Zr1Q 1_555 1_555
Zr1G O3M 1_555 1_555
O4M Zr1M 1_555 1_555
Zr1J O3Q 1_555 1_555
Zr1J O3U 1_555 1_555
O3J Zr1Q 1_555 1_555
O3J Zr1U 1_555 1_555
O4U Zr1U 1_555 1_555
Zr1M O3M 1_555 1_555
Zr1Q O3Q 1_555 1_555
Zr1U O3U 1_555 1_555

#END
