
#######################################################################
#
#                 Cambridge Crystallographic Data Centre
#                                CCDC 
#
#######################################################################
#
# If this CIF has been generated from an entry in the Cambridge 
# Structural Database, then it will include bibliographic, chemical, 
# crystal, experimental, refinement or atomic coordinate data resulting 
# from the CCDC's data processing and validation procedures.
#
#######################################################################

data_BOHWIG
_chemical_name_common            MOF-841
_chemical_formula_moiety         '(C31 H24 O18 Zr3)n'
_chemical_name_systematic        
"catena-[(\m-4,4',4'',4'''-Methanetetrayltetrabenzoato)-bis(\m~3~-hydroxo)-bis(\m~3~-oxo)-diaqua-bis(formato)-tri-zirconium unknown solvate]"
_symmetry_cell_setting           tetragonal
_symmetry_space_group_name_H-M   'I 4/m'
_symmetry_Int_Tables_number      87
_space_group_name_Hall           '-I 4'
loop_
_symmetry_equiv_pos_site_id
_symmetry_equiv_pos_as_xyz
1 x,y,z
2 -x,-y,z
3 -y,x,z
4 y,-x,z
5 1/2+x,1/2+y,1/2+z
6 1/2-x,1/2-y,1/2+z
7 1/2-y,1/2+x,1/2+z
8 1/2+y,1/2-x,1/2+z
9 -x,-y,-z
10 x,y,-z
11 y,-x,-z
12 -y,x,-z
13 1/2-x,1/2-y,1/2-z
14 1/2+x,1/2+y,1/2-z
15 1/2+y,1/2-x,1/2-z
16 1/2-y,1/2+x,1/2-z
_cell_length_a                   14.6766(6)
_cell_length_b                   14.6766(6)
_cell_length_c                   28.0033(10)
_cell_angle_alpha                90
_cell_angle_beta                 90
_cell_angle_gamma                90
_cell_volume                     6031.98
_exptl_crystal_colour            colorless
_cell_formula_units_Z            4
loop_
_atom_site_label
_atom_site_type_symbol
_atom_site_fract_x
_atom_site_fract_y
_atom_site_fract_z
Zr1 Zr 0.0000 0.0000 0.08772(2)
Zr2 Zr 0.16211(4) 0.05358(4) 0.0000
O1 O 0.1228(2) 0.0361(2) 0.12801(10)
O2 O -0.1240(5) 0.0629(5) 0.0474(3)
C1 C 0.5000 0.0000 0.2500
O3 O 0.2931(4) -0.0210(5) 0.0000
O4 O 0.2257(4) 0.1885(4) 0.0000
O5 O 0.2265(2) 0.0731(3) 0.07310(12)
C2 C 0.27580(16) 0.0482(2) 0.15202(9)
C3 C 0.26173(16) -0.0059(3) 0.19207(11)
H1 H 0.2040 -0.0333 0.1973
C4 C 0.33217(19) -0.0199(2) 0.22443(9)
H2 H 0.3226 -0.0569 0.2518
C5 C 0.41668(16) 0.0203(2) 0.21674(9)
C6 C 0.43075(15) 0.0744(2) 0.17668(10)
H3 H 0.4885 0.1019 0.1714
C7 C 0.36031(19) 0.0884(2) 0.14432(9)
H4 H 0.3699 0.1254 0.1169
C8 C 0.2028(3) 0.0535(3) 0.11455(16)
O6 O 0.4276(14) -0.084(2) -0.0078(12)
C9 C 0.3522(15) -0.056(2) -0.0231(9)
O1A O 0.8772(2) -0.0361(2) 0.12801(10)
O5A O 0.7735(2) -0.0731(3) 0.07310(12)
C2A C 0.72420(16) -0.0482(2) 0.15202(9)
C3A C 0.73827(16) 0.0059(3) 0.19207(11)
H1A H 0.7960 0.0333 0.1973
C4A C 0.66783(19) 0.0199(2) 0.22443(9)
H2A H 0.6774 0.0569 0.2518
C5A C 0.58332(16) -0.0203(2) 0.21674(9)
C6A C 0.56925(15) -0.0744(2) 0.17668(10)
H3A H 0.5115 -0.1019 0.1714
C7A C 0.63969(19) -0.0884(2) 0.14432(9)
H4A H 0.6301 -0.1254 0.1169
C8A C 0.7972(3) -0.0535(3) 0.11455(16)
O1N O 0.5361(2) 0.3772(2) 0.37199(10)
O5N O 0.5731(3) 0.2735(2) 0.42690(12)
C2N C 0.5482(2) 0.22420(16) 0.34798(9)
C3N C 0.4941(3) 0.23827(16) 0.30793(11)
H1N H 0.4667 0.2960 0.3027
C4N C 0.4801(2) 0.16783(19) 0.27557(9)
H2N H 0.4431 0.1774 0.2482
C5N C 0.5203(2) 0.08332(16) 0.28326(9)
C6N C 0.5744(2) 0.06925(15) 0.32332(10)
H3N H 0.6019 0.0115 0.3286
C7N C 0.5884(2) 0.13969(19) 0.35568(9)
H4N H 0.6254 0.1301 0.3831
C8N C 0.5535(3) 0.2972(3) 0.38545(16)
O1O O 0.4639(2) -0.3772(2) 0.37199(10)
O5O O 0.4269(3) -0.2735(2) 0.42690(12)
C2O C 0.4518(2) -0.22420(16) 0.34798(9)
C3O C 0.5059(3) -0.23827(16) 0.30793(11)
H1O H 0.5333 -0.2960 0.3027
C4O C 0.5199(2) -0.16783(19) 0.27557(9)
H2O H 0.5569 -0.1774 0.2482
C5O C 0.4797(2) -0.08332(16) 0.28326(9)
C6O C 0.4256(2) -0.06925(15) 0.32332(10)
H3O H 0.3981 -0.0115 0.3286
C7O C 0.4116(2) -0.13969(19) 0.35568(9)
H4O H 0.3746 -0.1301 0.3831
C8O C 0.4465(3) -0.2972(3) 0.38545(16)
O6I O 0.4276(14) -0.084(2) 0.0078(12)
C9I C 0.3522(15) -0.056(2) 0.0231(9)
Zr2A Zr -0.16211(4) -0.05358(4) 0.0000
O2A O 0.1240(5) -0.0629(5) 0.0474(3)
O3A O -0.2931(4) 0.0210(5) 0.0000
O4A O -0.2257(4) -0.1885(4) 0.0000
O6A O -0.4276(14) 0.084(2) -0.0078(12)
C9A C -0.3522(15) 0.056(2) -0.0231(9)
O6H O -0.4276(14) 0.084(2) 0.0078(12)
C9H C -0.3522(15) 0.056(2) 0.0231(9)
O2C O 0.0629(5) 0.1240(5) 0.0474(3)
O2B O -0.0629(5) -0.1240(5) 0.0474(3)
Zr1_2 Zr 1.0000 0.0000 0.08772(2)
Zr1L Zr 0.5000 -0.5000 0.41228(2)
Zr1L_2 Zr 0.5000 0.5000 0.41228(2)
Zr2A_2 Zr 0.83789(4) -0.05358(4) 0.0000
Zr2B Zr -0.05358(4) 0.16211(4) 0.0000
Zr2C Zr 0.05358(4) -0.16211(4) 0.0000
Zr2F Zr 0.44642(4) -0.33789(4) 0.5000
Zr2G Zr 0.55358(4) 0.33789(4) 0.5000
O1A_2 O -0.1228(2) -0.0361(2) 0.12801(10)
O1B O -0.0361(2) 0.1228(2) 0.12801(10)
O1C O 0.0361(2) -0.1228(2) 0.12801(10)
O2H O 0.1240(5) -0.0629(5) -0.0474(3)
O2I O -0.1240(5) 0.0629(5) -0.0474(3)
O2J O 0.0629(5) 0.1240(5) -0.0474(3)
O2K O -0.0629(5) -0.1240(5) -0.0474(3)
O5A_2 O -0.2265(2) -0.0731(3) 0.07310(12)
O5H O -0.2265(2) -0.0731(3) -0.07310(12)
O5I O 0.2265(2) 0.0731(3) -0.07310(12)
O7? O -0.0892(5) 0.0455(6) 0.0370(3)
C10? C 0.225(2) 0.239(2) 0.0372(8)
O8? O 0.1829(12) 0.2573(11) 0.0761(5)
loop_
_geom_bond_atom_site_label_1
_geom_bond_atom_site_label_2
_geom_bond_site_symmetry_1
_geom_bond_site_symmetry_2
Zr1 O1 1_555 1_555
Zr2 O3 1_555 1_555
O1 C8 1_555 1_555
O2 Zr1 1_555 1_555
C1 C5 1_555 1_555
O3 C9 1_555 1_555
O4 Zr2 1_555 1_555
O5 Zr2 1_555 1_555
C2 C3 1_555 1_555
C3 H1 1_555 1_555
C4 C3 1_555 1_555
H2 C4 1_555 1_555
C5 C4 1_555 1_555
C6 C5 1_555 1_555
H3 C6 1_555 1_555
C7 C2 1_555 1_555
H4 C7 1_555 1_555
C8 O5 1_555 1_555
O6 C9 1_555 1_555
C9 O6I 1_555 1_555
O1A C8A 1_555 1_555
O5A C8A 1_555 1_555
C2A C3A 1_555 1_555
C3A H1A 1_555 1_555
C4A C3A 1_555 1_555
H2A C4A 1_555 1_555
C5A C1 1_555 1_555
C6A C5A 1_555 1_555
H3A C6A 1_555 1_555
C7A C2A 1_555 1_555
H4A C7A 1_555 1_555
C8A C2A 1_555 1_555
O1N C8N 1_555 1_555
O5N C8N 1_555 1_555
C2N C3N 1_555 1_555
C3N H1N 1_555 1_555
C4N C3N 1_555 1_555
H2N C4N 1_555 1_555
C5N C1 1_555 1_555
C6N C5N 1_555 1_555
H3N C6N 1_555 1_555
C7N C2N 1_555 1_555
H4N C7N 1_555 1_555
C8N C2N 1_555 1_555
O1O C8O 1_555 1_555
O5O C8O 1_555 1_555
C2O C3O 1_555 1_555
C3O H1O 1_555 1_555
C4O C3O 1_555 1_555
H2O C4O 1_555 1_555
C5O C1 1_555 1_555
C6O C5O 1_555 1_555
H3O C6O 1_555 1_555
C7O C2O 1_555 1_555
H4O C7O 1_555 1_555
C8O C2O 1_555 1_555
O6I C9I 1_555 1_555
C9I O3 1_555 1_555
Zr2A O2 1_555 1_555
O2A Zr1 1_555 1_555
O3A Zr2A 1_555 1_555
O4A Zr2A 1_555 1_555
O6A C9A 1_555 1_555
C9A O3A 1_555 1_555
O6H C9A 1_555 1_555
C9H O3A 1_555 1_555
O2C Zr1 1_555 1_555
O2B Zr1 1_555 1_555
Zr1_2 O1A 1_555 1_555
Zr1L O1O 1_555 1_555
Zr1L_2 O1N 1_555 1_555
Zr2A_2 O5A 1_555 1_555
Zr2B O2 1_555 1_555
Zr2C O2A 1_555 1_555
Zr2F O5O 1_555 1_555
Zr2G O5N 1_555 1_555
O1A_2 Zr1 1_555 1_555
O1B Zr1 1_555 1_555
O1C Zr1 1_555 1_555
O2H Zr2 1_555 1_555
O2I Zr2A 1_555 1_555
O2J Zr2 1_555 1_555
O2K Zr2A 1_555 1_555
O5A_2 Zr2A 1_555 1_555
O5H Zr2A 1_555 1_555
O5I Zr2 1_555 1_555
Zr2 O2A 1_555 1_555
Zr2 O2C 1_555 1_555
C2 C8 1_555 1_555
C6 C7 1_555 1_555
O6 C9I 1_555 1_555
C9 C9I 1_555 1_555
C4A C5A 1_555 1_555
C6A C7A 1_555 1_555
C4N C5N 1_555 1_555
C6N C7N 1_555 1_555
C4O C5O 1_555 1_555
C6O C7O 1_555 1_555
Zr2A O2B 1_555 1_555
O6A C9H 1_555 1_555
C9A C9H 1_555 1_555
O6H C9H 1_555 1_555
O2C Zr2B 1_555 1_555
O2B Zr2C 1_555 1_555
Zr2B O2I 1_555 1_555
Zr2B O2J 1_555 1_555
Zr2C O2H 1_555 1_555
Zr2C O2K 1_555 1_555

#END
