
#######################################################################
#
#                 Cambridge Crystallographic Data Centre
#                                CCDC 
#
#######################################################################
#
# If this CIF has been generated from an entry in the Cambridge 
# Structural Database, then it will include bibliographic, chemical, 
# crystal, experimental, refinement or atomic coordinate data resulting 
# from the CCDC's data processing and validation procedures.
#
#######################################################################

data_BOHXAZ
_chemical_name_common            MOF-806
_chemical_formula_moiety         '(C42 H26 O22 Zr3)n,2.75(H2 O1)'
_chemical_name_systematic        
"catena-(tris(\m-3,3'-dihydroxybiphenyl-4,4'-dicarboxylato)-bis(\m-hydroxo)-bis(\m-oxo)-tri-zirconium hydrate)"
_symmetry_cell_setting           cubic
_symmetry_space_group_name_H-M   'F m -3'
_symmetry_Int_Tables_number      202
_space_group_name_Hall           '-F 2 2 3'
loop_
_symmetry_equiv_pos_site_id
_symmetry_equiv_pos_as_xyz
1 x,y,z
2 -x,-y,z
3 -x,y,-z
4 x,-y,-z
5 z,x,y
6 z,-x,-y
7 -z,-x,y
8 -z,x,-y
9 y,z,x
10 -y,z,-x
11 y,-z,-x
12 -y,-z,x
13 x,1/2+y,1/2+z
14 -x,1/2-y,1/2+z
15 -x,1/2+y,1/2-z
16 x,1/2-y,1/2-z
17 z,1/2+x,1/2+y
18 z,1/2-x,1/2-y
19 -z,1/2-x,1/2+y
20 -z,1/2+x,1/2-y
21 y,1/2+z,1/2+x
22 -y,1/2+z,1/2-x
23 y,1/2-z,1/2-x
24 -y,1/2-z,1/2+x
25 1/2+x,y,1/2+z
26 1/2-x,-y,1/2+z
27 1/2-x,y,1/2-z
28 1/2+x,-y,1/2-z
29 1/2+z,x,1/2+y
30 1/2+z,-x,1/2-y
31 1/2-z,-x,1/2+y
32 1/2-z,x,1/2-y
33 1/2+y,z,1/2+x
34 1/2-y,z,1/2-x
35 1/2+y,-z,1/2-x
36 1/2-y,-z,1/2+x
37 1/2+x,1/2+y,z
38 1/2-x,1/2-y,z
39 1/2-x,1/2+y,-z
40 1/2+x,1/2-y,-z
41 1/2+z,1/2+x,y
42 1/2+z,1/2-x,-y
43 1/2-z,1/2-x,y
44 1/2-z,1/2+x,-y
45 1/2+y,1/2+z,x
46 1/2-y,1/2+z,-x
47 1/2+y,1/2-z,-x
48 1/2-y,1/2-z,x
49 -x,-y,-z
50 x,y,-z
51 x,-y,z
52 -x,y,z
53 -z,-x,-y
54 -z,x,y
55 z,x,-y
56 z,-x,y
57 -y,-z,-x
58 y,-z,x
59 -y,z,x
60 y,z,-x
61 -x,1/2-y,1/2-z
62 x,1/2+y,1/2-z
63 x,1/2-y,1/2+z
64 -x,1/2+y,1/2+z
65 -z,1/2-x,1/2-y
66 -z,1/2+x,1/2+y
67 z,1/2+x,1/2-y
68 z,1/2-x,1/2+y
69 -y,1/2-z,1/2-x
70 y,1/2-z,1/2+x
71 -y,1/2+z,1/2+x
72 y,1/2+z,1/2-x
73 1/2-x,-y,1/2-z
74 1/2+x,y,1/2-z
75 1/2+x,-y,1/2+z
76 1/2-x,y,1/2+z
77 1/2-z,-x,1/2-y
78 1/2-z,x,1/2+y
79 1/2+z,x,1/2-y
80 1/2+z,-x,1/2+y
81 1/2-y,-z,1/2-x
82 1/2+y,-z,1/2+x
83 1/2-y,z,1/2+x
84 1/2+y,z,1/2-x
85 1/2-x,1/2-y,-z
86 1/2+x,1/2+y,-z
87 1/2+x,1/2-y,z
88 1/2-x,1/2+y,z
89 1/2-z,1/2-x,-y
90 1/2-z,1/2+x,y
91 1/2+z,1/2+x,-y
92 1/2+z,1/2-x,y
93 1/2-y,1/2-z,-x
94 1/2+y,1/2-z,x
95 1/2-y,1/2+z,x
96 1/2+y,1/2+z,-x
_cell_length_a                   26.8514(7)
_cell_length_b                   26.8514(7)
_cell_length_c                   26.8514(7)
_cell_angle_alpha                90
_cell_angle_beta                 90
_cell_angle_gamma                90
_cell_volume                     19359.8
_exptl_crystal_colour            colorless
_exptl_crystal_description       prism
_cell_formula_units_Z            8
loop_
_atom_site_label
_atom_site_type_symbol
_atom_site_fract_x
_atom_site_fract_y
_atom_site_fract_z
O5 O 0.3874(7) -0.1126(7) 0.1126(7)
O6 O 0.5000 0.0000 0.207(2)
Zr1 Zr 0.5000 0.0000 0.09200(3)
O1 O 0.4605(4) 0.0395(4) 0.0395(4)
O2 O 0.3664(3) 0.0000 0.0713(3)
O3 O 0.4284(3) 0.0000 0.1336(3)
C1 C 0.3822(5) 0.0000 0.1175(5)
C2 C 0.3431(5) 0.0000 0.1569(5)
C3 C 0.2930(6) 0.0000 0.1432(6)
C4 C 0.3565(7) 0.0000 0.2069(6)
C5 C 0.3177(6) 0.0000 0.2422(7)
H1 H 0.3262 0.0000 0.2765
C6 C 0.2702(6) 0.0000 0.2299(6)
C7 C 0.2576(7) 0.0000 0.1823(6)
H2 H 0.2233 0.0000 0.1740
O4 O 0.400(2) 0.032(3) 0.220(2)
O2Z O 0.1336(3) 0.0000 0.4287(3)
O3Z O 0.0716(3) 0.0000 0.3664(3)
C1Z C 0.1178(5) 0.0000 0.3825(5)
C2Z C 0.1569(5) 0.0000 0.3431(5)
C3Z C 0.2070(6) 0.0000 0.3568(6)
C4Z C 0.1435(7) 0.0000 0.2931(6)
C5Z C 0.1823(6) 0.0000 0.2578(7)
H1Z H 0.1738 0.0000 0.2235
C6Z C 0.2298(6) 0.0000 0.2701(6)
C7Z C 0.2424(7) 0.0000 0.3177(6)
H2Z H 0.2767 0.0000 0.3260
O4Z O 0.100(2) 0.032(3) 0.280(2)
O4XA O 0.400(2) -0.032(3) 0.220(2)
O4TB O 0.100(2) -0.032(3) 0.280(2)
O1A O 0.5395(4) -0.0395(4) 0.0395(4)
Zr1P Zr 0.09200(3) 0.0000 0.5000
O2P O 0.0713(3) -0.1336(3) 0.5000
O3P O 0.1336(3) -0.0716(3) 0.5000
C1P C 0.1175(5) -0.1178(5) 0.5000
C2P C 0.1569(5) -0.1569(5) 0.5000
C3P C 0.1432(6) -0.2070(6) 0.5000
C4P C 0.2069(6) -0.1435(7) 0.5000
C5P C 0.2422(7) -0.1823(6) 0.5000
H1P H 0.2765 -0.1738 0.5000
C6P C 0.2299(6) -0.2298(6) 0.5000
C7P C 0.1823(6) -0.2424(7) 0.5000
H2P H 0.1740 -0.2767 0.5000
O4P O 0.220(2) -0.100(2) 0.532(3)
O2DA O 0.4287(3) -0.3664(3) 0.5000
O3DA O 0.3664(3) -0.4284(3) 0.5000
C1DA C 0.3825(5) -0.3822(5) 0.5000
C2DA C 0.3431(5) -0.3431(5) 0.5000
C3DA C 0.3568(6) -0.2930(6) 0.5000
C4DA C 0.2931(6) -0.3565(7) 0.5000
C5DA C 0.2578(7) -0.3177(6) 0.5000
H1DA H 0.2235 -0.3262 0.5000
C6DA C 0.2701(6) -0.2702(6) 0.5000
C7DA C 0.3177(6) -0.2576(7) 0.5000
H2DA H 0.3260 -0.2233 0.5000
O4DA O 0.280(2) -0.400(2) 0.532(3)
O4NB O 0.220(2) -0.100(2) 0.468(3)
O4XB O 0.280(2) -0.400(2) 0.468(3)
O1H O 0.0395(4) 0.0395(4) 0.4605(4)
O2Q O 0.0713(3) 0.1336(3) 0.5000
O3Q O 0.1336(3) 0.0716(3) 0.5000
C1Q C 0.1175(5) 0.1178(5) 0.5000
C2Q C 0.1569(5) 0.1569(5) 0.5000
C3Q C 0.1432(6) 0.2070(6) 0.5000
C4Q C 0.2069(6) 0.1435(7) 0.5000
C5Q C 0.2422(7) 0.1823(6) 0.5000
H1Q H 0.2765 0.1738 0.5000
C6Q C 0.2299(6) 0.2298(6) 0.5000
C7Q C 0.1823(6) 0.2424(7) 0.5000
H2Q H 0.1740 0.2767 0.5000
O4Q O 0.220(2) 0.100(2) 0.468(3)
O2EA O 0.4287(3) 0.3664(3) 0.5000
O3EA O 0.3664(3) 0.4284(3) 0.5000
C1EA C 0.3825(5) 0.3822(5) 0.5000
C2EA C 0.3431(5) 0.3431(5) 0.5000
C3EA C 0.3568(6) 0.2930(6) 0.5000
C4EA C 0.2931(6) 0.3565(7) 0.5000
C5EA C 0.2578(7) 0.3177(6) 0.5000
H1EA H 0.2235 0.3262 0.5000
C6EA C 0.2701(6) 0.2702(6) 0.5000
C7EA C 0.3177(6) 0.2576(7) 0.5000
H2EA H 0.3260 0.2233 0.5000
O4EA O 0.280(2) 0.400(2) 0.468(3)
O4OB O 0.220(2) 0.100(2) 0.532(3)
O4YB O 0.280(2) 0.400(2) 0.532(3)
Zr1RA Zr 0.5000 -0.40800(3) 0.5000
O1YA O 0.5395(4) 0.0395(4) 0.0395(4)
Zr1H Zr 0.0000 0.09200(3) 0.5000
Zr1J Zr 0.0000 -0.09200(3) 0.5000
Zr1L Zr 0.5000 -0.5000 0.59200(3)
Zr1N Zr 0.5000 -0.5000 0.40800(3)
Zr1X Zr 0.0000 0.0000 0.59200(3)
Zr1Z Zr 0.0000 0.0000 0.40800(3)
Zr1BA Zr 0.59200(3) -0.5000 0.5000
Zr1DA Zr 0.40800(3) -0.5000 0.5000
Zr1DA_2 Zr 0.40800(3) 0.5000 0.5000
Zr1FA Zr 0.5000 0.09200(3) 0.0000
Zr1HA Zr 0.5000 -0.09200(3) 0.0000
Zr1NA Zr 0.59200(3) 0.0000 0.0000
Zr1PA Zr 0.40800(3) 0.0000 0.0000
Zr1TA Zr 0.5000 0.40800(3) 0.5000
O1J O 0.0395(4) -0.0395(4) 0.5395(4)
O1L O 0.4605(4) -0.4605(4) 0.5395(4)
O1N O 0.5395(4) -0.4605(4) 0.4605(4)
O1XA O 0.4605(4) -0.0395(4) 0.0395(4)
O1EB O 0.0395(4) -0.0395(4) 0.4605(4)
O1GB O 0.0395(4) 0.0395(4) 0.5395(4)
O1IB O 0.4605(4) -0.4605(4) 0.4605(4)
O1KB O 0.5395(4) -0.4605(4) 0.5395(4)
O2Y O 0.1336(3) 0.0000 0.5713(3)
O2CA O 0.5713(3) -0.3664(3) 0.5000
O2GA O 0.5000 0.0713(3) 0.1336(3)
O2HA O 0.5000 -0.0713(3) 0.1336(3)
O3A O 0.5716(3) 0.0000 0.1336(3)
O3RA O 0.5000 -0.3664(3) 0.4284(3)
O3SA O 0.5000 -0.3664(3) 0.5716(3)
O7? O 0.4043(15) 0.0000 0.2254(16)
O8? O 0.2749(16) 0.0000 0.0961(15)
O9? O 0.4476(4) 0.0524(4) 0.0524(4)
O10? O 0.280(2) -0.032(3) 0.100(2)
loop_
_geom_bond_atom_site_label_1
_geom_bond_atom_site_label_2
_geom_bond_site_symmetry_1
_geom_bond_site_symmetry_2
Zr1 O1 1_555 1_555
O1 Zr1FA 1_555 1_555
O2 C1 1_555 1_555
O3 Zr1 1_555 1_555
C1 O3 1_555 1_555
C2 C1 1_555 1_555
C3 C2 1_555 1_555
C4 C2 1_555 1_555
C5 C4 1_555 1_555
H1 C5 1_555 1_555
C6 C5 1_555 1_555
C7 C3 1_555 1_555
H2 C7 1_555 1_555
O4 C4 1_555 1_555
O2Z C1Z 1_555 1_555
O3Z C1Z 1_555 1_555
C1Z C2Z 1_555 1_555
C2Z C3Z 1_555 1_555
C3Z C7Z 1_555 1_555
C4Z C2Z 1_555 1_555
C5Z C4Z 1_555 1_555
H1Z C5Z 1_555 1_555
C6Z C6 1_555 1_555
C7Z C6Z 1_555 1_555
H2Z C7Z 1_555 1_555
O4Z C4Z 1_555 1_555
O4XA C4 1_555 1_555
O4TB C4Z 1_555 1_555
O1A Zr1 1_555 1_555
Zr1P O2Z 1_555 1_555
O2P C1P 1_555 1_555
O3P Zr1P 1_555 1_555
C1P O3P 1_555 1_555
C2P C1P 1_555 1_555
C3P C2P 1_555 1_555
C4P C2P 1_555 1_555
C5P C4P 1_555 1_555
H1P C5P 1_555 1_555
C6P C5P 1_555 1_555
C7P C3P 1_555 1_555
H2P C7P 1_555 1_555
O4P C4P 1_555 1_555
O2DA C1DA 1_555 1_555
O3DA C1DA 1_555 1_555
C1DA C2DA 1_555 1_555
C2DA C3DA 1_555 1_555
C3DA C7DA 1_555 1_555
C4DA C2DA 1_555 1_555
C5DA C4DA 1_555 1_555
H1DA C5DA 1_555 1_555
C6DA C6P 1_555 1_555
C7DA C6DA 1_555 1_555
H2DA C7DA 1_555 1_555
O4DA C4DA 1_555 1_555
O4NB C4P 1_555 1_555
O4XB C4DA 1_555 1_555
O1H Zr1P 1_555 1_555
O2Q C1Q 1_555 1_555
O3Q Zr1P 1_555 1_555
C1Q O3Q 1_555 1_555
C2Q C1Q 1_555 1_555
C3Q C2Q 1_555 1_555
C4Q C2Q 1_555 1_555
C5Q C4Q 1_555 1_555
H1Q C5Q 1_555 1_555
C6Q C5Q 1_555 1_555
C7Q C3Q 1_555 1_555
H2Q C7Q 1_555 1_555
O4Q C4Q 1_555 1_555
O2EA C1EA 1_555 1_555
O3EA C1EA 1_555 1_555
C1EA C2EA 1_555 1_555
C2EA C3EA 1_555 1_555
C3EA C7EA 1_555 1_555
C4EA C2EA 1_555 1_555
C5EA C4EA 1_555 1_555
H1EA C5EA 1_555 1_555
C6EA C6Q 1_555 1_555
C7EA C6EA 1_555 1_555
H2EA C7EA 1_555 1_555
O4EA C4EA 1_555 1_555
O4OB C4Q 1_555 1_555
O4YB C4EA 1_555 1_555
Zr1RA O2DA 1_555 1_555
O1YA Zr1 1_555 1_555
Zr1H Zr1P 1_555 1_555
Zr1J Zr1P 1_555 1_555
Zr1L Zr1RA 1_555 1_555
Zr1N Zr1RA 1_555 1_555
Zr1X Zr1P 1_555 1_555
Zr1Z O3Z 1_555 1_555
Zr1BA Zr1RA 1_555 1_555
Zr1DA O3DA 1_555 1_555
Zr1DA_2 O3EA 1_555 1_555
Zr1FA Zr1 1_555 1_555
Zr1HA Zr1 1_555 1_555
Zr1NA Zr1 1_555 1_555
Zr1PA Zr1 1_555 1_555
Zr1TA O2EA 1_555 1_555
O1J Zr1P 1_555 1_555
O1L Zr1RA 1_555 1_555
O1N Zr1RA 1_555 1_555
O1XA Zr1 1_555 1_555
O1EB Zr1P 1_555 1_555
O1GB Zr1P 1_555 1_555
O1IB Zr1RA 1_555 1_555
O1KB Zr1RA 1_555 1_555
O2Y Zr1P 1_555 1_555
O2CA Zr1RA 1_555 1_555
O2GA Zr1 1_555 1_555
O2HA Zr1 1_555 1_555
O3A Zr1 1_555 1_555
O3RA Zr1RA 1_555 1_555
O3SA Zr1RA 1_555 1_555
O1 Zr1PA 1_555 1_555
O2 Zr1PA 1_555 1_555
C6 C7 1_555 1_555
O4 O4XA 1_555 1_555
C5Z C6Z 1_555 1_555
O4Z O4TB 1_555 1_555
O1A Zr1HA 1_555 1_555
O1A Zr1NA 1_555 1_555
Zr1P Zr1Z 1_555 1_555
O2P Zr1J 1_555 1_555
C6P C7P 1_555 1_555
O4P O4NB 1_555 1_555
C5DA C6DA 1_555 1_555
O4DA O4XB 1_555 1_555
O1H Zr1H 1_555 1_555
O1H Zr1Z 1_555 1_555
O2Q Zr1H 1_555 1_555
C6Q C7Q 1_555 1_555
O4Q O4OB 1_555 1_555
C5EA C6EA 1_555 1_555
O4EA O4YB 1_555 1_555
Zr1RA Zr1DA 1_555 1_555
O1YA Zr1FA 1_555 1_555
O1YA Zr1NA 1_555 1_555
Zr1H Zr1X 1_555 1_555
Zr1H Zr1Z 1_555 1_555
Zr1H O1GB 1_555 1_555
Zr1J Zr1X 1_555 1_555
Zr1J Zr1Z 1_555 1_555
Zr1J O1J 1_555 1_555
Zr1J O1EB 1_555 1_555
Zr1L Zr1BA 1_555 1_555
Zr1L Zr1DA 1_555 1_555
Zr1L O1L 1_555 1_555
Zr1L O1KB 1_555 1_555
Zr1N Zr1BA 1_555 1_555
Zr1N Zr1DA 1_555 1_555
Zr1N O1N 1_555 1_555
Zr1N O1IB 1_555 1_555
Zr1X O1J 1_555 1_555
Zr1X O1GB 1_555 1_555
Zr1Z O1EB 1_555 1_555
Zr1BA O1N 1_555 1_555
Zr1BA O1KB 1_555 1_555
Zr1DA O1L 1_555 1_555
Zr1DA O1IB 1_555 1_555
Zr1DA_2 Zr1TA 1_555 1_555
Zr1FA Zr1NA 1_555 1_555
Zr1FA Zr1PA 1_555 1_555
Zr1HA Zr1NA 1_555 1_555
Zr1HA Zr1PA 1_555 1_555
Zr1HA O1XA 1_555 1_555
Zr1PA O1XA 1_555 1_555

#END
