
#######################################################################
#
#                 Cambridge Crystallographic Data Centre
#                                CCDC 
#
#######################################################################
#
# If this CIF has been generated from an entry in the Cambridge 
# Structural Database, then it will include bibliographic, chemical, 
# crystal, experimental, refinement or atomic coordinate data resulting 
# from the CCDC's data processing and validation procedures.
#
#######################################################################

data_BOHXED
_chemical_name_common            MOF-802
_chemical_formula_moiety         
'(C27 H20 N10 O34 Zr6)n,2(C3 H7 N1 O1),0.67(C1 H4 O1),1.5(H2 O1)'
_chemical_name_systematic        
'catena-(pentakis(\m-1H-pyrazole-3,5-dicarboxylato)-tetrakis(\m-oxo)-tetrakis(\m-hydroxo)-bis(formato)-diaqua-hexa-zirconium N,N-dimethylformamide methanol unknown solvate sesquihydrate)'
_symmetry_cell_setting           orthorhombic
_symmetry_space_group_name_H-M   'F d d 2'
_symmetry_Int_Tables_number      43
_space_group_name_Hall           'F 2 -2d'
loop_
_symmetry_equiv_pos_site_id
_symmetry_equiv_pos_as_xyz
1 x,y,z
2 -x,-y,z
3 1/4+x,1/4-y,1/4+z
4 1/4-x,1/4+y,1/4+z
5 x,1/2+y,1/2+z
6 -x,1/2-y,1/2+z
7 1/4+x,3/4-y,3/4+z
8 1/4-x,3/4+y,3/4+z
9 1/2+x,y,1/2+z
10 1/2-x,-y,1/2+z
11 3/4+x,1/4-y,3/4+z
12 3/4-x,1/4+y,3/4+z
13 1/2+x,1/2+y,z
14 1/2-x,1/2-y,z
15 3/4+x,3/4-y,1/4+z
16 3/4-x,3/4+y,1/4+z
_cell_length_a                   39.222(3)
_cell_length_b                   26.018(2)
_cell_length_c                   27.887(2)
_cell_angle_alpha                90
_cell_angle_beta                 90
_cell_angle_gamma                90
_cell_volume                     28458.1
_exptl_crystal_colour            colorless
_cell_formula_units_Z            16
loop_
_atom_site_label
_atom_site_type_symbol
_atom_site_fract_x
_atom_site_fract_y
_atom_site_fract_z
Zr1 Zr 0.01253(2) 0.19131(3) 0.70101(3)
O1 O -0.01491(13) 0.1784(2) 0.6384(2)
O2 O -0.03407(15) 0.2411(2) 0.7018(2)
O3 O -0.03056(17) 0.1440(3) 0.7309(3)
O4 O 0.03126(19) 0.1128(3) 0.7083(4)
O5 O 0.02540(15) 0.2648(2) 0.6812(2)
O6 O 0.04737(14) 0.1855(2) 0.6371(2)
O7 O 0.06637(18) 0.1971(3) 0.7323(3)
O8 O 0.0083(2) 0.2273(3) 0.7748(3)
Zr2 Zr -0.06026(2) 0.21879(2) 0.63324(3)
Zr3 Zr 0.01232(2) 0.17290(3) 0.57488(3)
Zr4 Zr -0.01336(2) 0.31888(3) 0.68418(3)
H1 H -0.0483 0.2390 0.7314
C1 C -0.0617(2) 0.1408(4) 0.7204(4)
Zr5 Zr 0.05965(2) 0.27276(2) 0.62667(3)
H2 H 0.0673 0.1617 0.6400
O9 O -0.03782(13) 0.2902(2) 0.6242(2)
O10 O -0.07862(16) 0.1506(2) 0.5937(3)
O11 O -0.07756(17) 0.1631(3) 0.6875(3)
O12 O -0.03427(15) 0.2207(2) 0.5615(2)
O13 O -0.09829(17) 0.2515(3) 0.5827(3)
O14 O -0.09782(17) 0.2641(3) 0.6751(3)
O15 O 0.00865(18) 0.1813(3) 0.4966(3)
O16 O 0.0314(2) 0.0959(3) 0.5816(4)
O17 O 0.02508(15) 0.2501(2) 0.5766(2)
O18 O -0.03156(16) 0.1188(3) 0.5580(3)
O19 O 0.06680(17) 0.1728(3) 0.5428(3)
O20 O 0.01749(14) 0.3346(2) 0.6187(2)
O21 O 0.03232(17) 0.3658(3) 0.7100(3)
O22 O -0.0266(2) 0.3988(3) 0.6728(4)
O23 O -0.00919(18) 0.3102(3) 0.7615(3)
O24 O -0.06762(17) 0.3303(3) 0.7074(3)
C2 C -0.0822(3) 0.1048(4) 0.7505(5)
O25 O 0.07849(16) 0.3390(2) 0.6681(2)
O26 O 0.07750(16) 0.3259(2) 0.5701(2)
O27 O 0.09743(16) 0.2309(3) 0.5844(3)
O28 O 0.09718(17) 0.2439(2) 0.6795(2)
Zr6 Zr -0.01310(2) 0.30022(3) 0.55889(3)
C3 C -0.0631(2) 0.1212(3) 0.5651(4)
H3 H -0.0486 0.2103 0.5334
C4 C 0.0012(3) 0.2212(4) 0.4717(5)
C5 C 0.0606(5) 0.0768(10) 0.5875(11)
H4 H 0.0254 0.3708 0.6141
C6 C 0.0633(2) 0.3645(4) 0.7009(4)
C7 C -0.1170(3) 0.0961(4) 0.7486(4)
N1 N -0.0685(3) 0.0754(5) 0.7840(5)
C8 C 0.0620(2) 0.3455(4) 0.5343(4)
O29 O -0.0269(2) 0.3807(3) 0.5513(4)
O30 O -0.0076(2) 0.2668(3) 0.4847(3)
O31 O 0.03102(17) 0.3399(3) 0.5234(3)
O32 O -0.06786(17) 0.3043(3) 0.5343(3)
C9 C -0.08464(15) 0.0883(3) 0.5355(2)
C10 C 0.0019(3) 0.2136(6) 0.4190(4)
O33 O 0.0844(5) 0.0964(9) 0.6141(9)
C11 C 0.0854(3) 0.3955(5) 0.7335(4)
H5 H -0.1333 0.1116 0.7279
C12 C -0.1223(3) 0.0602(4) 0.7832(5)
N2 N -0.0928(3) 0.0481(5) 0.8046(5)
C13 C 0.0829(3) 0.3791(4) 0.5035(4)
C14 C -0.0506(6) 0.4107(10) 0.5584(12)
N3 N -0.06841(12) 0.0556(3) 0.5017(3)
C15 C -0.12039(14) 0.0848(3) 0.5281(3)
C16 C -0.0039(3) 0.2463(5) 0.3803(7)
N4 N 0.0096(4) 0.1655(6) 0.4018(5)
N5 N 0.0718(2) 0.4285(5) 0.7642(5)
C17 C 0.1194(3) 0.3955(4) 0.7407(4)
C18 C -0.1547(2) 0.0360(4) 0.8012(4)
C19 C 0.1178(3) 0.3857(4) 0.5018(4)
N6 N 0.0674(2) 0.4113(4) 0.4715(4)
O34 O -0.0654(8) 0.4458(10) 0.5358(11)
N7 N -0.09414(16) 0.0319(3) 0.4735(3)
H6 H -0.1374 0.1027 0.5458
C20 C -0.12626(12) 0.0500(3) 0.4898(3)
H7 H -0.0101 0.2815 0.3815
C21 C 0.0011(3) 0.2172(6) 0.3406(5)
N8 N 0.0092(4) 0.1686(6) 0.3540(5)
N9 N 0.0949(2) 0.4507(5) 0.7915(5)
C22 C 0.1239(3) 0.4305(4) 0.7777(4)
H8 H 0.1363 0.3760 0.7244
C23 C 0.1238(3) 0.4216(4) 0.4668(4)
H9 H 0.1343 0.3687 0.5210
N10 N 0.0925(2) 0.4370(4) 0.4495(4)
C24 C -0.1564(3) 0.0346(4) 0.4657(4)
C25 C -0.0001(3) 0.2274(4) 0.2883(5)
C26 C 0.1561(2) 0.4459(4) 0.8029(4)
C27 C 0.1553(2) 0.4446(3) 0.4485(4)
O13O O -0.15171(17) 0.0015(3) 0.8327(3)
O32O O -0.18214(17) 0.0543(3) 0.7843(3)
Zr2O Zr -0.18974(2) -0.03121(2) 0.88324(3)
Zr6O Zr -0.23690(2) 0.05022(3) 0.80889(3)
O7J O -0.18363(18) 0.0529(3) 0.4823(3)
O28J O -0.15282(17) 0.0061(2) 0.4295(2)
O23E O 0.00919(18) 0.1898(3) 0.2615(3)
O8E O -0.0083(2) 0.2727(3) 0.2748(3)
O27C O 0.15257(16) 0.4809(3) 0.8344(3)
O19C O 0.18320(17) 0.4228(3) 0.7928(3)
O14F O 0.15218(17) 0.4859(3) 0.4251(3)
O24F O 0.18238(17) 0.4197(3) 0.4574(3)
Zr1J Zr -0.23747(2) 0.05869(3) 0.45101(3)
Zr5J Zr -0.19035(2) -0.02276(2) 0.37667(3)
Zr4E Zr 0.01336(2) 0.18112(3) 0.18418(3)
Zr1E Zr -0.01253(2) 0.30869(3) 0.20101(3)
Zr5C Zr 0.19035(2) 0.52276(2) 0.87667(3)
Zr3C Zr 0.23768(2) 0.42290(3) 0.82488(3)
Zr2F Zr 0.18974(2) 0.53121(2) 0.38324(3)
Zr4F Zr 0.23664(2) 0.43112(3) 0.43418(3)
O35 O -0.0709(3) 0.1932(4) 0.4815(4)
N11 N -0.0880(4) 0.1979(7) 0.4050(6)
C28 C -0.0813(4) 0.2171(7) 0.4485(6)
H10 H -0.0852 0.2528 0.4533
C29 C -0.0844(7) 0.1460(7) 0.3931(8)
H11 H -0.0768 0.1268 0.4214
H12 H -0.0676 0.1423 0.3674
H13 H -0.1064 0.1324 0.3823
C30 C -0.0967(8) 0.2349(8) 0.3633(9)
H14 H -0.0973 0.2703 0.3752
H15 H -0.1191 0.2258 0.3500
H16 H -0.0794 0.2319 0.3381
O36 O -0.0708(3) -0.0101(4) 0.8827(5)
O37 O -0.0735(2) 0.2390(5) 0.7834(3)
N12 N -0.0850(5) 0.2325(8) 0.8634(7)
C31 C -0.0703(8) 0.2202(12) 0.8201(10)
C32 C -0.0851(11) 0.1971(16) 0.9088(14)
C33 C -0.1024(13) 0.2835(19) 0.887(3)
O38 O 0.0002(13) 0.381(2) 0.429(2)
C34 C -0.0010(18) 0.404(3) 0.388(3)
O39 O -0.074(3) 0.401(4) 0.388(5)
C35 C -0.051(3) 0.392(5) 0.401(5)
O40 O 0.0027(12) 0.0424(18) 0.7809(18)
O41? O 0.0833(5) 0.1061(9) 0.6777(9)
C36? C 0.0613(5) 0.0945(10) 0.7099(10)
O42? O 0.0202(7) 0.4392(9) 0.6274(12)
C37? C -0.0081(7) 0.4349(11) 0.6541(13)
N13? N -0.0837(2) -0.0111(4) 0.3782(5)
C38? C -0.0473(3) 0.0034(5) 0.3805(7)
C39? C -0.0890(4) -0.0679(6) 0.3748(7)
N14? N -0.0011(6) 0.0689(8) 0.4640(8)
C40? C 0.0000 0.0000 0.4947(15)
C41? C 0.0446(11) 0.0944(17) 0.4638(16)
O43? O 0.0006(6) 0.4276(8) 0.7983(8)
O44? O 0.0000 0.5000 0.759(2)
C42? C 0.0006(17) 0.456(3) 0.759(3)
C43? C -0.0427(19) 0.408(3) 0.788(3)
N15? N 0.0365(12) 0.0274(18) 0.692(2)
C44? C 0.0195(10) 0.0721(12) 0.6888(17)
C45? C 0.0719(12) 0.0224(17) 0.709(2)
loop_
_geom_bond_atom_site_label_1
_geom_bond_atom_site_label_2
_geom_bond_site_symmetry_1
_geom_bond_site_symmetry_2
Zr1 O1 1_555 1_555
O1 Zr2 1_555 1_555
O2 Zr1 1_555 1_555
O3 Zr1 1_555 1_555
O4 Zr1 1_555 1_555
O5 Zr1 1_555 1_555
O6 Zr1 1_555 1_555
O7 Zr1 1_555 1_555
O8 Zr1 1_555 1_555
Zr2 O2 1_555 1_555
Zr3 O1 1_555 1_555
Zr4 O2 1_555 1_555
H1 O2 1_555 1_555
C1 O3 1_555 1_555
Zr5 O5 1_555 1_555
H2 O6 1_555 1_555
O9 Zr2 1_555 1_555
O10 Zr2 1_555 1_555
O11 Zr2 1_555 1_555
O12 Zr2 1_555 1_555
O13 Zr2 1_555 1_555
O14 Zr2 1_555 1_555
O15 Zr3 1_555 1_555
O16 Zr3 1_555 1_555
O17 Zr3 1_555 1_555
O18 Zr3 1_555 1_555
O19 Zr3 1_555 1_555
O20 Zr4 1_555 1_555
O21 Zr4 1_555 1_555
O22 Zr4 1_555 1_555
O23 Zr4 1_555 1_555
O24 Zr4 1_555 1_555
C2 C1 1_555 1_555
O25 Zr5 1_555 1_555
O26 Zr5 1_555 1_555
O27 Zr5 1_555 1_555
O28 Zr5 1_555 1_555
Zr6 O9 1_555 1_555
C3 O10 1_555 1_555
H3 O12 1_555 1_555
C4 O15 1_555 1_555
C5 O16 1_555 1_555
H4 O20 1_555 1_555
C6 O21 1_555 1_555
C7 C2 1_555 1_555
N1 C2 1_555 1_555
C8 O26 1_555 1_555
O29 Zr6 1_555 1_555
O30 Zr6 1_555 1_555
O31 Zr6 1_555 1_555
O32 Zr6 1_555 1_555
C9 C3 1_555 1_555
C10 C4 1_555 1_555
O33 C5 1_555 1_555
C11 C6 1_555 1_555
H5 C7 1_555 1_555
C12 C7 1_555 1_555
N2 N1 1_555 1_555
C13 C8 1_555 1_555
C14 O29 1_555 1_555
N3 C9 1_555 1_555
C15 C9 1_555 1_555
C16 C10 1_555 1_555
N4 C10 1_555 1_555
N5 C11 1_555 1_555
C17 C11 1_555 1_555
C18 C12 1_555 1_555
C19 C13 1_555 1_555
N6 C13 1_555 1_555
O34 C14 1_555 1_555
N7 N3 1_555 1_555
H6 C15 1_555 1_555
C20 C15 1_555 1_555
H7 C16 1_555 1_555
C21 C16 1_555 1_555
N8 N4 1_555 1_555
N9 N5 1_555 1_555
C22 C17 1_555 1_555
H8 C17 1_555 1_555
C23 C19 1_555 1_555
H9 C19 1_555 1_555
N10 N6 1_555 1_555
C24 C20 1_555 1_555
C25 C21 1_555 1_555
C26 C22 1_555 1_555
C27 C23 1_555 1_555
O35 C28 1_555 1_555
N11 C28 1_555 1_555
C28 H10 1_555 1_555
C29 N11 1_555 1_555
H11 C29 1_555 1_555
H12 C29 1_555 1_555
H13 C29 1_555 1_555
C30 N11 1_555 1_555
H14 C30 1_555 1_555
H15 C30 1_555 1_555
H16 C30 1_555 1_555
O37 C31 1_555 1_555
N12 C31 1_555 1_555
C32 N12 1_555 1_555
C33 N12 1_555 1_555
O38 C34 1_555 1_555
O39 C35 1_555 1_555
O13O C18 1_555 1_555
O32O C18 1_555 1_555
Zr2O O13O 1_555 1_555
Zr6O O32O 1_555 1_555
O7J C24 1_555 1_555
O28J C24 1_555 1_555
O23E C25 1_555 1_555
O8E C25 1_555 1_555
O27C C26 1_555 1_555
O19C C26 1_555 1_555
O14F C27 1_555 1_555
O24F C27 1_555 1_555
Zr1J O7J 1_555 1_555
Zr5J O28J 1_555 1_555
Zr4E O23E 1_555 1_555
Zr1E O8E 1_555 1_555
Zr5C O27C 1_555 1_555
Zr3C O19C 1_555 1_555
Zr2F O14F 1_555 1_555
Zr4F O24F 1_555 1_555
O5 Zr4 1_555 1_555
O6 Zr3 1_555 1_555
O6 Zr5 1_555 1_555
Zr3 O12 1_555 1_555
Zr4 O9 1_555 1_555
C1 O11 1_555 1_555
Zr5 O17 1_555 1_555
Zr5 O20 1_555 1_555
O12 Zr6 1_555 1_555
O17 Zr6 1_555 1_555
O18 C3 1_555 1_555
O20 Zr6 1_555 1_555
O25 C6 1_555 1_555
C4 O30 1_555 1_555
C8 O31 1_555 1_555
C12 N2 1_555 1_555
N7 C20 1_555 1_555
C21 N8 1_555 1_555
N9 C22 1_555 1_555
C23 N10 1_555 1_555

#END
