
#######################################################################
#
#                 Cambridge Crystallographic Data Centre
#                                CCDC 
#
#######################################################################
#
# If this CIF has been generated from an entry in the Cambridge 
# Structural Database, then it will include bibliographic, chemical, 
# crystal, experimental, refinement or atomic coordinate data resulting 
# from the CCDC's data processing and validation procedures.
#
#######################################################################

data_LECQEQ
_chemical_formula_moiety         '(C8 H2 Ni2 O6)n'
_chemical_name_systematic        
catena-((\m~8~-2,5-Dioxyterephthalato)-di-nickel(ii))
_symmetry_cell_setting           rhombohedral
_symmetry_space_group_name_H-M   'R -3'
_symmetry_Int_Tables_number      148
_space_group_name_Hall           '-R 3'
loop_
_symmetry_equiv_pos_site_id
_symmetry_equiv_pos_as_xyz
1 x,y,z
2 -y,x-y,z
3 -x+y,-x,z
4 2/3+x,1/3+y,1/3+z
5 2/3-y,1/3+x-y,1/3+z
6 2/3-x+y,1/3-x,1/3+z
7 1/3+x,2/3+y,2/3+z
8 1/3-y,2/3+x-y,2/3+z
9 1/3-x+y,2/3-x,2/3+z
10 -x,-y,-z
11 y,-x+y,-z
12 x-y,x,-z
13 1/3-x,2/3-y,2/3-z
14 1/3+y,2/3-x+y,2/3-z
15 1/3+x-y,2/3+x,2/3-z
16 2/3-x,1/3-y,1/3-z
17 2/3+y,1/3-x+y,1/3-z
18 2/3+x-y,1/3+x,1/3-z
_cell_length_a                   25.7856(12)
_cell_length_b                   25.7856(12)
_cell_length_c                   6.7701(10)
_cell_angle_alpha                90
_cell_angle_beta                 90
_cell_angle_gamma                120
_cell_volume                     3898.34
_exptl_crystal_colour            green-yellow
_cell_formula_units_Z            9
loop_
_atom_site_label
_atom_site_type_symbol
_atom_site_fract_x
_atom_site_fract_y
_atom_site_fract_z
C1 C -0.4066(14) -0.4186(15) 0.252(3)
C2 C -0.4541(15) -0.4583(10) 0.127(3)
C3 C -0.4566(10) -0.4422(6) -0.077(3)
C4 C -0.4985(16) -0.5166(13) 0.202(3)
H1 H -0.496(2) -0.529(3) 0.36(3)
Ni1 Ni -0.2865(6) -0.3046(5) 0.3119(17)
O1 O -0.4038(15) -0.4342(14) 0.432(5)
O2 O -0.3664(15) -0.3691(15) 0.187(4)
O3 O -0.4162(16) -0.3878(14) -0.146(4)
C1I C -0.5934(14) -0.5814(15) -0.252(3)
C2I C -0.5459(15) -0.5417(10) -0.127(3)
C3I C -0.5434(10) -0.5578(6) 0.077(3)
C4I C -0.5015(16) -0.4834(13) -0.202(3)
H1I H -0.504(2) -0.471(3) -0.36(3)
Ni1N Ni -0.6486(8) -0.6198(6) -0.6452(17)
Ni1G Ni -0.3621(5) -0.3152(8) -0.0214(17)
Ni1E Ni -0.3514(8) -0.3802(6) 0.6452(17)
Ni1E_2 Ni -0.3514(8) -0.3802(6) -0.3548(17)
Ni1I Ni -0.7135(6) -0.6954(5) -0.3119(17)
Ni1P Ni -0.6379(5) -0.6848(8) 0.0214(17)
Ni1N_2 Ni -0.6486(8) -0.6198(6) 0.3548(17)
O1I O -0.5962(15) -0.5658(14) -0.432(5)
O1G O -0.2325(14) -0.3029(21) 0.099(5)
O1P O -0.7675(14) -0.6971(21) -0.099(5)
O2I O -0.6336(15) -0.6309(15) -0.187(4)
O2E O -0.3360(21) -0.3003(15) 0.520(4)
O2N O -0.6640(21) -0.6997(15) -0.520(4)
O3I O -0.5838(16) -0.6122(14) 0.146(4)
O3G O -0.2789(14) -0.3617(21) 0.521(4)
O3P O -0.7211(14) -0.6383(21) -0.521(4)
O3E O -0.3049(21) -0.2505(16) 0.187(4)
O3N O -0.6951(21) -0.7495(16) -0.187(4)
loop_
_geom_bond_atom_site_label_1
_geom_bond_atom_site_label_2
_geom_bond_site_symmetry_1
_geom_bond_site_symmetry_2
C1 C2 1_555 1_555
C2 C3 1_555 1_555
C3 O3 1_555 1_555
C4 C2 1_555 1_555
H1 C4 1_555 1_555
Ni1 O2 1_555 1_555
O1 C1 1_555 1_555
O2 C1 1_555 1_555
O3 Ni1G 1_555 1_555
C1I C2I 1_555 1_555
C2I C3I 1_555 1_555
C3I C4 1_555 1_555
C4I C3 1_555 1_555
H1I C4I 1_555 1_555
Ni1N O1I 1_555 1_555
Ni1G O2 1_555 1_555
Ni1E O1 1_555 1_555
Ni1E_2 O3 1_555 1_555
Ni1I O1P 1_555 1_555
Ni1P O2I 1_555 1_555
Ni1N_2 O3I 1_555 1_555
O1I C1I 1_555 1_555
O1G Ni1 1_555 1_555
O2I C1I 1_555 1_555
O2E Ni1 1_555 1_555
O2N Ni1N 1_555 1_555
O3I C3I 1_555 1_555
O3G Ni1 1_555 1_555
O3P Ni1N 1_555 1_555
O3E Ni1 1_555 1_555
O3N Ni1I 1_555 1_555
C2I C4I 1_555 1_555
Ni1G O3E 1_555 1_555
Ni1E O2E 1_555 1_555
Ni1E O3G 1_555 1_555
Ni1I O2I 1_555 1_555
Ni1I O2N 1_555 1_555
Ni1I O3P 1_555 1_555
Ni1P O3I 1_555 1_555
Ni1P O3N 1_555 1_555

#END
