
#######################################################################
#
#                 Cambridge Crystallographic Data Centre
#                                CCDC 
#
#######################################################################
#
# If this CIF has been generated from an entry in the Cambridge 
# Structural Database, then it will include bibliographic, chemical, 
# crystal, experimental, refinement or atomic coordinate data resulting 
# from the CCDC's data processing and validation procedures.
#
#######################################################################

data_LOXBEH
_chemical_formula_moiety         '(C144 H126 Cd9 N30 O51)n,3(H2 O1)'
_chemical_name_systematic        
"catena-[hexakis(\m~4~-5-((2-carboxypyrrolidin-1-yl)carbonyl)isophthalato)-tetrakis(\m~3~-1,1',1''-benzene-1,3,5-triyltris(1H-imidazole))-nonakis(aqua)-nona-cadmium unknown solvate trihydrate]"
_symmetry_cell_setting           cubic
_symmetry_space_group_name_H-M   'P 43 3 2'
_symmetry_Int_Tables_number      212
_space_group_name_Hall           'P 4acd 2ab 3'
loop_
_symmetry_equiv_pos_site_id
_symmetry_equiv_pos_as_xyz
1 x,y,z
2 1/2-x,-y,1/2+z
3 -x,1/2+y,1/2-z
4 1/2+x,1/2-y,-z
5 z,x,y
6 1/2+z,1/2-x,-y
7 1/2-z,-x,1/2+y
8 -z,1/2+x,1/2-y
9 y,z,x
10 -y,1/2+z,1/2-x
11 1/2+y,1/2-z,-x
12 1/2-y,-z,1/2+x
13 1/4+y,3/4+x,3/4-z
14 1/4-y,1/4-x,1/4-z
15 3/4+y,3/4-x,1/4+z
16 3/4-y,1/4+x,3/4+z
17 1/4+x,3/4+z,3/4-y
18 3/4-x,1/4+z,3/4+y
19 1/4-x,1/4-z,1/4-y
20 3/4+x,3/4-z,1/4+y
21 1/4+z,3/4+y,3/4-x
22 3/4+z,3/4-y,1/4+x
23 3/4-z,1/4+y,3/4+x
24 1/4-z,1/4-y,1/4-x
_cell_length_a                   29.59550(10)
_cell_length_b                   29.59550(10)
_cell_length_c                   29.59550(10)
_cell_angle_alpha                90
_cell_angle_beta                 90
_cell_angle_gamma                90
_cell_volume                     25922.5
_exptl_crystal_colour            colorless
_exptl_crystal_description       polyhedron
_cell_formula_units_Z            4
loop_
_atom_site_label
_atom_site_type_symbol
_atom_site_fract_x
_atom_site_fract_y
_atom_site_fract_z
Cd1 Cd 0.97813(3) 0.27607(3) 0.99793(3)
Cd2 Cd 0.81324(6) 0.43676(6) 0.6250
O1 O 0.8127(3) 0.4772(3) 0.6869(3)
C1 C 0.9828(4) 0.5472(3) 0.5180(3)
H1 H 0.9809 0.5695 0.5400
C2 C 0.9153(4) 0.3757(4) 0.9066(5)
C3 C 0.9518(3) 0.5132(3) 0.5165(3)
C4 C 0.8986(5) 0.5441(5) 0.5721(5)
H2 H 0.9067 0.5744 0.5691
O2 O 0.8280(3) 0.4424(3) 0.9989(3)
N1 N 0.8604(3) 0.4862(4) 0.5916(3)
C5 C 1.0552(3) 0.1194(3) 1.0800(3)
C6 C 0.8598(5) 0.4117(5) 0.8002(5)
O3 O 0.7974(3) 0.4835(3) 0.9427(3)
N2 N 0.8858(4) 0.4369(4) 0.7738(4)
C7 C 0.8448(4) 0.4304(3) 0.8801(3)
H3 H 0.8227 0.4505 0.8701
C8 C 1.0501(3) 0.0904(3) 1.1165(3)
H4 H 1.0275 0.0947 1.1379
C9 C 0.8233(4) 0.4520(5) 0.9582(4)
C10 C 0.8515(4) 0.4257(3) 0.9236(4)
N3 N 1.0261(3) 0.1569(3) 1.0730(3)
N4 N 0.9176(3) 0.5096(3) 0.5482(3)
C11 C 0.9053(4) 0.3839(4) 0.8629(5)
H5 H 0.9251 0.3728 0.8412
C12 C 1.0198(4) 0.1843(4) 1.0355(4)
H6 H 1.0351 0.1812 1.0082
C13 C 0.8663(6) 0.5285(5) 0.6007(6)
H7 H 0.8512 0.5451 0.6227
C14 C 0.8892(5) 0.4752(4) 0.5591(4)
H8 H 0.8899 0.4470 0.5452
C15 C 0.8878(4) 0.3988(4) 0.9398(5)
H9 H 0.8937 0.3961 0.9705
C16 C 0.8739(5) 0.4462(5) 0.7275(5)
H10 H 0.8710 0.4177 0.7109
C17 C 0.9253(6) 0.4593(7) 0.7872(5)
H11 H 0.9487 0.4378 0.7953
H12 H 0.9196 0.4790 0.8127
C18 C 0.8303(5) 0.4714(4) 0.7249(4)
C19 C 0.8697(4) 0.4064(3) 0.8489(4)
O4 O 0.8266(3) 0.3905(2) 0.7856(2)
O5 O 0.8155(3) 0.4908(3) 0.7598(3)
O6 O 0.9538(5) 0.3370(3) 0.9636(4)
O7 O 0.9838(4) 0.3390(4) 0.8968(6)
C20 C 0.9553(6) 0.3499(5) 0.9267(6)
C21 C 0.9976(6) 0.1757(5) 1.1051(5)
H13 H 0.9955 0.1681 1.1355
C22 C 0.9142(6) 0.4721(9) 0.7095(6)
H14 H 0.9324 0.4529 0.6902
H15 H 0.9042 0.4980 0.6921
C23 C 0.9388(10) 0.4860(9) 0.7464(9)
H16 H 0.9335 0.5179 0.7519
H17 H 0.9708 0.4818 0.7406
C24 C 0.9750(7) 0.2057(7) 1.0841(6)
H18 H 0.9499 0.2196 1.0969
N5 N 0.9887(3) 0.2157(3) 1.0439(4)
O8 O 0.9034(4) 0.2854(4) 1.0336(5)
O9 O 0.8749(4) 0.3751(4) 0.6250
C1E C 1.0180(3) 0.5172(4) 0.4528(3)
H1E H 1.0400 0.5191 0.4305
C3E C 1.0165(3) 0.5482(3) 0.4868(3)
C4E C 1.0721(5) 0.6014(5) 0.4559(5)
H2E H 1.0691 0.5933 0.4256
N1E N 1.0916(3) 0.6396(3) 0.5138(4)
N4E N 1.0482(3) 0.5824(3) 0.4904(3)
C13E C 1.1007(6) 0.6337(6) 0.4715(5)
H7E H 1.1227 0.6488 0.4549
C14E C 1.0591(4) 0.6108(5) 0.5248(4)
H8E H 1.0452 0.6101 0.5530
C1K C 0.9528(3) 0.4820(3) 0.4828(4)
H1K H 0.9305 0.4600 0.4809
C3K C 0.9868(3) 0.4835(3) 0.4518(3)
C4K C 0.9559(5) 0.4279(5) 0.3986(5)
H2K H 0.9256 0.4309 0.4067
N1K N 1.0138(4) 0.4084(3) 0.3604(3)
N4K N 0.9904(3) 0.4518(3) 0.4176(3)
C13K C 0.9715(5) 0.3993(6) 0.3663(6)
H7K H 0.9549 0.3773 0.3512
C14K C 1.0248(4) 0.4409(4) 0.3892(5)
H8K H 1.0530 0.4548 0.3899
C5D C 1.0800(3) 0.0552(3) 1.1194(3)
C8D C 1.1165(3) 0.0501(3) 1.0904(3)
H4D H 1.1379 0.0275 1.0947
N3D N 1.0730(3) 0.0261(3) 1.1569(3)
C12D C 1.0355(4) 0.0198(4) 1.1843(4)
H6D H 1.0082 0.0351 1.1812
C21D C 1.1051(5) -0.0024(6) 1.1757(5)
H13D H 1.1355 -0.0045 1.1681
C24D C 1.0841(6) -0.0250(7) 1.2057(7)
H18D H 1.0969 -0.0501 1.2196
N5D N 1.0439(4) -0.0113(3) 1.2157(3)
C5H C 1.1194(3) 0.0800(3) 1.0552(3)
C8H C 1.0904(3) 0.1165(3) 1.0501(3)
H4H H 1.0947 0.1379 1.0275
N3H N 1.1569(3) 0.0730(3) 1.0261(3)
C12H C 1.1843(4) 0.0355(4) 1.0198(4)
H6H H 1.1812 0.0082 1.0351
C21H C 1.1757(5) 0.1051(5) 0.9976(6)
H13H H 1.1681 0.1355 0.9955
C24H C 1.2057(7) 0.0841(6) 0.9750(7)
H18H H 1.2196 0.0969 0.9499
N5H N 1.2157(3) 0.0439(4) 0.9887(3)
Cd1D Cd 0.99793(3) -0.02187(3) 1.27607(3)
Cd2D Cd 0.6250 -0.18676(6) 1.43676(6)
O1D O 0.6869(3) -0.1873(3) 1.4772(3)
C2D C 0.9066(5) -0.0847(4) 1.3757(4)
O2D O 0.9989(3) -0.1720(3) 1.4424(3)
C6D C 0.8002(5) -0.1402(5) 1.4117(5)
O3D O 0.9427(3) -0.2026(3) 1.4835(3)
N2D N 0.7738(4) -0.1142(4) 1.4369(4)
C7D C 0.8801(3) -0.1552(4) 1.4304(3)
H3D H 0.8701 -0.1773 1.4505
C9D C 0.9582(4) -0.1767(4) 1.4520(5)
C10D C 0.9236(4) -0.1485(4) 1.4257(3)
C11D C 0.8629(5) -0.0947(4) 1.3839(4)
H5D H 0.8412 -0.0749 1.3728
C15D C 0.9398(5) -0.1122(4) 1.3988(4)
H9D H 0.9705 -0.1063 1.3961
C16D C 0.7275(5) -0.1261(5) 1.4462(5)
H10D H 0.7109 -0.1290 1.4177
C17D C 0.7872(5) -0.0747(6) 1.4593(7)
H11D H 0.7953 -0.0513 1.4378
H12D H 0.8127 -0.0804 1.4790
C18D C 0.7249(4) -0.1697(5) 1.4714(4)
C19D C 0.8489(4) -0.1303(4) 1.4064(3)
O4D O 0.7856(2) -0.1734(3) 1.3905(2)
O5D O 0.7598(3) -0.1845(3) 1.4908(3)
O6D O 0.9636(4) -0.0462(5) 1.3370(3)
O7D O 0.8968(6) -0.0162(4) 1.3390(4)
C20D C 0.9267(6) -0.0447(6) 1.3499(5)
C22D C 0.7095(6) -0.0858(6) 1.4721(9)
H14D H 0.6902 -0.0676 1.4529
H15D H 0.6921 -0.0958 1.4980
C23D C 0.7464(9) -0.0612(10) 1.4860(9)
H16D H 0.7519 -0.0665 1.5179
H17D H 0.7406 -0.0292 1.4818
O8D O 1.0336(5) -0.0966(4) 1.2854(4)
O9D O 0.6250 -0.1251(4) 1.3751(4)
Cd1E Cd 1.49793(3) 0.52187(3) 0.72393(3)
Cd2E Cd 1.1250 0.68676(6) 0.56324(6)
O1E O 1.1869(3) 0.6873(3) 0.5228(3)
C2E C 1.4066(5) 0.5847(4) 0.6243(4)
O2E O 1.4989(3) 0.6720(3) 0.5576(3)
C6E C 1.3002(5) 0.6402(5) 0.5883(5)
O3E O 1.4427(3) 0.7026(3) 0.5165(3)
N2E N 1.2738(4) 0.6142(4) 0.5631(4)
C7E C 1.3801(3) 0.6552(4) 0.5696(3)
H3E H 1.3701 0.6773 0.5495
C9E C 1.4582(4) 0.6767(4) 0.5480(5)
C10E C 1.4236(4) 0.6485(4) 0.5743(3)
C11E C 1.3629(5) 0.5947(4) 0.6161(4)
H5E H 1.3412 0.5749 0.6272
C15E C 1.4398(5) 0.6122(4) 0.6012(4)
H9E H 1.4705 0.6063 0.6039
C16E C 1.2275(5) 0.6261(5) 0.5538(5)
H10E H 1.2109 0.6290 0.5823
C17E C 1.2872(5) 0.5747(6) 0.5407(7)
H11E H 1.2953 0.5513 0.5622
H12E H 1.3127 0.5804 0.5210
C18E C 1.2249(4) 0.6697(5) 0.5286(4)
C19E C 1.3489(4) 0.6303(4) 0.5936(3)
O4E O 1.2856(2) 0.6734(3) 0.6095(2)
O5E O 1.2598(3) 0.6845(3) 0.5092(3)
O6E O 1.4636(4) 0.5462(5) 0.6630(3)
O7E O 1.3968(6) 0.5162(4) 0.6610(4)
C20E C 1.4267(6) 0.5447(6) 0.6501(5)
C22E C 1.2095(6) 0.5858(6) 0.5279(9)
H14E H 1.1902 0.5676 0.5471
H15E H 1.1921 0.5958 0.5020
C23E C 1.2464(9) 0.5612(10) 0.5140(9)
H16E H 1.2519 0.5665 0.4821
H17E H 1.2406 0.5292 0.5182
O8E O 1.5336(5) 0.5966(4) 0.7146(4)
O9E O 1.1250 0.6251(4) 0.6249(4)
Cd1G Cd 1.00207(3) 0.47813(3) 1.22393(3)
O1G O 1.3131(3) 0.3127(3) 1.0228(3)
C2G C 1.0934(5) 0.4153(4) 1.1243(4)
O2G O 1.0011(3) 0.3280(3) 1.0576(3)
C6G C 1.1998(5) 0.3598(5) 1.0883(5)
O3G O 1.0573(3) 0.2974(3) 1.0165(3)
N2G N 1.2262(4) 0.3858(4) 1.0631(4)
C7G C 1.1199(3) 0.3448(4) 1.0696(3)
H3G H 1.1299 0.3227 1.0495
C9G C 1.0418(4) 0.3233(4) 1.0480(5)
C10G C 1.0764(4) 0.3515(4) 1.0743(3)
C11G C 1.1371(5) 0.4053(4) 1.1161(4)
H5G H 1.1588 0.4251 1.1272
C15G C 1.0602(5) 0.3878(4) 1.1012(4)
H9G H 1.0295 0.3937 1.1039
C16G C 1.2725(5) 0.3739(5) 1.0538(5)
H10G H 1.2891 0.3710 1.0823
C17G C 1.2128(5) 0.4253(6) 1.0407(7)
H11G H 1.2047 0.4487 1.0622
H12G H 1.1873 0.4196 1.0210
C18G C 1.2751(4) 0.3303(5) 1.0286(4)
C19G C 1.1511(4) 0.3697(4) 1.0936(3)
O4G O 1.2144(2) 0.3266(3) 1.1095(2)
O5G O 1.2402(3) 0.3155(3) 1.0092(3)
O6G O 1.0364(4) 0.4538(5) 1.1630(3)
O7G O 1.1032(6) 0.4838(4) 1.1610(4)
C20G C 1.0733(6) 0.4553(6) 1.1501(5)
C22G C 1.2905(6) 0.4142(6) 1.0279(9)
H14G H 1.3098 0.4324 1.0471
H15G H 1.3079 0.4042 1.0020
C23G C 1.2536(9) 0.4388(10) 1.0140(9)
H16G H 1.2481 0.4335 0.9821
H17G H 1.2594 0.4708 1.0182
O8G O 0.9664(5) 0.4034(4) 1.2146(4)
Cd1H Cd 1.27607(3) -0.00207(3) 0.97813(3)
O1H O 1.4772(3) -0.3131(3) 0.8127(3)
C2H C 1.3757(4) -0.0934(5) 0.9153(4)
O2H O 1.4424(3) -0.0011(3) 0.8280(3)
C6H C 1.4117(5) -0.1998(5) 0.8598(5)
O3H O 1.4835(3) -0.0573(3) 0.7974(3)
N2H N 1.4369(4) -0.2262(4) 0.8858(4)
C7H C 1.4304(3) -0.1199(3) 0.8448(4)
H3H H 1.4505 -0.1299 0.8227
C9H C 1.4520(5) -0.0418(4) 0.8233(4)
C10H C 1.4257(3) -0.0764(4) 0.8515(4)
C11H C 1.3839(4) -0.1371(5) 0.9053(4)
H5H H 1.3728 -0.1588 0.9251
C15H C 1.3988(4) -0.0602(5) 0.8878(4)
H9H H 1.3961 -0.0295 0.8937
C16H C 1.4462(5) -0.2725(5) 0.8739(5)
H10H H 1.4177 -0.2891 0.8710
C17H C 1.4593(7) -0.2128(5) 0.9253(6)
H11H H 1.4378 -0.2047 0.9487
H12H H 1.4790 -0.1873 0.9196
C18H C 1.4714(4) -0.2751(4) 0.8303(5)
C19H C 1.4064(3) -0.1511(4) 0.8697(4)
O4H O 1.3905(2) -0.2144(2) 0.8266(3)
O5H O 1.4908(3) -0.2402(3) 0.8155(3)
O6H O 1.3370(3) -0.0364(4) 0.9538(5)
O7H O 1.3390(4) -0.1032(6) 0.9838(4)
C20H C 1.3499(5) -0.0733(6) 0.9553(6)
C22H C 1.4721(9) -0.2905(6) 0.9142(6)
H14H H 1.4529 -0.3098 0.9324
H15H H 1.4980 -0.3079 0.9042
C23H C 1.4860(9) -0.2536(9) 0.9388(10)
H16H H 1.5179 -0.2481 0.9335
H17H H 1.4818 -0.2594 0.9708
O8H O 1.2854(4) 0.0336(5) 0.9034(4)
Cd1J Cd 0.77607(3) 0.50207(3) 1.02187(3)
O1J O 0.9772(3) 0.8131(3) 1.1873(3)
C2J C 0.8757(4) 0.5934(5) 1.0847(4)
O2J O 0.9424(3) 0.5011(3) 1.1720(3)
C6J C 0.9117(5) 0.6998(5) 1.1402(5)
O3J O 0.9835(3) 0.5573(3) 1.2026(3)
N2J N 0.9369(4) 0.7262(4) 1.1142(4)
C7J C 0.9304(3) 0.6199(3) 1.1552(4)
H3J H 0.9505 0.6299 1.1773
C9J C 0.9520(5) 0.5418(4) 1.1767(4)
C10J C 0.9257(3) 0.5764(4) 1.1485(4)
C11J C 0.8839(4) 0.6371(5) 1.0947(4)
H5J H 0.8728 0.6588 1.0749
C15J C 0.8988(4) 0.5602(5) 1.1122(4)
H9J H 0.8961 0.5295 1.1063
C16J C 0.9462(5) 0.7725(5) 1.1261(5)
H10J H 0.9177 0.7891 1.1290
C17J C 0.9593(7) 0.7128(5) 1.0747(6)
H11J H 0.9378 0.7047 1.0513
H12J H 0.9790 0.6873 1.0804
C18J C 0.9714(4) 0.7751(4) 1.1697(5)
C19J C 0.9064(3) 0.6511(4) 1.1303(4)
O4J O 0.8905(2) 0.7144(2) 1.1734(3)
O5J O 0.9908(3) 0.7402(3) 1.1845(3)
O6J O 0.8370(3) 0.5364(4) 1.0462(5)
O7J O 0.8390(4) 0.6032(6) 1.0162(4)
C20J C 0.8499(5) 0.5733(6) 1.0447(6)
C22J C 0.9721(9) 0.7905(6) 1.0858(6)
H14J H 0.9529 0.8098 1.0676
H15J H 0.9980 0.8079 1.0958
C23J C 0.9860(9) 0.7536(9) 1.0612(10)
H16J H 1.0179 0.7481 1.0665
H17J H 0.9818 0.7594 1.0292
O8J O 0.7854(4) 0.4664(5) 1.0966(4)
C1M C 0.7028(3) 0.2672(4) 0.7320(3)
H1M H 0.6805 0.2691 0.7100
C3M C 0.7368(3) 0.2982(3) 0.7335(3)
C4M C 0.7059(5) 0.3514(5) 0.6779(5)
H2M H 0.6756 0.3433 0.6809
N1M N 0.7638(4) 0.3896(3) 0.6584(3)
N4M N 0.7404(3) 0.3324(3) 0.7018(3)
C13M C 0.7215(5) 0.3837(6) 0.6493(6)
H7M H 0.7049 0.3988 0.6273
C14M C 0.7748(4) 0.3608(5) 0.6909(4)
H8M H 0.8030 0.3601 0.7048
C1S C 0.7328(4) 0.2320(3) 0.7972(3)
H1S H 0.7309 0.2100 0.8195
C3S C 0.7018(3) 0.2335(3) 0.7632(3)
C4S C 0.6486(5) 0.1779(5) 0.7941(5)
H2S H 0.6567 0.1809 0.8244
N1S N 0.6104(3) 0.1584(3) 0.7362(4)
N4S N 0.6676(3) 0.2018(3) 0.7596(3)
C13S C 0.6163(6) 0.1493(6) 0.7785(5)
H7S H 0.6012 0.1273 0.7951
C14S C 0.6392(5) 0.1909(4) 0.7252(4)
H8S H 0.6399 0.2048 0.6970
C1T C 0.7680(3) 0.2972(3) 0.7672(4)
H1T H 0.7900 0.3195 0.7691
C3T C 0.7665(3) 0.2632(3) 0.7982(3)
C4T C 0.8221(5) 0.2941(5) 0.8514(5)
H2T H 0.8191 0.3244 0.8433
N1T N 0.8416(3) 0.2362(4) 0.8896(3)
N4T N 0.7982(3) 0.2596(3) 0.8324(3)
C13T C 0.8507(6) 0.2785(5) 0.8837(6)
H7T H 0.8727 0.2951 0.8988
C14T C 0.8091(4) 0.2252(4) 0.8608(5)
H8T H 0.7952 0.1970 0.8601
C5E C 1.5800(3) 0.4448(3) 0.8806(3)
C8E C 1.6165(3) 0.4499(3) 0.9096(3)
H4E H 1.6379 0.4725 0.9053
N3E N 1.5730(3) 0.4739(3) 0.8431(3)
C12E C 1.5355(4) 0.4802(4) 0.8157(4)
H6E H 1.5082 0.4649 0.8188
C21E C 1.6051(5) 0.5024(6) 0.8243(5)
H13E H 1.6355 0.5045 0.8319
C24E C 1.5841(6) 0.5250(7) 0.7943(7)
H18E H 1.5969 0.5501 0.7804
N5E N 1.5439(4) 0.5113(3) 0.7843(3)
C5J C 1.6194(3) 0.4200(3) 0.9448(3)
C8J C 1.5904(3) 0.3835(3) 0.9499(3)
H4J H 1.5947 0.3621 0.9725
N3J N 1.6569(3) 0.4270(3) 0.9739(3)
C12J C 1.6843(4) 0.4645(4) 0.9802(4)
H6J H 1.6812 0.4918 0.9649
C21J C 1.6757(5) 0.3949(5) 1.0024(6)
H13J H 1.6681 0.3645 1.0045
C24J C 1.7057(7) 0.4159(6) 1.0250(7)
H18J H 1.7196 0.4031 1.0501
N5J N 1.7157(3) 0.4561(4) 1.0113(3)
C5C C 1.5552(3) 0.3806(3) 0.9200(3)
C8C C 1.5501(3) 0.4096(3) 0.8835(3)
H4C H 1.5275 0.4053 0.8621
N3C N 1.5261(3) 0.3431(3) 0.9270(3)
C12C C 1.5198(4) 0.3157(4) 0.9645(4)
H6C H 1.5351 0.3188 0.9918
C21C C 1.4976(6) 0.3243(5) 0.8949(5)
H13C H 1.4955 0.3319 0.8645
C24C C 1.4750(7) 0.2943(7) 0.9159(6)
H18C H 1.4499 0.2804 0.9031
N5C N 1.4887(3) 0.2843(3) 0.9561(4)
Cd1A Cd 1.52187(3) 0.72393(3) 0.49793(3)
Cd1B Cd 1.02187(3) -0.22393(3) 1.50207(3)
Cd1C Cd 1.47813(3) 0.22393(3) 1.00207(3)
Cd1F Cd 1.50207(3) 0.02187(3) 0.77607(3)
Cd1J_2 Cd 1.77607(3) 0.50207(3) 1.02187(3)
Cd1L Cd 1.52607(3) -0.27187(3) 0.75207(3)
Cd1N Cd 1.02607(3) 0.77187(3) 1.24793(3)
Cd1P Cd 1.22813(3) 0.74793(3) 0.47393(3)
Cd1R Cd 1.27187(3) 0.25207(3) 0.97393(3)
Cd1S Cd 0.72813(3) -0.24793(3) 1.52607(3)
Cd1V Cd 0.75207(3) 0.52607(3) 0.72813(3)
Cd2F Cd 0.8750 0.18676(6) 0.93676(6)
Cd2G Cd 1.3750 0.31324(6) 1.06324(6)
Cd2H Cd 1.43676(6) -0.3750 0.81324(6)
Cd2I Cd 0.56324(6) 0.1250 0.68676(6)
Cd2J Cd 0.93676(6) 0.8750 1.18676(6)
Cd2K Cd 1.06324(6) 0.3750 0.31324(6)
O1L O 0.7272(3) 0.5627(3) 1.0631(3)
O1M O 0.7728(3) 0.4373(3) 0.5631(3)
O1N O 1.2272(3) -0.0627(3) 0.9369(3)
O1P O 1.0627(3) 0.4369(3) 1.2728(3)
O1Q O 0.9373(3) -0.0631(3) 1.2272(3)
O1R O 1.4373(3) 0.5631(3) 0.7728(3)
O1T O 0.9369(3) 0.2272(3) 0.9373(3)
O1V O 1.0631(3) 0.7272(3) 0.5627(3)
O1W O 0.5631(3) -0.2272(3) 1.4373(3)
O2C O 1.3280(3) 0.0576(3) 1.0011(3)
O2I O 1.5576(3) 0.4989(3) 0.6720(3)
O2K O 1.0576(3) 0.0011(3) 1.3280(3)
N1D N 0.5916(3) -0.1396(3) 1.4862(4)
N1V N 1.1584(3) 0.7362(4) 0.6104(3)
N1W N 0.6584(3) -0.2362(4) 1.3896(3)
O3C O 1.2974(3) 0.0165(3) 1.0573(3)
O3I O 1.5165(3) 0.4427(3) 0.7026(3)
O3K O 1.0165(3) 0.0573(3) 1.2974(3)
O5L O 0.7408(3) 0.5655(3) 0.9902(3)
O5N O 1.2408(3) -0.0655(3) 1.0098(3)
O5P O 1.0655(3) 0.5098(3) 1.2592(3)
O5Q O 0.9345(3) 0.0098(3) 1.2408(3)
O5R O 1.4345(3) 0.4902(3) 0.7592(3)
O5T O 1.0098(3) 0.2408(3) 0.9345(3)
N5G N 0.9561(4) 0.4887(3) 1.2843(3)
N5J_2 N 0.7157(3) 0.4561(4) 1.0113(3)
O10 O 0.7733(2) 0.5233(2) 0.3750
loop_
_geom_bond_atom_site_label_1
_geom_bond_atom_site_label_2
_geom_bond_site_symmetry_1
_geom_bond_site_symmetry_2
Cd1 O6 1_555 1_555
Cd2 O1 1_555 1_555
O1 C18 1_555 1_555
C1 H1 1_555 1_555
C2 C11 1_555 1_555
C3 C1 1_555 1_555
C4 H2 1_555 1_555
O2 C9 1_555 1_555
N1 Cd2 1_555 1_555
C5 C8 1_555 1_555
C6 N2 1_555 1_555
O3 C9 1_555 1_555
N2 C16 1_555 1_555
C7 H3 1_555 1_555
C8 H4 1_555 1_555
C9 C10 1_555 1_555
C10 C7 1_555 1_555
N3 C5 1_555 1_555
N4 C3 1_555 1_555
C11 H5 1_555 1_555
C12 N3 1_555 1_555
H6 C12 1_555 1_555
C13 C4 1_555 1_555
H7 C13 1_555 1_555
C14 N1 1_555 1_555
H8 C14 1_555 1_555
C15 C2 1_555 1_555
H9 C15 1_555 1_555
C16 H10 1_555 1_555
C17 N2 1_555 1_555
H11 C17 1_555 1_555
H12 C17 1_555 1_555
C18 C16 1_555 1_555
C19 C6 1_555 1_555
O4 C6 1_555 1_555
O5 C18 1_555 1_555
O6 C20 1_555 1_555
O7 C20 1_555 1_555
C20 C2 1_555 1_555
C21 N3 1_555 1_555
H13 C21 1_555 1_555
C22 C16 1_555 1_555
H14 C22 1_555 1_555
H15 C22 1_555 1_555
C23 C17 1_555 1_555
H16 C23 1_555 1_555
H17 C23 1_555 1_555
C24 C21 1_555 1_555
H18 C24 1_555 1_555
N5 Cd1 1_555 1_555
O8 Cd1 1_555 1_555
O9 Cd2 1_555 1_555
C1E H1E 1_555 1_555
C3E C1 1_555 1_555
C4E H2E 1_555 1_555
N1E C13E 1_555 1_555
N4E C3E 1_555 1_555
C13E C4E 1_555 1_555
H7E C13E 1_555 1_555
C14E N1E 1_555 1_555
H8E C14E 1_555 1_555
C1K C3 1_555 1_555
H1K C1K 1_555 1_555
C3K C1E 1_555 1_555
C4K H2K 1_555 1_555
N1K C13K 1_555 1_555
N4K C3K 1_555 1_555
C13K C4K 1_555 1_555
H7K C13K 1_555 1_555
C14K N1K 1_555 1_555
H8K C14K 1_555 1_555
C5D C8 1_555 1_555
C8D C5D 1_555 1_555
H4D C8D 1_555 1_555
N3D C5D 1_555 1_555
C12D N3D 1_555 1_555
H6D C12D 1_555 1_555
C21D N3D 1_555 1_555
H13D C21D 1_555 1_555
C24D C21D 1_555 1_555
H18D C24D 1_555 1_555
N5D C12D 1_555 1_555
C5H C8D 1_555 1_555
C8H C5 1_555 1_555
H4H C8H 1_555 1_555
N3H C5H 1_555 1_555
C12H N3H 1_555 1_555
H6H C12H 1_555 1_555
C21H N3H 1_555 1_555
H13H C21H 1_555 1_555
C24H C21H 1_555 1_555
H18H C24H 1_555 1_555
N5H C12H 1_555 1_555
Cd1D N5D 1_555 1_555
Cd2D O1D 1_555 1_555
O1D C18D 1_555 1_555
C2D C11D 1_555 1_555
O2D C9D 1_555 1_555
C6D N2D 1_555 1_555
O3D C9D 1_555 1_555
N2D C16D 1_555 1_555
C7D H3D 1_555 1_555
C9D C10D 1_555 1_555
C10D C7D 1_555 1_555
C11D H5D 1_555 1_555
C15D C2D 1_555 1_555
H9D C15D 1_555 1_555
C16D H10D 1_555 1_555
C17D N2D 1_555 1_555
H11D C17D 1_555 1_555
H12D C17D 1_555 1_555
C18D C16D 1_555 1_555
C19D C6D 1_555 1_555
O4D C6D 1_555 1_555
O5D C18D 1_555 1_555
O6D Cd1D 1_555 1_555
O7D C20D 1_555 1_555
C20D C2D 1_555 1_555
C22D C16D 1_555 1_555
H14D C22D 1_555 1_555
H15D C22D 1_555 1_555
C23D C17D 1_555 1_555
H16D C23D 1_555 1_555
H17D C23D 1_555 1_555
O8D Cd1D 1_555 1_555
O9D Cd2D 1_555 1_555
Cd1E O6E 1_555 1_555
Cd2E N1E 1_555 1_555
O1E Cd2E 1_555 1_555
C2E C11E 1_555 1_555
O2E C9E 1_555 1_555
C6E N2E 1_555 1_555
O3E C9E 1_555 1_555
N2E C16E 1_555 1_555
C7E H3E 1_555 1_555
C9E C10E 1_555 1_555
C10E C7E 1_555 1_555
C11E H5E 1_555 1_555
C15E C2E 1_555 1_555
H9E C15E 1_555 1_555
C16E H10E 1_555 1_555
C17E N2E 1_555 1_555
H11E C17E 1_555 1_555
H12E C17E 1_555 1_555
C18E O1E 1_555 1_555
C19E C6E 1_555 1_555
O4E C6E 1_555 1_555
O5E C18E 1_555 1_555
O6E C20E 1_555 1_555
O7E C20E 1_555 1_555
C20E C2E 1_555 1_555
C22E C16E 1_555 1_555
H14E C22E 1_555 1_555
H15E C22E 1_555 1_555
C23E C17E 1_555 1_555
H16E C23E 1_555 1_555
H17E C23E 1_555 1_555
O8E Cd1E 1_555 1_555
O9E Cd2E 1_555 1_555
Cd1G O6G 1_555 1_555
O1G C18G 1_555 1_555
C2G C11G 1_555 1_555
O2G Cd1 1_555 1_555
C6G N2G 1_555 1_555
O3G Cd1 1_555 1_555
N2G C16G 1_555 1_555
C7G H3G 1_555 1_555
C9G O2G 1_555 1_555
C10G C7G 1_555 1_555
C11G H5G 1_555 1_555
C15G C2G 1_555 1_555
H9G C15G 1_555 1_555
C16G H10G 1_555 1_555
C17G N2G 1_555 1_555
H11G C17G 1_555 1_555
H12G C17G 1_555 1_555
C18G C16G 1_555 1_555
C19G C6G 1_555 1_555
O4G C6G 1_555 1_555
O5G C18G 1_555 1_555
O6G C20G 1_555 1_555
O7G C20G 1_555 1_555
C20G C2G 1_555 1_555
C22G C16G 1_555 1_555
H14G C22G 1_555 1_555
H15G C22G 1_555 1_555
C23G C17G 1_555 1_555
H16G C23G 1_555 1_555
H17G C23G 1_555 1_555
O8G Cd1G 1_555 1_555
Cd1H N5H 1_555 1_555
O1H C18H 1_555 1_555
C2H C11H 1_555 1_555
O2H C9H 1_555 1_555
C6H N2H 1_555 1_555
O3H C9H 1_555 1_555
N2H C16H 1_555 1_555
C7H H3H 1_555 1_555
C9H C10H 1_555 1_555
C10H C7H 1_555 1_555
C11H H5H 1_555 1_555
C15H C2H 1_555 1_555
H9H C15H 1_555 1_555
C16H H10H 1_555 1_555
C17H N2H 1_555 1_555
H11H C17H 1_555 1_555
H12H C17H 1_555 1_555
C18H C16H 1_555 1_555
C19H C6H 1_555 1_555
O4H C6H 1_555 1_555
O5H C18H 1_555 1_555
O6H Cd1H 1_555 1_555
O7H C20H 1_555 1_555
C20H C2H 1_555 1_555
C22H C16H 1_555 1_555
H14H C22H 1_555 1_555
H15H C22H 1_555 1_555
C23H C17H 1_555 1_555
H16H C23H 1_555 1_555
H17H C23H 1_555 1_555
O8H Cd1H 1_555 1_555
Cd1J O2 1_555 1_555
O1J C18J 1_555 1_555
C2J C11J 1_555 1_555
O2J Cd1G 1_555 1_555
C6J N2J 1_555 1_555
O3J Cd1G 1_555 1_555
N2J C16J 1_555 1_555
C7J H3J 1_555 1_555
C9J O2J 1_555 1_555
C10J C7J 1_555 1_555
C11J H5J 1_555 1_555
C15J C2J 1_555 1_555
H9J C15J 1_555 1_555
C16J H10J 1_555 1_555
C17J N2J 1_555 1_555
H11J C17J 1_555 1_555
H12J C17J 1_555 1_555
C18J C16J 1_555 1_555
C19J C6J 1_555 1_555
O4J C6J 1_555 1_555
O5J C18J 1_555 1_555
O6J Cd1J 1_555 1_555
O7J C20J 1_555 1_555
C20J C2J 1_555 1_555
C22J C16J 1_555 1_555
H14J C22J 1_555 1_555
H15J C22J 1_555 1_555
C23J C17J 1_555 1_555
H16J C23J 1_555 1_555
H17J C23J 1_555 1_555
O8J Cd1J 1_555 1_555
C1M H1M 1_555 1_555
C3M C1M 1_555 1_555
C4M H2M 1_555 1_555
N1M Cd2 1_555 1_555
N4M C3M 1_555 1_555
C13M C4M 1_555 1_555
H7M C13M 1_555 1_555
C14M N1M 1_555 1_555
H8M C14M 1_555 1_555
C1S H1S 1_555 1_555
C3S C1M 1_555 1_555
C4S H2S 1_555 1_555
N1S C13S 1_555 1_555
N4S C3S 1_555 1_555
C13S C4S 1_555 1_555
H7S C13S 1_555 1_555
C14S N1S 1_555 1_555
H8S C14S 1_555 1_555
C1T C3M 1_555 1_555
H1T C1T 1_555 1_555
C3T C1S 1_555 1_555
C4T H2T 1_555 1_555
N1T C13T 1_555 1_555
N4T C3T 1_555 1_555
C13T C4T 1_555 1_555
H7T C13T 1_555 1_555
C14T N1T 1_555 1_555
H8T C14T 1_555 1_555
C5E C8E 1_555 1_555
C8E H4E 1_555 1_555
N3E C5E 1_555 1_555
C12E N3E 1_555 1_555
H6E C12E 1_555 1_555
C21E N3E 1_555 1_555
H13E C21E 1_555 1_555
C24E C21E 1_555 1_555
H18E C24E 1_555 1_555
N5E Cd1E 1_555 1_555
C5J C8E 1_555 1_555
C8J C5J 1_555 1_555
H4J C8J 1_555 1_555
N3J C5J 1_555 1_555
C12J N3J 1_555 1_555
H6J C12J 1_555 1_555
C21J N3J 1_555 1_555
H13J C21J 1_555 1_555
C24J C21J 1_555 1_555
H18J C24J 1_555 1_555
N5J C12J 1_555 1_555
C5C C8J 1_555 1_555
C8C C5E 1_555 1_555
H4C C8C 1_555 1_555
N3C C5C 1_555 1_555
C12C N3C 1_555 1_555
H6C C12C 1_555 1_555
C21C N3C 1_555 1_555
H13C C21C 1_555 1_555
C24C C21C 1_555 1_555
H18C C24C 1_555 1_555
N5C C12C 1_555 1_555
Cd1A O2E 1_555 1_555
Cd1B O2D 1_555 1_555
Cd1C N5C 1_555 1_555
Cd1F O2H 1_555 1_555
Cd1J_2 N5J 1_555 1_555
Cd1L O1H 1_555 1_555
Cd1N O1J 1_555 1_555
Cd1P O1E 1_555 1_555
Cd1R O1G 1_555 1_555
Cd1S O1D 1_555 1_555
Cd1V O1 1_555 1_555
Cd2F N1T 1_555 1_555
Cd2G O1G 1_555 1_555
Cd2H O1H 1_555 1_555
Cd2I N1S 1_555 1_555
Cd2J O1J 1_555 1_555
Cd2K N1K 1_555 1_555
O1L Cd1J 1_555 1_555
O1M Cd2 1_555 1_555
O1N Cd1H 1_555 1_555
O1P Cd1G 1_555 1_555
O1Q Cd1D 1_555 1_555
O1R Cd1E 1_555 1_555
O1T Cd1 1_555 1_555
O1V Cd2E 1_555 1_555
O1W Cd2D 1_555 1_555
O2C Cd1H 1_555 1_555
O2I Cd1E 1_555 1_555
O2K Cd1D 1_555 1_555
N1D Cd2D 1_555 1_555
N1V Cd2E 1_555 1_555
N1W Cd2D 1_555 1_555
O3C Cd1H 1_555 1_555
O3I Cd1E 1_555 1_555
O3K Cd1D 1_555 1_555
O5L Cd1J 1_555 1_555
O5N Cd1H 1_555 1_555
O5P Cd1G 1_555 1_555
O5Q Cd1D 1_555 1_555
O5R Cd1E 1_555 1_555
O5T Cd1 1_555 1_555
N5G Cd1G 1_555 1_555
N5J_2 Cd1J 1_555 1_555
C4 N4 1_555 1_555
N1 C13 1_555 1_555
O3 Cd1J 1_555 1_555
C7 C19 1_555 1_555
C10 C15 1_555 1_555
N4 C14 1_555 1_555
C11 C19 1_555 1_555
C12 N5 1_555 1_555
O5 Cd1V 1_555 1_555
C22 C23 1_555 1_555
C24 N5 1_555 1_555
C1E C3E 1_555 1_555
C4E N4E 1_555 1_555
N4E C14E 1_555 1_555
C1K C3K 1_555 1_555
C4K N4K 1_555 1_555
N4K C14K 1_555 1_555
C24D N5D 1_555 1_555
C5H C8H 1_555 1_555
C24H N5H 1_555 1_555
O3D Cd1B 1_555 1_555
C7D C19D 1_555 1_555
C10D C15D 1_555 1_555
C11D C19D 1_555 1_555
O5D Cd1S 1_555 1_555
O6D C20D 1_555 1_555
C22D C23D 1_555 1_555
O3E Cd1A 1_555 1_555
C7E C19E 1_555 1_555
C10E C15E 1_555 1_555
C11E C19E 1_555 1_555
C16E C18E 1_555 1_555
O5E Cd1P 1_555 1_555
C22E C23E 1_555 1_555
O3G C9G 1_555 1_555
C7G C19G 1_555 1_555
C9G C10G 1_555 1_555
C10G C15G 1_555 1_555
C11G C19G 1_555 1_555
O5G Cd1R 1_555 1_555
C22G C23G 1_555 1_555
O3H Cd1F 1_555 1_555
C7H C19H 1_555 1_555
C10H C15H 1_555 1_555
C11H C19H 1_555 1_555
O5H Cd1L 1_555 1_555
O6H C20H 1_555 1_555
C22H C23H 1_555 1_555
O3J C9J 1_555 1_555
C7J C19J 1_555 1_555
C9J C10J 1_555 1_555
C10J C15J 1_555 1_555
C11J C19J 1_555 1_555
O5J Cd1N 1_555 1_555
O6J C20J 1_555 1_555
C22J C23J 1_555 1_555
C4M N4M 1_555 1_555
N1M C13M 1_555 1_555
N4M C14M 1_555 1_555
C1S C3S 1_555 1_555
C4S N4S 1_555 1_555
N4S C14S 1_555 1_555
C1T C3T 1_555 1_555
C4T N4T 1_555 1_555
N4T C14T 1_555 1_555
C12E N5E 1_555 1_555
C24E N5E 1_555 1_555
C24J N5J 1_555 1_555
C5C C8C 1_555 1_555
C24C N5C 1_555 1_555
Cd2F O1T 1_555 1_555

#END
