
#######################################################################
#
#                 Cambridge Crystallographic Data Centre
#                                CCDC 
#
#######################################################################
#
# If this CIF has been generated from an entry in the Cambridge 
# Structural Database, then it will include bibliographic, chemical, 
# crystal, experimental, refinement or atomic coordinate data resulting 
# from the CCDC's data processing and validation procedures.
#
#######################################################################

data_QOLWIZ
_chemical_formula_moiety         '(C22 H18 N4 O6 Zn1)n,n(C3 H7 N1 O1),2n(H2 O1)'
_chemical_name_systematic        
'catena-((\m~2~-4-((3-((4-Carboxylatophenyl)imino)-3,4-dihydroquinoxalin-2(1H)-ylidene)amino)benzoato)-diaqua-zinc(ii) dimethylformamide solvate dihydrate)'
_symmetry_cell_setting           orthorhombic
_symmetry_space_group_name_H-M   'P n a 21'
_symmetry_Int_Tables_number      33
_space_group_name_Hall           'P 2c -2n'
loop_
_symmetry_equiv_pos_site_id
_symmetry_equiv_pos_as_xyz
1 x,y,z
2 -x,-y,1/2+z
3 1/2-x,1/2+y,1/2+z
4 1/2+x,1/2-y,z
_cell_length_a                   6.7566(14)
_cell_length_b                   23.183(5)
_cell_length_c                   17.755(4)
_cell_angle_alpha                90
_cell_angle_beta                 90
_cell_angle_gamma                90
_cell_volume                     2781.11
_exptl_crystal_colour            white
_exptl_crystal_description       block
_cell_formula_units_Z            4
loop_
_atom_site_label
_atom_site_type_symbol
_atom_site_fract_x
_atom_site_fract_y
_atom_site_fract_z
_atom_site_U_iso_or_equiv
_atom_site_thermal_displace_type
C1 C 0.8053(10) 0.3925(3) 0.9524(3) 0.0643 Uani
C2 C 0.9735(9) 0.4063(3) 0.9110(3) 0.0700 Uani
H1 H 1.0924 0.4136 0.9357 0.0840 Uiso
C3 C 0.9642(8) 0.4090(2) 0.8329(3) 0.0680 Uani
H2 H 1.0767 0.4181 0.8053 0.0820 Uiso
C4 C 0.7866(8) 0.39793(18) 0.7961(3) 0.0587 Uani
C5 C 0.6183(7) 0.3842(2) 0.8375(3) 0.0473 Uani
H3 H 0.4995 0.3768 0.8128 0.0570 Uiso
C6 C 0.6277(9) 0.3815(3) 0.9156(3) 0.0620 Uani
H4 H 0.5151 0.3723 0.9432 0.0740 Uiso
C7 C 0.7454(8) 0.20125(19) 0.6713(3) 0.0760 Uani
H5 H 0.7692 0.1950 0.7223 0.0910 Uiso
C8 C 0.7170(10) 0.1547(2) 0.6232(3) 0.0620 Uani
H6 H 0.7218 0.1173 0.6419 0.0750 Uiso
C9 C 0.6814(8) 0.1641(3) 0.5471(3) 0.0810 Uani
H7 H 0.6623 0.1330 0.5149 0.0970 Uiso
C10 C 0.6742(8) 0.2201(3) 0.5191(3) 0.0613 Uani
H8 H 0.6503 0.2263 0.4682 0.0730 Uiso
C11 C 0.7026(8) 0.2666(2) 0.5672(2) 0.0493 Uani
C12 C 0.7382(6) 0.2572(2) 0.6434(2) 0.0590 Uani
Zn1 Zn 0.7516(2) 0.48366(6) 0.65691(12) 0.0607 Uani
C13 C 0.7553(14) 0.3584(4) 0.6721(7) 0.0497 Uani
N1 N 0.7820(13) 0.4048(5) 0.7132(5) 0.0570 Uani
C14 C 0.5118(19) 0.4889(5) 0.2746(7) 0.0560 Uani
O1 O 0.9719(15) 0.3935(4) 1.0657(5) 0.0883 Uani
O2 O 0.6802(15) 0.5518(5) 0.5854(5) 0.0840 Uani
C15 C 0.5682(10) 0.4727(4) 0.3490(3) 0.0440 Uani
C16 C 0.7619(9) 0.4582(4) 0.3674(4) 0.0657 Uani
H9 H 0.8602 0.4596 0.3307 0.0790 Uiso
C17 C 0.8087(8) 0.4415(4) 0.4404(4) 0.0653 Uani
H10 H 0.9383 0.4319 0.4527 0.0790 Uiso
C18 C 0.6617(11) 0.4394(4) 0.4951(3) 0.0627 Uani
C19 C 0.4680(10) 0.4539(4) 0.4768(4) 0.0573 Uani
H11 H 0.3697 0.4525 0.5134 0.0690 Uiso
C20 C 0.4212(8) 0.4705(4) 0.4037(4) 0.0557 Uani
H12 H 0.2916 0.4802 0.3914 0.0670 Uiso
O3 O 0.3414(15) 0.4790(3) 0.2539(5) 0.0660 Uani
N2 N 0.7570(13) 0.3033(4) 0.6938(6) 0.0570 Uani
H13 H 0.7703 0.2958 0.7409 0.0690 Uiso
C21 C 0.7127(17) 0.3690(5) 0.5883(7) 0.0560 Uani
O4 O 0.6489(14) 0.3849(5) 1.0707(5) 0.0900 Uani
O5 O 0.6321(15) 0.5144(4) 0.2286(5) 0.0850 Uani
N3 N 0.6889(13) 0.3248(4) 0.5468(4) 0.0507 Uani
H14 H 0.6609 0.3315 0.5003 0.0610 Uiso
O6 O 1.0388(11) 0.5079(4) 0.6551(7) 0.0907 Uani
C22 C 0.802(2) 0.3930(7) 1.0359(9) 0.0843 Uani
N4 N 0.6983(16) 0.4243(5) 0.5712(6) 0.0660 Uani
Zn1A Zn 0.2484(2) 0.51634(6) 0.15691(12) 0.0607 Uani
O3A O 0.6586(15) 0.5210(3) 0.7539(5) 0.0660 Uani
loop_
_atom_site_aniso_label
_atom_site_aniso_U_11
_atom_site_aniso_U_22
_atom_site_aniso_U_33
_atom_site_aniso_U_23
_atom_site_aniso_U_13
_atom_site_aniso_U_12
C1 0.077(5) 0.052(5) 0.064(5) -0.007(5) -0.002(5) 0.008(5)
C2 0.081(6) 0.058(6) 0.071(6) -0.010(5) -0.011(5) -0.007(5)
C3 0.068(3) 0.068(3) 0.068(3) 0.0000(10) -0.0001(10) 0.0001(10)
C4 0.059(3) 0.058(3) 0.059(3) -0.0005(10) -0.0001(10) 0.0005(10)
C5 0.048(3) 0.047(3) 0.047(3) -0.0007(10) 0.0003(10) -0.0001(10)
C6 0.062(3) 0.062(3) 0.062(3) 0.0003(10) -0.0002(10) -0.0001(10)
C7 0.047(6) 0.091(10) 0.090(12) 0.013(9) -0.013(7) -0.015(6)
C8 0.062(3) 0.062(3) 0.062(3) 0.0000(10) -0.0002(10) -0.0001(10)
C9 0.081(4) 0.081(4) 0.081(4) -0.0002(10) 0.0004(10) 0.0000(10)
C10 0.035(5) 0.063(8) 0.086(9) 0.017(7) -0.026(6) 0.001(6)
C11 0.049(3) 0.049(3) 0.050(3) 0.0000(10) 0.0003(10) -0.0003(10)
C12 0.059(3) 0.059(3) 0.059(3) -0.0003(10) 0.0005(10) -0.0001(10)
Zn1 0.0707(8) 0.0595(8) 0.0519(7) 0.0034(8) 0.0092(7) -0.0011(7)
C13 0.045(5) 0.039(6) 0.065(10) 0.010(6) 0.012(6) -0.006(5)
N1 0.046(6) 0.098(9) 0.027(4) 0.012(6) 0.011(4) 0.018(6)
C14 0.056 0.056 0.056 0.0001 -0.0001 0.0002
O1 0.088(3) 0.089(3) 0.088(3) -0.0001(10) -0.0012(10) -0.0006(10)
O2 0.100(6) 0.104(8) 0.048(5) 0.010(5) -0.022(5) 0.002(7)
C15 0.044(3) 0.044(3) 0.044(3) -0.0003(10) 0.0000(10) 0.0000(10)
C16 0.064(5) 0.066(5) 0.067(5) 0.002(5) -0.001(4) 0.010(5)
C17 0.069(5) 0.063(5) 0.064(5) 0.002(5) 0.004(5) 0.006(5)
C18 0.064(5) 0.062(5) 0.062(5) -0.005(5) 0.003(5) 0.006(5)
C19 0.058(2) 0.057(3) 0.057(2) 0.0000(10) 0.0006(10) 0.0000(10)
C20 0.056(3) 0.055(3) 0.056(3) 0.0006(10) -0.0001(10) -0.0003(10)
O3 0.088 0.053 0.057 -0.002 -0.011 0.005
N2 0.064(6) 0.055(6) 0.052(5) 0.000(5) 0.020(5) 0.009(5)
C21 0.056(3) 0.056(3) 0.056(3) -0.0003(10) 0.0003(10) 0.0002(10)
O4 0.083(6) 0.125(9) 0.062(5) 0.012(6) 0.006(5) 0.044(6)
O5 0.096 0.084 0.075 0.014 0.012 0.024
N3 0.058(5) 0.077(7) 0.017(4) -0.002(4) -0.009(4) 0.002(5)
O6 0.056(5) 0.125(8) 0.091(6) 0.030(7) -0.022(6) -0.013(5)
C22 0.085(3) 0.084(3) 0.084(3) 0.0001(10) 0.0009(10) 0.0002(10)
N4 0.062(6) 0.077(8) 0.059(7) -0.007(6) 0.005(5) -0.022(6)
Zn1A 0.0707 0.0595 0.0519 -0.0034 -0.0092 -0.0011
O3A 0.088 0.053 0.057 0.002 0.011 0.005
loop_
_geom_bond_atom_site_label_1
_geom_bond_atom_site_label_2
_geom_bond_site_symmetry_1
_geom_bond_site_symmetry_2
C1 C2 1_555 1_555
C2 H1 1_555 1_555
C3 C2 1_555 1_555
H2 C3 1_555 1_555
C4 C3 1_555 1_555
C5 C4 1_555 1_555
H3 C5 1_555 1_555
C6 C1 1_555 1_555
H4 C6 1_555 1_555
C7 H5 1_555 1_555
C8 C7 1_555 1_555
H6 C8 1_555 1_555
C9 C8 1_555 1_555
H7 C9 1_555 1_555
C10 C9 1_555 1_555
H8 C10 1_555 1_555
C11 C10 1_555 1_555
C12 C7 1_555 1_555
Zn1 N1 1_555 1_555
C13 N1 1_555 1_555
N1 C4 1_555 1_555
C14 C15 1_555 1_555
O1 C22 1_555 1_555
O2 Zn1 1_555 1_555
C15 C16 1_555 1_555
C16 H9 1_555 1_555
C17 C16 1_555 1_555
H10 C17 1_555 1_555
C18 C17 1_555 1_555
C19 C18 1_555 1_555
H11 C19 1_555 1_555
C20 C15 1_555 1_555
H12 C20 1_555 1_555
O3 C14 1_555 1_555
N2 C12 1_555 1_555
H13 N2 1_555 1_555
C21 C13 1_555 1_555
O4 C22 1_555 1_555
O5 C14 1_555 1_555
N3 C11 1_555 1_555
H14 N3 1_555 1_555
O6 Zn1 1_555 1_555
C22 C1 1_555 1_555
N4 Zn1 1_555 1_555
Zn1A O3 1_555 1_555
O3A Zn1 1_555 1_555
C5 C6 1_555 1_555
C11 C12 1_555 1_555
C13 N2 1_555 1_555
C18 N4 1_555 1_555
C19 C20 1_555 1_555
C21 N3 1_555 1_555
C21 N4 1_555 1_555

#END
