
#######################################################################
#
#                 Cambridge Crystallographic Data Centre
#                                CCDC 
#
#######################################################################
#
# If this CIF has been generated from an entry in the Cambridge 
# Structural Database, then it will include bibliographic, chemical, 
# crystal, experimental, refinement or atomic coordinate data resulting 
# from the CCDC's data processing and validation procedures.
#
#######################################################################

data_AHOLAM
_chemical_formula_moiety         '(C42 H30 Cu3 N3 O21 P3)n'
_chemical_name_systematic        
"catena-[(\m-4,4',4'',4''',4'''',4'''''-(1,3,5,2,4,6-triazatriphosphinine-2,2,4,4,6,6-hexaylhexakis(oxy))hexabenzoato)-tri-copper unknown solvate]"
_symmetry_cell_setting           triclinic
_symmetry_space_group_name_H-M   'P -1'
_symmetry_Int_Tables_number      2
_space_group_name_Hall           '-P 1'
loop_
_symmetry_equiv_pos_site_id
_symmetry_equiv_pos_as_xyz
1 x,y,z
2 -x,-y,-z
_cell_length_a                   12.6305(12)
_cell_length_b                   14.5753(7)
_cell_length_c                   22.114(3)
_cell_angle_alpha                93.228(6)
_cell_angle_beta                 100.746(9)
_cell_angle_gamma                98.776(6)
_cell_volume                     3937.73
_exptl_crystal_colour            blue
_exptl_crystal_description       block
_cell_formula_units_Z            2
loop_
_atom_site_label
_atom_site_type_symbol
_atom_site_fract_x
_atom_site_fract_y
_atom_site_fract_z
O1 O 0.1286(9) 0.4391(8) 0.0628(5)
C1 C 0.0515(13) 0.3891(11) 0.0799(8)
Cu1 Cu -0.35453(14) 0.54721(10) 0.44246(10)
Cu2 Cu -0.39166(14) 0.53177(11) 0.32199(10)
Cu3 Cu 0.10488(17) -0.47381(11) -0.00021(10)
N1 N 0.0311(9) 0.0993(7) 0.3019(6)
N2 N 0.1301(9) 0.0415(7) 0.4068(6)
N3 N 0.1714(8) -0.0266(7) 0.3012(5)
O2 O -0.2179(7) 0.5042(6) 0.4375(5)
O3 O -0.2641(7) 0.4648(6) 0.3342(5)
O4 O 0.0856(7) 0.2039(5) 0.4041(5)
O5 O 0.3205(6) 0.0058(5) 0.3954(4)
O6 O 0.5139(7) 0.4131(5) 0.3294(4)
O7 O 0.5718(7) 0.4188(5) 0.4332(5)
O8 O 0.1589(7) 0.0926(6) 0.2211(5)
O9 O -0.0527(8) 0.3951(7) 0.0627(5)
O10 O -0.0668(7) 0.0807(5) 0.3927(5)
O11 O -0.2890(8) -0.3279(5) 0.4344(4)
O12 O -0.2967(7) -0.3479(6) 0.3302(4)
O13 O 0.1738(7) -0.1230(5) 0.3962(4)
O14 O 0.4990(7) -0.4125(5) 0.4288(5)
O15 O 0.4886(9) -0.3967(6) 0.3271(5)
O16 O -0.0055(7) -0.0295(6) 0.2151(5)
O17 O -0.0864(8) -0.4219(6) 0.0615(5)
O18 O 0.0976(8) -0.3789(6) 0.0607(6)
P1 P 0.0485(2) 0.10221(18) 0.37446(17)
P2 P 0.0900(3) 0.0341(2) 0.26313(17)
P3 P 0.1939(2) -0.02210(18) 0.37269(18)
C2 C -0.2056(9) 0.4618(8) 0.3876(7)
C3 C -0.1242(4) 0.4011(4) 0.3898(3)
C4 C -0.0723(4) 0.3803(4) 0.4473(3)
H1 H -0.0854 0.4093 0.4831
C5 C -0.0008(4) 0.3163(3) 0.4514(2)
H2 H 0.0340 0.3024 0.4898
C6 C 0.0188(3) 0.2729(3) 0.3979(2)
C7 C -0.0332(3) 0.2937(3) 0.3403(2)
H3 H -0.0201 0.2647 0.3045
C8 C -0.1047(3) 0.3577(3) 0.3363(2)
H4 H -0.1395 0.3716 0.2978
C9 C 0.1287(4) 0.1698(3) 0.18936(18)
C10 C 0.0213(4) 0.1760(4) 0.17107(18)
H5 H -0.0332 0.1326 0.1813
C11 C -0.0053(4) 0.2514(4) 0.13558(18)
H6 H -0.0777 0.2591 0.1236
C12 C 0.0744(5) 0.3107(5) 0.11979(19)
C13 C 0.1864(5) 0.3038(4) 0.1410(2)
H7 H 0.2406 0.3480 0.1314
C14 C 0.2161(4) 0.2315(4) 0.17616(19)
H8 H 0.2886 0.2249 0.1897
C15 C 0.3663(4) 0.0987(3) 0.3915(2)
C16 C 0.3870(3) 0.1261(3) 0.3351(2)
H9 H 0.3706 0.0831 0.3006
C17 C 0.4323(3) 0.2179(3) 0.3302(2)
H10 H 0.4462 0.2362 0.2925
C18 C 0.4568(3) 0.2821(3) 0.3818(2)
C19 C 0.4361(3) 0.2547(4) 0.4382(2)
H11 H 0.4525 0.2977 0.4727
C20 C 0.3908(4) 0.1629(4) 0.4431(2)
H12 H 0.3769 0.1446 0.4808
C21 C 0.5192(11) 0.3821(8) 0.3829(7)
C22 C -0.1129(7) -0.0166(4) 0.3897(4)
C23 C -0.1243(7) -0.0572(4) 0.4440(3)
H13 H -0.0984 -0.0226 0.4820
C24 C -0.1743(7) -0.1495(5) 0.4416(3)
H14 H -0.1819 -0.1767 0.4780
C25 C -0.2130(6) -0.2012(4) 0.3849(4)
C26 C -0.2016(7) -0.1606(5) 0.3306(3)
H15 H -0.2274 -0.1952 0.2927
C27 C -0.1516(7) -0.0683(5) 0.3330(3)
H16 H -0.1440 -0.0411 0.2966
C28 C -0.2690(9) -0.3007(8) 0.3843(7)
C29 C 0.2375(6) -0.1896(5) 0.3860(4)
C30 C 0.2686(7) -0.2386(5) 0.4367(3)
H17 H 0.2433 -0.2277 0.4729
C31 C 0.3375(7) -0.3037(5) 0.4333(3)
H18 H 0.3582 -0.3365 0.4673
C32 C 0.3753(6) -0.3199(5) 0.3792(4)
C33 C 0.3442(7) -0.2710(5) 0.3285(3)
H19 H 0.3695 -0.2818 0.2923
C34 C 0.2753(7) -0.2059(5) 0.3319(3)
H20 H 0.2546 -0.1731 0.2979
C35 C 0.4605(10) -0.3829(8) 0.3792(6)
C36 C 0.0036(8) -0.1128(5) 0.1853(5)
C37 C -0.0911(7) -0.1788(7) 0.1697(5)
H21 H -0.1546 -0.1676 0.1822
C38 C -0.0909(6) -0.2615(6) 0.1352(5)
H22 H -0.1543 -0.3056 0.1247
C39 C 0.0040(7) -0.2782(5) 0.1164(4)
C40 C 0.0987(6) -0.2122(6) 0.1321(5)
H23 H 0.1621 -0.2234 0.1195
C41 C 0.0984(7) -0.1295(5) 0.1665(5)
H24 H 0.1618 -0.0854 0.1770
C42 C 0.0108(18) -0.3645(8) 0.0766(7)
O19 O -0.4210(7) 0.5204(6) 0.2244(5)
O20 O -0.3296(7) 0.5515(5) 0.5403(4)
O21 O 0.2762(10) -0.4285(8) -0.0015(6)
O1_2 O 0.1286(9) -0.5609(8) 0.0628(5)
Cu1_2 Cu -0.35453(14) -0.45279(10) 0.44246(10)
Cu1_3 Cu 0.64547(14) -0.45279(10) 0.44246(10)
Cu1_4 Cu 0.64547(14) 0.54721(10) 0.44246(10)
Cu2_2 Cu -0.39166(14) -0.46823(11) 0.32199(10)
Cu2_3 Cu 0.60834(14) -0.46823(11) 0.32199(10)
Cu2_4 Cu 0.60834(14) 0.53177(11) 0.32199(10)
Cu3_2 Cu 0.10488(17) 0.52619(11) -0.00021(10)
Cu3A Cu -0.10488(17) -0.52619(11) 0.00021(10)
Cu3A_2 Cu -0.10488(17) 0.47381(11) 0.00021(10)
O6_2 O -0.4861(7) 0.4131(5) 0.3294(4)
O7_2 O -0.4282(7) 0.4188(5) 0.4332(5)
O9A O 0.0527(8) -0.3951(7) -0.0627(5)
O11_2 O -0.2890(8) 0.6721(5) 0.4344(4)
O12_2 O -0.2967(7) 0.6521(6) 0.3302(4)
O14_2 O -0.5010(7) 0.5875(5) 0.4288(5)
O15_2 O -0.5114(9) 0.6033(6) 0.3271(5)
O17A O 0.0864(8) -0.5781(6) -0.0615(5)
loop_
_geom_bond_atom_site_label_1
_geom_bond_atom_site_label_2
_geom_bond_site_symmetry_1
_geom_bond_site_symmetry_2
O1 C1 1_555 1_555
C1 O9 1_555 1_555
Cu1 O2 1_555 1_555
Cu2 O3 1_555 1_555
Cu3 O18 1_555 1_555
N1 P1 1_555 1_555
N2 P1 1_555 1_555
N3 P2 1_555 1_555
O2 C2 1_555 1_555
O3 C2 1_555 1_555
O4 P1 1_555 1_555
O5 P3 1_555 1_555
O6 C21 1_555 1_555
O7 C21 1_555 1_555
O8 P2 1_555 1_555
O9 Cu3A_2 1_555 1_555
O10 P1 1_555 1_555
O11 C28 1_555 1_555
O12 C28 1_555 1_555
O13 P3 1_555 1_555
O14 C35 1_555 1_555
O15 C35 1_555 1_555
O16 P2 1_555 1_555
O17 C42 1_555 1_555
O18 C42 1_555 1_555
P2 N1 1_555 1_555
P3 N2 1_555 1_555
C2 C3 1_555 1_555
C3 C4 1_555 1_555
C4 H1 1_555 1_555
C5 C4 1_555 1_555
H2 C5 1_555 1_555
C6 O4 1_555 1_555
C7 C6 1_555 1_555
H3 C7 1_555 1_555
C8 C3 1_555 1_555
H4 C8 1_555 1_555
C9 O8 1_555 1_555
C10 C9 1_555 1_555
H5 C10 1_555 1_555
C11 C10 1_555 1_555
H6 C11 1_555 1_555
C12 C1 1_555 1_555
C13 C12 1_555 1_555
H7 C13 1_555 1_555
C14 C9 1_555 1_555
H8 C14 1_555 1_555
C15 O5 1_555 1_555
C16 C15 1_555 1_555
H9 C16 1_555 1_555
C17 C16 1_555 1_555
H10 C17 1_555 1_555
C18 C17 1_555 1_555
C19 C18 1_555 1_555
H11 C19 1_555 1_555
C20 C15 1_555 1_555
H12 C20 1_555 1_555
C21 C18 1_555 1_555
C22 O10 1_555 1_555
C23 C22 1_555 1_555
H13 C23 1_555 1_555
C24 C23 1_555 1_555
H14 C24 1_555 1_555
C25 C24 1_555 1_555
C26 C25 1_555 1_555
H15 C26 1_555 1_555
C27 C22 1_555 1_555
H16 C27 1_555 1_555
C28 C25 1_555 1_555
C29 O13 1_555 1_555
C30 C29 1_555 1_555
H17 C30 1_555 1_555
C31 C30 1_555 1_555
H18 C31 1_555 1_555
C32 C31 1_555 1_555
C33 C32 1_555 1_555
H19 C33 1_555 1_555
C34 C29 1_555 1_555
H20 C34 1_555 1_555
C35 C32 1_555 1_555
C36 O16 1_555 1_555
C37 C36 1_555 1_555
H21 C37 1_555 1_555
C38 C37 1_555 1_555
H22 C38 1_555 1_555
C39 C38 1_555 1_555
C40 C39 1_555 1_555
H23 C40 1_555 1_555
C41 C36 1_555 1_555
H24 C41 1_555 1_555
C42 C39 1_555 1_555
O19 Cu2 1_555 1_555
O20 Cu1 1_555 1_555
O21 Cu3 1_555 1_555
O1_2 Cu3 1_555 1_555
Cu1_2 O11 1_555 1_555
Cu1_3 O14 1_555 1_555
Cu1_4 O7 1_555 1_555
Cu2_2 O12 1_555 1_555
Cu2_3 O15 1_555 1_555
Cu2_4 O6 1_555 1_555
Cu3_2 O1 1_555 1_555
Cu3A O17 1_555 1_555
O6_2 Cu2 1_555 1_555
O7_2 Cu1 1_555 1_555
O9A Cu3 1_555 1_555
O11_2 Cu1 1_555 1_555
O12_2 Cu2 1_555 1_555
O14_2 Cu1 1_555 1_555
O15_2 Cu2 1_555 1_555
O17A Cu3 1_555 1_555
N3 P3 1_555 1_555
C5 C6 1_555 1_555
C7 C8 1_555 1_555
C11 C12 1_555 1_555
C13 C14 1_555 1_555
C19 C20 1_555 1_555
C26 C27 1_555 1_555
C33 C34 1_555 1_555
C40 C41 1_555 1_555

#END
