
#######################################################################
#
#                 Cambridge Crystallographic Data Centre
#                                CCDC 
#
#######################################################################
#
# If this CIF has been generated from an entry in the Cambridge 
# Structural Database, then it will include bibliographic, chemical, 
# crystal, experimental, refinement or atomic coordinate data resulting 
# from the CCDC's data processing and validation procedures.
#
#######################################################################

data_SENVIR
_chemical_formula_moiety         
'(H3 O1 1+)6n,n(C192 H96 Co12 N24 O51 6-),24n(C2 H6 O1 S1),15n(H2 O1)'
_chemical_name_systematic        
"catena-(Hexaoxonium octakis(\m~6~-4,4',4''-s-triazine-2,4,6-triyltribenzoate)-tris(\m~4~-oxo)-dodeca-cobalt pentadecahydrate dimethylsulfoxide solvate)"
_symmetry_cell_setting           cubic
_symmetry_space_group_name_H-M   'I m -3 m'
_symmetry_Int_Tables_number      229
_space_group_name_Hall           '-I 4 2 3'
loop_
_symmetry_equiv_pos_site_id
_symmetry_equiv_pos_as_xyz
1 x,y,z
2 z,x,y
3 y,z,x
4 y,x,-z
5 y,-x,z
6 -y,x,z
7 x,z,-y
8 -x,z,y
9 x,-z,y
10 z,y,-x
11 z,-y,x
12 -z,y,x
13 1/2+x,1/2+y,1/2+z
14 1/2+z,1/2+x,1/2+y
15 1/2+y,1/2+z,1/2+x
16 1/2+y,1/2+x,1/2-z
17 1/2+y,1/2-x,1/2+z
18 1/2-y,1/2+x,1/2+z
19 1/2+x,1/2+z,1/2-y
20 1/2-x,1/2+z,1/2+y
21 1/2+x,1/2-z,1/2+y
22 1/2+z,1/2+y,1/2-x
23 1/2+z,1/2-y,1/2+x
24 1/2-z,1/2+y,1/2+x
25 -x,-y,z
26 -x,y,-z
27 x,-y,-z
28 z,-x,-y
29 -z,-x,y
30 -z,x,-y
31 -y,z,-x
32 y,-z,-x
33 -y,-z,x
34 -y,-x,-z
35 -x,-z,-y
36 -z,-y,-x
37 1/2-x,1/2-y,1/2+z
38 1/2-x,1/2+y,1/2-z
39 1/2+x,1/2-y,1/2-z
40 1/2+z,1/2-x,1/2-y
41 1/2-z,1/2-x,1/2+y
42 1/2-z,1/2+x,1/2-y
43 1/2-y,1/2+z,1/2-x
44 1/2+y,1/2-z,1/2-x
45 1/2-y,1/2-z,1/2+x
46 1/2-y,1/2-x,1/2-z
47 1/2-x,1/2-z,1/2-y
48 1/2-z,1/2-y,1/2-x
49 -x,-y,-z
50 -z,-x,-y
51 -y,-z,-x
52 -y,-x,z
53 -y,x,-z
54 y,-x,-z
55 -x,-z,y
56 x,-z,-y
57 -x,z,-y
58 -z,-y,x
59 -z,y,-x
60 z,-y,-x
61 1/2-x,1/2-y,1/2-z
62 1/2-z,1/2-x,1/2-y
63 1/2-y,1/2-z,1/2-x
64 1/2-y,1/2-x,1/2+z
65 1/2-y,1/2+x,1/2-z
66 1/2+y,1/2-x,1/2-z
67 1/2-x,1/2-z,1/2+y
68 1/2+x,1/2-z,1/2-y
69 1/2-x,1/2+z,1/2-y
70 1/2-z,1/2-y,1/2+x
71 1/2-z,1/2+y,1/2-x
72 1/2+z,1/2-y,1/2-x
73 x,y,-z
74 x,-y,z
75 -x,y,z
76 -z,x,y
77 z,x,-y
78 z,-x,y
79 y,-z,x
80 -y,z,x
81 y,z,-x
82 y,x,z
83 x,z,y
84 z,y,x
85 1/2+x,1/2+y,1/2-z
86 1/2+x,1/2-y,1/2+z
87 1/2-x,1/2+y,1/2+z
88 1/2-z,1/2+x,1/2+y
89 1/2+z,1/2+x,1/2-y
90 1/2+z,1/2-x,1/2+y
91 1/2+y,1/2-z,1/2+x
92 1/2-y,1/2+z,1/2+x
93 1/2+y,1/2+z,1/2-x
94 1/2+y,1/2+x,1/2+z
95 1/2+x,1/2+z,1/2+y
96 1/2+z,1/2+y,1/2+x
_cell_length_a                   25.4387(5)
_cell_length_b                   25.4387(5)
_cell_length_c                   25.4387(5)
_cell_angle_alpha                90
_cell_angle_beta                 90
_cell_angle_gamma                90
_cell_volume                     16462.1
_exptl_crystal_colour            violet
_exptl_crystal_description       block
_cell_formula_units_Z            2
loop_
_atom_site_label
_atom_site_type_symbol
_atom_site_fract_x
_atom_site_fract_y
_atom_site_fract_z
Co1 Co 0.5000 0.00000(7) -0.4076
O1 O 0.4465(2) 0.3897(4) -0.0527(3)
O2 O 0.5000 0.0000 -0.5000
N1 N 0.3329(3) 0.2682(3) -0.2682(3)
C1 C 0.4080(3) 0.4080(3) -0.0720(4)
C2 C 0.3840(3) 0.3840(3) -0.1191(3)
C3 C 0.4053(3) 0.3382(3) -0.1384(3)
H1 H 0.4369 0.3248 -0.1258
C4 C 0.3766(3) 0.3129(3) -0.1781(3)
H2 H 0.3858 0.2787 -0.1872
C5 C 0.3361(3) 0.3361(3) -0.2037(4)
C6 C 0.3093(3) 0.3093(3) -0.2477(4)
Co1WB Co 0.4076 0.5000 0.00000(7)
Co1H Co 0.5000 0.4076 0.00000(7)
Co1K Co 0.4076 0.00000(7) -0.5000
Co1ZB Co 0.00000(7) 0.4076 -0.5000
Co1D Co 0.00000(7) 0.5000 -0.4076
Co1TB Co 0.5000 0.00000(7) -0.5924
Co1I Co 0.5924 0.00000(7) -0.5000
O1CC O 0.3897(4) 0.4465(2) -0.0527(3)
O1CB O 0.4465(2) 0.0527(3) -0.3897(4)
O1EA O 0.3897(4) 0.0527(3) -0.4465(2)
O1FB O 0.0527(3) 0.3897(4) -0.4465(2)
O1CA O 0.0527(3) 0.4465(2) -0.3897(4)
O1F O 0.4465(2) -0.0527(3) -0.3897(4)
O1DB O 0.5535(2) -0.0527(3) -0.3897(4)
O1HA O 0.5535(2) 0.0527(3) -0.3897(4)
N1CC N 0.2682(3) 0.3329(3) -0.2682(3)
N1FB N 0.2682(3) 0.2682(3) -0.3329(3)
C1CB C 0.4080(3) 0.0720(4) -0.4080(3)
C1FB C 0.0720(4) 0.4080(3) -0.4080(3)
C2CB C 0.3840(3) 0.1191(3) -0.3840(3)
C2FB C 0.1191(3) 0.3840(3) -0.3840(3)
C3CC C 0.3382(3) 0.4053(3) -0.1384(3)
C3CB C 0.4053(3) 0.1384(3) -0.3382(3)
C3EA C 0.3382(3) 0.1384(3) -0.4053(3)
C3FB C 0.1384(3) 0.3382(3) -0.4053(3)
C3CA C 0.1384(3) 0.4053(3) -0.3382(3)
H1CC H 0.3248 0.4369 -0.1258
H1CB H 0.4369 0.1258 -0.3248
H1EA H 0.3248 0.1258 -0.4369
H1FB H 0.1258 0.3248 -0.4369
H1CA H 0.1258 0.4369 -0.3248
C4CC C 0.3129(3) 0.3766(3) -0.1781(3)
C4CB C 0.3766(3) 0.1781(3) -0.3129(3)
C4EA C 0.3129(3) 0.1781(3) -0.3766(3)
C4FB C 0.1781(3) 0.3129(3) -0.3766(3)
C4CA C 0.1781(3) 0.3766(3) -0.3129(3)
H2CC H 0.2787 0.3858 -0.1872
H2CB H 0.3858 0.1872 -0.2787
H2EA H 0.2787 0.1872 -0.3858
H2FB H 0.1872 0.2787 -0.3858
H2CA H 0.1872 0.3858 -0.2787
C5CB C 0.3361(3) 0.2037(4) -0.3361(3)
C5FB C 0.2037(4) 0.3361(3) -0.3361(3)
C6CB C 0.3093(3) 0.2477(4) -0.3093(3)
C6FB C 0.2477(4) 0.3093(3) -0.3093(3)
C1DB C 0.5920(3) -0.0720(4) -0.4080(3)
C2DB C 0.6160(3) -0.1191(3) -0.3840(3)
O1DA O 0.6103(4) -0.0527(3) -0.4465(2)
C3DB C 0.5947(3) -0.1384(3) -0.3382(3)
C3DA C 0.6618(3) -0.1384(3) -0.4053(3)
H1DB H 0.5631 -0.1258 -0.3248
C4DB C 0.6234(3) -0.1781(3) -0.3129(3)
H1DA H 0.6752 -0.1258 -0.4369
C4DA C 0.6871(3) -0.1781(3) -0.3766(3)
H2DB H 0.6142 -0.1872 -0.2787
C5DB C 0.6639(3) -0.2037(4) -0.3361(3)
H2DA H 0.7213 -0.1872 -0.3858
C6DB C 0.6907(3) -0.2477(4) -0.3093(3)
N1DB N 0.6671(3) -0.2682(3) -0.2682(3)
N1DA N 0.7318(3) -0.2682(3) -0.3329(3)
C6YA C 0.6907(3) -0.3093(3) -0.2477(4)
C6AA C 0.7523(4) -0.3093(3) -0.3093(3)
N1YA N 0.7318(3) -0.3329(3) -0.2682(3)
C5YA C 0.6639(3) -0.3361(3) -0.2037(4)
C5AA C 0.7963(4) -0.3361(3) -0.3361(3)
C4YA C 0.6871(3) -0.3766(3) -0.1781(3)
C4X C 0.6234(3) -0.3129(3) -0.1781(3)
C4AA C 0.8219(3) -0.3766(3) -0.3129(3)
C4GB C 0.8219(3) -0.3129(3) -0.3766(3)
C3YA C 0.6618(3) -0.4053(3) -0.1384(3)
H2YA H 0.7213 -0.3858 -0.1872
C3X C 0.5947(3) -0.3382(3) -0.1384(3)
H2X H 0.6142 -0.2787 -0.1872
C3AA C 0.8616(3) -0.4053(3) -0.3382(3)
H2AA H 0.8128 -0.3858 -0.2787
C3GB C 0.8616(3) -0.3382(3) -0.4053(3)
H2GB H 0.8128 -0.2787 -0.3858
C2YA C 0.6160(3) -0.3840(3) -0.1191(3)
H1YA H 0.6752 -0.4369 -0.1258
H1X H 0.5631 -0.3248 -0.1258
C2AA C 0.8809(3) -0.3840(3) -0.3840(3)
H1AA H 0.8742 -0.4369 -0.3248
H1GB H 0.8742 -0.3248 -0.4369
C1YA C 0.5920(3) -0.4080(3) -0.0720(4)
C1AA C 0.9280(4) -0.4080(3) -0.4080(3)
O1YA O 0.6103(4) -0.4465(2) -0.0527(3)
O1X O 0.5535(2) -0.3897(4) -0.0527(3)
O1AA O 0.9473(3) -0.4465(2) -0.3897(4)
O1GB O 0.9473(3) -0.3897(4) -0.4465(2)
Co1YB Co 0.5924 -0.5000 0.00000(7)
Co1G Co 0.5000 -0.4076 0.00000(7)
Co1D_2 Co 1.00000(7) -0.5000 -0.4076
Co1BC Co 1.00000(7) -0.4076 -0.5000
O1G O 0.5535(2) -0.0527(3) -0.6103(4)
O1H O 0.4465(2) 0.0527(3) -0.6103(4)
O1BB O 0.5535(2) 0.0527(3) -0.6103(4)
O1DC O 0.4465(2) -0.0527(3) -0.6103(4)
C1G C 0.5920(3) -0.0720(4) -0.5920(3)
C2G C 0.6160(3) -0.1191(3) -0.6160(3)
O1AC O 0.6103(4) -0.0527(3) -0.5535(2)
C3G C 0.5947(3) -0.1384(3) -0.6618(3)
C3AC C 0.6618(3) -0.1384(3) -0.5947(3)
H1G H 0.5631 -0.1258 -0.6752
C4G C 0.6234(3) -0.1781(3) -0.6871(3)
H1AC H 0.6752 -0.1258 -0.5631
C4AC C 0.6871(3) -0.1781(3) -0.6234(3)
H2G H 0.6142 -0.1872 -0.7213
C5G C 0.6639(3) -0.2037(4) -0.6639(3)
H2AC H 0.7213 -0.1872 -0.6142
C6G C 0.6907(3) -0.2477(4) -0.6907(3)
N1G N 0.6671(3) -0.2682(3) -0.7318(3)
N1AC N 0.7318(3) -0.2682(3) -0.6671(3)
C6GA C 0.6907(3) -0.3093(3) -0.7523(4)
C6YB C 0.7523(4) -0.3093(3) -0.6907(3)
N1GA N 0.7318(3) -0.3329(3) -0.7318(3)
C5GA C 0.6639(3) -0.3361(3) -0.7963(4)
C5YB C 0.7963(4) -0.3361(3) -0.6639(3)
C4GA C 0.6871(3) -0.3766(3) -0.8219(3)
C4VA C 0.6234(3) -0.3129(3) -0.8219(3)
C4YB C 0.8219(3) -0.3766(3) -0.6871(3)
C4J C 0.8219(3) -0.3129(3) -0.6234(3)
C3GA C 0.6618(3) -0.4053(3) -0.8616(3)
H2GA H 0.7213 -0.3858 -0.8128
C3VA C 0.5947(3) -0.3382(3) -0.8616(3)
H2VA H 0.6142 -0.2787 -0.8128
C3YB C 0.8616(3) -0.4053(3) -0.6618(3)
H2YB H 0.8128 -0.3858 -0.7213
C3J C 0.8616(3) -0.3382(3) -0.5947(3)
H2J H 0.8128 -0.2787 -0.6142
C2GA C 0.6160(3) -0.3840(3) -0.8809(3)
H1GA H 0.6752 -0.4369 -0.8742
H1VA H 0.5631 -0.3248 -0.8742
C2YB C 0.8809(3) -0.3840(3) -0.6160(3)
H1YB H 0.8742 -0.4369 -0.6752
H1J H 0.8742 -0.3248 -0.5631
C1GA C 0.5920(3) -0.4080(3) -0.9280(4)
C1YB C 0.9280(4) -0.4080(3) -0.5920(3)
O1GA O 0.6103(4) -0.4465(2) -0.9473(3)
O1VA O 0.5535(2) -0.3897(4) -0.9473(3)
O1YB O 0.9473(3) -0.4465(2) -0.6103(4)
O1J O 0.9473(3) -0.3897(4) -0.5535(2)
Co1AA Co 0.5924 -0.5000 -1.00000(7)
Co1DB Co 0.5000 -0.4076 -1.00000(7)
Co1AB Co 1.00000(7) -0.5000 -0.5924
C1H C 0.4080(3) 0.0720(4) -0.5920(3)
C2H C 0.3840(3) 0.1191(3) -0.6160(3)
O1ZB O 0.3897(4) 0.0527(3) -0.5535(2)
C3H C 0.4053(3) 0.1384(3) -0.6618(3)
C3ZB C 0.3382(3) 0.1384(3) -0.5947(3)
H1H H 0.4369 0.1258 -0.6752
C4H C 0.3766(3) 0.1781(3) -0.6871(3)
H1ZB H 0.3248 0.1258 -0.5631
C4ZB C 0.3129(3) 0.1781(3) -0.6234(3)
H2H H 0.3858 0.1872 -0.7213
C5H C 0.3361(3) 0.2037(4) -0.6639(3)
H2ZB H 0.2787 0.1872 -0.6142
C6H C 0.3093(3) 0.2477(4) -0.6907(3)
N1H N 0.3329(3) 0.2682(3) -0.7318(3)
N1ZB N 0.2682(3) 0.2682(3) -0.6671(3)
C6C C 0.3093(3) 0.3093(3) -0.7523(4)
C6WB C 0.2477(4) 0.3093(3) -0.6907(3)
N1C N 0.2682(3) 0.3329(3) -0.7318(3)
C5C C 0.3361(3) 0.3361(3) -0.7963(4)
C5WB C 0.2037(4) 0.3361(3) -0.6639(3)
C4C C 0.3129(3) 0.3766(3) -0.8219(3)
C4TB C 0.3766(3) 0.3129(3) -0.8219(3)
C4WB C 0.1781(3) 0.3766(3) -0.6871(3)
C4K C 0.1781(3) 0.3129(3) -0.6234(3)
C3C C 0.3382(3) 0.4053(3) -0.8616(3)
H2C H 0.2787 0.3858 -0.8128
C3TB C 0.4053(3) 0.3382(3) -0.8616(3)
H2TB H 0.3858 0.2787 -0.8128
C3WB C 0.1384(3) 0.4053(3) -0.6618(3)
H2WB H 0.1872 0.3858 -0.7213
C3K C 0.1384(3) 0.3382(3) -0.5947(3)
H2K H 0.1872 0.2787 -0.6142
C2C C 0.3840(3) 0.3840(3) -0.8809(3)
H1C H 0.3248 0.4369 -0.8742
H1TB H 0.4369 0.3248 -0.8742
C2WB C 0.1191(3) 0.3840(3) -0.6160(3)
H1WB H 0.1258 0.4369 -0.6752
H1K H 0.1258 0.3248 -0.5631
C1C C 0.4080(3) 0.4080(3) -0.9280(4)
C1WB C 0.0720(4) 0.4080(3) -0.5920(3)
O1C O 0.3897(4) 0.4465(2) -0.9473(3)
O1TB O 0.4465(2) 0.3897(4) -0.9473(3)
O1WB O 0.0527(3) 0.4465(2) -0.6103(4)
O1K O 0.0527(3) 0.3897(4) -0.5535(2)
Co1CA Co 0.4076 0.5000 -1.00000(7)
Co1CB Co 0.5000 0.4076 -1.00000(7)
Co1ZA Co 0.00000(7) 0.5000 -0.5924
O1I O -0.0527(3) 0.3897(4) -0.4465(2)
O1EC O -0.0527(3) 0.3897(4) -0.5535(2)
O2B O 0.0000 0.5000 -0.5000
Co1B Co 0.00000(7) 0.5924 -0.5000
O1J_2 O -0.0527(3) 0.6103(4) -0.5535(2)
O1IA O 0.0527(3) 0.6103(4) -0.4465(2)
O1EB O 0.0527(3) 0.6103(4) -0.5535(2)
O1GB_2 O -0.0527(3) 0.6103(4) -0.4465(2)
O1AA_2 O -0.0527(3) 0.5535(2) -0.3897(4)
O1WA O 0.0527(3) 0.5535(2) -0.3897(4)
O1XB O -0.0527(3) 0.4465(2) -0.3897(4)
O1A O -0.0527(3) 0.4465(2) -0.6103(4)
O1BA O 0.0527(3) 0.5535(2) -0.6103(4)
O1YB_2 O -0.0527(3) 0.5535(2) -0.6103(4)
C1XB C -0.0720(4) 0.4080(3) -0.4080(3)
C2XB C -0.1191(3) 0.3840(3) -0.3840(3)
C3XB C -0.1384(3) 0.4053(3) -0.3382(3)
C3I C -0.1384(3) 0.3382(3) -0.4053(3)
H1XB H -0.1258 0.4369 -0.3248
C4XB C -0.1781(3) 0.3766(3) -0.3129(3)
H1I H -0.1258 0.3248 -0.4369
C4I C -0.1781(3) 0.3129(3) -0.3766(3)
H2XB H -0.1872 0.3858 -0.2787
C5XB C -0.2037(4) 0.3361(3) -0.3361(3)
H2I H -0.1872 0.2787 -0.3858
C6XB C -0.2477(4) 0.3093(3) -0.3093(3)
N1XB N -0.2682(3) 0.3329(3) -0.2682(3)
N1I N -0.2682(3) 0.2682(3) -0.3329(3)
C6VB C -0.3093(3) 0.3093(3) -0.2477(4)
C6HA C -0.3093(3) 0.2477(4) -0.3093(3)
N1VB N -0.3329(3) 0.2682(3) -0.2682(3)
C5VB C -0.3361(3) 0.3361(3) -0.2037(4)
C5HA C -0.3361(3) 0.2037(4) -0.3361(3)
C4VB C -0.3766(3) 0.3129(3) -0.1781(3)
C4E C -0.3129(3) 0.3766(3) -0.1781(3)
C4HA C -0.3766(3) 0.1781(3) -0.3129(3)
C4XA C -0.3129(3) 0.1781(3) -0.3766(3)
C3VB C -0.4053(3) 0.3382(3) -0.1384(3)
H2VB H -0.3858 0.2787 -0.1872
C3E C -0.3382(3) 0.4053(3) -0.1384(3)
H2E H -0.2787 0.3858 -0.1872
C3HA C -0.4053(3) 0.1384(3) -0.3382(3)
H2HA H -0.3858 0.1872 -0.2787
C3XA C -0.3382(3) 0.1384(3) -0.4053(3)
H2XA H -0.2787 0.1872 -0.3858
C2VB C -0.3840(3) 0.3840(3) -0.1191(3)
H1VB H -0.4369 0.3248 -0.1258
H1E H -0.3248 0.4369 -0.1258
C2HA C -0.3840(3) 0.1191(3) -0.3840(3)
H1HA H -0.4369 0.1258 -0.3248
H1XA H -0.3248 0.1258 -0.4369
C1VB C -0.4080(3) 0.4080(3) -0.0720(4)
C1HA C -0.4080(3) 0.0720(4) -0.4080(3)
O1VB O -0.4465(2) 0.3897(4) -0.0527(3)
O1E O -0.3897(4) 0.4465(2) -0.0527(3)
O1HA_2 O -0.4465(2) 0.0527(3) -0.3897(4)
O1XA O -0.3897(4) 0.0527(3) -0.4465(2)
Co1BB Co -0.5000 0.4076 0.00000(7)
Co1A Co -0.4076 0.5000 0.00000(7)
Co1X Co -0.5000 0.00000(7) -0.4076
Co1GB Co -0.4076 0.00000(7) -0.5000
C1A C -0.0720(4) 0.4080(3) -0.5920(3)
C2A C -0.1191(3) 0.3840(3) -0.6160(3)
C3A C -0.1384(3) 0.4053(3) -0.6618(3)
C3EC C -0.1384(3) 0.3382(3) -0.5947(3)
H1A H -0.1258 0.4369 -0.6752
C4A C -0.1781(3) 0.3766(3) -0.6871(3)
H1EC H -0.1258 0.3248 -0.5631
C4EC C -0.1781(3) 0.3129(3) -0.6234(3)
H2A H -0.1872 0.3858 -0.7213
C5A C -0.2037(4) 0.3361(3) -0.6639(3)
H2EC H -0.1872 0.2787 -0.6142
C6A C -0.2477(4) 0.3093(3) -0.6907(3)
N1A N -0.2682(3) 0.3329(3) -0.7318(3)
N1EC N -0.2682(3) 0.2682(3) -0.6671(3)
C6Y C -0.3093(3) 0.3093(3) -0.7523(4)
C6BB C -0.3093(3) 0.2477(4) -0.6907(3)
N1Y N -0.3329(3) 0.2682(3) -0.7318(3)
C5Y C -0.3361(3) 0.3361(3) -0.7963(4)
C5BB C -0.3361(3) 0.2037(4) -0.6639(3)
C4Y C -0.3766(3) 0.3129(3) -0.8219(3)
C4ZA C -0.3129(3) 0.3766(3) -0.8219(3)
C4BB C -0.3766(3) 0.1781(3) -0.6871(3)
C4FA C -0.3129(3) 0.1781(3) -0.6234(3)
C3Y C -0.4053(3) 0.3382(3) -0.8616(3)
H2Y H -0.3858 0.2787 -0.8128
C3ZA C -0.3382(3) 0.4053(3) -0.8616(3)
H2ZA H -0.2787 0.3858 -0.8128
C3BB C -0.4053(3) 0.1384(3) -0.6618(3)
H2BB H -0.3858 0.1872 -0.7213
C3FA C -0.3382(3) 0.1384(3) -0.5947(3)
H2FA H -0.2787 0.1872 -0.6142
C2Y C -0.3840(3) 0.3840(3) -0.8809(3)
H1Y H -0.4369 0.3248 -0.8742
H1ZA H -0.3248 0.4369 -0.8742
C2BB C -0.3840(3) 0.1191(3) -0.6160(3)
H1BB H -0.4369 0.1258 -0.6752
H1FA H -0.3248 0.1258 -0.5631
C1Y C -0.4080(3) 0.4080(3) -0.9280(4)
C1BB C -0.4080(3) 0.0720(4) -0.5920(3)
O1Y O -0.4465(2) 0.3897(4) -0.9473(3)
O1ZA O -0.3897(4) 0.4465(2) -0.9473(3)
O1BB_2 O -0.4465(2) 0.0527(3) -0.6103(4)
O1FA O -0.3897(4) 0.0527(3) -0.5535(2)
Co1HA Co -0.5000 0.4076 -1.00000(7)
Co1XB Co -0.4076 0.5000 -1.00000(7)
Co1VA Co -0.5000 0.00000(7) -0.5924
O1DA_2 O -0.3897(4) -0.0527(3) -0.4465(2)
O1AC_2 O -0.3897(4) -0.0527(3) -0.5535(2)
O2_2 O -0.5000 0.0000 -0.5000
O1F_2 O -0.5535(2) -0.0527(3) -0.3897(4)
O1CB_2 O -0.5535(2) 0.0527(3) -0.3897(4)
O1DB_2 O -0.4465(2) -0.0527(3) -0.3897(4)
O1G_2 O -0.4465(2) -0.0527(3) -0.6103(4)
O1H_2 O -0.5535(2) 0.0527(3) -0.6103(4)
O1DC_2 O -0.5535(2) -0.0527(3) -0.6103(4)
Co1K_2 Co -0.5924 0.00000(7) -0.5000
O1B O -0.6103(4) -0.0527(3) -0.5535(2)
O1EA_2 O -0.6103(4) 0.0527(3) -0.4465(2)
O1ZB_2 O -0.6103(4) 0.0527(3) -0.5535(2)
O1BC O -0.6103(4) -0.0527(3) -0.4465(2)
C1H_2 C -0.5920(3) 0.0720(4) -0.5920(3)
C1F C -0.5920(3) -0.0720(4) -0.4080(3)
C2H_2 C -0.6160(3) 0.1191(3) -0.6160(3)
C2F C -0.6160(3) -0.1191(3) -0.3840(3)
C3H_2 C -0.5947(3) 0.1384(3) -0.6618(3)
C3ZB_2 C -0.6618(3) 0.1384(3) -0.5947(3)
C3F C -0.5947(3) -0.1384(3) -0.3382(3)
C3BC C -0.6618(3) -0.1384(3) -0.4053(3)
H1H_2 H -0.5631 0.1258 -0.6752
C4H_2 C -0.6234(3) 0.1781(3) -0.6871(3)
H1ZB_2 H -0.6752 0.1258 -0.5631
C4ZB_2 C -0.6871(3) 0.1781(3) -0.6234(3)
H1F H -0.5631 -0.1258 -0.3248
C4F C -0.6234(3) -0.1781(3) -0.3129(3)
H1BC H -0.6752 -0.1258 -0.4369
C4BC C -0.6871(3) -0.1781(3) -0.3766(3)
H2H_2 H -0.6142 0.1872 -0.7213
C5H_2 C -0.6639(3) 0.2037(4) -0.6639(3)
H2ZB_2 H -0.7213 0.1872 -0.6142
H2F H -0.6142 -0.1872 -0.2787
C5F C -0.6639(3) -0.2037(4) -0.3361(3)
H2BC H -0.7213 -0.1872 -0.3858
C6H_2 C -0.6907(3) 0.2477(4) -0.6907(3)
C6F C -0.6907(3) -0.2477(4) -0.3093(3)
N1H_2 N -0.6671(3) 0.2682(3) -0.7318(3)
N1ZB_2 N -0.7318(3) 0.2682(3) -0.6671(3)
N1F N -0.6671(3) -0.2682(3) -0.2682(3)
N1BC N -0.7318(3) -0.2682(3) -0.3329(3)
C6C_2 C -0.6907(3) 0.3093(3) -0.7523(4)
C6WB_2 C -0.7523(4) 0.3093(3) -0.6907(3)
C6D C -0.6907(3) -0.3093(3) -0.2477(4)
C6WA C -0.7523(4) -0.3093(3) -0.3093(3)
N1C_2 N -0.7318(3) 0.3329(3) -0.7318(3)
C5C_2 C -0.6639(3) 0.3361(3) -0.7963(4)
C5WB_2 C -0.7963(4) 0.3361(3) -0.6639(3)
N1D N -0.7318(3) -0.3329(3) -0.2682(3)
C5D C -0.6639(3) -0.3361(3) -0.2037(4)
C5WA C -0.7963(4) -0.3361(3) -0.3361(3)
C4C_2 C -0.6871(3) 0.3766(3) -0.8219(3)
C4TB_2 C -0.6234(3) 0.3129(3) -0.8219(3)
C4WB_2 C -0.8219(3) 0.3766(3) -0.6871(3)
C4K_2 C -0.8219(3) 0.3129(3) -0.6234(3)
C4D C -0.6871(3) -0.3766(3) -0.1781(3)
C4UB C -0.6234(3) -0.3129(3) -0.1781(3)
C4WA C -0.8219(3) -0.3766(3) -0.3129(3)
C4IA C -0.8219(3) -0.3129(3) -0.3766(3)
C3C_2 C -0.6618(3) 0.4053(3) -0.8616(3)
H2C_2 H -0.7213 0.3858 -0.8128
C3TB_2 C -0.5947(3) 0.3382(3) -0.8616(3)
H2TB_2 H -0.6142 0.2787 -0.8128
C3WB_2 C -0.8616(3) 0.4053(3) -0.6618(3)
H2WB_2 H -0.8128 0.3858 -0.7213
C3K_2 C -0.8616(3) 0.3382(3) -0.5947(3)
H2K_2 H -0.8128 0.2787 -0.6142
C3D C -0.6618(3) -0.4053(3) -0.1384(3)
H2D H -0.7213 -0.3858 -0.1872
C3UB C -0.5947(3) -0.3382(3) -0.1384(3)
H2UB H -0.6142 -0.2787 -0.1872
C3WA C -0.8616(3) -0.4053(3) -0.3382(3)
H2WA H -0.8128 -0.3858 -0.2787
C3IA C -0.8616(3) -0.3382(3) -0.4053(3)
H2IA H -0.8128 -0.2787 -0.3858
C2C_2 C -0.6160(3) 0.3840(3) -0.8809(3)
H1C_2 H -0.6752 0.4369 -0.8742
H1TB_2 H -0.5631 0.3248 -0.8742
C2WB_2 C -0.8809(3) 0.3840(3) -0.6160(3)
H1WB_2 H -0.8742 0.4369 -0.6752
H1K_2 H -0.8742 0.3248 -0.5631
C2D C -0.6160(3) -0.3840(3) -0.1191(3)
H1D H -0.6752 -0.4369 -0.1258
H1UB H -0.5631 -0.3248 -0.1258
C2WA C -0.8809(3) -0.3840(3) -0.3840(3)
H1WA H -0.8742 -0.4369 -0.3248
H1IA H -0.8742 -0.3248 -0.4369
C1C_2 C -0.5920(3) 0.4080(3) -0.9280(4)
C1WB_2 C -0.9280(4) 0.4080(3) -0.5920(3)
C1D C -0.5920(3) -0.4080(3) -0.0720(4)
C1WA C -0.9280(4) -0.4080(3) -0.4080(3)
O1C_2 O -0.6103(4) 0.4465(2) -0.9473(3)
O1TB_2 O -0.5535(2) 0.3897(4) -0.9473(3)
O1WB_2 O -0.9473(3) 0.4465(2) -0.6103(4)
O1K_2 O -0.9473(3) 0.3897(4) -0.5535(2)
O1D O -0.6103(4) -0.4465(2) -0.0527(3)
O1UB O -0.5535(2) -0.3897(4) -0.0527(3)
O1WA_2 O -0.9473(3) -0.4465(2) -0.3897(4)
O1IA_2 O -0.9473(3) -0.3897(4) -0.4465(2)
Co1CA_2 Co -0.5924 0.5000 -1.00000(7)
Co1ZA_2 Co -1.00000(7) 0.5000 -0.5924
Co1FA Co -1.00000(7) 0.4076 -0.5000
Co1BA Co -0.5924 -0.5000 0.00000(7)
Co1DC Co -0.5000 -0.4076 0.00000(7)
Co1YA Co -1.00000(7) -0.5000 -0.4076
Co1DA Co -1.00000(7) -0.4076 -0.5000
O1B_2 O 0.3897(4) -0.0527(3) -0.5535(2)
O1BC_2 O 0.3897(4) -0.0527(3) -0.4465(2)
O1FA_2 O 0.6103(4) 0.0527(3) -0.5535(2)
O1XA_2 O 0.6103(4) 0.0527(3) -0.4465(2)
loop_
_geom_bond_atom_site_label_1
_geom_bond_atom_site_label_2
_geom_bond_site_symmetry_1
_geom_bond_site_symmetry_2
Co1 O2 1_555 1_555
O1 C1 1_555 1_555
O2 Co1K 1_555 1_555
N1 C6 1_555 1_555
C1 C2 1_555 1_555
C2 C3 1_555 1_555
C3 H1 1_555 1_555
C4 C3 1_555 1_555
H2 C4 1_555 1_555
C5 C4 1_555 1_555
C6 C5 1_555 1_555
Co1WB O1CC 1_555 1_555
Co1H O1 1_555 1_555
Co1K O1EA 1_555 1_555
Co1ZB O1FB 1_555 1_555
Co1D O1CA 1_555 1_555
Co1TB O2 1_555 1_555
Co1I O2 1_555 1_555
O1CC C1 1_555 1_555
O1CB Co1 1_555 1_555
O1EA C1CB 1_555 1_555
O1FB C1FB 1_555 1_555
O1CA C1FB 1_555 1_555
O1F Co1 1_555 1_555
O1DB Co1 1_555 1_555
O1HA Co1 1_555 1_555
N1CC C6 1_555 1_555
N1FB C6CB 1_555 1_555
C1CB O1CB 1_555 1_555
C1FB C2FB 1_555 1_555
C2CB C1CB 1_555 1_555
C2FB C3FB 1_555 1_555
C3CC C2 1_555 1_555
C3CB C2CB 1_555 1_555
C3EA C2CB 1_555 1_555
C3FB H1FB 1_555 1_555
C3CA C2FB 1_555 1_555
H1CC C3CC 1_555 1_555
H1CB C3CB 1_555 1_555
H1EA C3EA 1_555 1_555
H1CA C3CA 1_555 1_555
C4CC C5 1_555 1_555
C4CB C3CB 1_555 1_555
C4EA C3EA 1_555 1_555
C4FB C3FB 1_555 1_555
C4CA C3CA 1_555 1_555
H2CC C4CC 1_555 1_555
H2CB C4CB 1_555 1_555
H2EA C4EA 1_555 1_555
H2FB C4FB 1_555 1_555
H2CA C4CA 1_555 1_555
C5CB C4CB 1_555 1_555
C5FB C4FB 1_555 1_555
C6CB N1 1_555 1_555
C6FB N1CC 1_555 1_555
C1DB O1DB 1_555 1_555
C2DB C1DB 1_555 1_555
O1DA Co1I 1_555 1_555
C3DB C2DB 1_555 1_555
C3DA C2DB 1_555 1_555
H1DB C3DB 1_555 1_555
C4DB C3DB 1_555 1_555
H1DA C3DA 1_555 1_555
C4DA C3DA 1_555 1_555
H2DB C4DB 1_555 1_555
C5DB C4DB 1_555 1_555
H2DA C4DA 1_555 1_555
C6DB C5DB 1_555 1_555
N1DB C6DB 1_555 1_555
N1DA C6DB 1_555 1_555
C6YA N1DB 1_555 1_555
C6AA N1DA 1_555 1_555
N1YA C6YA 1_555 1_555
C5YA C6YA 1_555 1_555
C5AA C6AA 1_555 1_555
C4YA C5YA 1_555 1_555
C4X C5YA 1_555 1_555
C4AA C5AA 1_555 1_555
C4GB C5AA 1_555 1_555
C3YA C4YA 1_555 1_555
H2YA C4YA 1_555 1_555
C3X C4X 1_555 1_555
H2X C4X 1_555 1_555
C3AA C4AA 1_555 1_555
H2AA C4AA 1_555 1_555
C3GB C4GB 1_555 1_555
H2GB C4GB 1_555 1_555
C2YA C3YA 1_555 1_555
H1YA C3YA 1_555 1_555
H1X C3X 1_555 1_555
C2AA C3AA 1_555 1_555
H1AA C3AA 1_555 1_555
H1GB C3GB 1_555 1_555
C1YA C2YA 1_555 1_555
C1AA C2AA 1_555 1_555
O1YA C1YA 1_555 1_555
O1X C1YA 1_555 1_555
O1AA C1AA 1_555 1_555
O1GB C1AA 1_555 1_555
Co1YB O1YA 1_555 1_555
Co1G O1X 1_555 1_555
Co1D_2 O1AA 1_555 1_555
Co1BC O1GB 1_555 1_555
O1G Co1TB 1_555 1_555
O1H Co1TB 1_555 1_555
O1BB Co1TB 1_555 1_555
O1DC Co1TB 1_555 1_555
C1G O1G 1_555 1_555
C2G C1G 1_555 1_555
O1AC Co1I 1_555 1_555
C3G C2G 1_555 1_555
C3AC C2G 1_555 1_555
H1G C3G 1_555 1_555
C4G C3G 1_555 1_555
H1AC C3AC 1_555 1_555
C4AC C3AC 1_555 1_555
H2G C4G 1_555 1_555
C5G C4G 1_555 1_555
H2AC C4AC 1_555 1_555
C6G C5G 1_555 1_555
N1G C6G 1_555 1_555
N1AC C6G 1_555 1_555
C6GA N1G 1_555 1_555
C6YB N1AC 1_555 1_555
N1GA C6GA 1_555 1_555
C5GA C6GA 1_555 1_555
C5YB C6YB 1_555 1_555
C4GA C5GA 1_555 1_555
C4VA C5GA 1_555 1_555
C4YB C5YB 1_555 1_555
C4J C5YB 1_555 1_555
C3GA C4GA 1_555 1_555
H2GA C4GA 1_555 1_555
C3VA C4VA 1_555 1_555
H2VA C4VA 1_555 1_555
C3YB C4YB 1_555 1_555
H2YB C4YB 1_555 1_555
C3J C4J 1_555 1_555
H2J C4J 1_555 1_555
C2GA C3GA 1_555 1_555
H1GA C3GA 1_555 1_555
H1VA C3VA 1_555 1_555
C2YB C3YB 1_555 1_555
H1YB C3YB 1_555 1_555
H1J C3J 1_555 1_555
C1GA C2GA 1_555 1_555
C1YB C2YB 1_555 1_555
O1GA C1GA 1_555 1_555
O1VA C1GA 1_555 1_555
O1YB C1YB 1_555 1_555
O1J Co1BC 1_555 1_555
Co1AA O1GA 1_555 1_555
Co1DB O1VA 1_555 1_555
Co1AB O1YB 1_555 1_555
C1H O1H 1_555 1_555
C2H C1H 1_555 1_555
O1ZB Co1K 1_555 1_555
C3H C2H 1_555 1_555
C3ZB C2H 1_555 1_555
H1H C3H 1_555 1_555
C4H C3H 1_555 1_555
H1ZB C3ZB 1_555 1_555
C4ZB C3ZB 1_555 1_555
H2H C4H 1_555 1_555
C5H C4H 1_555 1_555
H2ZB C4ZB 1_555 1_555
C6H C5H 1_555 1_555
N1H C6H 1_555 1_555
N1ZB C6H 1_555 1_555
C6C N1H 1_555 1_555
C6WB N1ZB 1_555 1_555
N1C C6C 1_555 1_555
C5C C6C 1_555 1_555
C5WB C6WB 1_555 1_555
C4C C5C 1_555 1_555
C4TB C5C 1_555 1_555
C4WB C5WB 1_555 1_555
C4K C5WB 1_555 1_555
C3C C4C 1_555 1_555
H2C C4C 1_555 1_555
C3TB C4TB 1_555 1_555
H2TB C4TB 1_555 1_555
C3WB C4WB 1_555 1_555
H2WB C4WB 1_555 1_555
C3K C4K 1_555 1_555
H2K C4K 1_555 1_555
C2C C3C 1_555 1_555
H1C C3C 1_555 1_555
H1TB C3TB 1_555 1_555
C2WB C3WB 1_555 1_555
H1WB C3WB 1_555 1_555
H1K C3K 1_555 1_555
C1C C2C 1_555 1_555
C1WB C2WB 1_555 1_555
O1C C1C 1_555 1_555
O1TB C1C 1_555 1_555
O1WB C1WB 1_555 1_555
O1K Co1ZB 1_555 1_555
Co1CA O1C 1_555 1_555
Co1CB O1TB 1_555 1_555
Co1ZA O1WB 1_555 1_555
O1I Co1ZB 1_555 1_555
O1EC Co1ZB 1_555 1_555
O2B Co1ZB 1_555 1_555
Co1B O2B 1_555 1_555
O1J_2 Co1B 1_555 1_555
O1IA Co1B 1_555 1_555
O1EB Co1B 1_555 1_555
O1GB_2 Co1B 1_555 1_555
O1AA_2 Co1D 1_555 1_555
O1WA Co1D 1_555 1_555
O1XB Co1D 1_555 1_555
O1A Co1ZA 1_555 1_555
O1BA Co1ZA 1_555 1_555
O1YB_2 Co1ZA 1_555 1_555
C1XB O1I 1_555 1_555
C2XB C1XB 1_555 1_555
C3XB C2XB 1_555 1_555
C3I C2XB 1_555 1_555
H1XB C3XB 1_555 1_555
C4XB C3XB 1_555 1_555
H1I C3I 1_555 1_555
C4I C3I 1_555 1_555
H2XB C4XB 1_555 1_555
C5XB C4XB 1_555 1_555
H2I C4I 1_555 1_555
C6XB C5XB 1_555 1_555
N1XB C6XB 1_555 1_555
N1I C6XB 1_555 1_555
C6VB N1XB 1_555 1_555
C6HA N1I 1_555 1_555
N1VB C6VB 1_555 1_555
C5VB C6VB 1_555 1_555
C5HA C6HA 1_555 1_555
C4VB C5VB 1_555 1_555
C4E C5VB 1_555 1_555
C4HA C5HA 1_555 1_555
C4XA C5HA 1_555 1_555
C3VB C4VB 1_555 1_555
H2VB C4VB 1_555 1_555
C3E C4E 1_555 1_555
H2E C4E 1_555 1_555
C3HA C4HA 1_555 1_555
H2HA C4HA 1_555 1_555
C3XA C4XA 1_555 1_555
H2XA C4XA 1_555 1_555
C2VB C3VB 1_555 1_555
H1VB C3VB 1_555 1_555
H1E C3E 1_555 1_555
C2HA C3HA 1_555 1_555
H1HA C3HA 1_555 1_555
H1XA C3XA 1_555 1_555
C1VB C2VB 1_555 1_555
C1HA C2HA 1_555 1_555
O1VB C1VB 1_555 1_555
O1E C1VB 1_555 1_555
O1HA_2 C1HA 1_555 1_555
O1XA C1HA 1_555 1_555
Co1BB O1VB 1_555 1_555
Co1A O1E 1_555 1_555
Co1X O1HA_2 1_555 1_555
Co1GB O1XA 1_555 1_555
C1A O1EC 1_555 1_555
C2A C1A 1_555 1_555
C3A C2A 1_555 1_555
C3EC C2A 1_555 1_555
H1A C3A 1_555 1_555
C4A C3A 1_555 1_555
H1EC C3EC 1_555 1_555
C4EC C3EC 1_555 1_555
H2A C4A 1_555 1_555
C5A C4A 1_555 1_555
H2EC C4EC 1_555 1_555
C6A C5A 1_555 1_555
N1A C6A 1_555 1_555
N1EC C6A 1_555 1_555
C6Y N1A 1_555 1_555
C6BB N1EC 1_555 1_555
N1Y C6Y 1_555 1_555
C5Y C6Y 1_555 1_555
C5BB C6BB 1_555 1_555
C4Y C5Y 1_555 1_555
C4ZA C5Y 1_555 1_555
C4BB C5BB 1_555 1_555
C4FA C5BB 1_555 1_555
C3Y C4Y 1_555 1_555
H2Y C4Y 1_555 1_555
C3ZA C4ZA 1_555 1_555
H2ZA C4ZA 1_555 1_555
C3BB C4BB 1_555 1_555
H2BB C4BB 1_555 1_555
C3FA C4FA 1_555 1_555
H2FA C4FA 1_555 1_555
C2Y C3Y 1_555 1_555
H1Y C3Y 1_555 1_555
H1ZA C3ZA 1_555 1_555
C2BB C3BB 1_555 1_555
H1BB C3BB 1_555 1_555
H1FA C3FA 1_555 1_555
C1Y C2Y 1_555 1_555
C1BB C2BB 1_555 1_555
O1Y C1Y 1_555 1_555
O1ZA C1Y 1_555 1_555
O1BB_2 C1BB 1_555 1_555
O1FA Co1GB 1_555 1_555
Co1HA O1Y 1_555 1_555
Co1XB O1ZA 1_555 1_555
Co1VA O1BB_2 1_555 1_555
O1DA_2 Co1GB 1_555 1_555
O1AC_2 Co1GB 1_555 1_555
O2_2 Co1X 1_555 1_555
O1F_2 Co1X 1_555 1_555
O1CB_2 Co1X 1_555 1_555
O1DB_2 Co1X 1_555 1_555
O1G_2 Co1VA 1_555 1_555
O1H_2 Co1VA 1_555 1_555
O1DC_2 Co1VA 1_555 1_555
Co1K_2 O2_2 1_555 1_555
O1B Co1K_2 1_555 1_555
O1EA_2 Co1K_2 1_555 1_555
O1ZB_2 Co1K_2 1_555 1_555
O1BC Co1K_2 1_555 1_555
C1H_2 O1H_2 1_555 1_555
C1F O1F_2 1_555 1_555
C2H_2 C1H_2 1_555 1_555
C2F C1F 1_555 1_555
C3H_2 C2H_2 1_555 1_555
C3ZB_2 C2H_2 1_555 1_555
C3F C2F 1_555 1_555
C3BC C2F 1_555 1_555
H1H_2 C3H_2 1_555 1_555
C4H_2 C3H_2 1_555 1_555
H1ZB_2 C3ZB_2 1_555 1_555
C4ZB_2 C3ZB_2 1_555 1_555
H1F C3F 1_555 1_555
C4F C3F 1_555 1_555
H1BC C3BC 1_555 1_555
C4BC C3BC 1_555 1_555
H2H_2 C4H_2 1_555 1_555
C5H_2 C4H_2 1_555 1_555
H2ZB_2 C4ZB_2 1_555 1_555
H2F C4F 1_555 1_555
C5F C4F 1_555 1_555
H2BC C4BC 1_555 1_555
C6H_2 C5H_2 1_555 1_555
C6F C5F 1_555 1_555
N1H_2 C6H_2 1_555 1_555
N1ZB_2 C6H_2 1_555 1_555
N1F C6F 1_555 1_555
N1BC C6F 1_555 1_555
C6C_2 N1H_2 1_555 1_555
C6WB_2 N1ZB_2 1_555 1_555
C6D N1F 1_555 1_555
C6WA N1BC 1_555 1_555
N1C_2 C6C_2 1_555 1_555
C5C_2 C6C_2 1_555 1_555
C5WB_2 C6WB_2 1_555 1_555
N1D C6D 1_555 1_555
C5D C6D 1_555 1_555
C5WA C6WA 1_555 1_555
C4C_2 C5C_2 1_555 1_555
C4TB_2 C5C_2 1_555 1_555
C4WB_2 C5WB_2 1_555 1_555
C4K_2 C5WB_2 1_555 1_555
C4D C5D 1_555 1_555
C4UB C5D 1_555 1_555
C4WA C5WA 1_555 1_555
C4IA C5WA 1_555 1_555
C3C_2 C4C_2 1_555 1_555
H2C_2 C4C_2 1_555 1_555
C3TB_2 C4TB_2 1_555 1_555
H2TB_2 C4TB_2 1_555 1_555
C3WB_2 C4WB_2 1_555 1_555
H2WB_2 C4WB_2 1_555 1_555
C3K_2 C4K_2 1_555 1_555
H2K_2 C4K_2 1_555 1_555
C3D C4D 1_555 1_555
H2D C4D 1_555 1_555
C3UB C4UB 1_555 1_555
H2UB C4UB 1_555 1_555
C3WA C4WA 1_555 1_555
H2WA C4WA 1_555 1_555
C3IA C4IA 1_555 1_555
H2IA C4IA 1_555 1_555
C2C_2 C3C_2 1_555 1_555
H1C_2 C3C_2 1_555 1_555
H1TB_2 C3TB_2 1_555 1_555
C2WB_2 C3WB_2 1_555 1_555
H1WB_2 C3WB_2 1_555 1_555
H1K_2 C3K_2 1_555 1_555
C2D C3D 1_555 1_555
H1D C3D 1_555 1_555
H1UB C3UB 1_555 1_555
C2WA C3WA 1_555 1_555
H1WA C3WA 1_555 1_555
H1IA C3IA 1_555 1_555
C1C_2 C2C_2 1_555 1_555
C1WB_2 C2WB_2 1_555 1_555
C1D C2D 1_555 1_555
C1WA C2WA 1_555 1_555
O1C_2 C1C_2 1_555 1_555
O1TB_2 Co1HA 1_555 1_555
O1WB_2 C1WB_2 1_555 1_555
O1K_2 C1WB_2 1_555 1_555
O1D C1D 1_555 1_555
O1UB C1D 1_555 1_555
O1WA_2 C1WA 1_555 1_555
O1IA_2 C1WA 1_555 1_555
Co1CA_2 O1C_2 1_555 1_555
Co1ZA_2 O1WB_2 1_555 1_555
Co1FA O1K_2 1_555 1_555
Co1BA O1D 1_555 1_555
Co1DC O1UB 1_555 1_555
Co1YA O1WA_2 1_555 1_555
Co1DA O1IA_2 1_555 1_555
O1B_2 Co1K 1_555 1_555
O1BC_2 Co1K 1_555 1_555
O1FA_2 Co1I 1_555 1_555
O1XA_2 Co1I 1_555 1_555
Co1D O2B 1_555 1_555
N1FB C6FB 1_555 1_555
C3CC C4CC 1_555 1_555
C4EA C5CB 1_555 1_555
C4CA C5FB 1_555 1_555
C5CB C6CB 1_555 1_555
C5FB C6FB 1_555 1_555
C1DB O1DA 1_555 1_555
C4DA C5DB 1_555 1_555
C6AA N1YA 1_555 1_555
C3X C2YA 1_555 1_555
C3GB C2AA 1_555 1_555
C1G O1AC 1_555 1_555
C4AC C5G 1_555 1_555
C6YB N1GA 1_555 1_555
C3VA C2GA 1_555 1_555
C3J C2YB 1_555 1_555
C1YB O1J 1_555 1_555
C1H O1ZB 1_555 1_555
C4ZB C5H 1_555 1_555
C6WB N1C 1_555 1_555
C3TB C2C 1_555 1_555
C3K C2WB 1_555 1_555
C1WB O1K 1_555 1_555
Co1ZA O2B 1_555 1_555
O1XB C1XB 1_555 1_555
O1A C1A 1_555 1_555
C4I C5XB 1_555 1_555
C6HA N1VB 1_555 1_555
C3E C2VB 1_555 1_555
C3XA C2HA 1_555 1_555
Co1GB O2_2 1_555 1_555
C4EC C5A 1_555 1_555
C6BB N1Y 1_555 1_555
C3ZA C2Y 1_555 1_555
C3FA C2BB 1_555 1_555
C1BB O1FA 1_555 1_555
Co1VA O2_2 1_555 1_555
O1ZB_2 C1H_2 1_555 1_555
O1BC C1F 1_555 1_555
C4ZB_2 C5H_2 1_555 1_555
C4BC C5F 1_555 1_555
C6WB_2 N1C_2 1_555 1_555
C6WA N1D 1_555 1_555
C3TB_2 C2C_2 1_555 1_555
C3K_2 C2WB_2 1_555 1_555
C3UB C2D 1_555 1_555
C3IA C2WA 1_555 1_555
C1C_2 O1TB_2 1_555 1_555

#END
