
#######################################################################
#
#                 Cambridge Crystallographic Data Centre
#                                CCDC 
#
#######################################################################
#
# If this CIF has been generated from an entry in the Cambridge 
# Structural Database, then it will include bibliographic, chemical, 
# crystal, experimental, refinement or atomic coordinate data resulting 
# from the CCDC's data processing and validation procedures.
#
#######################################################################

data_DIDBEZ
_chemical_formula_moiety         '(C24 H16 Co1 N2 O4)n,3.5n(C1 H4 O1)'
_chemical_name_systematic        
'catena-[bis(\m~2~-4-(Pyridin-4-yl)benzoato)-cobalt(ii) methanol solvate]'
_symmetry_cell_setting           tetragonal
_symmetry_space_group_name_H-M   'P 4 21 2'
_symmetry_Int_Tables_number      90
_space_group_name_Hall           'P 4ab 2ab'
loop_
_symmetry_equiv_pos_site_id
_symmetry_equiv_pos_as_xyz
1 x,y,z
2 -x,-y,z
3 1/2-y,1/2+x,z
4 1/2+y,1/2-x,z
5 1/2-x,1/2+y,-z
6 1/2+x,1/2-y,-z
7 y,x,-z
8 -y,-x,-z
_cell_length_a                   22.6140(14)
_cell_length_b                   22.6140(14)
_cell_length_c                   12.7315(16)
_cell_angle_alpha                90
_cell_angle_beta                 90
_cell_angle_gamma                90
_cell_volume                     6510.8
_cell_formula_units_Z            8
loop_
_atom_site_label
_atom_site_type_symbol
_atom_site_fract_x
_atom_site_fract_y
_atom_site_fract_z
_atom_site_U_iso_or_equiv
_atom_site_thermal_displace_type
Co1 Co 0.26173(5) 0.74376(5) 0.74751(10) 0.0269 Uani
C1 C 0.6425(5) 0.7045(5) 0.3041(9) 0.0417 Uani
H1 H 0.6470 0.6859 0.2376 0.0500 Uiso
C2 C 0.5929(5) 0.6944(5) 0.3609(9) 0.0433 Uani
H2 H 0.5639 0.6678 0.3346 0.0520 Uiso
C3 C 0.5835(5) 0.7219(6) 0.4563(8) 0.0413 Uani
C4 C 0.6283(4) 0.7564(5) 0.4940(9) 0.0400 Uani
H3 H 0.6250 0.7744 0.5612 0.0480 Uiso
C5 C 0.6786(5) 0.7650(5) 0.4333(9) 0.0380 Uani
H4 H 0.7091 0.7896 0.4601 0.0450 Uiso
C6 C 0.5268(4) 0.7151(5) 0.5167(9) 0.0383 Uani
C7 C 0.4747(5) 0.7043(6) 0.4636(8) 0.0450 Uani
H5 H 0.4753 0.6970 0.3902 0.0540 Uiso
C8 C 0.4214(4) 0.7041(5) 0.5177(9) 0.0403 Uani
H6 H 0.3855 0.6979 0.4804 0.0490 Uiso
C9 C 0.4199(5) 0.7127(5) 0.6223(8) 0.0340 Uani
C10 C 0.4733(5) 0.7215(6) 0.6782(9) 0.0500 Uani
H7 H 0.4733 0.7271 0.7521 0.0600 Uiso
C11 C 0.5247(5) 0.7217(6) 0.6228(9) 0.0490 Uani
H8 H 0.5608 0.7267 0.6599 0.0590 Uiso
C12 C 0.3615(5) 0.7186(5) 0.6801(9) 0.0350 Uani
C13 C 0.2626(5) 1.1134(4) 1.2348(8) 0.0390 Uani
H9 H 0.2611 1.1139 1.3094 0.0470 Uiso
C14 C 0.2663(6) 1.0597(5) 1.1829(9) 0.0473 Uani
H10 H 0.2645 1.0241 1.2224 0.0570 Uiso
C15 C 0.2725(5) 1.0568(4) 1.0773(8) 0.0353 Uani
C16 C 0.2734(5) 1.1114(4) 1.0219(8) 0.0383 Uani
H11 H 0.2780 1.1124 0.9478 0.0460 Uiso
C17 C 0.2674(5) 1.1632(4) 1.0793(9) 0.0350 Uani
H12 H 0.2680 1.1996 1.0422 0.0420 Uiso
C18 C 0.2747(5) 0.9999(4) 1.0174(8) 0.0343 Uani
C19 C 0.2446(5) 0.9509(5) 1.0549(8) 0.0407 Uani
H13 H 0.2241 0.9529 1.1199 0.0490 Uiso
C20 C 0.2446(5) 0.8999(4) 0.9977(9) 0.0417 Uani
H14 H 0.2236 0.8665 1.0231 0.0500 Uiso
C21 C 0.2746(5) 0.8960(5) 0.9038(8) 0.0367 Uani
C22 C 0.3056(5) 0.9438(5) 0.8675(9) 0.0417 Uani
H15 H 0.3276 0.9414 0.8041 0.0500 Uiso
C23 C 0.3043(6) 0.9956(5) 0.9244(9) 0.0453 Uani
H16 H 0.3247 1.0292 0.8982 0.0540 Uiso
C24 C 0.2715(5) 0.8415(4) 0.8388(8) 0.0350 Uani
O1 O 0.3143(3) 0.7181(3) 0.6259(5) 0.0343 Uani
O2 O 0.3599(3) 0.7244(4) 0.7782(6) 0.0417 Uani
O3 O 0.2897(3) 0.8401(3) 0.7466(6) 0.0420 Uani
O4 O 0.2455(3) 0.7956(3) 0.8784(5) 0.0393 Uani
N1 N 0.6859(4) 0.7407(4) 0.3403(6) 0.0370 Uani
N2 N 0.2610(4) 1.1649(4) 1.1818(7) 0.0343 Uani
Co1D Co 0.23827(5) 1.24376(5) 1.25249(10) 0.0269 Uani
Co1E Co 0.76173(5) 0.75624(5) 0.25249(10) 0.0269 Uani
N1E N 0.1859(4) 0.7593(4) 0.6597(6) 0.0370 Uani
N2D N 0.2390(4) 0.6649(4) 0.8182(7) 0.0343 Uani
O5 O 0.4839(6) 0.6113(6) 0.2287(12) 0.1290 Uiso
C25 C 0.469(2) 0.567(2) 0.312(4) 0.2900 Uiso
O6 O 0.5867(8) 0.5967(8) 0.1120(12) 0.1460 Uiso
C26 C 0.6139(10) 0.5468(10) 0.1537(18) 0.1230 Uiso
O7 O 0.377(3) 0.926(3) 1.204(4) 0.5500 Uiso
C27 C 0.376(3) 0.943(3) 1.311(4) 0.3500 Uiso
O8 O 0.642(8) 0.931(8) 0.576(9) 1.7000 Uiso
C28 C 0.6200(19) 0.9078(18) 0.671(3) 0.2360 Uiso
loop_
_atom_site_aniso_label
_atom_site_aniso_U_11
_atom_site_aniso_U_22
_atom_site_aniso_U_33
_atom_site_aniso_U_23
_atom_site_aniso_U_13
_atom_site_aniso_U_12
Co1 0.0262(6) 0.0266(7) 0.0278(6) -0.0009(7) -0.0007(7) 0.0014(4)
C1 0.034(6) 0.051(7) 0.040(7) -0.012(6) -0.004(5) -0.006(5)
C2 0.034(6) 0.060(8) 0.036(6) -0.008(6) 0.005(5) -0.018(6)
C3 0.031(6) 0.053(7) 0.040(6) 0.011(6) 0.003(5) -0.003(6)
C4 0.034(6) 0.053(7) 0.033(5) 0.001(6) 0.004(5) 0.006(5)
C5 0.029(6) 0.044(7) 0.041(7) -0.003(5) -0.003(5) -0.003(5)
C6 0.030(6) 0.046(7) 0.039(7) 0.003(5) 0.005(5) -0.005(5)
C7 0.039(7) 0.071(9) 0.025(6) -0.009(5) -0.001(5) -0.006(6)
C8 0.020(5) 0.057(7) 0.044(7) 0.005(6) -0.007(5) -0.003(5)
C9 0.033(6) 0.042(6) 0.027(6) 0.000(5) -0.001(5) 0.003(5)
C10 0.035(6) 0.078(9) 0.037(7) -0.004(6) -0.001(5) 0.001(6)
C11 0.023(6) 0.078(9) 0.046(7) -0.004(7) -0.005(5) -0.005(6)
C12 0.030(6) 0.029(6) 0.046(7) 0.007(5) 0.003(5) -0.002(5)
C13 0.059(7) 0.030(5) 0.028(6) 0.000(5) 0.000(6) 0.009(5)
C14 0.074(9) 0.027(6) 0.041(7) 0.008(5) 0.004(6) 0.005(6)
C15 0.043(7) 0.026(5) 0.037(6) -0.004(5) -0.002(5) 0.006(5)
C16 0.056(7) 0.027(5) 0.032(6) -0.006(4) 0.001(5) 0.002(5)
C17 0.034(6) 0.029(6) 0.042(6) 0.008(5) -0.002(5) 0.003(5)
C18 0.048(6) 0.022(5) 0.033(6) -0.001(4) 0.000(5) 0.000(4)
C19 0.053(8) 0.033(6) 0.036(6) 0.000(5) 0.009(6) -0.002(6)
C20 0.061(8) 0.030(5) 0.034(5) 0.002(5) 0.005(7) -0.007(5)
C21 0.045(7) 0.029(6) 0.036(6) -0.002(5) -0.004(5) -0.001(5)
C22 0.050(7) 0.026(6) 0.049(7) -0.004(5) 0.013(6) -0.013(5)
C23 0.065(8) 0.022(6) 0.049(7) 0.001(5) 0.008(6) 0.001(5)
C24 0.049(7) 0.024(5) 0.032(6) -0.006(4) -0.008(5) 0.001(5)
O1 0.025(4) 0.042(4) 0.036(4) 0.000(3) -0.002(3) -0.004(3)
O2 0.029(4) 0.058(5) 0.038(5) -0.004(4) 0.002(3) -0.001(4)
O3 0.054(4) 0.035(4) 0.037(4) -0.008(4) 0.006(5) -0.001(3)
O4 0.059(5) 0.026(4) 0.033(4) -0.002(3) 0.003(4) -0.005(4)
N1 0.034(5) 0.048(6) 0.029(5) 0.000(4) -0.005(4) -0.010(4)
N2 0.033(5) 0.032(5) 0.038(5) 0.004(4) -0.003(4) -0.005(4)
Co1D 0.0262 0.0266 0.0278 0.0009 -0.0007 -0.0014
Co1E 0.0262 0.0266 0.0278 -0.0009 0.0007 -0.0014
N1E 0.034 0.048 0.029 0 0.005 0.01
N2D 0.033 0.032 0.038 -0.004 -0.003 0.005
loop_
_geom_bond_atom_site_label_1
_geom_bond_atom_site_label_2
_geom_bond_site_symmetry_1
_geom_bond_site_symmetry_2
Co1 O1 1_555 1_555
C1 H1 1_555 1_555
C2 C1 1_555 1_555
H2 C2 1_555 1_555
C3 C2 1_555 1_555
C4 C3 1_555 1_555
H3 C4 1_555 1_555
C5 C4 1_555 1_555
H4 C5 1_555 1_555
C6 C3 1_555 1_555
C7 C6 1_555 1_555
H5 C7 1_555 1_555
C8 C7 1_555 1_555
H6 C8 1_555 1_555
C9 C8 1_555 1_555
C10 C9 1_555 1_555
H7 C10 1_555 1_555
C11 C6 1_555 1_555
H8 C11 1_555 1_555
C12 C9 1_555 1_555
C13 H9 1_555 1_555
C14 C13 1_555 1_555
H10 C14 1_555 1_555
C15 C14 1_555 1_555
C16 C15 1_555 1_555
H11 C16 1_555 1_555
C17 C16 1_555 1_555
H12 C17 1_555 1_555
C18 C15 1_555 1_555
C19 C18 1_555 1_555
H13 C19 1_555 1_555
C20 C19 1_555 1_555
H14 C20 1_555 1_555
C21 C20 1_555 1_555
C22 C21 1_555 1_555
H15 C22 1_555 1_555
C23 C18 1_555 1_555
H16 C23 1_555 1_555
C24 C21 1_555 1_555
O1 C12 1_555 1_555
O2 Co1 1_555 1_555
O3 Co1 1_555 1_555
O4 Co1 1_555 1_555
N1 C1 1_555 1_555
N2 C13 1_555 1_555
O5 C25 1_555 1_555
O6 C26 1_555 1_555
O7 C27 1_555 1_555
O8 C28 1_555 1_555
Co1D N2 1_555 1_555
Co1E N1 1_555 1_555
N1E Co1 1_555 1_555
N2D Co1 1_555 1_555
C5 N1 1_555 1_555
C10 C11 1_555 1_555
C12 O2 1_555 1_555
C17 N2 1_555 1_555
C22 C23 1_555 1_555
C24 O3 1_555 1_555
C24 O4 1_555 1_555

#END
