
#######################################################################
#
#                 Cambridge Crystallographic Data Centre
#                                CCDC 
#
#######################################################################
#
# If this CIF has been generated from an entry in the Cambridge 
# Structural Database, then it will include bibliographic, chemical, 
# crystal, experimental, refinement or atomic coordinate data resulting 
# from the CCDC's data processing and validation procedures.
#
#######################################################################

data_ZUVXOF
_chemical_formula_moiety         '(C20 H16 Cu1 N10 O4)n'
_chemical_name_systematic        
'catena-((\m~3~-4-(2,6-Diamino-1,3,5-triazin-4-yl)benzoato)-(\m~2~-4-(2,6-diamino-1,3,5-triazin-4-yl)benzoato)-copper unknown solvate)'
_symmetry_cell_setting           orthorhombic
_symmetry_space_group_name_H-M   'P b n b'
_symmetry_Int_Tables_number      56
_space_group_name_Hall           '-P 2bc 2ab'
loop_
_symmetry_equiv_pos_site_id
_symmetry_equiv_pos_as_xyz
1 x,y,z
2 -x,1/2-y,1/2+z
3 1/2+x,1/2-y,-z
4 1/2-x,y,1/2-z
5 -x,-y,-z
6 x,1/2+y,1/2-z
7 1/2-x,1/2+y,z
8 1/2+x,-y,1/2+z
_cell_length_a                   17.7157(6)
_cell_length_b                   22.1231(8)
_cell_length_c                   25.3814(9)
_cell_angle_alpha                90
_cell_angle_beta                 90
_cell_angle_gamma                90
_cell_volume                     9947.64
_exptl_crystal_colour            green
_exptl_crystal_description       Block
_cell_formula_units_Z            8
loop_
_atom_site_label
_atom_site_type_symbol
_atom_site_fract_x
_atom_site_fract_y
_atom_site_fract_z
_atom_site_U_iso_or_equiv
_atom_site_thermal_displace_type
Cu1 Cu 0.94383(2) 0.03615(2) 0.01442(2) 0.0344 Uani
O1 O 0.51902(11) 0.40057(8) -0.00348(10) 0.0420 Uani
O2 O 0.61552(10) 0.46036(8) 0.01893(8) 0.0330 Uani
O3 O 0.98551(12) 0.02099(9) 0.08466(8) 0.0387 Uani
O4 O 1.07991(12) -0.04084(9) 0.06151(8) 0.0395 Uani
N1 N 0.85608(12) 0.09804(9) 0.04245(9) 0.0252 Uani
N2 N 0.76496(13) 0.04808(10) -0.00468(10) 0.0338 Uani
H1 H 0.7228 0.0474 -0.0214 0.0410 Uiso
H2 H 0.7919 0.0158 -0.0025 0.0410 Uiso
N3 N 0.82906(13) 0.19922(10) 0.06940(10) 0.0320 Uani
N4 N 0.74360(13) 0.14693(9) 0.01272(9) 0.0292 Uani
N5 N 1.14057(15) -0.05362(12) 0.41796(11) 0.0438 Uani
C1 C 0.76814(15) 0.19614(11) 0.03873(11) 0.0284 Uani
N6 N 0.93101(14) 0.14818(11) 0.10168(11) 0.0430 Uani
H3 H 0.9420 0.1794 0.1203 0.0520 Uiso
H4 H 0.9590 0.1165 0.1032 0.0520 Uiso
N7 N 1.14900(17) -0.09137(12) 0.32937(11) 0.0482 Uani
C2 C 0.87094(15) 0.14889(12) 0.07058(11) 0.0289 Uani
C3 C 0.70943(15) 0.36033(12) 0.03410(12) 0.0332 Uani
H5 H 0.7299 0.3982 0.0410 0.0400 Uiso
C4 C 0.78810(14) 0.09795(11) 0.01739(10) 0.0250 Uani
C5 C 0.64803(16) 0.24686(12) 0.01416(13) 0.0386 Uani
H6 H 0.6267 0.2090 0.0086 0.0460 Uiso
N8 N 1.19721(19) -0.14296(12) 0.39862(11) 0.0535 Uani
H7 H 1.2117 -0.1703 0.3768 0.0640 Uiso
H8 H 1.2062 -0.1471 0.4317 0.0640 Uiso
C6 C 0.75241(16) 0.30901(12) 0.04108(14) 0.0379 Uani
H9 H 0.8020 0.3127 0.0528 0.0460 Uiso
C7 C 1.04050(16) -0.01317(13) 0.09457(12) 0.0337 Uani
C8 C 0.72283(15) 0.25118(11) 0.03089(11) 0.0297 Uani
C9 C 1.12225(19) -0.05513(14) 0.16620(13) 0.0430 Uani
H10 H 1.1517 -0.0740 0.1407 0.0520 Uiso
N9 N 1.08862(18) 0.00272(15) 0.34593(12) 0.0590 Uani
C10 C 0.63503(16) 0.35517(12) 0.01663(12) 0.0333 Uani
C11 C 1.06199(18) -0.02046(15) 0.15139(13) 0.0415 Uani
C12 C 1.1114(2) -0.04113(16) 0.31509(13) 0.0513 Uani
C13 C 0.58660(15) 0.41037(11) 0.01044(11) 0.0287 Uani
C14 C 1.1036(2) -0.00472(18) 0.39835(14) 0.0534 Uani
C15 C 1.16115(18) -0.09484(14) 0.38141(13) 0.0414 Uani
C16 C 1.13986(19) -0.06236(15) 0.21996(13) 0.0441 Uani
H11 H 1.1813 -0.0854 0.2301 0.0530 Uiso
C17 C 0.60484(16) 0.29847(12) 0.00567(13) 0.0365 Uani
H12 H 0.5559 0.2951 -0.0073 0.0440 Uiso
C18 C 1.0173(2) 0.0066(2) 0.18972(14) 0.0716 Uani
H13 H 0.9753 0.0290 0.1795 0.0860 Uiso
N10 N 1.0832(2) 0.03714(17) 0.43163(13) 0.0715 Uani
H14 H 1.0932 0.0332 0.4646 0.0860 Uiso
H15 H 1.0597 0.0687 0.4206 0.0860 Uiso
C19 C 1.0955(2) -0.03513(17) 0.25719(13) 0.0529 Uani
C20 C 1.0340(2) 0.0010(2) 0.24229(15) 0.0703 Uani
H16 H 1.0051 0.0208 0.2676 0.0840 Uiso
Cu1B Cu 0.44383(2) 0.46385(2) -0.01442(2) 0.0344 Uani
Cu1D Cu 1.05617(2) -0.03615(2) -0.01442(2) 0.0344 Uani
Cu1F Cu 0.55617(2) 0.53615(2) 0.01442(2) 0.0344 Uani
O1B O 1.01902(11) 0.09943(8) 0.00348(10) 0.0420 Uani
O2F O 0.88448(10) -0.03964(8) 0.01893(8) 0.0330 Uani
O4D O 0.92009(12) 0.04084(9) -0.06151(8) 0.0395 Uani
loop_
_atom_site_aniso_label
_atom_site_aniso_U_11
_atom_site_aniso_U_22
_atom_site_aniso_U_33
_atom_site_aniso_U_23
_atom_site_aniso_U_13
_atom_site_aniso_U_12
Cu1 0.0331(2) 0.02255(19) 0.0474(2) 0.00171(15) -0.00524(16) -0.00238(14)
O1 0.0273 0.0175 0.0813 -0.0063 -0.0118 0.0065
O2 0.0237 0.0169 0.0585 -0.0025 0.0012 0.0009
O3 0.0474(12) 0.0357(11) 0.0330(10) -0.0016(8) -0.0165(9) 0.0176(9)
O4 0.039 0.0459 0.0336 0.0072 -0.0109 0.0162
N1 0.0246(11) 0.0124(9) 0.0385(12) -0.0034(9) -0.0102(9) 0.0015(8)
N2 0.0298(12) 0.0171(11) 0.0545(15) -0.0095(10) -0.0179(11) 0.0109(9)
N3 0.0288(12) 0.0210(11) 0.0461(14) -0.0075(10) -0.0117(10) 0.0073(9)
N4 0.0309(12) 0.0152(10) 0.0414(13) -0.0088(9) -0.0059(10) 0.0031(9)
N5 0.0448(15) 0.0440(15) 0.0425(15) 0.0084(12) -0.0158(12) -0.0066(12)
C1 0.0279(14) 0.0193(12) 0.0381(15) -0.0054(11) -0.0046(12) 0.0012(10)
N6 0.0412(14) 0.0278(13) 0.0600(17) -0.0155(12) -0.0253(13) 0.0127(11)
N7 0.0573(17) 0.0444(15) 0.0430(15) 0.0016(12) -0.0193(13) 0.0064(13)
C2 0.0225(13) 0.0247(13) 0.0395(15) -0.0020(11) -0.0063(11) -0.0018(10)
C3 0.0248(13) 0.0181(12) 0.0566(18) 0.0017(12) -0.0095(13) -0.0026(10)
C4 0.0204(12) 0.0229(12) 0.0316(13) 0.0020(11) -0.0057(11) 0.0049(10)
C5 0.0310(15) 0.0168(13) 0.068(2) -0.0097(13) -0.0075(14) 0.0033(11)
N8 0.082(2) 0.0391(15) 0.0394(15) 0.0027(12) -0.0209(15) 0.0052(15)
C6 0.0250(13) 0.0198(13) 0.069(2) -0.0103(13) -0.0119(14) 0.0007(11)
C7 0.0366(15) 0.0244(13) 0.0401(16) 0.0014(12) -0.0101(13) 0.0069(12)
C8 0.0309(14) 0.0179(12) 0.0403(15) -0.0041(11) -0.0091(12) 0.0066(11)
C9 0.0459(18) 0.0384(16) 0.0447(17) -0.0017(14) -0.0043(15) 0.0074(14)
N9 0.0581(18) 0.075(2) 0.0439(16) 0.0002(15) -0.0203(14) 0.0282(17)
C10 0.0272(14) 0.0170(13) 0.0558(18) -0.0005(12) 0.0004(13) 0.0047(10)
C11 0.0389(17) 0.0420(17) 0.0435(17) 0.0061(14) -0.0114(14) 0.0088(14)
C12 0.062(2) 0.057(2) 0.0348(17) 0.0003(15) -0.0115(16) 0.0193(17)
C13 0.0240(13) 0.0173(13) 0.0448(16) -0.0006(11) 0.0019(12) 0.0022(10)
C14 0.0453(19) 0.068(2) 0.0468(19) 0.0028(18) -0.0062(16) 0.0127(18)
C15 0.0421(17) 0.0360(16) 0.0462(18) 0.0009(14) -0.0157(14) -0.0053(14)
C16 0.0444(18) 0.0449(18) 0.0430(18) 0.0039(14) -0.0094(14) 0.0100(15)
C17 0.0246(14) 0.0239(13) 0.0609(19) -0.0084(13) -0.0122(13) 0.0048(11)
C18 0.068(3) 0.104(3) 0.0428(19) -0.016(2) -0.0157(18) 0.057(3)
N10 0.076(2) 0.095(3) 0.0436(17) 0.0056(17) -0.0140(16) 0.039(2)
C19 0.061(2) 0.064(2) 0.0337(17) 0.0051(16) -0.0143(16) 0.0149(18)
C20 0.065(2) 0.101(3) 0.045(2) -0.006(2) -0.0111(18) 0.045(2)
Cu1B 0.0331 0.02255 0.0474 0.00171 0.00524 0.00238
Cu1D 0.0331 0.02255 0.0474 0.00171 -0.00524 -0.00238
Cu1F 0.0331 0.02255 0.0474 0.00171 0.00524 0.00238
O1B 0.0273 0.0175 0.0813 -0.0063 0.0118 -0.0065
O2F 0.0237 0.0169 0.0585 -0.0025 -0.0012 -0.0009
O4D 0.039 0.0459 0.0336 0.0072 -0.0109 0.0162
loop_
_geom_bond_atom_site_label_1
_geom_bond_atom_site_label_2
_geom_bond_site_symmetry_1
_geom_bond_site_symmetry_2
Cu1 O3 1_555 1_555
O1 C13 1_555 1_555
O2 C13 1_555 1_555
O3 C7 1_555 1_555
O4 C7 1_555 1_555
N1 Cu1 1_555 1_555
N2 H1 1_555 1_555
H2 N2 1_555 1_555
N3 C1 1_555 1_555
N4 C1 1_555 1_555
N5 C14 1_555 1_555
C1 C8 1_555 1_555
N6 H3 1_555 1_555
H4 N6 1_555 1_555
N7 C12 1_555 1_555
C2 N1 1_555 1_555
C3 H5 1_555 1_555
C4 N1 1_555 1_555
C5 H6 1_555 1_555
N8 H7 1_555 1_555
H8 N8 1_555 1_555
C6 C3 1_555 1_555
H9 C6 1_555 1_555
C7 C11 1_555 1_555
C8 C5 1_555 1_555
C9 H10 1_555 1_555
N9 C12 1_555 1_555
C10 C3 1_555 1_555
C11 C9 1_555 1_555
C12 C19 1_555 1_555
C13 C10 1_555 1_555
C14 N9 1_555 1_555
C15 N5 1_555 1_555
C16 C9 1_555 1_555
H11 C16 1_555 1_555
C17 C5 1_555 1_555
H12 C17 1_555 1_555
C18 C11 1_555 1_555
H13 C18 1_555 1_555
N10 C14 1_555 1_555
H14 N10 1_555 1_555
H15 N10 1_555 1_555
C19 C16 1_555 1_555
C20 C18 1_555 1_555
H16 C20 1_555 1_555
Cu1B O1 1_555 1_555
Cu1D O4 1_555 1_555
Cu1F O2 1_555 1_555
O1B Cu1 1_555 1_555
O2F Cu1 1_555 1_555
O4D Cu1 1_555 1_555
N2 C4 1_555 1_555
N3 C2 1_555 1_555
N4 C4 1_555 1_555
N6 C2 1_555 1_555
N7 C15 1_555 1_555
N8 C15 1_555 1_555
C6 C8 1_555 1_555
C10 C17 1_555 1_555
C19 C20 1_555 1_555

#END
