
#######################################################################
#
#                 Cambridge Crystallographic Data Centre
#                                CCDC 
#
#######################################################################
#
# If this CIF has been generated from an entry in the Cambridge 
# Structural Database, then it will include bibliographic, chemical, 
# crystal, experimental, refinement or atomic coordinate data resulting 
# from the CCDC's data processing and validation procedures.
#
#######################################################################

data_AFITEP
_chemical_formula_moiety         '(C26 H16 N2 O4 Zn1)n,2n(C3 H7 N1 O1)'
_chemical_name_systematic        
"catena-[(\m~2~-4,4'-Bipyridine-N,N')-(\m~2~-4,4'-ethyne-1,2-diyldibenzoato-O,O')-zinc dimethylformamide solvate]"
_symmetry_cell_setting           monoclinic
_symmetry_space_group_name_H-M   'C 2/c'
_symmetry_Int_Tables_number      15
_space_group_name_Hall           '-C 2yc'
loop_
_symmetry_equiv_pos_site_id
_symmetry_equiv_pos_as_xyz
1 x,y,z
2 1/2+x,1/2+y,z
3 -x,y,1/2-z
4 1/2-x,1/2+y,1/2-z
5 -x,-y,-z
6 1/2-x,1/2-y,-z
7 x,-y,1/2+z
8 1/2+x,1/2-y,1/2+z
_cell_length_a                   28.848(7)
_cell_length_b                   6.1751(15)
_cell_length_c                   17.144(4)
_cell_angle_alpha                90
_cell_angle_beta                 98.838(4)
_cell_angle_gamma                90
_cell_volume                     3017.76
_exptl_crystal_colour            colorless
_exptl_crystal_description       plate/needle
_cell_formula_units_Z            4
loop_
_atom_site_label
_atom_site_type_symbol
_atom_site_fract_x
_atom_site_fract_y
_atom_site_fract_z
_atom_site_U_iso_or_equiv
_atom_site_thermal_displace_type
Zn1 Zn 0.0000 0.58053(11) 0.2500 0.0263 Uani
O1 O 0.05052(9) 0.7815(5) 0.28562(17) 0.0347 Uani
O2 O 0.09814(10) 0.4992(6) 0.28341(19) 0.0394 Uani
N1 N 0.00242(11) 0.3769(6) 0.1567(2) 0.0302 Uani
C1 C 0.09076(13) 0.6879(7) 0.3001(2) 0.0285 Uani
C2 C 0.12947(13) 0.8256(7) 0.3446(2) 0.0291 Uani
C3 C 0.17461(14) 0.7380(8) 0.3648(3) 0.0349 Uani
H1 H 0.1812 0.5956 0.3486 0.0420 Uiso
C4 C 0.12019(14) 1.0322(8) 0.3682(2) 0.0334 Uani
H2 H 0.0897 1.0913 0.3538 0.0400 Uiso
C5 C 0.15499(15) 1.1555(8) 0.4129(3) 0.0366 Uani
H3 H 0.1480 1.2971 0.4294 0.0440 Uiso
C6 C 0.20925(14) 0.8610(8) 0.4084(3) 0.0391 Uani
H4 H 0.2399 0.8027 0.4218 0.0470 Uiso
C7 C 0.19981(14) 1.0714(8) 0.4333(3) 0.0379 Uani
C8 C 0.23547(15) 1.1960(9) 0.4803(3) 0.0421 Uani
C9 C 0.03001(16) 0.1996(8) 0.1635(2) 0.0396 Uani
H5 H 0.0507 0.1778 0.2115 0.0480 Uiso
C10 C -0.02629(13) 0.4042(7) 0.0883(2) 0.0307 Uani
H6 H -0.0461 0.5279 0.0823 0.0370 Uiso
C11 C -0.02842(14) 0.2614(7) 0.0264(2) 0.0305 Uani
H7 H -0.0495 0.2876 -0.0209 0.0370 Uiso
C12 C 0.02970(16) 0.0508(8) 0.1053(3) 0.0409 Uani
H8 H 0.0495 -0.0725 0.1134 0.0490 Uiso
C13 C 0.00009(13) 0.0788(7) 0.0329(2) 0.0280 Uani
Zn1G Zn 0.5000 1.91947(11) 0.7500 0.0263 Uani
Zn1F Zn 0.0000 -0.58053(11) -0.2500 0.0263 Uani
O1E O 0.44948(9) 1.7185(5) 0.71438(17) 0.0347 Uani
O1B O -0.05052(9) 0.7815(5) 0.21438(17) 0.0347 Uani
O2E O 0.40186(10) 2.0008(6) 0.71659(19) 0.0394 Uani
N1D N -0.00242(11) -0.3769(6) -0.1567(2) 0.0302 Uani
N1B N -0.00242(11) 0.3769(6) 0.3433(2) 0.0302 Uani
C1E C 0.40924(13) 1.8121(7) 0.6999(2) 0.0285 Uani
C2E C 0.37053(13) 1.6744(7) 0.6554(2) 0.0291 Uani
C3E C 0.32539(14) 1.7620(8) 0.6352(3) 0.0349 Uani
H1E H 0.3188 1.9044 0.6514 0.0420 Uiso
C4E C 0.37981(14) 1.4678(8) 0.6318(2) 0.0334 Uani
H2E H 0.4103 1.4087 0.6462 0.0400 Uiso
C5E C 0.34501(15) 1.3445(8) 0.5871(3) 0.0366 Uani
H3E H 0.3520 1.2029 0.5706 0.0440 Uiso
C6E C 0.29075(14) 1.6390(8) 0.5916(3) 0.0391 Uani
H4E H 0.2601 1.6973 0.5782 0.0470 Uiso
C7E C 0.30019(14) 1.4286(8) 0.5667(3) 0.0379 Uani
C8E C 0.26453(15) 1.3040(9) 0.5197(3) 0.0421 Uani
C9D C -0.03001(16) -0.1996(8) -0.1635(2) 0.0396 Uani
H5D H -0.0507 -0.1778 -0.2115 0.0480 Uiso
C10D C 0.02629(13) -0.4042(7) -0.0883(2) 0.0307 Uani
H6D H 0.0461 -0.5279 -0.0823 0.0370 Uiso
C11D C 0.02842(14) -0.2614(7) -0.0264(2) 0.0305 Uani
H7D H 0.0495 -0.2876 0.0209 0.0370 Uiso
C12D C -0.02970(16) -0.0508(8) -0.1053(3) 0.0409 Uani
H8D H -0.0495 0.0725 -0.1134 0.0490 Uiso
C13D C -0.00009(13) -0.0788(7) -0.0329(2) 0.0280 Uani
O3 O 0.1206(2) 0.4702(12) 0.0431(4) 0.1171 Uani
N2 N 0.1616(2) 0.2336(15) 0.1249(4) 0.0977 Uani
C14 C 0.1338(2) 0.2828(13) 0.0605(4) 0.0677 Uani
H9 H 0.1229 0.1695 0.0248 0.0810 Uiso
C15 C 0.1805(4) 0.348(3) 0.1842(7) 0.1898 Uani
H10 H 0.1746 0.5019 0.1728 0.2850 Uiso
H11 H 0.2144 0.3220 0.1939 0.2850 Uiso
H12 H 0.1670 0.3073 0.2312 0.2850 Uiso
C16 C 0.1702(4) -0.011(2) 0.1391(6) 0.1445 Uani
H13 H 0.1992 -0.0535 0.1198 0.2170 Uiso
H14 H 0.1438 -0.0930 0.1108 0.2170 Uiso
H15 H 0.1732 -0.0416 0.1957 0.2170 Uiso
loop_
_atom_site_aniso_label
_atom_site_aniso_U_11
_atom_site_aniso_U_22
_atom_site_aniso_U_33
_atom_site_aniso_U_23
_atom_site_aniso_U_13
_atom_site_aniso_U_12
Zn1 0.0186(3) 0.0324(4) 0.0246(3) 0.000 -0.0067(2) 0.000
O1 0.0202(13) 0.0410(18) 0.0376(16) -0.0012(13) -0.0127(11) -0.0001(12)
O2 0.0282(15) 0.0427(18) 0.0433(18) -0.0103(15) -0.0072(13) -0.0031(13)
N1 0.0240(16) 0.037(2) 0.0271(17) -0.0014(14) -0.0037(13) -0.0015(13)
C1 0.0244(19) 0.034(2) 0.0251(19) 0.0001(17) -0.0029(15) -0.0042(16)
C2 0.0218(18) 0.037(2) 0.0261(19) 0.0003(17) -0.0037(15) -0.0034(16)
C3 0.0241(19) 0.044(3) 0.035(2) -0.0080(19) -0.0005(16) 0.0002(17)
C4 0.0245(19) 0.041(3) 0.031(2) -0.0037(18) -0.0076(16) -0.0017(17)
C5 0.032(2) 0.034(2) 0.039(2) -0.0064(19) -0.0100(18) -0.0051(18)
C6 0.0198(19) 0.052(3) 0.043(2) -0.005(2) -0.0032(17) 0.0003(18)
C7 0.0266(19) 0.048(3) 0.036(2) -0.010(2) -0.0050(16) -0.012(2)
C8 0.028(2) 0.055(3) 0.040(2) -0.008(2) -0.0050(18) -0.007(2)
C9 0.043(2) 0.048(3) 0.022(2) -0.0023(19) -0.0139(17) 0.011(2)
C10 0.0261(18) 0.036(2) 0.029(2) 0.0014(18) 0.0007(15) 0.0027(17)
C11 0.0266(19) 0.044(3) 0.0183(18) 0.0023(17) -0.0049(14) 0.0036(17)
C12 0.043(2) 0.044(3) 0.030(2) -0.004(2) -0.0124(18) 0.013(2)
C13 0.0259(18) 0.035(2) 0.0218(18) 0.0014(17) -0.0009(14) -0.0020(17)
Zn1G 0.0186 0.0324 0.0246 0 -0.0067 0
Zn1F 0.0186 0.0324 0.0246 0 -0.0067 0
O1E 0.0202 0.041 0.0376 -0.0012 -0.0127 -0.0001
O1B 0.0202 0.041 0.0376 0.0012 -0.0127 0.0001
O2E 0.0282 0.0427 0.0433 -0.0103 -0.0072 -0.0031
N1D 0.024 0.037 0.0271 -0.0014 -0.0037 -0.0015
N1B 0.024 0.037 0.0271 0.0014 -0.0037 0.0015
C1E 0.0244 0.034 0.0251 0.0001 -0.0029 -0.0042
C2E 0.0218 0.037 0.0261 0.0003 -0.0037 -0.0034
C3E 0.0241 0.044 0.035 -0.008 -0.0005 0.0002
C4E 0.0245 0.041 0.031 -0.0037 -0.0076 -0.0017
C5E 0.032 0.034 0.039 -0.0064 -0.01 -0.0051
C6E 0.0198 0.052 0.043 -0.005 -0.0032 0.0003
C7E 0.0266 0.048 0.036 -0.01 -0.005 -0.012
C8E 0.028 0.055 0.04 -0.008 -0.005 -0.007
C9D 0.043 0.048 0.022 -0.0023 -0.0139 0.011
C10D 0.0261 0.036 0.029 0.0014 0.0007 0.0027
C11D 0.0266 0.044 0.0183 0.0023 -0.0049 0.0036
C12D 0.043 0.044 0.03 -0.004 -0.0124 0.013
C13D 0.0259 0.035 0.0218 0.0014 -0.0009 -0.002
O3 0.089(4) 0.138(6) 0.128(5) 0.075(5) 0.028(3) 0.045(4)
N2 0.068(4) 0.169(8) 0.058(3) 0.029(4) 0.016(3) 0.032(4)
C14 0.061(4) 0.084(5) 0.058(4) 0.008(3) 0.009(3) 0.007(3)
C15 0.093(7) 0.37(2) 0.114(8) -0.131(12) 0.040(6) -0.047(10)
C16 0.162(10) 0.172(10) 0.112(8) 0.086(8) 0.061(7) 0.088(9)
loop_
_geom_bond_atom_site_label_1
_geom_bond_atom_site_label_2
_geom_bond_site_symmetry_1
_geom_bond_site_symmetry_2
Zn1 O1 1_555 1_555
O1 C1 1_555 1_555
O2 C1 1_555 1_555
N1 Zn1 1_555 1_555
C1 C2 1_555 1_555
C2 C3 1_555 1_555
C3 H1 1_555 1_555
C4 C2 1_555 1_555
H2 C4 1_555 1_555
C5 C4 1_555 1_555
H3 C5 1_555 1_555
C6 C3 1_555 1_555
H4 C6 1_555 1_555
C7 C5 1_555 1_555
C8 C7 1_555 1_555
C9 N1 1_555 1_555
H5 C9 1_555 1_555
C10 N1 1_555 1_555
H6 C10 1_555 1_555
C11 C10 1_555 1_555
H7 C11 1_555 1_555
C12 C9 1_555 1_555
H8 C12 1_555 1_555
C13 C11 1_555 1_555
O3 C14 1_555 1_555
N2 C14 1_555 1_555
C14 H9 1_555 1_555
C15 N2 1_555 1_555
H10 C15 1_555 1_555
H11 C15 1_555 1_555
H12 C15 1_555 1_555
C16 N2 1_555 1_555
H13 C16 1_555 1_555
H14 C16 1_555 1_555
H15 C16 1_555 1_555
Zn1G O1E 1_555 1_555
Zn1F N1D 1_555 1_555
O1E C1E 1_555 1_555
O1B Zn1 1_555 1_555
O2E C1E 1_555 1_555
N1D C9D 1_555 1_555
N1B Zn1 1_555 1_555
C1E C2E 1_555 1_555
C2E C3E 1_555 1_555
C3E H1E 1_555 1_555
C4E C2E 1_555 1_555
H2E C4E 1_555 1_555
C5E C4E 1_555 1_555
H3E C5E 1_555 1_555
C6E C3E 1_555 1_555
H4E C6E 1_555 1_555
C7E C5E 1_555 1_555
C8E C8 1_555 1_555
C9D H5D 1_555 1_555
C10D N1D 1_555 1_555
H6D C10D 1_555 1_555
C11D C10D 1_555 1_555
H7D C11D 1_555 1_555
C12D C9D 1_555 1_555
H8D C12D 1_555 1_555
C13D C13 1_555 1_555
C6 C7 1_555 1_555
C12 C13 1_555 1_555
C6E C7E 1_555 1_555
C7E C8E 1_555 1_555
C11D C13D 1_555 1_555
C12D C13D 1_555 1_555

#END
