
#######################################################################
#
#                 Cambridge Crystallographic Data Centre
#                                CCDC 
#
#######################################################################
#
# If this CIF has been generated from an entry in the Cambridge 
# Structural Database, then it will include bibliographic, chemical, 
# crystal, experimental, refinement or atomic coordinate data resulting 
# from the CCDC's data processing and validation procedures.
#
#######################################################################

data_KUKWAR
_chemical_formula_moiety         '(C16 H8 Al2 O10)n,6(H2 O1)'
_chemical_name_systematic        
"catena-[(\m-[1,1'-biphenyl]-3,3',5,5'-tetracarboxylato)-bis(\m-hydroxo)-di-aluminium hexahydrate]"
_symmetry_cell_setting           tetragonal
_symmetry_space_group_name_H-M   'I 41 2 2'
_symmetry_Int_Tables_number      98
_space_group_name_Hall           'I 4bw 2bw'
loop_
_symmetry_equiv_pos_site_id
_symmetry_equiv_pos_as_xyz
1 x,y,z
2 1/2-x,1/2-y,1/2+z
3 1/2-x,y,3/4-z
4 -y,-x,-z
5 -y,1/2+x,1/4+z
6 1/2+y,-x,3/4+z
7 1/2+y,1/2+x,1/2-z
8 x,1/2-y,1/4-z
9 -x,-y,z
10 -x,1/2+y,1/4-z
11 1/2-y,1/2-x,1/2-z
12 1/2-y,x,3/4+z
13 y,1/2-x,1/4+z
14 y,x,-z
15 1/2+x,-y,3/4-z
16 1/2+x,1/2+y,1/2+z
_cell_length_a                   14.829580(64)
_cell_length_b                   14.829580(64)
_cell_length_c                   11.773164(51)
_cell_angle_alpha                90
_cell_angle_beta                 90
_cell_angle_gamma                90
_cell_volume                     2589.11
_cell_formula_units_Z            4
loop_
_atom_site_label
_atom_site_type_symbol
_atom_site_fract_x
_atom_site_fract_y
_atom_site_fract_z
Al1 Al 0.694260(49) 0.305740(49) 0.500
O1 O 0.75744(13) 0.250 0.625
O2 O 0.602185(86) 0.286752(87) 0.75131(15)
O3 O 0.626286(97) 0.37835(10) 0.60564(12)
C1 C 0.59280(15) 0.36039(14) 0.69453(19)
C2 C 0.54498(10) 0.431806(68) 0.757216(95)
C3 C 0.500 0.500 0.69649(14)
C4 C 0.54071(10) 0.428618(71) 0.877164(80)
C5 C 0.500 0.500 0.93474(11)
O2C O 0.713248(87) 0.397815(86) 1.24869(15)
O3C O 0.62165(10) 0.373714(97) 1.39436(12)
C1C C 0.63961(14) 0.40720(15) 1.30547(19)
C2C C 0.568194(68) 0.45502(10) 1.242784(95)
C3C C 0.500 0.500 1.30351(14)
C4C C 0.571382(71) 0.45929(10) 1.122836(80)
C5C C 0.500 0.500 1.06526(11)
O2H O 0.397815(86) 0.713248(87) 0.75131(15)
O3H O 0.373714(97) 0.62165(10) 0.60564(12)
C1H C 0.40720(15) 0.63961(14) 0.69453(19)
C2H C 0.45502(10) 0.568194(68) 0.757216(95)
C4H C 0.45929(10) 0.571382(71) 0.877164(80)
O2M O 0.286752(87) 0.602185(86) 1.24869(15)
O3M O 0.37835(10) 0.626286(97) 1.39436(12)
C1M C 0.36039(14) 0.59280(15) 1.30547(19)
C2M C 0.431806(68) 0.54498(10) 1.242784(95)
C4M C 0.428618(71) 0.54071(10) 1.122836(80)
Al1B Al 0.805740(49) 0.305740(49) 1.250
O1A O 0.74256(13) 0.250 1.125
Al1A Al 0.805740(49) 0.194260(49) 1.000
Al1C Al 0.694260(49) 0.305740(49) 1.500
Al1D Al 0.694260(49) 0.194260(49) 0.750
Al1H Al 0.305740(49) 0.694260(49) 0.500
Al1H_2 Al 0.305740(49) 0.694260(49) 1.500
Al1I Al 0.305740(49) 0.805740(49) 0.750
Al1K Al 0.194260(49) 0.694260(49) 1.250
O1C O 0.750 0.24256(13) 0.375
O1C_2 O 0.750 0.24256(13) 1.375
O2A O 0.897815(86) 0.213248(87) 1.25131(15)
O2E O 0.786752(87) 0.397815(86) 0.50131(15)
O2G O 0.602185(86) 0.213248(87) 0.49869(15)
O3B O 0.873714(97) 0.37835(10) 1.14436(12)
O3C_2 O 0.62165(10) 0.373714(97) 0.39436(12)
O3E O 0.87835(10) 0.373714(97) 1.35564(12)
O4 O 0.91080(23) 0.80489(16) 0.94077(28)
O5 O 0.45734(19) 0.73953(30) 0.06123(32)
O6 O 0.13041(22) 0.29586(24) 0.53782(37)
loop_
_geom_bond_atom_site_label_1
_geom_bond_atom_site_label_2
_geom_bond_site_symmetry_1
_geom_bond_site_symmetry_2
Al1 O1 1_555 1_555
O1 Al1D 1_555 1_555
O2 C1 1_555 1_555
O3 Al1 1_555 1_555
C1 O3 1_555 1_555
C2 C1 1_555 1_555
C3 C2 1_555 1_555
C4 C2 1_555 1_555
C5 C4 1_555 1_555
O2C C1C 1_555 1_555
O3C C1C 1_555 1_555
C1C C2C 1_555 1_555
C2C C3C 1_555 1_555
C3C C2M 1_555 1_555
C4C C2C 1_555 1_555
C5C C5 1_555 1_555
O2H C1H 1_555 1_555
O3H C1H 1_555 1_555
C1H C2H 1_555 1_555
C2H C3 1_555 1_555
C4H C5 1_555 1_555
O2M C1M 1_555 1_555
O3M C1M 1_555 1_555
C1M C2M 1_555 1_555
C2M C4M 1_555 1_555
C4M C5C 1_555 1_555
Al1B O2C 1_555 1_555
O1A Al1B 1_555 1_555
Al1A O1A 1_555 1_555
Al1C O3C 1_555 1_555
Al1D O2 1_555 1_555
Al1H O3H 1_555 1_555
Al1H_2 O3M 1_555 1_555
Al1I O2H 1_555 1_555
Al1K O2M 1_555 1_555
O1C Al1 1_555 1_555
O1C_2 Al1B 1_555 1_555
O2A Al1B 1_555 1_555
O2E Al1 1_555 1_555
O2G Al1 1_555 1_555
O3B Al1B 1_555 1_555
O3C_2 Al1 1_555 1_555
O3E Al1B 1_555 1_555
C4C C5C 1_555 1_555
C2H C4H 1_555 1_555
Al1C O1C_2 1_555 1_555

#END
