
#######################################################################
#
#                 Cambridge Crystallographic Data Centre
#                                CCDC 
#
#######################################################################
#
# If this CIF has been generated from an entry in the Cambridge 
# Structural Database, then it will include bibliographic, chemical, 
# crystal, experimental, refinement or atomic coordinate data resulting 
# from the CCDC's data processing and validation procedures.
#
#######################################################################

data_MUQYEE
_chemical_name_common            InOF-12
_chemical_formula_moiety         
'(C16 H6 In1 O8 1-)n,n(C2 H8 N1 1+),1.33n(C2 H6 O1),3n(H2 O1),0.67n(C4 H9 N1 O1)'
_chemical_name_systematic        
"catena-(Dimethylammonium (\m~4~-biphenyl-3,3',5,5'-tetracarboxylato)-indium dimethylacetamide ethanol solvate trihydrate)"
_symmetry_cell_setting           tetragonal
_symmetry_space_group_name_H-M   'P 42/m m c'
_symmetry_Int_Tables_number      131
_space_group_name_Hall           '-P 4c 2'
loop_
_symmetry_equiv_pos_site_id
_symmetry_equiv_pos_as_xyz
1 x,y,z
2 -y,x,1/2+z
3 -x,-y,z
4 y,-x,1/2+z
5 x,-y,-z
6 -x,y,-z
7 y,x,1/2-z
8 -y,-x,1/2-z
9 -x,-y,-z
10 y,-x,1/2-z
11 x,y,-z
12 -y,x,1/2-z
13 -x,y,z
14 x,-y,z
15 -y,-x,1/2+z
16 y,x,1/2+z
_cell_length_a                   9.9843(6)
_cell_length_b                   9.9843(6)
_cell_length_c                   18.2816(18)
_cell_angle_alpha                90
_cell_angle_beta                 90
_cell_angle_gamma                90
_cell_volume                     1822.42
_exptl_crystal_description       prism
_cell_formula_units_Z            2
loop_
_atom_site_label
_atom_site_type_symbol
_atom_site_fract_x
_atom_site_fract_y
_atom_site_fract_z
In1 In 0.5000 0.5000 0.2500
O1 O 0.3578(3) 0.5000 0.15746(19)
C1 C 0.0000 0.5000 0.1934(3)
H1 H 0.0000 0.5000 0.2454
C2 C 0.1200(4) 0.5000 0.1571(2)
C3 C 0.0000 0.5000 0.0408(3)
C4 C 0.2511(6) 0.5000 0.1965(4)
C5 C 0.1203(4) 0.5000 0.0794(3)
H2 H 0.2030 0.5000 0.0536
O2 O 0.2597(7) 0.5000 0.2631(3)
O1B O -0.3578(3) 0.5000 0.15746(19)
C2B C -0.1200(4) 0.5000 0.1571(2)
C4B C -0.2511(6) 0.5000 0.1965(4)
C5B C -0.1203(4) 0.5000 0.0794(3)
H2B H -0.2030 0.5000 0.0536
O2B O -0.2597(7) 0.5000 0.2631(3)
O1D O 0.3578(3) 0.5000 -0.15746(19)
C1D C 0.0000 0.5000 -0.1934(3)
H1D H 0.0000 0.5000 -0.2454
C2D C 0.1200(4) 0.5000 -0.1571(2)
C3D C 0.0000 0.5000 -0.0408(3)
C4D C 0.2511(6) 0.5000 -0.1965(4)
C5D C 0.1203(4) 0.5000 -0.0794(3)
H2D H 0.2030 0.5000 -0.0536
O2D O 0.2597(7) 0.5000 -0.2631(3)
O1E O -0.3578(3) 0.5000 -0.15746(19)
C2E C -0.1200(4) 0.5000 -0.1571(2)
C4E C -0.2511(6) 0.5000 -0.1965(4)
C5E C -0.1203(4) 0.5000 -0.0794(3)
H2E H -0.2030 0.5000 -0.0536
O2E O -0.2597(7) 0.5000 -0.2631(3)
In1_2 In -0.5000 0.5000 0.2500
In1A In -0.5000 0.5000 -0.2500
In1A_2 In 0.5000 0.5000 -0.2500
O1B_2 O 0.6422(3) 0.5000 0.15746(19)
O1F O 0.5000 0.3578(3) 0.34254(19)
O1G O 0.5000 0.6422(3) 0.34254(19)
O2B_2 O 0.7403(7) 0.5000 0.2631(3)
O2F O 0.5000 0.2597(7) 0.2369(3)
O2G O 0.5000 0.7403(7) 0.2369(3)
loop_
_geom_bond_atom_site_label_1
_geom_bond_atom_site_label_2
_geom_bond_site_symmetry_1
_geom_bond_site_symmetry_2
In1 O1 1_555 1_555
O1 C4 1_555 1_555
C1 H1 1_555 1_555
C2 C1 1_555 1_555
C3 C5 1_555 1_555
C4 C2 1_555 1_555
C5 C2 1_555 1_555
H2 C5 1_555 1_555
O2 In1 1_555 1_555
O1B C4B 1_555 1_555
C2B C1 1_555 1_555
C4B C2B 1_555 1_555
C5B C3 1_555 1_555
H2B C5B 1_555 1_555
O2B C4B 1_555 1_555
O1D C4D 1_555 1_555
C1D H1D 1_555 1_555
C2D C1D 1_555 1_555
C3D C3 1_555 1_555
C4D C2D 1_555 1_555
C5D C2D 1_555 1_555
H2D C5D 1_555 1_555
O2D C4D 1_555 1_555
O1E C4E 1_555 1_555
C2E C1D 1_555 1_555
C4E C2E 1_555 1_555
C5E C3D 1_555 1_555
H2E C5E 1_555 1_555
O2E C4E 1_555 1_555
In1_2 O1B 1_555 1_555
In1A O1E 1_555 1_555
In1A_2 O1D 1_555 1_555
O1B_2 In1 1_555 1_555
O1F In1 1_555 1_555
O1G In1 1_555 1_555
O2B_2 In1 1_555 1_555
O2F In1 1_555 1_555
O2G In1 1_555 1_555
C4 O2 1_555 1_555
C2B C5B 1_555 1_555
O2B In1_2 1_555 1_555
C3D C5D 1_555 1_555
O2D In1A_2 1_555 1_555
C2E C5E 1_555 1_555
O2E In1A 1_555 1_555

#END
