
#######################################################################
#
#                 Cambridge Crystallographic Data Centre
#                                CCDC 
#
#######################################################################
#
# If this CIF has been generated from an entry in the Cambridge 
# Structural Database, then it will include bibliographic, chemical, 
# crystal, experimental, refinement or atomic coordinate data resulting 
# from the CCDC's data processing and validation procedures.
#
#######################################################################

data_JEWYEQ
_chemical_formula_moiety         
'(C9 H3 N12 3-)16n,20n(C1 H4 Mn1 O1 2+),6n(Cl1 Mn1 1+),n(Mn1 2+)'
_chemical_name_systematic        
catena-[hexadecakis(\m~12~-1,3,5-Benzenetris(tetrazolato))-hexakis(\m~4~-chloro)-icosamethanol-heptacosa-manganese(ii)]
_symmetry_cell_setting           cubic
_symmetry_space_group_name_H-M   'P m -3 m'
_symmetry_Int_Tables_number      221
_space_group_name_Hall           '-P 4 2 3'
loop_
_symmetry_equiv_pos_site_id
_symmetry_equiv_pos_as_xyz
1 x,y,z
2 z,x,y
3 y,z,x
4 y,x,-z
5 y,-x,z
6 -y,x,z
7 x,z,-y
8 -x,z,y
9 x,-z,y
10 z,y,-x
11 z,-y,x
12 -z,y,x
13 -x,-y,z
14 -x,y,-z
15 x,-y,-z
16 z,-x,-y
17 -z,-x,y
18 -z,x,-y
19 -y,z,-x
20 y,-z,-x
21 -y,-z,x
22 -y,-x,-z
23 -x,-z,-y
24 -z,-y,-x
25 -x,-y,-z
26 -z,-x,-y
27 -y,-z,-x
28 -y,-x,z
29 -y,x,-z
30 y,-x,-z
31 -x,-z,y
32 x,-z,-y
33 -x,z,-y
34 -z,-y,x
35 -z,y,-x
36 z,-y,-x
37 x,y,-z
38 x,-y,z
39 -x,y,z
40 -z,x,y
41 z,x,-y
42 z,-x,y
43 y,-z,x
44 -y,z,x
45 y,z,-x
46 y,x,z
47 x,z,y
48 z,y,x
_cell_length_a                   19.0086(11)
_cell_length_b                   19.0086(11)
_cell_length_c                   19.0086(11)
_cell_angle_alpha                90
_cell_angle_beta                 90
_cell_angle_gamma                90
_cell_volume                     6868.32
_exptl_crystal_colour            colorless
_exptl_crystal_description       parallelepiped
_cell_formula_units_Z            1
loop_
_atom_site_label
_atom_site_type_symbol
_atom_site_fract_x
_atom_site_fract_y
_atom_site_fract_z
Mn1 Mn 0.0000 0.35941(5) 0.5000
Mn2 Mn 0.1489(5) 0.2584(4) 0.5000
Cl1 Cl 0.0000 0.5000 0.5000
N1 N 0.07938(12) 0.36715(13) 0.58358(13)
N2 N 0.13272(13) 0.32363(14) 0.59421(13)
C1 C 0.1647(2) 0.34876(18) 0.65124(18)
C2 C 0.2277(2) 0.31655(18) 0.68345(18)
C3 C 0.25804(18) 0.25804(18) 0.6536(2)
H1 H 0.2389 0.2389 0.6128
O1 O 0.0301(5) 0.2455(5) 0.5000
C4 C 0.046(3) 0.177(4) 0.5000
N1Q N 0.41642(13) 0.07938(12) 0.63285(13)
N2Q N 0.40579(13) 0.13272(13) 0.67637(14)
C1Q C 0.34876(18) 0.1647(2) 0.65124(18)
C2Q C 0.31655(18) 0.2277(2) 0.68345(18)
C3Q C 0.3464(2) 0.25804(18) 0.74196(18)
H1Q H 0.3872 0.2389 0.7611
N1S N 0.36715(13) 0.41642(13) 0.92062(12)
N2S N 0.32363(14) 0.40579(13) 0.86728(13)
C1S C 0.34876(18) 0.34876(18) 0.8353(2)
C2S C 0.31655(18) 0.31655(18) 0.7723(2)
C3S C 0.25804(18) 0.3464(2) 0.74196(18)
H1S H 0.2389 0.3872 0.7611
N1EA N 0.07938(12) 0.41642(13) 0.63285(13)
N2EA N 0.13272(13) 0.40579(13) 0.67637(14)
N1HA N 0.41642(13) 0.36715(13) 0.92062(12)
N2HA N 0.40579(13) 0.32363(14) 0.86728(13)
N1SA N 0.36715(13) 0.07938(12) 0.58358(13)
N2SA N 0.32363(14) 0.13272(13) 0.59421(13)
O1M O -0.0301(5) 0.2455(5) 0.5000
C4M C -0.046(3) 0.177(4) 0.5000
Mn1C Mn 0.35941(5) 0.0000 0.5000
Mn2C Mn 0.2584(4) 0.1489(5) 0.5000
Cl1A Cl 0.5000 0.0000 0.5000
N1C N 0.36715(13) 0.07938(12) 0.41642(13)
N2C N 0.32363(14) 0.13272(13) 0.40579(13)
C1C C 0.34876(18) 0.1647(2) 0.34876(18)
C2C C 0.31655(18) 0.2277(2) 0.31655(18)
C3C C 0.25804(18) 0.25804(18) 0.3464(2)
H1C H 0.2389 0.2389 0.3872
O1C O 0.2455(5) 0.0301(5) 0.5000
C4C C 0.177(4) 0.046(3) 0.5000
N1H N 0.07938(12) 0.41642(13) 0.36715(13)
N2H N 0.13272(13) 0.40579(13) 0.32363(14)
C1H C 0.1647(2) 0.34876(18) 0.34876(18)
C2H C 0.2277(2) 0.31655(18) 0.31655(18)
C3H C 0.25804(18) 0.3464(2) 0.25804(18)
H1H H 0.2389 0.3872 0.2389
N1K N 0.41642(13) 0.36715(13) 0.07938(12)
N2K N 0.40579(13) 0.32363(14) 0.13272(13)
C1K C 0.34876(18) 0.34876(18) 0.1647(2)
C2K C 0.31655(18) 0.31655(18) 0.2277(2)
C3K C 0.3464(2) 0.25804(18) 0.25804(18)
H1K H 0.3872 0.2389 0.2389
N1MA N 0.41642(13) 0.07938(12) 0.36715(13)
N2MA N 0.40579(13) 0.13272(13) 0.32363(14)
N1PA N 0.36715(13) 0.41642(13) 0.07938(12)
N2PA N 0.32363(14) 0.40579(13) 0.13272(13)
N1JA N 0.07938(12) 0.36715(13) 0.41642(13)
N2JA N 0.13272(13) 0.32363(14) 0.40579(13)
O1D O 0.2455(5) -0.0301(5) 0.5000
C4D C 0.177(4) -0.046(3) 0.5000
Mn2D Mn 0.2584(4) -0.1489(5) 0.5000
N1D N 0.36715(13) -0.07938(12) 0.58358(13)
N2D N 0.32363(14) -0.13272(13) 0.59421(13)
C1D C 0.34876(18) -0.1647(2) 0.65124(18)
C2D C 0.31655(18) -0.2277(2) 0.68345(18)
C3D C 0.25804(18) -0.25804(18) 0.6536(2)
H1D H 0.2389 -0.2389 0.6128
N1F N 0.07938(12) -0.41642(13) 0.63285(13)
N2F N 0.13272(13) -0.40579(13) 0.67637(14)
C1F C 0.1647(2) -0.34876(18) 0.65124(18)
C2F C 0.2277(2) -0.31655(18) 0.68345(18)
C3F C 0.25804(18) -0.3464(2) 0.74196(18)
H1F H 0.2389 -0.3872 0.7611
N1W N 0.41642(13) -0.36715(13) 0.92062(12)
N2W N 0.40579(13) -0.32363(14) 0.86728(13)
C1W C 0.34876(18) -0.34876(18) 0.8353(2)
C2W C 0.31655(18) -0.31655(18) 0.7723(2)
C3W C 0.3464(2) -0.25804(18) 0.74196(18)
H1W H 0.3872 -0.2389 0.7611
N1Y N 0.41642(13) -0.07938(12) 0.63285(13)
N2Y N 0.40579(13) -0.13272(13) 0.67637(14)
N1RA N 0.36715(13) -0.41642(13) 0.92062(12)
N2RA N 0.32363(14) -0.40579(13) 0.86728(13)
N1KA N 0.07938(12) -0.36715(13) 0.58358(13)
N2KA N 0.13272(13) -0.32363(14) 0.59421(13)
Mn1E Mn -0.35941(5) 0.0000 0.5000
Mn2E Mn -0.2584(4) 0.1489(5) 0.5000
Cl1A_2 Cl -0.5000 0.0000 0.5000
N1E N -0.36715(13) 0.07938(12) 0.58358(13)
N2E N -0.32363(14) 0.13272(13) 0.59421(13)
C1E C -0.34876(18) 0.1647(2) 0.65124(18)
C2E C -0.31655(18) 0.2277(2) 0.68345(18)
C3E C -0.25804(18) 0.25804(18) 0.6536(2)
H1E H -0.2389 0.2389 0.6128
O1E O -0.2455(5) 0.0301(5) 0.5000
C4E C -0.177(4) 0.046(3) 0.5000
N1V N -0.07938(12) 0.41642(13) 0.63285(13)
N2V N -0.13272(13) 0.40579(13) 0.67637(14)
C1V C -0.1647(2) 0.34876(18) 0.65124(18)
C2V C -0.2277(2) 0.31655(18) 0.68345(18)
C3V C -0.25804(18) 0.3464(2) 0.74196(18)
H1V H -0.2389 0.3872 0.7611
N1I N -0.41642(13) 0.36715(13) 0.92062(12)
N2I N -0.40579(13) 0.32363(14) 0.86728(13)
C1I C -0.34876(18) 0.34876(18) 0.8353(2)
C2I C -0.31655(18) 0.31655(18) 0.7723(2)
C3I C -0.3464(2) 0.25804(18) 0.74196(18)
H1I H -0.3872 0.2389 0.7611
N1NA N -0.41642(13) 0.07938(12) 0.63285(13)
N2NA N -0.40579(13) 0.13272(13) 0.67637(14)
N1Z N -0.36715(13) 0.41642(13) 0.92062(12)
N2Z N -0.32363(14) 0.40579(13) 0.86728(13)
N1LA N -0.07938(12) 0.36715(13) 0.58358(13)
N2LA N -0.13272(13) 0.32363(14) 0.59421(13)
O1U O -0.2455(5) -0.0301(5) 0.5000
C4U C -0.177(4) -0.046(3) 0.5000
Mn1E_2 Mn 0.64059(5) 0.0000 0.5000
Mn2E_2 Mn 0.7416(4) 0.1489(5) 0.5000
N1E_2 N 0.63285(13) 0.07938(12) 0.58358(13)
N2E_2 N 0.67637(14) 0.13272(13) 0.59421(13)
C1E_2 C 0.65124(18) 0.1647(2) 0.65124(18)
C2E_2 C 0.68345(18) 0.2277(2) 0.68345(18)
C3E_2 C 0.74196(18) 0.25804(18) 0.6536(2)
H1E_2 H 0.7611 0.2389 0.6128
O1E_2 O 0.7545(5) 0.0301(5) 0.5000
C4E_2 C 0.823(4) 0.046(3) 0.5000
N1V_2 N 0.92062(12) 0.41642(13) 0.63285(13)
N2V_2 N 0.86728(13) 0.40579(13) 0.67637(14)
C1V_2 C 0.8353(2) 0.34876(18) 0.65124(18)
C2V_2 C 0.7723(2) 0.31655(18) 0.68345(18)
C3V_2 C 0.74196(18) 0.3464(2) 0.74196(18)
H1V_2 H 0.7611 0.3872 0.7611
N1I_2 N 0.58358(13) 0.36715(13) 0.92062(12)
N2I_2 N 0.59421(13) 0.32363(14) 0.86728(13)
C1I_2 C 0.65124(18) 0.34876(18) 0.8353(2)
C2I_2 C 0.68345(18) 0.31655(18) 0.7723(2)
C3I_2 C 0.6536(2) 0.25804(18) 0.74196(18)
H1I_2 H 0.6128 0.2389 0.7611
N1NA_2 N 0.58358(13) 0.07938(12) 0.63285(13)
N2NA_2 N 0.59421(13) 0.13272(13) 0.67637(14)
N1Z_2 N 0.63285(13) 0.41642(13) 0.92062(12)
N2Z_2 N 0.67637(14) 0.40579(13) 0.86728(13)
N1LA_2 N 0.92062(12) 0.36715(13) 0.58358(13)
N2LA_2 N 0.86728(13) 0.32363(14) 0.59421(13)
O1U_2 O 0.7545(5) -0.0301(5) 0.5000
C4U_2 C 0.823(4) -0.046(3) 0.5000
Mn1F Mn 0.0000 -0.5000 0.64059(5)
O1F O 0.0301(5) -0.5000 0.7545(5)
C4F C 0.046(3) -0.5000 0.823(4)
O1V O -0.0301(5) -0.5000 0.7545(5)
C4V C -0.046(3) -0.5000 0.823(4)
Mn1F_2 Mn 0.0000 0.5000 0.64059(5)
Mn2F Mn 0.1489(5) 0.5000 0.7416(4)
N1F_2 N 0.07938(12) 0.58358(13) 0.63285(13)
N2F_2 N 0.13272(13) 0.59421(13) 0.67637(14)
C1F_2 C 0.1647(2) 0.65124(18) 0.65124(18)
C2F_2 C 0.2277(2) 0.68345(18) 0.68345(18)
C3F_2 C 0.25804(18) 0.6536(2) 0.74196(18)
H1F_2 H 0.2389 0.6128 0.7611
O1F_2 O 0.0301(5) 0.5000 0.7545(5)
C4F_2 C 0.046(3) 0.5000 0.823(4)
N1W_2 N 0.41642(13) 0.63285(13) 0.92062(12)
N2W_2 N 0.40579(13) 0.67637(14) 0.86728(13)
C1W_2 C 0.34876(18) 0.65124(18) 0.8353(2)
C2W_2 C 0.31655(18) 0.68345(18) 0.7723(2)
C3W_2 C 0.3464(2) 0.74196(18) 0.74196(18)
H1W_2 H 0.3872 0.7611 0.7611
N1D_2 N 0.36715(13) 0.92062(12) 0.58358(13)
N2D_2 N 0.32363(14) 0.86728(13) 0.59421(13)
C1D_2 C 0.34876(18) 0.8353(2) 0.65124(18)
C2D_2 C 0.31655(18) 0.7723(2) 0.68345(18)
C3D_2 C 0.25804(18) 0.74196(18) 0.6536(2)
H1D_2 H 0.2389 0.7611 0.6128
N1KA_2 N 0.07938(12) 0.63285(13) 0.58358(13)
N2KA_2 N 0.13272(13) 0.67637(14) 0.59421(13)
N1Y_2 N 0.41642(13) 0.92062(12) 0.63285(13)
N2Y_2 N 0.40579(13) 0.86728(13) 0.67637(14)
N1RA_2 N 0.36715(13) 0.58358(13) 0.92062(12)
N2RA_2 N 0.32363(14) 0.59421(13) 0.86728(13)
O1V_2 O -0.0301(5) 0.5000 0.7545(5)
C4V_2 C -0.046(3) 0.5000 0.823(4)
Mn1G Mn 0.0000 0.5000 0.35941(5)
Mn2G Mn -0.1489(5) 0.5000 0.2584(4)
O1G O -0.0301(5) 0.5000 0.2455(5)
C4G C -0.046(3) 0.5000 0.177(4)
O1H O 0.0301(5) 0.5000 0.2455(5)
C4H C 0.046(3) 0.5000 0.177(4)
Mn2H Mn 0.1489(5) 0.5000 0.2584(4)
Mn1I Mn -0.5000 0.35941(5) 1.0000
O1I O -0.5000 0.2455(5) 0.9699(5)
C4I C -0.5000 0.177(4) 0.954(3)
O1K O -0.5000 0.2455(5) 1.0301(5)
C4K C -0.5000 0.177(4) 1.046(3)
Mn1I_2 Mn 0.5000 0.35941(5) 1.0000
Mn2I Mn 0.5000 0.2584(4) 0.8511(5)
O1I_2 O 0.5000 0.2455(5) 0.9699(5)
C4I_2 C 0.5000 0.177(4) 0.954(3)
O1K_2 O 0.5000 0.2455(5) 1.0301(5)
C4K_2 C 0.5000 0.177(4) 1.046(3)
Mn1I_3 Mn 0.5000 0.35941(5) 0.0000
Mn2K Mn 0.5000 0.2584(4) 0.1489(5)
O1K_3 O 0.5000 0.2455(5) 0.0301(5)
C4K_3 C 0.5000 0.177(4) 0.046(3)
O1I_3 O 0.5000 0.2455(5) -0.0301(5)
C4I_3 C 0.5000 0.177(4) -0.046(3)
N1K_2 N 0.41642(13) 0.36715(13) 1.07938(12)
N2K_2 N 0.40579(13) 0.32363(14) 1.13272(13)
C1K_2 C 0.34876(18) 0.34876(18) 1.1647(2)
C2K_2 C 0.31655(18) 0.31655(18) 1.2277(2)
C3K_2 C 0.3464(2) 0.25804(18) 1.25804(18)
H1K_2 H 0.3872 0.2389 1.2389
N1C_2 N 0.36715(13) 0.07938(12) 1.41642(13)
N2C_2 N 0.32363(14) 0.13272(13) 1.40579(13)
C1C_2 C 0.34876(18) 0.1647(2) 1.34876(18)
C2C_2 C 0.31655(18) 0.2277(2) 1.31655(18)
C3C_2 C 0.25804(18) 0.25804(18) 1.3464(2)
H1C_2 H 0.2389 0.2389 1.3872
N1H_2 N 0.07938(12) 0.41642(13) 1.36715(13)
N2H_2 N 0.13272(13) 0.40579(13) 1.32363(14)
C1H_2 C 0.1647(2) 0.34876(18) 1.34876(18)
C2H_2 C 0.2277(2) 0.31655(18) 1.31655(18)
C3H_2 C 0.25804(18) 0.3464(2) 1.25804(18)
H1H_2 H 0.2389 0.3872 1.2389
N1PA_2 N 0.36715(13) 0.41642(13) 1.07938(12)
N2PA_2 N 0.32363(14) 0.40579(13) 1.13272(13)
N1JA_2 N 0.07938(12) 0.36715(13) 1.41642(13)
N2JA_2 N 0.13272(13) 0.32363(14) 1.40579(13)
N1MA_2 N 0.41642(13) 0.07938(12) 1.36715(13)
N2MA_2 N 0.40579(13) 0.13272(13) 1.32363(14)
Mn1L Mn 0.0000 0.64059(5) 0.5000
Mn2L Mn -0.1489(5) 0.7416(4) 0.5000
O1L O -0.0301(5) 0.7545(5) 0.5000
C4L C -0.046(3) 0.823(4) 0.5000
O1N O 0.0301(5) 0.7545(5) 0.5000
C4N C 0.046(3) 0.823(4) 0.5000
Mn2M Mn -0.1489(5) 0.2584(4) 0.5000
Mn1L_2 Mn 0.0000 -0.35941(5) 0.5000
Mn2N Mn 0.1489(5) -0.2584(4) 0.5000
O1N_2 O 0.0301(5) -0.2455(5) 0.5000
C4N_2 C 0.046(3) -0.177(4) 0.5000
O1L_2 O -0.0301(5) -0.2455(5) 0.5000
C4L_2 C -0.046(3) -0.177(4) 0.5000
Mn2N_2 Mn 0.1489(5) 0.7416(4) 0.5000
N1N N 0.07938(12) 0.63285(13) 0.41642(13)
N2N N 0.13272(13) 0.67637(14) 0.40579(13)
C1N C 0.1647(2) 0.65124(18) 0.34876(18)
C2N C 0.2277(2) 0.68345(18) 0.31655(18)
C3N C 0.25804(18) 0.74196(18) 0.3464(2)
H1N H 0.2389 0.7611 0.3872
N1P N 0.41642(13) 0.92062(12) 0.36715(13)
N2P N 0.40579(13) 0.86728(13) 0.32363(14)
C1P C 0.34876(18) 0.8353(2) 0.34876(18)
C2P C 0.31655(18) 0.7723(2) 0.31655(18)
C3P C 0.3464(2) 0.74196(18) 0.25804(18)
H1P H 0.3872 0.7611 0.2389
N1B N 0.36715(13) 0.58358(13) 0.07938(12)
N2B N 0.32363(14) 0.59421(13) 0.13272(13)
C1B C 0.34876(18) 0.65124(18) 0.1647(2)
C2B C 0.31655(18) 0.68345(18) 0.2277(2)
C3B C 0.25804(18) 0.6536(2) 0.25804(18)
H1B H 0.2389 0.6128 0.2389
N1TA N 0.07938(12) 0.58358(13) 0.36715(13)
N2TA N 0.13272(13) 0.59421(13) 0.32363(14)
N1GA N 0.41642(13) 0.63285(13) 0.07938(12)
N2GA N 0.40579(13) 0.67637(14) 0.13272(13)
N1CA N 0.36715(13) 0.92062(12) 0.41642(13)
N2CA N 0.32363(14) 0.86728(13) 0.40579(13)
Mn2P Mn 0.5000 0.8511(5) 0.2584(4)
Mn2Q Mn 0.5000 0.1489(5) 0.7416(4)
Mn2R Mn 0.7416(4) 0.5000 0.8511(5)
Mn2S Mn 0.2584(4) 0.5000 0.8511(5)
Mn2U Mn -0.2584(4) -0.1489(5) 0.5000
Mn2V Mn -0.1489(5) 0.5000 0.7416(4)
Mn2W Mn 0.5000 -0.2584(4) 0.8511(5)
Mn2W_2 Mn 0.5000 0.7416(4) 0.8511(5)
Mn2O Mn 0.5000 0.8511(5) 0.7416(4)
Mn2A Mn 0.5000 0.1489(5) 0.2584(4)
Mn1_2 Mn 0.0000 0.35941(5) 1.5000
Mn1_3 Mn 1.0000 0.35941(5) 0.5000
Mn1A Mn -0.5000 0.0000 0.35941(5)
Mn1A_2 Mn 0.5000 0.0000 0.35941(5)
Mn1A_3 Mn 0.5000 0.0000 1.35941(5)
Mn1A_4 Mn 0.5000 1.0000 0.35941(5)
Mn1B Mn 0.35941(5) -0.5000 1.0000
Mn1B_2 Mn 0.35941(5) 0.5000 0.0000
Mn1B_3 Mn 0.35941(5) 0.5000 1.0000
Mn1C_2 Mn -0.64059(5) 0.0000 0.5000
Mn1C_3 Mn 0.35941(5) 0.0000 1.5000
Mn1C_4 Mn 0.35941(5) 1.0000 0.5000
Mn1F_3 Mn 1.0000 0.5000 0.64059(5)
Mn1G_2 Mn 0.0000 0.5000 1.35941(5)
Mn1J Mn 0.5000 -0.35941(5) 1.0000
Mn1J_2 Mn 0.5000 0.64059(5) 0.0000
Mn1J_3 Mn 0.5000 0.64059(5) 1.0000
Mn1O Mn -0.5000 0.0000 0.64059(5)
Mn1O_2 Mn 0.5000 0.0000 0.64059(5)
Mn1O_3 Mn 0.5000 1.0000 0.64059(5)
Mn1R Mn -0.35941(5) 0.5000 1.0000
Mn1R_2 Mn 0.64059(5) 0.5000 1.0000
Mn2_2 Mn 0.1489(5) 0.2584(4) 1.5000
Mn2A_2 Mn 0.5000 0.1489(5) 1.2584(4)
Mn2B Mn 0.2584(4) 0.5000 0.1489(5)
Mn2B_2 Mn 0.2584(4) 0.5000 1.1489(5)
Mn2C_2 Mn 0.2584(4) 0.1489(5) 1.5000
Mn2D_2 Mn 0.2584(4) 0.8511(5) 0.5000
Mn2F_2 Mn 0.1489(5) -0.5000 0.7416(4)
Mn2H_2 Mn 0.1489(5) 0.5000 1.2584(4)
Mn2I_2 Mn -0.5000 0.2584(4) 0.8511(5)
Mn2I_3 Mn 0.5000 0.2584(4) -0.1489(5)
Mn2J Mn 0.5000 0.7416(4) 0.1489(5)
Mn2K_2 Mn -0.5000 0.2584(4) 1.1489(5)
Mn2K_3 Mn 0.5000 0.2584(4) 1.1489(5)
Mn2L_2 Mn -0.1489(5) -0.2584(4) 0.5000
Mn2M_2 Mn 0.8511(5) 0.2584(4) 0.5000
Mn2O_2 Mn 0.5000 -0.1489(5) 0.7416(4)
Mn2Q_2 Mn -0.5000 0.1489(5) 0.7416(4)
Mn2R_2 Mn -0.2584(4) 0.5000 0.8511(5)
Mn2S_2 Mn 0.2584(4) -0.5000 0.8511(5)
Mn2T Mn -0.2584(4) 0.5000 0.1489(5)
Mn2U_2 Mn -0.2584(4) 0.8511(5) 0.5000
Mn2U_3 Mn 0.7416(4) -0.1489(5) 0.5000
Mn2V_2 Mn -0.1489(5) -0.5000 0.7416(4)
Mn2V_3 Mn 0.8511(5) 0.5000 0.7416(4)
Cl1_2 Cl 0.0000 -0.5000 0.5000
Cl1B Cl -0.5000 0.5000 1.0000
Cl1B_2 Cl 0.5000 0.5000 0.0000
Cl1B_3 Cl 0.5000 0.5000 1.0000
N1G N -0.07938(12) 0.58358(13) 0.36715(13)
N1I_3 N 0.58358(13) 0.36715(13) -0.07938(12)
N1K_3 N -0.58358(13) 0.36715(13) 1.07938(12)
N1L N -0.07938(12) -0.36715(13) 0.58358(13)
N1L_2 N -0.07938(12) 0.63285(13) 0.58358(13)
N1M N -0.07938(12) 0.36715(13) 0.41642(13)
N1N_2 N 0.07938(12) -0.36715(13) 0.41642(13)
N1U N -0.36715(13) -0.07938(12) 0.41642(13)
N1U_2 N 0.63285(13) -0.07938(12) 0.41642(13)
N1V_3 N -0.07938(12) -0.58358(13) 0.63285(13)
N1X N -0.07938(12) -0.36715(13) 0.41642(13)
N1X_2 N -0.07938(12) 0.63285(13) 0.41642(13)
N1AA N -0.36715(13) -0.07938(12) 0.58358(13)
N1AA_2 N 0.63285(13) -0.07938(12) 0.58358(13)
N1BA N -0.36715(13) 0.07938(12) 0.41642(13)
N1BA_2 N 0.63285(13) 0.07938(12) 0.41642(13)
N1CA_2 N 0.36715(13) -0.07938(12) 0.41642(13)
N1DA N -0.07938(12) 0.41642(13) 0.36715(13)
N1EA_2 N 0.07938(12) -0.58358(13) 0.63285(13)
N1FA N -0.07938(12) -0.41642(13) 0.63285(13)
N1FA_2 N -0.07938(12) 0.58358(13) 0.63285(13)
N1HA_2 N -0.58358(13) 0.36715(13) 0.92062(12)
N1HA_3 N 0.41642(13) 0.36715(13) -0.07938(12)
N1UA N -0.41642(13) 0.36715(13) 1.07938(12)
N1UA_2 N 0.58358(13) 0.36715(13) 0.07938(12)
N1UA_3 N 0.58358(13) 0.36715(13) 1.07938(12)
N2A N 0.59421(13) 0.13272(13) 0.32363(14)
N2G N -0.13272(13) 0.59421(13) 0.32363(14)
N2L N -0.13272(13) 0.67637(14) 0.59421(13)
N2M N -0.13272(13) 0.32363(14) 0.40579(13)
N2N_2 N 0.13272(13) -0.32363(14) 0.40579(13)
N2O N 0.59421(13) 0.86728(13) 0.67637(14)
N2R N 0.67637(14) 0.59421(13) 0.86728(13)
N2U N -0.32363(14) -0.13272(13) 0.40579(13)
N2X N -0.13272(13) 0.67637(14) 0.40579(13)
N2AA N -0.32363(14) -0.13272(13) 0.59421(13)
N2BA N -0.32363(14) 0.13272(13) 0.40579(13)
N2BA_2 N 0.67637(14) 0.13272(13) 0.40579(13)
N2CA_2 N 0.32363(14) -0.13272(13) 0.40579(13)
N2DA N -0.13272(13) 0.40579(13) 0.32363(14)
N2FA N -0.13272(13) 0.59421(13) 0.67637(14)
N2IA N 0.59421(13) -0.32363(14) 0.86728(13)
N2IA_2 N 0.59421(13) 0.67637(14) 0.86728(13)
N2OA N 0.59421(13) 0.86728(13) 0.32363(14)
N2UA N 0.59421(13) 0.32363(14) 0.13272(13)
O1A O 0.5000 0.0301(5) 0.2455(5)
O1O O 0.5000 0.9699(5) 0.7545(5)
O1P O 0.5000 0.9699(5) 0.2455(5)
O1Q O 0.5000 0.0301(5) 0.7545(5)
O1R O 0.7545(5) 0.5000 0.9699(5)
O1S O 0.2455(5) 0.5000 0.9699(5)
O1W O 0.5000 -0.2455(5) 0.9699(5)
O1W_2 O 0.5000 0.7545(5) 0.9699(5)
C5? C 0.0000 0.193(3) 0.533(2)
loop_
_geom_bond_atom_site_label_1
_geom_bond_atom_site_label_2
_geom_bond_site_symmetry_1
_geom_bond_site_symmetry_2
Mn1 Cl1 1_555 1_555
Mn2 N2 1_555 1_555
Cl1 Mn1F_2 1_555 1_555
N1 Mn1 1_555 1_555
N2 N1 1_555 1_555
C1 N2 1_555 1_555
C2 C1 1_555 1_555
C3 C2 1_555 1_555
H1 C3 1_555 1_555
O1 Mn1 1_555 1_555
C4 O1 1_555 1_555
N1Q N2Q 1_555 1_555
N2Q C1Q 1_555 1_555
C1Q C2Q 1_555 1_555
C2Q C3 1_555 1_555
C3Q C2Q 1_555 1_555
H1Q C3Q 1_555 1_555
N1S N2S 1_555 1_555
N2S C1S 1_555 1_555
C1S C2S 1_555 1_555
C2S C3Q 1_555 1_555
C3S C2 1_555 1_555
H1S C3S 1_555 1_555
N1EA N1 1_555 1_555
N2EA C1 1_555 1_555
N1HA N1S 1_555 1_555
N2HA C1S 1_555 1_555
N1SA N1Q 1_555 1_555
N2SA C1Q 1_555 1_555
O1M Mn1 1_555 1_555
C4M C4 1_555 1_555
Mn1C N1SA 1_555 1_555
Mn2C Mn2 1_555 1_555
Cl1A Mn1C 1_555 1_555
N1C Mn1C 1_555 1_555
N2C Mn2C 1_555 1_555
C1C N2C 1_555 1_555
C2C C1C 1_555 1_555
C3C C2C 1_555 1_555
H1C C3C 1_555 1_555
O1C Mn1C 1_555 1_555
C4C O1C 1_555 1_555
N1H N2H 1_555 1_555
N2H C1H 1_555 1_555
C1H C2H 1_555 1_555
C2H C3C 1_555 1_555
C3H C2H 1_555 1_555
H1H C3H 1_555 1_555
N1K N2K 1_555 1_555
N2K C1K 1_555 1_555
C1K C2K 1_555 1_555
C2K C3H 1_555 1_555
C3K C2C 1_555 1_555
H1K C3K 1_555 1_555
N1MA N1C 1_555 1_555
N2MA C1C 1_555 1_555
N1PA N1K 1_555 1_555
N2PA C1K 1_555 1_555
N1JA Mn1 1_555 1_555
N2JA Mn2 1_555 1_555
O1D Mn1C 1_555 1_555
C4D C4C 1_555 1_555
Mn2D O1D 1_555 1_555
N1D Mn1C 1_555 1_555
N2D Mn2D 1_555 1_555
C1D N2D 1_555 1_555
C2D C1D 1_555 1_555
C3D C2D 1_555 1_555
H1D C3D 1_555 1_555
N1F N2F 1_555 1_555
N2F C1F 1_555 1_555
C1F C2F 1_555 1_555
C2F C3D 1_555 1_555
C3F C2F 1_555 1_555
H1F C3F 1_555 1_555
N1W N2W 1_555 1_555
N2W C1W 1_555 1_555
C1W C2W 1_555 1_555
C2W C3F 1_555 1_555
C3W C2D 1_555 1_555
H1W C3W 1_555 1_555
N1Y N1D 1_555 1_555
N2Y C1D 1_555 1_555
N1RA N1W 1_555 1_555
N2RA C1W 1_555 1_555
N1KA N1F 1_555 1_555
N2KA C1F 1_555 1_555
Mn1E Cl1A_2 1_555 1_555
Mn2E N2E 1_555 1_555
Cl1A_2 Mn1A 1_555 1_555
N1E Mn1E 1_555 1_555
N2E N1E 1_555 1_555
C1E N2E 1_555 1_555
C2E C1E 1_555 1_555
C3E C2E 1_555 1_555
H1E C3E 1_555 1_555
O1E Mn1E 1_555 1_555
C4E O1E 1_555 1_555
N1V N2V 1_555 1_555
N2V C1V 1_555 1_555
C1V C2V 1_555 1_555
C2V C3E 1_555 1_555
C3V C2V 1_555 1_555
H1V C3V 1_555 1_555
N1I N2I 1_555 1_555
N2I C1I 1_555 1_555
C1I C2I 1_555 1_555
C2I C3V 1_555 1_555
C3I C2E 1_555 1_555
H1I C3I 1_555 1_555
N1NA N1E 1_555 1_555
N2NA C1E 1_555 1_555
N1Z N1I 1_555 1_555
N2Z C1I 1_555 1_555
N1LA Mn1 1_555 1_555
N2LA C1V 1_555 1_555
O1U Mn1E 1_555 1_555
C4U C4E 1_555 1_555
Mn1E_2 Cl1A 1_555 1_555
Mn2E_2 N2E_2 1_555 1_555
N1E_2 Mn1E_2 1_555 1_555
N2E_2 N1E_2 1_555 1_555
C1E_2 N2E_2 1_555 1_555
C2E_2 C1E_2 1_555 1_555
C3E_2 C2E_2 1_555 1_555
H1E_2 C3E_2 1_555 1_555
O1E_2 Mn1E_2 1_555 1_555
C4E_2 O1E_2 1_555 1_555
N1V_2 N2V_2 1_555 1_555
N2V_2 C1V_2 1_555 1_555
C1V_2 C2V_2 1_555 1_555
C2V_2 C3E_2 1_555 1_555
C3V_2 C2V_2 1_555 1_555
H1V_2 C3V_2 1_555 1_555
N1I_2 N2I_2 1_555 1_555
N2I_2 C1I_2 1_555 1_555
C1I_2 C2I_2 1_555 1_555
C2I_2 C3V_2 1_555 1_555
C3I_2 C2E_2 1_555 1_555
H1I_2 C3I_2 1_555 1_555
N1NA_2 N1E_2 1_555 1_555
N2NA_2 C1E_2 1_555 1_555
N1Z_2 N1I_2 1_555 1_555
N2Z_2 C1I_2 1_555 1_555
N1LA_2 N1V_2 1_555 1_555
N2LA_2 C1V_2 1_555 1_555
O1U_2 Mn1E_2 1_555 1_555
C4U_2 C4E_2 1_555 1_555
Mn1F N1F 1_555 1_555
O1F Mn1F 1_555 1_555
C4F O1F 1_555 1_555
O1V Mn1F 1_555 1_555
C4V C4F 1_555 1_555
Mn1F_2 N1EA 1_555 1_555
Mn2F N2EA 1_555 1_555
N1F_2 Mn1F_2 1_555 1_555
N2F_2 Mn2F 1_555 1_555
C1F_2 N2F_2 1_555 1_555
C2F_2 C1F_2 1_555 1_555
C3F_2 C2F_2 1_555 1_555
H1F_2 C3F_2 1_555 1_555
O1F_2 Mn1F_2 1_555 1_555
C4F_2 O1F_2 1_555 1_555
N1W_2 N2W_2 1_555 1_555
N2W_2 C1W_2 1_555 1_555
C1W_2 C2W_2 1_555 1_555
C2W_2 C3F_2 1_555 1_555
C3W_2 C2W_2 1_555 1_555
H1W_2 C3W_2 1_555 1_555
N1D_2 N2D_2 1_555 1_555
N2D_2 C1D_2 1_555 1_555
C1D_2 C2D_2 1_555 1_555
C2D_2 C3W_2 1_555 1_555
C3D_2 C2F_2 1_555 1_555
H1D_2 C3D_2 1_555 1_555
N1KA_2 N1F_2 1_555 1_555
N2KA_2 C1F_2 1_555 1_555
N1Y_2 N1D_2 1_555 1_555
N2Y_2 C1D_2 1_555 1_555
N1RA_2 N1W_2 1_555 1_555
N2RA_2 C1W_2 1_555 1_555
O1V_2 Mn1F_2 1_555 1_555
C4V_2 C4F_2 1_555 1_555
Mn1G Cl1 1_555 1_555
Mn2G O1G 1_555 1_555
O1G Mn1G 1_555 1_555
C4G O1G 1_555 1_555
O1H Mn1G 1_555 1_555
C4H C4G 1_555 1_555
Mn2H N2H 1_555 1_555
Mn1I N1I 1_555 1_555
O1I Mn1I 1_555 1_555
C4I O1I 1_555 1_555
O1K Mn1I 1_555 1_555
C4K C4I 1_555 1_555
Mn1I_2 N1HA 1_555 1_555
Mn2I N2HA 1_555 1_555
O1I_2 Mn1I_2 1_555 1_555
C4I_2 O1I_2 1_555 1_555
O1K_2 Mn1I_2 1_555 1_555
C4K_2 C4I_2 1_555 1_555
Mn1I_3 N1K 1_555 1_555
Mn2K N2K 1_555 1_555
O1K_3 Mn1I_3 1_555 1_555
C4K_3 O1K_3 1_555 1_555
O1I_3 Mn1I_3 1_555 1_555
C4I_3 C4K_3 1_555 1_555
N1K_2 Mn1I_2 1_555 1_555
N2K_2 N1K_2 1_555 1_555
C1K_2 N2K_2 1_555 1_555
C2K_2 C1K_2 1_555 1_555
C3K_2 C2K_2 1_555 1_555
H1K_2 C3K_2 1_555 1_555
N1C_2 N2C_2 1_555 1_555
N2C_2 C1C_2 1_555 1_555
C1C_2 C2C_2 1_555 1_555
C2C_2 C3K_2 1_555 1_555
C3C_2 C2C_2 1_555 1_555
H1C_2 C3C_2 1_555 1_555
N1H_2 N2H_2 1_555 1_555
N2H_2 C1H_2 1_555 1_555
C1H_2 C2H_2 1_555 1_555
C2H_2 C3C_2 1_555 1_555
C3H_2 C2K_2 1_555 1_555
H1H_2 C3H_2 1_555 1_555
N1PA_2 N1K_2 1_555 1_555
N2PA_2 C1K_2 1_555 1_555
N1JA_2 N1H_2 1_555 1_555
N2JA_2 C1H_2 1_555 1_555
N1MA_2 N1C_2 1_555 1_555
N2MA_2 C1C_2 1_555 1_555
Mn1L Cl1 1_555 1_555
Mn2L O1L 1_555 1_555
O1L Mn1L 1_555 1_555
C4L O1L 1_555 1_555
O1N Mn1L 1_555 1_555
C4N C4L 1_555 1_555
Mn2M O1M 1_555 1_555
Mn1L_2 N1KA 1_555 1_555
Mn2N Mn2D 1_555 1_555
O1N_2 Mn1L_2 1_555 1_555
C4N_2 O1N_2 1_555 1_555
O1L_2 Mn1L_2 1_555 1_555
C4L_2 C4N_2 1_555 1_555
Mn2N_2 N2KA_2 1_555 1_555
N1N Mn1L 1_555 1_555
N2N Mn2N_2 1_555 1_555
C1N N2N 1_555 1_555
C2N C1N 1_555 1_555
C3N C2N 1_555 1_555
H1N C3N 1_555 1_555
N1P N2P 1_555 1_555
N2P C1P 1_555 1_555
C1P C2P 1_555 1_555
C2P C3N 1_555 1_555
C3P C2P 1_555 1_555
H1P C3P 1_555 1_555
N1B N2B 1_555 1_555
N2B C1B 1_555 1_555
C1B C2B 1_555 1_555
C2B C3P 1_555 1_555
C3B C2N 1_555 1_555
H1B C3B 1_555 1_555
N1TA Mn1G 1_555 1_555
N2TA Mn2H 1_555 1_555
N1GA N1B 1_555 1_555
N2GA C1B 1_555 1_555
N1CA N1P 1_555 1_555
N2CA C1P 1_555 1_555
Mn2P N2P 1_555 1_555
Mn2Q N2Q 1_555 1_555
Mn2R N2Z_2 1_555 1_555
Mn2S N2S 1_555 1_555
Mn2U O1U 1_555 1_555
Mn2V N2V 1_555 1_555
Mn2W N2W 1_555 1_555
Mn2W_2 N2W_2 1_555 1_555
Mn2O N2Y_2 1_555 1_555
Mn2A N2MA 1_555 1_555
Mn1_2 N1JA_2 1_555 1_555
Mn1_3 N1LA_2 1_555 1_555
Mn1A_2 Cl1A 1_555 1_555
Mn1A_3 N1MA_2 1_555 1_555
Mn1A_4 N1P 1_555 1_555
Mn1B N1RA 1_555 1_555
Mn1B_2 N1PA 1_555 1_555
Mn1B_3 N1S 1_555 1_555
Mn1C_2 Cl1A_2 1_555 1_555
Mn1C_3 N1C_2 1_555 1_555
Mn1C_4 N1D_2 1_555 1_555
Mn1F_3 N1V_2 1_555 1_555
Mn1G_2 N1H_2 1_555 1_555
Mn1J N1W 1_555 1_555
Mn1J_2 N1GA 1_555 1_555
Mn1J_3 N1W_2 1_555 1_555
Mn1O Cl1A_2 1_555 1_555
Mn1O_2 N1Q 1_555 1_555
Mn1O_3 N1Y_2 1_555 1_555
Mn1R N1Z 1_555 1_555
Mn1R_2 N1Z_2 1_555 1_555
Mn2_2 N2JA_2 1_555 1_555
Mn2A_2 N2MA_2 1_555 1_555
Mn2B N2PA 1_555 1_555
Mn2B_2 N2PA_2 1_555 1_555
Mn2C_2 N2C_2 1_555 1_555
Mn2D_2 N2D_2 1_555 1_555
Mn2F_2 N2F 1_555 1_555
Mn2H_2 N2H_2 1_555 1_555
Mn2I_2 N2I 1_555 1_555
Mn2I_3 O1I_3 1_555 1_555
Mn2J N2GA 1_555 1_555
Mn2K_2 O1K 1_555 1_555
Mn2K_3 O1K_2 1_555 1_555
Mn2L_2 O1L_2 1_555 1_555
Mn2M_2 Mn2E_2 1_555 1_555
Mn2O_2 N2Y 1_555 1_555
Mn2Q_2 N2NA 1_555 1_555
Mn2R_2 N2Z 1_555 1_555
Mn2S_2 N2RA 1_555 1_555
Mn2T Mn2G 1_555 1_555
Mn2U_2 Mn2L 1_555 1_555
Mn2U_3 O1U_2 1_555 1_555
Mn2V_2 O1V 1_555 1_555
Mn2V_3 N2V_2 1_555 1_555
Cl1_2 Mn1F 1_555 1_555
Cl1B Mn1I 1_555 1_555
Cl1B_2 Mn1I_3 1_555 1_555
Cl1B_3 Mn1I_2 1_555 1_555
N1G Mn1G 1_555 1_555
N1I_3 Mn1I_3 1_555 1_555
N1K_3 Mn1I 1_555 1_555
N1L Mn1L_2 1_555 1_555
N1L_2 Mn1L 1_555 1_555
N1M Mn1 1_555 1_555
N1N_2 Mn1L_2 1_555 1_555
N1U Mn1E 1_555 1_555
N1U_2 Mn1E_2 1_555 1_555
N1V_3 Mn1F 1_555 1_555
N1X Mn1L_2 1_555 1_555
N1X_2 Mn1L 1_555 1_555
N1AA Mn1E 1_555 1_555
N1AA_2 Mn1E_2 1_555 1_555
N1BA Mn1E 1_555 1_555
N1BA_2 Mn1E_2 1_555 1_555
N1CA_2 Mn1C 1_555 1_555
N1DA Mn1G 1_555 1_555
N1EA_2 Mn1F 1_555 1_555
N1FA Mn1F 1_555 1_555
N1FA_2 Mn1F_2 1_555 1_555
N1HA_2 Mn1I 1_555 1_555
N1HA_3 Mn1I_3 1_555 1_555
N1UA Mn1I 1_555 1_555
N1UA_2 Mn1I_3 1_555 1_555
N1UA_3 Mn1I_2 1_555 1_555
N2A Mn2A 1_555 1_555
N2G Mn2G 1_555 1_555
N2L Mn2L 1_555 1_555
N2M Mn2M 1_555 1_555
N2N_2 Mn2N 1_555 1_555
N2O Mn2O 1_555 1_555
N2R Mn2R 1_555 1_555
N2U Mn2U 1_555 1_555
N2X Mn2L 1_555 1_555
N2AA Mn2U 1_555 1_555
N2BA Mn2E 1_555 1_555
N2BA_2 Mn2E_2 1_555 1_555
N2CA_2 Mn2D 1_555 1_555
N2DA Mn2G 1_555 1_555
N2FA Mn2V 1_555 1_555
N2IA Mn2W 1_555 1_555
N2IA_2 Mn2W_2 1_555 1_555
N2OA Mn2P 1_555 1_555
N2UA Mn2K 1_555 1_555
O1A Mn2A 1_555 1_555
O1O Mn2O 1_555 1_555
O1P Mn2P 1_555 1_555
O1Q Mn2Q 1_555 1_555
O1R Mn2R 1_555 1_555
O1S Mn2S 1_555 1_555
O1W Mn2W 1_555 1_555
O1W_2 Mn2W_2 1_555 1_555
Mn2 O1 1_555 1_555
O1 O1M 1_555 1_555
C2S C3S 1_555 1_555
N1EA N2EA 1_555 1_555
N1HA N2HA 1_555 1_555
N1SA N2SA 1_555 1_555
N2SA Mn2C 1_555 1_555
O1M C4M 1_555 1_555
Mn2C O1C 1_555 1_555
Cl1A Mn1O_2 1_555 1_555
N1C N2C 1_555 1_555
O1C O1D 1_555 1_555
N1H N1JA 1_555 1_555
N1H Mn1G 1_555 1_555
C1H N2JA 1_555 1_555
C2K C3K 1_555 1_555
N1MA N2MA 1_555 1_555
N1MA Mn1A_2 1_555 1_555
N1PA N2PA 1_555 1_555
N1JA N2JA 1_555 1_555
O1D C4D 1_555 1_555
N1D N2D 1_555 1_555
C2W C3W 1_555 1_555
N1Y N2Y 1_555 1_555
N1Y Mn1O_2 1_555 1_555
N1RA N2RA 1_555 1_555
N1KA N2KA 1_555 1_555
N2KA Mn2N 1_555 1_555
Mn2E O1E 1_555 1_555
Mn2E Mn2M 1_555 1_555
O1E O1U 1_555 1_555
N1V N1LA 1_555 1_555
N1V Mn1F_2 1_555 1_555
C2I C3I 1_555 1_555
N1NA N2NA 1_555 1_555
N1NA Mn1O 1_555 1_555
N1Z N2Z 1_555 1_555
N1LA N2LA 1_555 1_555
N2LA Mn2M 1_555 1_555
O1U C4U 1_555 1_555
Mn2E_2 O1E_2 1_555 1_555
O1E_2 O1U_2 1_555 1_555
N1I_2 Mn1I_2 1_555 1_555
N2I_2 Mn2I 1_555 1_555
C2I_2 C3I_2 1_555 1_555
N1NA_2 N2NA_2 1_555 1_555
N1NA_2 Mn1O_2 1_555 1_555
N2NA_2 Mn2Q 1_555 1_555
N1Z_2 N2Z_2 1_555 1_555
N1LA_2 N2LA_2 1_555 1_555
N2LA_2 Mn2M_2 1_555 1_555
O1U_2 C4U_2 1_555 1_555
O1F O1V 1_555 1_555
O1F Mn2F_2 1_555 1_555
O1V C4V 1_555 1_555
Mn2F O1F_2 1_555 1_555
Mn2F Mn2S 1_555 1_555
N1F_2 N2F_2 1_555 1_555
O1F_2 O1V_2 1_555 1_555
C2D_2 C3D_2 1_555 1_555
N1KA_2 N2KA_2 1_555 1_555
N1KA_2 Mn1L 1_555 1_555
N1Y_2 N2Y_2 1_555 1_555
N1RA_2 N2RA_2 1_555 1_555
N1RA_2 Mn1B_3 1_555 1_555
N2RA_2 Mn2S 1_555 1_555
O1V_2 C4V_2 1_555 1_555
O1V_2 Mn2V 1_555 1_555
O1G O1H 1_555 1_555
O1H C4H 1_555 1_555
O1H Mn2H 1_555 1_555
Mn2H Mn2B 1_555 1_555
O1I O1K 1_555 1_555
O1I Mn2I_2 1_555 1_555
O1K C4K 1_555 1_555
Mn2I O1I_2 1_555 1_555
Mn2I Mn2Q 1_555 1_555
O1I_2 O1K_2 1_555 1_555
O1K_2 C4K_2 1_555 1_555
Mn2K O1K_3 1_555 1_555
Mn2K Mn2A 1_555 1_555
O1K_3 O1I_3 1_555 1_555
O1I_3 C4I_3 1_555 1_555
N2K_2 Mn2K_3 1_555 1_555
C2H_2 C3H_2 1_555 1_555
N1PA_2 N2PA_2 1_555 1_555
N1PA_2 Mn1B_3 1_555 1_555
N1JA_2 N2JA_2 1_555 1_555
N1MA_2 N2MA_2 1_555 1_555
O1L O1N 1_555 1_555
O1N C4N 1_555 1_555
O1N Mn2N_2 1_555 1_555
Mn1L_2 Cl1_2 1_555 1_555
Mn2N O1N_2 1_555 1_555
O1N_2 O1L_2 1_555 1_555
O1L_2 C4L_2 1_555 1_555
Mn2N_2 Mn2D_2 1_555 1_555
N1N N2N 1_555 1_555
N1N N1TA 1_555 1_555
C1N N2TA 1_555 1_555
N1B Mn1B_2 1_555 1_555
N2B Mn2B 1_555 1_555
C2B C3B 1_555 1_555
N1TA N2TA 1_555 1_555
N1GA N2GA 1_555 1_555
N1CA N2CA 1_555 1_555
N1CA Mn1C_4 1_555 1_555
N2CA Mn2D_2 1_555 1_555
Mn2P Mn2J 1_555 1_555
Mn2R Mn2V_3 1_555 1_555
Mn2U Mn2L_2 1_555 1_555
Mn2V Mn2R_2 1_555 1_555
Mn2W Mn2O_2 1_555 1_555
Mn2W_2 Mn2O 1_555 1_555
Mn1A_2 O1A 1_555 1_555
Mn1A_4 O1P 1_555 1_555
Mn1B_2 Cl1B_2 1_555 1_555
Mn1B_3 Cl1B_3 1_555 1_555
Mn1B_3 O1S 1_555 1_555
Mn1J O1W 1_555 1_555
Mn1J_2 Cl1B_2 1_555 1_555
Mn1J_3 Cl1B_3 1_555 1_555
Mn1J_3 O1W_2 1_555 1_555
Mn1O_2 O1Q 1_555 1_555
Mn1O_3 O1O 1_555 1_555
Mn1R Cl1B 1_555 1_555
Mn1R_2 Cl1B_3 1_555 1_555
Mn1R_2 O1R 1_555 1_555
Mn2_2 Mn2C_2 1_555 1_555
Mn2A_2 Mn2K_3 1_555 1_555
Mn2B_2 Mn2H_2 1_555 1_555
Mn2F_2 Mn2S_2 1_555 1_555
Mn2I_2 Mn2Q_2 1_555 1_555
N1G N1X_2 1_555 1_555
N1G N2G 1_555 1_555
N1L N1FA 1_555 1_555
N1L_2 N1FA_2 1_555 1_555
N1L_2 N2L 1_555 1_555
N1M N1DA 1_555 1_555
N1M N2M 1_555 1_555
N1N_2 N2N_2 1_555 1_555
N1U N2U 1_555 1_555
N1X_2 N2X 1_555 1_555
N1AA N2AA 1_555 1_555
N1BA N2BA 1_555 1_555
N1BA_2 N2BA_2 1_555 1_555
N1CA_2 N2CA_2 1_555 1_555
N1DA N2DA 1_555 1_555
N1FA_2 N2FA 1_555 1_555
N1UA_2 N2UA 1_555 1_555

#END
