
#######################################################################
#
#                 Cambridge Crystallographic Data Centre
#                                CCDC 
#
#######################################################################
#
# If this CIF has been generated from an entry in the Cambridge 
# Structural Database, then it will include bibliographic, chemical, 
# crystal, experimental, refinement or atomic coordinate data resulting 
# from the CCDC's data processing and validation procedures.
#
#######################################################################

data_JEWYAM
_chemical_formula_moiety         
'(C72 H48 Cl3 Mn12 N96 O12 3-)2n,3n(C30 H72 Mn1 N12 O6 2+),42n(C3 H7 N1 O1),20n(C1 H4 O1),11n(H2 O1)'
_chemical_name_systematic        
'catena-[tris(hexakis(Dimethylformamide)-manganese(ii)) bis(octakis(\m~6~-1,3,5-benzenetris(tetrazolato))-tris(\m~4~-chloro)-dodecakis(aqua)-dodeca-manganese(ii)) dimethylformamide methanol solvate undecahydrate]'
_symmetry_cell_setting           cubic
_symmetry_space_group_name_H-M   'P m -3 m'
_symmetry_Int_Tables_number      221
_space_group_name_Hall           '-P 4 2 3'
loop_
_symmetry_equiv_pos_site_id
_symmetry_equiv_pos_as_xyz
1 x,y,z
2 -y,x,z
3 x,-y,-z
4 z,x,y
5 -x,-y,z
6 y,x,-z
7 -x,z,y
8 y,-x,z
9 -x,y,-z
10 -z,-x,y
11 -y,-x,-z
12 x,-z,y
13 z,-x,-y
14 -x,-z,-y
15 -z,x,-y
16 x,z,-y
17 y,z,x
18 z,-y,x
19 -z,y,x
20 z,y,-x
21 y,-z,-x
22 -z,-y,-x
23 -y,z,-x
24 -y,-z,x
25 -x,-y,-z
26 y,-x,-z
27 -x,y,z
28 -z,-x,-y
29 x,y,-z
30 -y,-x,z
31 x,-z,-y
32 -y,x,-z
33 x,-y,z
34 z,x,-y
35 y,x,z
36 -x,z,-y
37 -z,x,y
38 x,z,y
39 z,-x,y
40 -x,-z,y
41 -y,-z,-x
42 -z,y,-x
43 z,-y,-x
44 -z,-y,x
45 -y,z,x
46 z,y,x
47 y,-z,x
48 y,z,-x
_cell_length_a                   19.1158(11)
_cell_length_b                   19.1158(11)
_cell_length_c                   19.1158(11)
_cell_angle_alpha                90
_cell_angle_beta                 90
_cell_angle_gamma                90
_cell_volume                     6985.18
_exptl_crystal_colour            colorless
_exptl_crystal_description       cube
_cell_formula_units_Z            1
loop_
_atom_site_label
_atom_site_type_symbol
_atom_site_fract_x
_atom_site_fract_y
_atom_site_fract_z
O3 O 0.3144(6) 0.3876(7) -0.0469(6)
O8 O 0.5000 0.5000 -0.269(11)
Mn1 Mn 0.14310(4) 0.5000 0.0000
Cl1 Cl 0.0000 0.5000 0.0000
O1 O 0.2540(3) 0.5000 0.0000
N1 N 0.13224(13) 0.41933(13) -0.08336(13)
N2 N 0.17516(14) 0.36509(14) -0.09274(14)
C1 C 0.1498(2) 0.3329(3) -0.1498(2)
C2 C 0.18073(19) 0.2697(3) -0.18073(19)
C3 C 0.2399(2) 0.2399(2) -0.1505(3)
H1 H 0.2593 0.2593 -0.1103
Mn1D Mn -0.14310(4) 0.5000 0.0000
Mn1Q Mn 0.0000 0.5000 0.14310(4)
Mn1S Mn 0.0000 0.5000 -0.14310(4)
Mn1T Mn 0.5000 0.0000 -0.14310(4)
Mn1A Mn 0.5000 0.14310(4) 0.0000
Mn1C Mn 0.0000 0.14310(4) -0.5000
Mn1K Mn 0.14310(4) 0.0000 -0.5000
Mn1P Mn 0.5000 1.0000 0.14310(4)
Mn1G Mn 0.5000 0.85690(4) 0.0000
Mn1I Mn 0.0000 0.85690(4) 0.5000
Mn1K_2 Mn 0.14310(4) 1.0000 0.5000
Mn1P_2 Mn 0.5000 0.0000 0.14310(4)
Mn1C_2 Mn 0.0000 0.14310(4) 0.5000
Mn1K_3 Mn 0.14310(4) 0.0000 0.5000
Mn1T_2 Mn 0.5000 1.0000 -0.14310(4)
Mn1I_2 Mn 0.0000 0.85690(4) -0.5000
Mn1K_4 Mn 0.14310(4) 1.0000 -0.5000
Mn1I_3 Mn 0.0000 -0.14310(4) -0.5000
Mn1C_3 Mn 0.0000 1.14310(4) 0.5000
Mn1I_4 Mn 0.0000 -0.14310(4) 0.5000
Mn1G_2 Mn 0.5000 -0.14310(4) 0.0000
Mn1F Mn -0.14310(4) 0.0000 -0.5000
Mn1A_2 Mn 0.5000 1.14310(4) 0.0000
Mn1T_3 Mn -0.5000 1.0000 -0.14310(4)
Mn1G_3 Mn -0.5000 0.85690(4) 0.0000
Mn1F_2 Mn -0.14310(4) 1.0000 -0.5000
Mn1P_3 Mn -0.5000 0.0000 0.14310(4)
Mn1A_3 Mn -0.5000 0.14310(4) 0.0000
Mn1F_3 Mn -0.14310(4) 0.0000 0.5000
Mn1P_4 Mn -0.5000 1.0000 0.14310(4)
Mn1F_4 Mn -0.14310(4) 1.0000 0.5000
Mn1T_4 Mn -0.5000 0.0000 -0.14310(4)
Mn1I_5 Mn 1.0000 -0.14310(4) -0.5000
Mn1F_5 Mn 0.85690(4) 0.0000 -0.5000
Mn1D_2 Mn 0.85690(4) -0.5000 0.0000
Mn1S_2 Mn 1.0000 -0.5000 -0.14310(4)
Mn1_2 Mn 0.14310(4) -0.5000 0.0000
Mn1S_3 Mn 0.0000 -0.5000 -0.14310(4)
Mn1C_4 Mn 1.0000 0.14310(4) -0.5000
Mn1D_3 Mn 0.85690(4) 0.5000 0.0000
Mn1S_4 Mn 1.0000 0.5000 -0.14310(4)
Mn1Q_2 Mn 1.0000 0.5000 0.14310(4)
Mn1F_6 Mn 0.85690(4) 0.0000 0.5000
Mn1C_5 Mn 1.0000 0.14310(4) 0.5000
Mn1D_4 Mn -0.14310(4) 0.5000 -1.0000
Mn1Q_3 Mn 0.0000 0.5000 -0.85690(4)
Mn1P_5 Mn -0.5000 0.0000 -0.85690(4)
Mn1A_4 Mn -0.5000 0.14310(4) -1.0000
Mn1_3 Mn 0.14310(4) 0.5000 -1.0000
Mn1P_6 Mn 0.5000 0.0000 -0.85690(4)
Mn1A_5 Mn 0.5000 0.14310(4) -1.0000
Mn1G_4 Mn 0.5000 -0.14310(4) -1.0000
Mn1Q_4 Mn 0.0000 -0.5000 -0.85690(4)
Mn1_4 Mn 0.14310(4) -0.5000 -1.0000
Mn1C_6 Mn 1.0000 1.14310(4) 0.5000
Mn1F_7 Mn 0.85690(4) 1.0000 0.5000
Mn1D_5 Mn 0.85690(4) 1.5000 0.0000
Mn1Q_5 Mn 1.0000 1.5000 0.14310(4)
Cl1A Cl 0.5000 0.0000 0.0000
Cl1C Cl 0.0000 0.0000 -0.5000
Cl1A_2 Cl 0.5000 1.0000 0.0000
Cl1C_2 Cl 0.0000 1.0000 0.5000
Cl1C_3 Cl 0.0000 0.0000 0.5000
Cl1C_4 Cl 0.0000 1.0000 -0.5000
O1D O -0.2540(3) 0.5000 0.0000
O1Q O 0.0000 0.5000 0.2540(3)
O1S O 0.0000 0.5000 -0.2540(3)
O1T O 0.5000 0.0000 -0.2540(3)
O1A O 0.5000 0.2540(3) 0.0000
O1C O 0.0000 0.2540(3) -0.5000
O1K O 0.2540(3) 0.0000 -0.5000
O1P O 0.5000 1.0000 0.2540(3)
O1G O 0.5000 0.7460(3) 0.0000
O1I O 0.0000 0.7460(3) 0.5000
O1K_2 O 0.2540(3) 1.0000 0.5000
O1P_2 O 0.5000 0.0000 0.2540(3)
O1C_2 O 0.0000 0.2540(3) 0.5000
O1K_3 O 0.2540(3) 0.0000 0.5000
O1T_2 O 0.5000 1.0000 -0.2540(3)
O1I_2 O 0.0000 0.7460(3) -0.5000
O1K_4 O 0.2540(3) 1.0000 -0.5000
O1I_3 O 0.0000 -0.2540(3) -0.5000
O1C_3 O 0.0000 1.2540(3) 0.5000
O1I_4 O 0.0000 -0.2540(3) 0.5000
O1G_2 O 0.5000 -0.2540(3) 0.0000
O1F O -0.2540(3) 0.0000 -0.5000
O1A_2 O 0.5000 1.2540(3) 0.0000
N1OA N 0.08336(13) 0.41933(13) -0.13224(13)
N1T N 0.41933(13) 0.08336(13) -0.13224(13)
N1HA N 0.41933(13) 0.13224(13) -0.08336(13)
N1N N 0.08336(13) 0.13224(13) -0.41933(13)
N1DA N 0.13224(13) 0.08336(13) -0.41933(13)
N1B N 0.13224(13) 0.58067(13) 0.08336(13)
N1QA N 0.08336(13) 0.58067(13) 0.13224(13)
N1P N 0.41933(13) 0.91664(13) 0.13224(13)
N1Y N 0.41933(13) 0.86776(13) 0.08336(13)
N1I N 0.08336(13) 0.86776(13) 0.41933(13)
N1KA N 0.13224(13) 0.91664(13) 0.41933(13)
N1BA N 0.13224(13) 0.41933(13) 0.08336(13)
N1R N 0.08336(13) 0.41933(13) 0.13224(13)
N1TA N 0.41933(13) 0.08336(13) 0.13224(13)
N1E N 0.41933(13) 0.13224(13) 0.08336(13)
N1JA N 0.08336(13) 0.13224(13) 0.41933(13)
N1K N 0.13224(13) 0.08336(13) 0.41933(13)
N1FA N 0.13224(13) 0.58067(13) -0.08336(13)
N1U N 0.08336(13) 0.58067(13) -0.13224(13)
N1UA N 0.41933(13) 0.91664(13) -0.13224(13)
N1G N 0.41933(13) 0.86776(13) -0.08336(13)
N1AA N 0.08336(13) 0.86776(13) -0.41933(13)
N1O N 0.13224(13) 0.91664(13) -0.41933(13)
N1D N -0.13224(13) 0.58067(13) -0.08336(13)
N1PA N -0.08336(13) 0.58067(13) -0.13224(13)
N1V N -0.41933(13) 0.91664(13) -0.13224(13)
N1CA N -0.41933(13) 0.86776(13) -0.08336(13)
N1L N -0.08336(13) 0.86776(13) -0.41933(13)
N1IA N -0.13224(13) 0.91664(13) -0.41933(13)
N1H N -0.13224(13) 0.41933(13) 0.08336(13)
N1SA N -0.08336(13) 0.41933(13) 0.13224(13)
N1W N -0.41933(13) 0.08336(13) 0.13224(13)
N1EA N -0.41933(13) 0.13224(13) 0.08336(13)
N1C N -0.08336(13) 0.13224(13) 0.41933(13)
N1MA N -0.13224(13) 0.08336(13) 0.41933(13)
N1X N -0.13224(13) 0.58067(13) 0.08336(13)
N1Q N -0.08336(13) 0.58067(13) 0.13224(13)
N1RA N -0.41933(13) 0.91664(13) 0.13224(13)
N1J N -0.41933(13) 0.86776(13) 0.08336(13)
N1LA N -0.08336(13) 0.86776(13) 0.41933(13)
N1F N -0.13224(13) 0.91664(13) 0.41933(13)
N1Z N -0.13224(13) 0.41933(13) -0.08336(13)
N1S N -0.08336(13) 0.41933(13) -0.13224(13)
N1NA N -0.41933(13) 0.08336(13) -0.13224(13)
N1A N -0.41933(13) 0.13224(13) -0.08336(13)
N1GA N -0.08336(13) 0.13224(13) -0.41933(13)
N1M N -0.13224(13) 0.08336(13) -0.41933(13)
N1V_2 N 0.58067(13) -0.08336(13) -0.13224(13)
N1CA_2 N 0.58067(13) -0.13224(13) -0.08336(13)
N1L_2 N 0.91664(13) -0.13224(13) -0.41933(13)
N1IA_2 N 0.86776(13) -0.08336(13) -0.41933(13)
N1D_2 N 0.86776(13) -0.41933(13) -0.08336(13)
N1PA_2 N 0.91664(13) -0.41933(13) -0.13224(13)
N1UA_2 N 0.41933(13) -0.08336(13) -0.13224(13)
N1G_2 N 0.41933(13) -0.13224(13) -0.08336(13)
N1AA_2 N 0.08336(13) -0.13224(13) -0.41933(13)
N1O_2 N 0.13224(13) -0.08336(13) -0.41933(13)
N1FA_2 N 0.13224(13) -0.41933(13) -0.08336(13)
N1U_2 N 0.08336(13) -0.41933(13) -0.13224(13)
N1NA_2 N 0.58067(13) 0.08336(13) -0.13224(13)
N1A_2 N 0.58067(13) 0.13224(13) -0.08336(13)
N1GA_2 N 0.91664(13) 0.13224(13) -0.41933(13)
N1M_2 N 0.86776(13) 0.08336(13) -0.41933(13)
N1Z_2 N 0.86776(13) 0.41933(13) -0.08336(13)
N1S_2 N 0.91664(13) 0.41933(13) -0.13224(13)
N1EA_2 N 0.58067(13) 0.13224(13) 0.08336(13)
N1W_2 N 0.58067(13) 0.08336(13) 0.13224(13)
N1SA_2 N 0.91664(13) 0.41933(13) 0.13224(13)
N1H_2 N 0.86776(13) 0.41933(13) 0.08336(13)
N1MA_2 N 0.86776(13) 0.08336(13) 0.41933(13)
N1C_2 N 0.91664(13) 0.13224(13) 0.41933(13)
N1C_3 N -0.08336(13) 0.13224(13) -0.58067(13)
N1MA_3 N -0.13224(13) 0.08336(13) -0.58067(13)
N1H_3 N -0.13224(13) 0.41933(13) -0.91664(13)
N1SA_3 N -0.08336(13) 0.41933(13) -0.86776(13)
N1W_3 N -0.41933(13) 0.08336(13) -0.86776(13)
N1EA_3 N -0.41933(13) 0.13224(13) -0.91664(13)
N1JA_2 N 0.08336(13) 0.13224(13) -0.58067(13)
N1K_2 N 0.13224(13) 0.08336(13) -0.58067(13)
N1BA_2 N 0.13224(13) 0.41933(13) -0.91664(13)
N1R_2 N 0.08336(13) 0.41933(13) -0.86776(13)
N1TA_2 N 0.41933(13) 0.08336(13) -0.86776(13)
N1E_2 N 0.41933(13) 0.13224(13) -0.91664(13)
N1KA_2 N 0.13224(13) -0.08336(13) -0.58067(13)
N1I_2 N 0.08336(13) -0.13224(13) -0.58067(13)
N1Y_2 N 0.41933(13) -0.13224(13) -0.91664(13)
N1P_2 N 0.41933(13) -0.08336(13) -0.86776(13)
N1QA_2 N 0.08336(13) -0.41933(13) -0.86776(13)
N1B_2 N 0.13224(13) -0.41933(13) -0.91664(13)
N1W_4 N 0.58067(13) 1.08336(13) 0.13224(13)
N1EA_4 N 0.58067(13) 1.13224(13) 0.08336(13)
N1C_4 N 0.91664(13) 1.13224(13) 0.41933(13)
N1MA_4 N 0.86776(13) 1.08336(13) 0.41933(13)
N1H_4 N 0.86776(13) 1.41933(13) 0.08336(13)
N1SA_4 N 0.91664(13) 1.41933(13) 0.13224(13)
N1RA_2 N 0.58067(13) 0.91664(13) 0.13224(13)
N1TA_3 N 0.41933(13) 1.08336(13) 0.13224(13)
N1J_2 N 0.58067(13) 0.86776(13) 0.08336(13)
N1CA_3 N 0.58067(13) 0.86776(13) -0.08336(13)
N1L_3 N -0.08336(13) 0.86776(13) 0.58067(13)
N1AA_3 N 0.08336(13) 0.86776(13) 0.58067(13)
N1K_3 N 0.13224(13) 1.08336(13) 0.41933(13)
N1O_3 N 0.13224(13) 0.91664(13) 0.58067(13)
N1DA_2 N 0.13224(13) 1.08336(13) 0.58067(13)
N1P_3 N 0.41933(13) -0.08336(13) 0.13224(13)
N1RA_3 N 0.58067(13) -0.08336(13) 0.13224(13)
N1N_2 N 0.08336(13) 0.13224(13) 0.58067(13)
N1GA_3 N -0.08336(13) 0.13224(13) 0.58067(13)
N1O_4 N 0.13224(13) -0.08336(13) 0.58067(13)
N1DA_3 N 0.13224(13) 0.08336(13) 0.58067(13)
N1KA_3 N 0.13224(13) -0.08336(13) 0.41933(13)
N1T_2 N 0.41933(13) 1.08336(13) -0.13224(13)
N1V_3 N 0.58067(13) 0.91664(13) -0.13224(13)
N1NA_3 N 0.58067(13) 1.08336(13) -0.13224(13)
N1I_3 N 0.08336(13) 0.86776(13) -0.58067(13)
N1LA_2 N -0.08336(13) 0.86776(13) -0.58067(13)
N1K_4 N 0.13224(13) 1.08336(13) -0.58067(13)
N1DA_4 N 0.13224(13) 1.08336(13) -0.41933(13)
N1KA_4 N 0.13224(13) 0.91664(13) -0.58067(13)
N1L_4 N -0.08336(13) -0.13224(13) -0.41933(13)
N1LA_3 N -0.08336(13) -0.13224(13) -0.58067(13)
N1C_5 N -0.08336(13) 1.13224(13) 0.41933(13)
N1N_3 N 0.08336(13) 1.13224(13) 0.58067(13)
N1GA_4 N -0.08336(13) 1.13224(13) 0.58067(13)
N1JA_3 N 0.08336(13) 1.13224(13) 0.41933(13)
N1I_4 N 0.08336(13) -0.13224(13) 0.41933(13)
N1L_5 N -0.08336(13) -0.13224(13) 0.58067(13)
N1AA_4 N 0.08336(13) -0.13224(13) 0.58067(13)
N1LA_4 N -0.08336(13) -0.13224(13) 0.41933(13)
N1J_3 N 0.58067(13) -0.13224(13) 0.08336(13)
N1Y_3 N 0.41933(13) -0.13224(13) 0.08336(13)
N1F_2 N -0.13224(13) -0.08336(13) -0.58067(13)
N1IA_3 N -0.13224(13) -0.08336(13) -0.41933(13)
N1A_3 N 0.58067(13) 1.13224(13) -0.08336(13)
N1E_3 N 0.41933(13) 1.13224(13) 0.08336(13)
N1HA_2 N 0.41933(13) 1.13224(13) -0.08336(13)
N2OA N 0.09274(14) 0.36509(14) -0.17516(14)
N2T N 0.36509(14) 0.09274(14) -0.17516(14)
N2HA N 0.36509(14) 0.17516(14) -0.09274(14)
N2N N 0.09274(14) 0.17516(14) -0.36509(14)
N2DA N 0.17516(14) 0.09274(14) -0.36509(14)
N2B N 0.17516(14) 0.63491(14) 0.09274(14)
N2QA N 0.09274(14) 0.63491(14) 0.17516(14)
N2P N 0.36509(14) 0.90726(14) 0.17516(14)
N2Y N 0.36509(14) 0.82484(14) 0.09274(14)
N2I N 0.09274(14) 0.82484(14) 0.36509(14)
N2KA N 0.17516(14) 0.90726(14) 0.36509(14)
N2BA N 0.17516(14) 0.36509(14) 0.09274(14)
N2R N 0.09274(14) 0.36509(14) 0.17516(14)
N2TA N 0.36509(14) 0.09274(14) 0.17516(14)
N2E N 0.36509(14) 0.17516(14) 0.09274(14)
N2JA N 0.09274(14) 0.17516(14) 0.36509(14)
N2K N 0.17516(14) 0.09274(14) 0.36509(14)
N2FA N 0.17516(14) 0.63491(14) -0.09274(14)
N2U N 0.09274(14) 0.63491(14) -0.17516(14)
N2UA N 0.36509(14) 0.90726(14) -0.17516(14)
N2G N 0.36509(14) 0.82484(14) -0.09274(14)
N2AA N 0.09274(14) 0.82484(14) -0.36509(14)
N2O N 0.17516(14) 0.90726(14) -0.36509(14)
N2D N -0.17516(14) 0.63491(14) -0.09274(14)
N2PA N -0.09274(14) 0.63491(14) -0.17516(14)
N2V N -0.36509(14) 0.90726(14) -0.17516(14)
N2CA N -0.36509(14) 0.82484(14) -0.09274(14)
N2L N -0.09274(14) 0.82484(14) -0.36509(14)
N2IA N -0.17516(14) 0.90726(14) -0.36509(14)
N2H N -0.17516(14) 0.36509(14) 0.09274(14)
N2SA N -0.09274(14) 0.36509(14) 0.17516(14)
N2W N -0.36509(14) 0.09274(14) 0.17516(14)
N2EA N -0.36509(14) 0.17516(14) 0.09274(14)
N2C N -0.09274(14) 0.17516(14) 0.36509(14)
N2MA N -0.17516(14) 0.09274(14) 0.36509(14)
N2X N -0.17516(14) 0.63491(14) 0.09274(14)
N2Q N -0.09274(14) 0.63491(14) 0.17516(14)
N2RA N -0.36509(14) 0.90726(14) 0.17516(14)
N2J N -0.36509(14) 0.82484(14) 0.09274(14)
N2LA N -0.09274(14) 0.82484(14) 0.36509(14)
N2F N -0.17516(14) 0.90726(14) 0.36509(14)
N2Z N -0.17516(14) 0.36509(14) -0.09274(14)
N2S N -0.09274(14) 0.36509(14) -0.17516(14)
N2NA N -0.36509(14) 0.09274(14) -0.17516(14)
N2A N -0.36509(14) 0.17516(14) -0.09274(14)
N2GA N -0.09274(14) 0.17516(14) -0.36509(14)
N2M N -0.17516(14) 0.09274(14) -0.36509(14)
N2V_2 N 0.63491(14) -0.09274(14) -0.17516(14)
N2CA_2 N 0.63491(14) -0.17516(14) -0.09274(14)
N2L_2 N 0.90726(14) -0.17516(14) -0.36509(14)
N2IA_2 N 0.82484(14) -0.09274(14) -0.36509(14)
N2D_2 N 0.82484(14) -0.36509(14) -0.09274(14)
N2PA_2 N 0.90726(14) -0.36509(14) -0.17516(14)
N2UA_2 N 0.36509(14) -0.09274(14) -0.17516(14)
N2G_2 N 0.36509(14) -0.17516(14) -0.09274(14)
N2AA_2 N 0.09274(14) -0.17516(14) -0.36509(14)
N2O_2 N 0.17516(14) -0.09274(14) -0.36509(14)
N2FA_2 N 0.17516(14) -0.36509(14) -0.09274(14)
N2U_2 N 0.09274(14) -0.36509(14) -0.17516(14)
N2NA_2 N 0.63491(14) 0.09274(14) -0.17516(14)
N2A_2 N 0.63491(14) 0.17516(14) -0.09274(14)
N2GA_2 N 0.90726(14) 0.17516(14) -0.36509(14)
N2M_2 N 0.82484(14) 0.09274(14) -0.36509(14)
N2Z_2 N 0.82484(14) 0.36509(14) -0.09274(14)
N2S_2 N 0.90726(14) 0.36509(14) -0.17516(14)
N2EA_2 N 0.63491(14) 0.17516(14) 0.09274(14)
N2W_2 N 0.63491(14) 0.09274(14) 0.17516(14)
N2SA_2 N 0.90726(14) 0.36509(14) 0.17516(14)
N2H_2 N 0.82484(14) 0.36509(14) 0.09274(14)
N2MA_2 N 0.82484(14) 0.09274(14) 0.36509(14)
N2C_2 N 0.90726(14) 0.17516(14) 0.36509(14)
N2C_3 N -0.09274(14) 0.17516(14) -0.63491(14)
N2MA_3 N -0.17516(14) 0.09274(14) -0.63491(14)
N2H_3 N -0.17516(14) 0.36509(14) -0.90726(14)
N2SA_3 N -0.09274(14) 0.36509(14) -0.82484(14)
N2W_3 N -0.36509(14) 0.09274(14) -0.82484(14)
N2EA_3 N -0.36509(14) 0.17516(14) -0.90726(14)
N2JA_2 N 0.09274(14) 0.17516(14) -0.63491(14)
N2K_2 N 0.17516(14) 0.09274(14) -0.63491(14)
N2BA_2 N 0.17516(14) 0.36509(14) -0.90726(14)
N2R_2 N 0.09274(14) 0.36509(14) -0.82484(14)
N2TA_2 N 0.36509(14) 0.09274(14) -0.82484(14)
N2E_2 N 0.36509(14) 0.17516(14) -0.90726(14)
N2KA_2 N 0.17516(14) -0.09274(14) -0.63491(14)
N2I_2 N 0.09274(14) -0.17516(14) -0.63491(14)
N2Y_2 N 0.36509(14) -0.17516(14) -0.90726(14)
N2P_2 N 0.36509(14) -0.09274(14) -0.82484(14)
N2QA_2 N 0.09274(14) -0.36509(14) -0.82484(14)
N2B_2 N 0.17516(14) -0.36509(14) -0.90726(14)
N2W_4 N 0.63491(14) 1.09274(14) 0.17516(14)
N2EA_4 N 0.63491(14) 1.17516(14) 0.09274(14)
N2C_4 N 0.90726(14) 1.17516(14) 0.36509(14)
N2MA_4 N 0.82484(14) 1.09274(14) 0.36509(14)
N2H_4 N 0.82484(14) 1.36509(14) 0.09274(14)
N2SA_4 N 0.90726(14) 1.36509(14) 0.17516(14)
C1T C 0.3329(3) 0.1498(2) -0.1498(2)
C1N C 0.1498(2) 0.1498(2) -0.3329(3)
C1B C 0.1498(2) 0.6671(3) 0.1498(2)
C1P C 0.3329(3) 0.8502(2) 0.1498(2)
C1I C 0.1498(2) 0.8502(2) 0.3329(3)
C1R C 0.1498(2) 0.3329(3) 0.1498(2)
C1E C 0.3329(3) 0.1498(2) 0.1498(2)
C1K C 0.1498(2) 0.1498(2) 0.3329(3)
C1U C 0.1498(2) 0.6671(3) -0.1498(2)
C1G C 0.3329(3) 0.8502(2) -0.1498(2)
C1O C 0.1498(2) 0.8502(2) -0.3329(3)
C1D C -0.1498(2) 0.6671(3) -0.1498(2)
C1V C -0.3329(3) 0.8502(2) -0.1498(2)
C1L C -0.1498(2) 0.8502(2) -0.3329(3)
C1H C -0.1498(2) 0.3329(3) 0.1498(2)
C1W C -0.3329(3) 0.1498(2) 0.1498(2)
C1C C -0.1498(2) 0.1498(2) 0.3329(3)
C1Q C -0.1498(2) 0.6671(3) 0.1498(2)
C1J C -0.3329(3) 0.8502(2) 0.1498(2)
C1F C -0.1498(2) 0.8502(2) 0.3329(3)
C1S C -0.1498(2) 0.3329(3) -0.1498(2)
C1A C -0.3329(3) 0.1498(2) -0.1498(2)
C1M C -0.1498(2) 0.1498(2) -0.3329(3)
C1V_2 C 0.6671(3) -0.1498(2) -0.1498(2)
C1L_2 C 0.8502(2) -0.1498(2) -0.3329(3)
C1D_2 C 0.8502(2) -0.3329(3) -0.1498(2)
C1G_2 C 0.3329(3) -0.1498(2) -0.1498(2)
C1O_2 C 0.1498(2) -0.1498(2) -0.3329(3)
C1U_2 C 0.1498(2) -0.3329(3) -0.1498(2)
C1A_2 C 0.6671(3) 0.1498(2) -0.1498(2)
C1M_2 C 0.8502(2) 0.1498(2) -0.3329(3)
C1S_2 C 0.8502(2) 0.3329(3) -0.1498(2)
C1W_2 C 0.6671(3) 0.1498(2) 0.1498(2)
C1H_2 C 0.8502(2) 0.3329(3) 0.1498(2)
C1C_2 C 0.8502(2) 0.1498(2) 0.3329(3)
C1C_3 C -0.1498(2) 0.1498(2) -0.6671(3)
C1H_3 C -0.1498(2) 0.3329(3) -0.8502(2)
C1W_3 C -0.3329(3) 0.1498(2) -0.8502(2)
C1K_2 C 0.1498(2) 0.1498(2) -0.6671(3)
C1R_2 C 0.1498(2) 0.3329(3) -0.8502(2)
C1E_2 C 0.3329(3) 0.1498(2) -0.8502(2)
C1I_2 C 0.1498(2) -0.1498(2) -0.6671(3)
C1P_2 C 0.3329(3) -0.1498(2) -0.8502(2)
C1B_2 C 0.1498(2) -0.3329(3) -0.8502(2)
C1W_4 C 0.6671(3) 1.1498(2) 0.1498(2)
C1C_4 C 0.8502(2) 1.1498(2) 0.3329(3)
C1H_4 C 0.8502(2) 1.3329(3) 0.1498(2)
C2T C 0.2697(3) 0.18073(19) -0.18073(19)
C2N C 0.18073(19) 0.18073(19) -0.2697(3)
C2B C 0.18073(19) 0.7303(3) 0.18073(19)
C2P C 0.2697(3) 0.81927(19) 0.18073(19)
C2I C 0.18073(19) 0.81927(19) 0.2697(3)
C2R C 0.18073(19) 0.2697(3) 0.18073(19)
C2E C 0.2697(3) 0.18073(19) 0.18073(19)
C2K C 0.18073(19) 0.18073(19) 0.2697(3)
C2U C 0.18073(19) 0.7303(3) -0.18073(19)
C2G C 0.2697(3) 0.81927(19) -0.18073(19)
C2O C 0.18073(19) 0.81927(19) -0.2697(3)
C2D C -0.18073(19) 0.7303(3) -0.18073(19)
C2V C -0.2697(3) 0.81927(19) -0.18073(19)
C2L C -0.18073(19) 0.81927(19) -0.2697(3)
C2H C -0.18073(19) 0.2697(3) 0.18073(19)
C2W C -0.2697(3) 0.18073(19) 0.18073(19)
C2C C -0.18073(19) 0.18073(19) 0.2697(3)
C2Q C -0.18073(19) 0.7303(3) 0.18073(19)
C2J C -0.2697(3) 0.81927(19) 0.18073(19)
C2F C -0.18073(19) 0.81927(19) 0.2697(3)
C2S C -0.18073(19) 0.2697(3) -0.18073(19)
C2A C -0.2697(3) 0.18073(19) -0.18073(19)
C2M C -0.18073(19) 0.18073(19) -0.2697(3)
C2V_2 C 0.7303(3) -0.18073(19) -0.18073(19)
C2L_2 C 0.81927(19) -0.18073(19) -0.2697(3)
C2D_2 C 0.81927(19) -0.2697(3) -0.18073(19)
C2G_2 C 0.2697(3) -0.18073(19) -0.18073(19)
C2O_2 C 0.18073(19) -0.18073(19) -0.2697(3)
C2U_2 C 0.18073(19) -0.2697(3) -0.18073(19)
C2A_2 C 0.7303(3) 0.18073(19) -0.18073(19)
C2M_2 C 0.81927(19) 0.18073(19) -0.2697(3)
C2S_2 C 0.81927(19) 0.2697(3) -0.18073(19)
C2W_2 C 0.7303(3) 0.18073(19) 0.18073(19)
C2H_2 C 0.81927(19) 0.2697(3) 0.18073(19)
C2C_2 C 0.81927(19) 0.18073(19) 0.2697(3)
C2C_3 C -0.18073(19) 0.18073(19) -0.7303(3)
C2H_3 C -0.18073(19) 0.2697(3) -0.81927(19)
C2W_3 C -0.2697(3) 0.18073(19) -0.81927(19)
C2K_2 C 0.18073(19) 0.18073(19) -0.7303(3)
C2R_2 C 0.18073(19) 0.2697(3) -0.81927(19)
C2E_2 C 0.2697(3) 0.18073(19) -0.81927(19)
C2I_2 C 0.18073(19) -0.18073(19) -0.7303(3)
C2P_2 C 0.2697(3) -0.18073(19) -0.81927(19)
C2B_2 C 0.18073(19) -0.2697(3) -0.81927(19)
C2W_4 C 0.7303(3) 1.18073(19) 0.18073(19)
C2C_4 C 0.81927(19) 1.18073(19) 0.2697(3)
C2H_4 C 0.81927(19) 1.2697(3) 0.18073(19)
C3T C 0.2399(2) 0.1505(3) -0.2399(2)
C3N C 0.1505(3) 0.2399(2) -0.2399(2)
C3B C 0.2399(2) 0.7601(2) 0.1505(3)
C3P C 0.2399(2) 0.8495(3) 0.2399(2)
C3I C 0.1505(3) 0.7601(2) 0.2399(2)
C3E C 0.2399(2) 0.2399(2) 0.1505(3)
C3K C 0.2399(2) 0.1505(3) 0.2399(2)
C3R C 0.1505(3) 0.2399(2) 0.2399(2)
C3G C 0.2399(2) 0.7601(2) -0.1505(3)
C3O C 0.2399(2) 0.8495(3) -0.2399(2)
C3U C 0.1505(3) 0.7601(2) -0.2399(2)
C3D C -0.2399(2) 0.7601(2) -0.1505(3)
C3V C -0.2399(2) 0.8495(3) -0.2399(2)
C3L C -0.1505(3) 0.7601(2) -0.2399(2)
C3H C -0.2399(2) 0.2399(2) 0.1505(3)
C3W C -0.2399(2) 0.1505(3) 0.2399(2)
C3C C -0.1505(3) 0.2399(2) 0.2399(2)
C3J C -0.2399(2) 0.7601(2) 0.1505(3)
C3F C -0.2399(2) 0.8495(3) 0.2399(2)
C3Q C -0.1505(3) 0.7601(2) 0.2399(2)
C3A C -0.2399(2) 0.2399(2) -0.1505(3)
C3M C -0.2399(2) 0.1505(3) -0.2399(2)
C3S C -0.1505(3) 0.2399(2) -0.2399(2)
C3V_2 C 0.7601(2) -0.1505(3) -0.2399(2)
C3L_2 C 0.8495(3) -0.2399(2) -0.2399(2)
C3D_2 C 0.7601(2) -0.2399(2) -0.1505(3)
C3O_2 C 0.2399(2) -0.1505(3) -0.2399(2)
C3U_2 C 0.1505(3) -0.2399(2) -0.2399(2)
C3G_2 C 0.2399(2) -0.2399(2) -0.1505(3)
C3M_2 C 0.7601(2) 0.1505(3) -0.2399(2)
C3S_2 C 0.8495(3) 0.2399(2) -0.2399(2)
C3A_2 C 0.7601(2) 0.2399(2) -0.1505(3)
C3H_2 C 0.7601(2) 0.2399(2) 0.1505(3)
C3C_2 C 0.8495(3) 0.2399(2) 0.2399(2)
C3W_2 C 0.7601(2) 0.1505(3) 0.2399(2)
C3C_3 C -0.1505(3) 0.2399(2) -0.7601(2)
C3H_3 C -0.2399(2) 0.2399(2) -0.8495(3)
C3W_3 C -0.2399(2) 0.1505(3) -0.7601(2)
C3R_2 C 0.1505(3) 0.2399(2) -0.7601(2)
C3E_2 C 0.2399(2) 0.2399(2) -0.8495(3)
C3K_2 C 0.2399(2) 0.1505(3) -0.7601(2)
C3P_2 C 0.2399(2) -0.1505(3) -0.7601(2)
C3B_2 C 0.2399(2) -0.2399(2) -0.8495(3)
C3I_2 C 0.1505(3) -0.2399(2) -0.7601(2)
C3W_4 C 0.7601(2) 1.1505(3) 0.2399(2)
C3C_4 C 0.8495(3) 1.2399(2) 0.2399(2)
C3H_4 C 0.7601(2) 1.2399(2) 0.1505(3)
H1N H 0.1103 0.2593 -0.2593
H1T H 0.2593 0.1103 -0.2593
H1B H 0.2593 0.7407 0.1103
H1I H 0.1103 0.7407 0.2593
H1P H 0.2593 0.8897 0.2593
H1E H 0.2593 0.2593 0.1103
H1R H 0.1103 0.2593 0.2593
H1K H 0.2593 0.1103 0.2593
H1G H 0.2593 0.7407 -0.1103
H1U H 0.1103 0.7407 -0.2593
H1O H 0.2593 0.8897 -0.2593
H1D H -0.2593 0.7407 -0.1103
H1L H -0.1103 0.7407 -0.2593
H1V H -0.2593 0.8897 -0.2593
H1H H -0.2593 0.2593 0.1103
H1C H -0.1103 0.2593 0.2593
H1W H -0.2593 0.1103 0.2593
H1J H -0.2593 0.7407 0.1103
H1Q H -0.1103 0.7407 0.2593
H1F H -0.2593 0.8897 0.2593
H1A H -0.2593 0.2593 -0.1103
H1S H -0.1103 0.2593 -0.2593
H1M H -0.2593 0.1103 -0.2593
H1V_2 H 0.7407 -0.1103 -0.2593
H1D_2 H 0.7407 -0.2593 -0.1103
H1L_2 H 0.8897 -0.2593 -0.2593
H1O_2 H 0.2593 -0.1103 -0.2593
H1G_2 H 0.2593 -0.2593 -0.1103
H1U_2 H 0.1103 -0.2593 -0.2593
H1M_2 H 0.7407 0.1103 -0.2593
H1A_2 H 0.7407 0.2593 -0.1103
H1S_2 H 0.8897 0.2593 -0.2593
H1H_2 H 0.7407 0.2593 0.1103
H1W_2 H 0.7407 0.1103 0.2593
H1C_2 H 0.8897 0.2593 0.2593
H1C_3 H -0.1103 0.2593 -0.7407
H1W_3 H -0.2593 0.1103 -0.7407
H1H_3 H -0.2593 0.2593 -0.8897
H1R_2 H 0.1103 0.2593 -0.7407
H1K_2 H 0.2593 0.1103 -0.7407
H1E_2 H 0.2593 0.2593 -0.8897
H1P_2 H 0.2593 -0.1103 -0.7407
H1I_2 H 0.1103 -0.2593 -0.7407
H1B_2 H 0.2593 -0.2593 -0.8897
H1W_4 H 0.7407 1.1103 0.2593
H1H_4 H 0.7407 1.2593 0.1103
H1C_4 H 0.8897 1.2593 0.2593
Mn2? Mn 0.0000 0.0000 0.0000
Mn3? Mn 0.5000 0.5000 -0.5000
O2? O 0.0000 0.1023(12) 0.0000
O4? O 0.5000 0.5000 -0.409(5)
O5? O 0.538(2) 0.538(2) -0.462(2)
O6? O 0.227(3) 0.5000 -0.227(3)
O7? O 0.280(5) 0.5000 -0.157(4)
O9? O 0.201(3) 0.520(3) -0.250(3)
N3? N 0.0000 0.2233(9) 0.0000
C4? C -0.0222(13) 0.1619(10) 0.0000
C5? C -0.0286(17) 0.2930(12) 0.0000
C6? C 0.0789(10) 0.232(3) 0.0000
loop_
_geom_bond_atom_site_label_1
_geom_bond_atom_site_label_2
_geom_bond_site_symmetry_1
_geom_bond_site_symmetry_2
Mn1 Cl1 1_555 1_555
Cl1 Mn1D 1_555 1_555
O1 Mn1 1_555 1_555
N1 Mn1 1_555 1_555
N2 N1 1_555 1_555
C1 N2 1_555 1_555
C2 C1 1_555 1_555
C3 C2 1_555 1_555
H1 C3 1_555 1_555
Mn1D O1D 1_555 1_555
Mn1Q Cl1 1_555 1_555
Mn1S Cl1 1_555 1_555
Mn1T Cl1A 1_555 1_555
Mn1A Cl1A 1_555 1_555
Mn1C Cl1C 1_555 1_555
Mn1K Cl1C 1_555 1_555
Mn1P Cl1A_2 1_555 1_555
Mn1G Cl1A_2 1_555 1_555
Mn1I Cl1C_2 1_555 1_555
Mn1K_2 Cl1C_2 1_555 1_555
Mn1P_2 Cl1A 1_555 1_555
Mn1C_2 Cl1C_3 1_555 1_555
Mn1K_3 Cl1C_3 1_555 1_555
Mn1T_2 Cl1A_2 1_555 1_555
Mn1I_2 Cl1C_4 1_555 1_555
Mn1K_4 Cl1C_4 1_555 1_555
Mn1I_3 Cl1C 1_555 1_555
Mn1C_3 Cl1C_2 1_555 1_555
Mn1I_4 Cl1C_3 1_555 1_555
Mn1G_2 Cl1A 1_555 1_555
Mn1F Cl1C 1_555 1_555
Mn1A_2 Cl1A_2 1_555 1_555
Mn1T_3 N1V 1_555 1_555
Mn1G_3 N1CA 1_555 1_555
Mn1F_2 Cl1C_4 1_555 1_555
Mn1P_3 N1W 1_555 1_555
Mn1A_3 N1EA 1_555 1_555
Mn1F_3 Cl1C_3 1_555 1_555
Mn1P_4 N1RA 1_555 1_555
Mn1F_4 Cl1C_2 1_555 1_555
Mn1T_4 N1NA 1_555 1_555
Mn1I_5 N1L_2 1_555 1_555
Mn1F_5 N1IA_2 1_555 1_555
Mn1D_2 N1D_2 1_555 1_555
Mn1S_2 N1PA_2 1_555 1_555
Mn1_2 N1FA_2 1_555 1_555
Mn1S_3 N1U_2 1_555 1_555
Mn1C_4 N1GA_2 1_555 1_555
Mn1D_3 N1Z_2 1_555 1_555
Mn1S_4 N1S_2 1_555 1_555
Mn1Q_2 N1SA_2 1_555 1_555
Mn1F_6 N1MA_2 1_555 1_555
Mn1C_5 N1C_2 1_555 1_555
Mn1D_4 N1H_3 1_555 1_555
Mn1Q_3 N1SA_3 1_555 1_555
Mn1P_5 N1W_3 1_555 1_555
Mn1A_4 N1EA_3 1_555 1_555
Mn1_3 N1BA_2 1_555 1_555
Mn1P_6 N1TA_2 1_555 1_555
Mn1A_5 N1E_2 1_555 1_555
Mn1G_4 N1Y_2 1_555 1_555
Mn1Q_4 N1QA_2 1_555 1_555
Mn1_4 N1B_2 1_555 1_555
Mn1C_6 N1C_4 1_555 1_555
Mn1F_7 N1MA_4 1_555 1_555
Mn1D_5 N1H_4 1_555 1_555
Mn1Q_5 N1SA_4 1_555 1_555
O1Q Mn1Q 1_555 1_555
O1S Mn1S 1_555 1_555
O1T Mn1T 1_555 1_555
O1A Mn1A 1_555 1_555
O1C Mn1C 1_555 1_555
O1K Mn1K 1_555 1_555
O1P Mn1P 1_555 1_555
O1G Mn1G 1_555 1_555
O1I Mn1I 1_555 1_555
O1K_2 Mn1K_2 1_555 1_555
O1P_2 Mn1P_2 1_555 1_555
O1C_2 Mn1C_2 1_555 1_555
O1K_3 Mn1K_3 1_555 1_555
O1T_2 Mn1T_2 1_555 1_555
O1I_2 Mn1I_2 1_555 1_555
O1K_4 Mn1K_4 1_555 1_555
O1I_3 Mn1I_3 1_555 1_555
O1C_3 Mn1C_3 1_555 1_555
O1I_4 Mn1I_4 1_555 1_555
O1G_2 Mn1G_2 1_555 1_555
O1F Mn1F 1_555 1_555
O1A_2 Mn1A_2 1_555 1_555
N1OA N1 1_555 1_555
N1T Mn1T 1_555 1_555
N1HA Mn1A 1_555 1_555
N1N Mn1C 1_555 1_555
N1DA Mn1K 1_555 1_555
N1B Mn1 1_555 1_555
N1QA Mn1Q 1_555 1_555
N1P Mn1P 1_555 1_555
N1Y Mn1G 1_555 1_555
N1I Mn1I 1_555 1_555
N1KA Mn1K_2 1_555 1_555
N1BA Mn1 1_555 1_555
N1R Mn1Q 1_555 1_555
N1TA Mn1P_2 1_555 1_555
N1E Mn1A 1_555 1_555
N1JA Mn1C_2 1_555 1_555
N1K Mn1K_3 1_555 1_555
N1FA Mn1 1_555 1_555
N1U Mn1S 1_555 1_555
N1UA Mn1T_2 1_555 1_555
N1G Mn1G 1_555 1_555
N1AA Mn1I_2 1_555 1_555
N1O Mn1K_4 1_555 1_555
N1D Mn1D 1_555 1_555
N1PA Mn1S 1_555 1_555
N1V N1CA 1_555 1_555
N1CA N2CA 1_555 1_555
N1L Mn1I_2 1_555 1_555
N1IA Mn1F_2 1_555 1_555
N1H Mn1D 1_555 1_555
N1SA Mn1Q 1_555 1_555
N1W N1EA 1_555 1_555
N1EA N2EA 1_555 1_555
N1C Mn1C_2 1_555 1_555
N1MA Mn1F_3 1_555 1_555
N1X Mn1D 1_555 1_555
N1Q Mn1Q 1_555 1_555
N1RA N1J 1_555 1_555
N1J Mn1G_3 1_555 1_555
N1LA Mn1I 1_555 1_555
N1F Mn1F_4 1_555 1_555
N1Z Mn1D 1_555 1_555
N1S Mn1S 1_555 1_555
N1NA N1A 1_555 1_555
N1A Mn1A_3 1_555 1_555
N1GA Mn1C 1_555 1_555
N1M Mn1F 1_555 1_555
N1V_2 Mn1T 1_555 1_555
N1CA_2 Mn1G_2 1_555 1_555
N1L_2 N1IA_2 1_555 1_555
N1IA_2 N2IA_2 1_555 1_555
N1D_2 N1PA_2 1_555 1_555
N1PA_2 N2PA_2 1_555 1_555
N1UA_2 Mn1T 1_555 1_555
N1G_2 Mn1G_2 1_555 1_555
N1AA_2 Mn1I_3 1_555 1_555
N1O_2 Mn1K 1_555 1_555
N1FA_2 N1U_2 1_555 1_555
N1U_2 N2U_2 1_555 1_555
N1NA_2 Mn1T 1_555 1_555
N1A_2 Mn1A 1_555 1_555
N1GA_2 N1M_2 1_555 1_555
N1M_2 Mn1F_5 1_555 1_555
N1Z_2 N1S_2 1_555 1_555
N1S_2 N2S_2 1_555 1_555
N1EA_2 Mn1A 1_555 1_555
N1W_2 Mn1P_2 1_555 1_555
N1SA_2 N1H_2 1_555 1_555
N1H_2 Mn1D_3 1_555 1_555
N1MA_2 N1C_2 1_555 1_555
N1C_2 N2C_2 1_555 1_555
N1C_3 Mn1C 1_555 1_555
N1MA_3 Mn1F 1_555 1_555
N1H_3 N1SA_3 1_555 1_555
N1SA_3 N2SA_3 1_555 1_555
N1W_3 N1EA_3 1_555 1_555
N1EA_3 N2EA_3 1_555 1_555
N1JA_2 Mn1C 1_555 1_555
N1K_2 Mn1K 1_555 1_555
N1BA_2 N1R_2 1_555 1_555
N1R_2 Mn1Q_3 1_555 1_555
N1TA_2 N1E_2 1_555 1_555
N1E_2 N2E_2 1_555 1_555
N1KA_2 Mn1K 1_555 1_555
N1I_2 Mn1I_3 1_555 1_555
N1Y_2 N1P_2 1_555 1_555
N1P_2 Mn1P_6 1_555 1_555
N1QA_2 N1B_2 1_555 1_555
N1B_2 N2B_2 1_555 1_555
N1W_4 Mn1P 1_555 1_555
N1EA_4 Mn1A_2 1_555 1_555
N1C_4 N1MA_4 1_555 1_555
N1MA_4 N2MA_4 1_555 1_555
N1H_4 N1SA_4 1_555 1_555
N1SA_4 N2SA_4 1_555 1_555
N1RA_2 Mn1P 1_555 1_555
N1TA_3 Mn1P 1_555 1_555
N1J_2 Mn1G 1_555 1_555
N1CA_3 Mn1G 1_555 1_555
N1L_3 Mn1I 1_555 1_555
N1AA_3 Mn1I 1_555 1_555
N1K_3 Mn1K_2 1_555 1_555
N1O_3 Mn1K_2 1_555 1_555
N1DA_2 Mn1K_2 1_555 1_555
N1P_3 Mn1P_2 1_555 1_555
N1RA_3 Mn1P_2 1_555 1_555
N1N_2 Mn1C_2 1_555 1_555
N1GA_3 Mn1C_2 1_555 1_555
N1O_4 Mn1K_3 1_555 1_555
N1DA_3 Mn1K_3 1_555 1_555
N1KA_3 Mn1K_3 1_555 1_555
N1T_2 Mn1T_2 1_555 1_555
N1V_3 Mn1T_2 1_555 1_555
N1NA_3 Mn1T_2 1_555 1_555
N1I_3 Mn1I_2 1_555 1_555
N1LA_2 Mn1I_2 1_555 1_555
N1K_4 Mn1K_4 1_555 1_555
N1DA_4 Mn1K_4 1_555 1_555
N1KA_4 Mn1K_4 1_555 1_555
N1L_4 Mn1I_3 1_555 1_555
N1LA_3 Mn1I_3 1_555 1_555
N1C_5 Mn1C_3 1_555 1_555
N1N_3 Mn1C_3 1_555 1_555
N1GA_4 Mn1C_3 1_555 1_555
N1JA_3 Mn1C_3 1_555 1_555
N1I_4 Mn1I_4 1_555 1_555
N1L_5 Mn1I_4 1_555 1_555
N1AA_4 Mn1I_4 1_555 1_555
N1LA_4 Mn1I_4 1_555 1_555
N1J_3 Mn1G_2 1_555 1_555
N1Y_3 Mn1G_2 1_555 1_555
N1F_2 Mn1F 1_555 1_555
N1IA_3 Mn1F 1_555 1_555
N1A_3 Mn1A_2 1_555 1_555
N1E_3 Mn1A_2 1_555 1_555
N1HA_2 Mn1A_2 1_555 1_555
N2OA C1 1_555 1_555
N2T N1T 1_555 1_555
N2HA N1HA 1_555 1_555
N2N N1N 1_555 1_555
N2DA N1DA 1_555 1_555
N2B N1B 1_555 1_555
N2QA N1QA 1_555 1_555
N2P N1P 1_555 1_555
N2Y N1Y 1_555 1_555
N2I N1I 1_555 1_555
N2KA N1KA 1_555 1_555
N2BA N1BA 1_555 1_555
N2R N1R 1_555 1_555
N2TA N1TA 1_555 1_555
N2E N1E 1_555 1_555
N2JA N1JA 1_555 1_555
N2K N1K 1_555 1_555
N2FA N1FA 1_555 1_555
N2U N1U 1_555 1_555
N2UA N1UA 1_555 1_555
N2G N1G 1_555 1_555
N2AA N1AA 1_555 1_555
N2O N1O 1_555 1_555
N2D N1D 1_555 1_555
N2PA N1PA 1_555 1_555
N2V N1V 1_555 1_555
N2CA C1V 1_555 1_555
N2L N1L 1_555 1_555
N2IA N1IA 1_555 1_555
N2H N1H 1_555 1_555
N2SA N1SA 1_555 1_555
N2W N1W 1_555 1_555
N2EA C1W 1_555 1_555
N2C N1C 1_555 1_555
N2MA N1MA 1_555 1_555
N2X N1X 1_555 1_555
N2Q N1Q 1_555 1_555
N2RA N1RA 1_555 1_555
N2J N1J 1_555 1_555
N2LA N1LA 1_555 1_555
N2F N1F 1_555 1_555
N2Z N1Z 1_555 1_555
N2S N1S 1_555 1_555
N2NA N1NA 1_555 1_555
N2A N1A 1_555 1_555
N2GA N1GA 1_555 1_555
N2M N1M 1_555 1_555
N2V_2 N1V_2 1_555 1_555
N2CA_2 N1CA_2 1_555 1_555
N2L_2 N1L_2 1_555 1_555
N2IA_2 C1L_2 1_555 1_555
N2D_2 N1D_2 1_555 1_555
N2PA_2 C1D_2 1_555 1_555
N2UA_2 N1UA_2 1_555 1_555
N2G_2 N1G_2 1_555 1_555
N2AA_2 N1AA_2 1_555 1_555
N2O_2 N1O_2 1_555 1_555
N2FA_2 N1FA_2 1_555 1_555
N2U_2 C1U_2 1_555 1_555
N2NA_2 N1NA_2 1_555 1_555
N2A_2 N1A_2 1_555 1_555
N2GA_2 N1GA_2 1_555 1_555
N2M_2 N1M_2 1_555 1_555
N2Z_2 N1Z_2 1_555 1_555
N2S_2 C1S_2 1_555 1_555
N2EA_2 N1EA_2 1_555 1_555
N2W_2 N1W_2 1_555 1_555
N2SA_2 N1SA_2 1_555 1_555
N2H_2 N1H_2 1_555 1_555
N2MA_2 N1MA_2 1_555 1_555
N2C_2 C1C_2 1_555 1_555
N2C_3 N1C_3 1_555 1_555
N2MA_3 N1MA_3 1_555 1_555
N2H_3 N1H_3 1_555 1_555
N2SA_3 C1H_3 1_555 1_555
N2W_3 N1W_3 1_555 1_555
N2EA_3 C1W_3 1_555 1_555
N2JA_2 N1JA_2 1_555 1_555
N2K_2 N1K_2 1_555 1_555
N2BA_2 N1BA_2 1_555 1_555
N2R_2 N1R_2 1_555 1_555
N2TA_2 N1TA_2 1_555 1_555
N2E_2 C1E_2 1_555 1_555
N2KA_2 N1KA_2 1_555 1_555
N2I_2 N1I_2 1_555 1_555
N2Y_2 N1Y_2 1_555 1_555
N2P_2 N1P_2 1_555 1_555
N2QA_2 N1QA_2 1_555 1_555
N2B_2 C1B_2 1_555 1_555
N2W_4 N1W_4 1_555 1_555
N2EA_4 N1EA_4 1_555 1_555
N2C_4 N1C_4 1_555 1_555
N2MA_4 C1C_4 1_555 1_555
N2H_4 N1H_4 1_555 1_555
N2SA_4 C1H_4 1_555 1_555
C1T N2T 1_555 1_555
C1N N2N 1_555 1_555
C1B N2B 1_555 1_555
C1P N2P 1_555 1_555
C1I N2I 1_555 1_555
C1R N2BA 1_555 1_555
C1E N2TA 1_555 1_555
C1K N2JA 1_555 1_555
C1U N2FA 1_555 1_555
C1G N2UA 1_555 1_555
C1O N2AA 1_555 1_555
C1D N2D 1_555 1_555
C1V N2V 1_555 1_555
C1L N2L 1_555 1_555
C1H N2H 1_555 1_555
C1W N2W 1_555 1_555
C1C N2C 1_555 1_555
C1Q N2X 1_555 1_555
C1J N2RA 1_555 1_555
C1F N2LA 1_555 1_555
C1S N2Z 1_555 1_555
C1A N2NA 1_555 1_555
C1M N2GA 1_555 1_555
C1V_2 N2V_2 1_555 1_555
C1L_2 N2L_2 1_555 1_555
C1D_2 N2D_2 1_555 1_555
C1G_2 N2UA_2 1_555 1_555
C1O_2 N2AA_2 1_555 1_555
C1U_2 N2FA_2 1_555 1_555
C1A_2 N2NA_2 1_555 1_555
C1M_2 N2GA_2 1_555 1_555
C1S_2 N2Z_2 1_555 1_555
C1W_2 N2EA_2 1_555 1_555
C1H_2 N2SA_2 1_555 1_555
C1C_2 N2MA_2 1_555 1_555
C1C_3 N2C_3 1_555 1_555
C1H_3 N2H_3 1_555 1_555
C1W_3 N2W_3 1_555 1_555
C1K_2 N2JA_2 1_555 1_555
C1R_2 N2BA_2 1_555 1_555
C1E_2 N2TA_2 1_555 1_555
C1I_2 N2KA_2 1_555 1_555
C1P_2 N2Y_2 1_555 1_555
C1B_2 N2QA_2 1_555 1_555
C1W_4 N2W_4 1_555 1_555
C1C_4 N2C_4 1_555 1_555
C1H_4 N2H_4 1_555 1_555
C2T C3 1_555 1_555
C2N C1N 1_555 1_555
C2B C1B 1_555 1_555
C2P C1P 1_555 1_555
C2I C1I 1_555 1_555
C2R C1R 1_555 1_555
C2E C1E 1_555 1_555
C2K C1K 1_555 1_555
C2U C1U 1_555 1_555
C2G C1G 1_555 1_555
C2O C1O 1_555 1_555
C2D C1D 1_555 1_555
C2V C1V 1_555 1_555
C2L C1L 1_555 1_555
C2H C1H 1_555 1_555
C2W C1W 1_555 1_555
C2C C1C 1_555 1_555
C2Q C1Q 1_555 1_555
C2J C1J 1_555 1_555
C2F C1F 1_555 1_555
C2S C1S 1_555 1_555
C2A C1A 1_555 1_555
C2M C1M 1_555 1_555
C2V_2 C1V_2 1_555 1_555
C2L_2 C1L_2 1_555 1_555
C2D_2 C1D_2 1_555 1_555
C2G_2 C1G_2 1_555 1_555
C2O_2 C1O_2 1_555 1_555
C2U_2 C1U_2 1_555 1_555
C2A_2 C1A_2 1_555 1_555
C2M_2 C1M_2 1_555 1_555
C2S_2 C1S_2 1_555 1_555
C2W_2 C1W_2 1_555 1_555
C2H_2 C1H_2 1_555 1_555
C2C_2 C1C_2 1_555 1_555
C2C_3 C1C_3 1_555 1_555
C2H_3 C1H_3 1_555 1_555
C2W_3 C1W_3 1_555 1_555
C2K_2 C1K_2 1_555 1_555
C2R_2 C1R_2 1_555 1_555
C2E_2 C1E_2 1_555 1_555
C2I_2 C1I_2 1_555 1_555
C2P_2 C1P_2 1_555 1_555
C2B_2 C1B_2 1_555 1_555
C2W_4 C1W_4 1_555 1_555
C2C_4 C1C_4 1_555 1_555
C2H_4 C1H_4 1_555 1_555
C3T C2T 1_555 1_555
C3N C2 1_555 1_555
C3B C2B 1_555 1_555
C3P C2P 1_555 1_555
C3I C2B 1_555 1_555
C3E C2R 1_555 1_555
C3K C2E 1_555 1_555
C3R C2R 1_555 1_555
C3G C2U 1_555 1_555
C3O C2G 1_555 1_555
C3U C2U 1_555 1_555
C3D C2D 1_555 1_555
C3V C2V 1_555 1_555
C3L C2D 1_555 1_555
C3H C2H 1_555 1_555
C3W C2W 1_555 1_555
C3C C2H 1_555 1_555
C3J C2Q 1_555 1_555
C3F C2J 1_555 1_555
C3Q C2Q 1_555 1_555
C3A C2S 1_555 1_555
C3M C2A 1_555 1_555
C3S C2S 1_555 1_555
C3V_2 C2V_2 1_555 1_555
C3L_2 C2L_2 1_555 1_555
C3D_2 C2V_2 1_555 1_555
C3O_2 C2G_2 1_555 1_555
C3U_2 C2O_2 1_555 1_555
C3G_2 C2G_2 1_555 1_555
C3M_2 C2A_2 1_555 1_555
C3S_2 C2M_2 1_555 1_555
C3A_2 C2A_2 1_555 1_555
C3H_2 C2W_2 1_555 1_555
C3C_2 C2H_2 1_555 1_555
C3W_2 C2W_2 1_555 1_555
C3C_3 C2C_3 1_555 1_555
C3H_3 C2H_3 1_555 1_555
C3W_3 C2C_3 1_555 1_555
C3R_2 C2K_2 1_555 1_555
C3E_2 C2R_2 1_555 1_555
C3K_2 C2K_2 1_555 1_555
C3P_2 C2I_2 1_555 1_555
C3B_2 C2P_2 1_555 1_555
C3I_2 C2I_2 1_555 1_555
C3W_4 C2W_4 1_555 1_555
C3C_4 C2C_4 1_555 1_555
C3H_4 C2W_4 1_555 1_555
H1N C3N 1_555 1_555
H1T C3T 1_555 1_555
H1B C3B 1_555 1_555
H1I C3I 1_555 1_555
H1P C3P 1_555 1_555
H1E C3E 1_555 1_555
H1R C3R 1_555 1_555
H1K C3K 1_555 1_555
H1G C3G 1_555 1_555
H1U C3U 1_555 1_555
H1O C3O 1_555 1_555
H1D C3D 1_555 1_555
H1L C3L 1_555 1_555
H1V C3V 1_555 1_555
H1H C3H 1_555 1_555
H1C C3C 1_555 1_555
H1W C3W 1_555 1_555
H1J C3J 1_555 1_555
H1Q C3Q 1_555 1_555
H1F C3F 1_555 1_555
H1A C3A 1_555 1_555
H1S C3S 1_555 1_555
H1M C3M 1_555 1_555
H1V_2 C3V_2 1_555 1_555
H1D_2 C3D_2 1_555 1_555
H1L_2 C3L_2 1_555 1_555
H1O_2 C3O_2 1_555 1_555
H1G_2 C3G_2 1_555 1_555
H1U_2 C3U_2 1_555 1_555
H1M_2 C3M_2 1_555 1_555
H1A_2 C3A_2 1_555 1_555
H1S_2 C3S_2 1_555 1_555
H1H_2 C3H_2 1_555 1_555
H1W_2 C3W_2 1_555 1_555
H1C_2 C3C_2 1_555 1_555
H1C_3 C3C_3 1_555 1_555
H1W_3 C3W_3 1_555 1_555
H1H_3 C3H_3 1_555 1_555
H1R_2 C3R_2 1_555 1_555
H1K_2 C3K_2 1_555 1_555
H1E_2 C3E_2 1_555 1_555
H1P_2 C3P_2 1_555 1_555
H1I_2 C3I_2 1_555 1_555
H1B_2 C3B_2 1_555 1_555
H1W_4 C3W_4 1_555 1_555
H1H_4 C3H_4 1_555 1_555
H1C_4 C3C_4 1_555 1_555
Mn1S N1OA 1_555 1_555
N1OA N2OA 1_555 1_555
N1T N1HA 1_555 1_555
N1N N1DA 1_555 1_555
N1B N1QA 1_555 1_555
N1P N1Y 1_555 1_555
N1I N1KA 1_555 1_555
N1BA N1R 1_555 1_555
N1TA N1E 1_555 1_555
N1JA N1K 1_555 1_555
N1FA N1U 1_555 1_555
N1UA N1G 1_555 1_555
N1AA N1O 1_555 1_555
N1D N1PA 1_555 1_555
N1L N1IA 1_555 1_555
N1H N1SA 1_555 1_555
N1C N1MA 1_555 1_555
N1X N1Q 1_555 1_555
N1LA N1F 1_555 1_555
N1Z N1S 1_555 1_555
N1GA N1M 1_555 1_555
N1V_2 N1CA_2 1_555 1_555
N1UA_2 N1G_2 1_555 1_555
N1AA_2 N1O_2 1_555 1_555
N1NA_2 N1A_2 1_555 1_555
N1EA_2 N1W_2 1_555 1_555
N1C_3 N1MA_3 1_555 1_555
N1JA_2 N1K_2 1_555 1_555
N1KA_2 N1I_2 1_555 1_555
N1W_4 N1EA_4 1_555 1_555
N1RA_2 N1J_2 1_555 1_555
N1TA_3 N1E_3 1_555 1_555
N1CA_3 N1V_3 1_555 1_555
N1AA_3 N1O_3 1_555 1_555
N1K_3 N1JA_3 1_555 1_555
N1DA_2 N1N_3 1_555 1_555
N1P_3 N1Y_3 1_555 1_555
N1RA_3 N1J_3 1_555 1_555
N1N_2 N1DA_3 1_555 1_555
N1O_4 N1AA_4 1_555 1_555
N1KA_3 N1I_4 1_555 1_555
N1T_2 N1HA_2 1_555 1_555
N1NA_3 N1A_3 1_555 1_555
N1I_3 N1KA_4 1_555 1_555
N1L_4 N1IA_3 1_555 1_555
N1LA_3 N1F_2 1_555 1_555
N2HA C1T 1_555 1_555
N2DA C1N 1_555 1_555
N2QA C1B 1_555 1_555
N2Y C1P 1_555 1_555
N2KA C1I 1_555 1_555
N2R C1R 1_555 1_555
N2E C1E 1_555 1_555
N2K C1K 1_555 1_555
N2U C1U 1_555 1_555
N2G C1G 1_555 1_555
N2O C1O 1_555 1_555
N2PA C1D 1_555 1_555
N2IA C1L 1_555 1_555
N2SA C1H 1_555 1_555
N2MA C1C 1_555 1_555
N2Q C1Q 1_555 1_555
N2J C1J 1_555 1_555
N2F C1F 1_555 1_555
N2S C1S 1_555 1_555
N2A C1A 1_555 1_555
N2M C1M 1_555 1_555
N2CA_2 C1V_2 1_555 1_555
N2G_2 C1G_2 1_555 1_555
N2O_2 C1O_2 1_555 1_555
N2A_2 C1A_2 1_555 1_555
N2M_2 C1M_2 1_555 1_555
N2W_2 C1W_2 1_555 1_555
N2H_2 C1H_2 1_555 1_555
N2MA_3 C1C_3 1_555 1_555
N2K_2 C1K_2 1_555 1_555
N2R_2 C1R_2 1_555 1_555
N2I_2 C1I_2 1_555 1_555
N2P_2 C1P_2 1_555 1_555
N2EA_4 C1W_4 1_555 1_555
C1T C2T 1_555 1_555
C2N C3T 1_555 1_555
C2N C3N 1_555 1_555
C2P C3B 1_555 1_555
C2I C3P 1_555 1_555
C2I C3I 1_555 1_555
C2E C3E 1_555 1_555
C2K C3K 1_555 1_555
C2K C3R 1_555 1_555
C2G C3G 1_555 1_555
C2O C3O 1_555 1_555
C2O C3U 1_555 1_555
C2V C3D 1_555 1_555
C2L C3V 1_555 1_555
C2L C3L 1_555 1_555
C2W C3H 1_555 1_555
C2C C3W 1_555 1_555
C2C C3C 1_555 1_555
C2J C3J 1_555 1_555
C2F C3F 1_555 1_555
C2F C3Q 1_555 1_555
C2A C3A 1_555 1_555
C2M C3M 1_555 1_555
C2M C3S 1_555 1_555
C2L_2 C3V_2 1_555 1_555
C2D_2 C3L_2 1_555 1_555
C2D_2 C3D_2 1_555 1_555
C2O_2 C3O_2 1_555 1_555
C2U_2 C3U_2 1_555 1_555
C2U_2 C3G_2 1_555 1_555
C2M_2 C3M_2 1_555 1_555
C2S_2 C3S_2 1_555 1_555
C2S_2 C3A_2 1_555 1_555
C2H_2 C3H_2 1_555 1_555
C2C_2 C3C_2 1_555 1_555
C2C_2 C3W_2 1_555 1_555
C2H_3 C3C_3 1_555 1_555
C2W_3 C3H_3 1_555 1_555
C2W_3 C3W_3 1_555 1_555
C2R_2 C3R_2 1_555 1_555
C2E_2 C3E_2 1_555 1_555
C2E_2 C3K_2 1_555 1_555
C2P_2 C3P_2 1_555 1_555
C2B_2 C3B_2 1_555 1_555
C2B_2 C3I_2 1_555 1_555
C2C_4 C3W_4 1_555 1_555
C2H_4 C3C_4 1_555 1_555
C2H_4 C3H_4 1_555 1_555

#END
