
#######################################################################
#
#                 Cambridge Crystallographic Data Centre
#                                CCDC 
#
#######################################################################
#
# If this CIF has been generated from an entry in the Cambridge 
# Structural Database, then it will include bibliographic, chemical, 
# crystal, experimental, refinement or atomic coordinate data resulting 
# from the CCDC's data processing and validation procedures.
#
#######################################################################

data_XUDYEC
_chemical_formula_moiety         '(C24 H28 Cd2 N10 O6)n'
_chemical_name_systematic        
catena-[(\m-biphenyl-4,4'-dicarboxylato)-bis(\m-3-amino-1,2,4-triazolato)-bis(N,N-dimethylformamide)-di-cadmium]
_symmetry_cell_setting           monoclinic
_symmetry_space_group_name_H-M   'C 2/c'
_symmetry_Int_Tables_number      15
_space_group_name_Hall           '-C 2yc'
loop_
_symmetry_equiv_pos_site_id
_symmetry_equiv_pos_as_xyz
1 x,y,z
2 -x,y,1/2-z
3 1/2+x,1/2+y,z
4 1/2-x,1/2+y,1/2-z
5 -x,-y,-z
6 x,-y,1/2+z
7 1/2-x,1/2-y,-z
8 1/2+x,1/2-y,1/2+z
_cell_length_a                   36.417(17)
_cell_length_b                   9.831(5)
_cell_length_c                   10.995(5)
_cell_angle_alpha                90
_cell_angle_beta                 106.189(8)
_cell_angle_gamma                90
_cell_volume                     3780.29
_exptl_crystal_colour            colorless
_exptl_crystal_description       block
_cell_formula_units_Z            4
loop_
_atom_site_label
_atom_site_type_symbol
_atom_site_fract_x
_atom_site_fract_y
_atom_site_fract_z
_atom_site_U_iso_or_equiv
_atom_site_thermal_displace_type
Cd1 Cd 0.210247(11) 0.66823(4) 0.36660(4) 0.0244 Uani
O1 O 0.15334(14) 0.6973(6) 0.2034(5) 0.0445 Uani
C1 C 0.0206(2) 0.5151(9) 0.0356(8) 0.0484 Uani
C2 C 0.13757(19) 0.5943(8) 0.2350(7) 0.0420 Uani
C3 C 0.0975(2) 0.5622(9) 0.1638(7) 0.0448 Uani
C4 C 0.0415(2) 0.6119(10) -0.0051(8) 0.0536 Uani
H1 H 0.0299 0.6625 -0.0770 0.0640 Uiso
C5 C 0.0789(2) 0.6360(10) 0.0570(8) 0.0527 Uani
H2 H 0.0921 0.7032 0.0272 0.0630 Uiso
C6 C 0.0771(3) 0.4667(14) 0.2054(10) 0.0851 Uani
H3 H 0.0886 0.4169 0.2780 0.1020 Uiso
O2 O 0.1782(2) 0.8139(6) 0.4790(7) 0.0589 Uani
N1 N 0.23620(14) 0.5683(5) 0.5555(4) 0.0266 Uani
C7 C 0.0394(2) 0.4429(14) 0.1407(10) 0.0841 Uani
H4 H 0.0263 0.3748 0.1697 0.1010 Uiso
N2 N 0.1581(2) 0.8754(8) 0.6448(7) 0.0563 Uani
C8 C 0.1748(3) 0.7923(11) 0.5835(10) 0.0585 Uani
H5 H 0.1848 0.7114 0.6231 0.0700 Uiso
C9 C 0.22233(18) 0.4654(6) 0.6052(6) 0.0279 Uani
O3 O 0.15402(15) 0.5229(7) 0.3235(6) 0.0625 Uani
N3 N 0.23355(16) 0.4656(5) 0.7322(5) 0.0313 Uani
N4 N 0.25814(16) 0.6412(5) 0.6570(5) 0.0297 Uani
C10 C 0.25539(19) 0.5790(6) 0.7581(6) 0.0337 Uani
H6 H 0.2672 0.6091 0.8398 0.0400 Uiso
N5 N 0.2000(2) 0.3652(6) 0.5361(6) 0.0438 Uani
H7 H 0.1942 0.3670 0.4547 0.0520 Uiso
H8 H 0.1917 0.3004 0.5739 0.0520 Uiso
C11 C 0.1412(5) 1.0020(13) 0.5914(15) 0.1013 Uani
H9 H 0.1558 1.0397 0.5389 0.1520 Uiso
H10 H 0.1412 1.0646 0.6583 0.1520 Uiso
H11 H 0.1154 0.9863 0.5412 0.1520 Uiso
C12 C 0.1576(6) 0.851(2) 0.7775(15) 0.1346 Uani
H12 H 0.1610 0.7555 0.7962 0.2010 Uiso
H13 H 0.1335 0.8799 0.7881 0.2010 Uiso
H14 H 0.1779 0.9011 0.8340 0.2010 Uiso
O1D O -0.15334(14) 0.3027(6) -0.2034(5) 0.0445 Uani
C1D C -0.0206(2) 0.4849(9) -0.0356(8) 0.0484 Uani
C2D C -0.13757(19) 0.4057(8) -0.2350(7) 0.0420 Uani
C3D C -0.0975(2) 0.4378(9) -0.1638(7) 0.0448 Uani
C4D C -0.0415(2) 0.3881(10) 0.0051(8) 0.0536 Uani
H1D H -0.0299 0.3375 0.0770 0.0640 Uiso
C5D C -0.0789(2) 0.3640(10) -0.0570(8) 0.0527 Uani
H2D H -0.0921 0.2968 -0.0272 0.0630 Uiso
C6D C -0.0771(3) 0.5333(14) -0.2054(10) 0.0851 Uani
H3D H -0.0886 0.5831 -0.2780 0.1020 Uiso
C7D C -0.0394(2) 0.5571(14) -0.1407(10) 0.0841 Uani
H4D H -0.0263 0.6252 -0.1697 0.1010 Uiso
O3D O -0.15402(15) 0.4771(7) -0.3235(6) 0.0625 Uani
Cd1D Cd -0.210247(11) 0.33177(4) -0.36660(4) 0.0244 Uani
O2D O -0.1782(2) 0.1861(6) -0.4790(7) 0.0589 Uani
N1D N -0.23620(14) 0.4317(5) -0.5555(4) 0.0266 Uani
N2D N -0.1581(2) 0.1246(8) -0.6448(7) 0.0563 Uani
C8D C -0.1748(3) 0.2077(11) -0.5835(10) 0.0585 Uani
H5D H -0.1848 0.2886 -0.6231 0.0700 Uiso
C9D C -0.22233(18) 0.5346(6) -0.6052(6) 0.0279 Uani
N3D N -0.23355(16) 0.5344(5) -0.7322(5) 0.0313 Uani
N4D N -0.25814(16) 0.3588(5) -0.6570(5) 0.0297 Uani
C10D C -0.25539(19) 0.4210(6) -0.7581(6) 0.0337 Uani
H6D H -0.2672 0.3909 -0.8398 0.0400 Uiso
N5D N -0.2000(2) 0.6348(6) -0.5361(6) 0.0438 Uani
H7D H -0.1942 0.6330 -0.4547 0.0520 Uiso
H8D H -0.1917 0.6996 -0.5739 0.0520 Uiso
C11D C -0.1412(5) -0.0020(13) -0.5914(15) 0.1013 Uani
H9D H -0.1558 -0.0397 -0.5389 0.1520 Uiso
H10D H -0.1412 -0.0646 -0.6583 0.1520 Uiso
H11D H -0.1154 0.0137 -0.5412 0.1520 Uiso
C12D C -0.1576(6) 0.149(2) -0.7775(15) 0.1346 Uani
H12D H -0.1610 0.2445 -0.7962 0.2010 Uiso
H13D H -0.1335 0.1201 -0.7881 0.2010 Uiso
H14D H -0.1779 0.0989 -0.8340 0.2010 Uiso
Cd1A Cd -0.210247(11) 0.66823(4) -0.86660(4) 0.0244 Uani
Cd1B Cd -0.289753(11) 0.16823(4) -0.63340(4) 0.0244 Uani
Cd1E Cd 0.210247(11) 0.33177(4) 0.86660(4) 0.0244 Uani
Cd1F Cd 0.289753(11) 0.83177(4) 0.63340(4) 0.0244 Uani
N3A N -0.23355(16) 0.4656(5) -0.2322(5) 0.0313 Uani
N3E N 0.23355(16) 0.5344(5) 0.2322(5) 0.0313 Uani
N4B N -0.24186(16) 0.1412(5) -0.3430(5) 0.0297 Uani
N4F N 0.24186(16) 0.8588(5) 0.3430(5) 0.0297 Uani
loop_
_atom_site_aniso_label
_atom_site_aniso_U_11
_atom_site_aniso_U_22
_atom_site_aniso_U_33
_atom_site_aniso_U_23
_atom_site_aniso_U_13
_atom_site_aniso_U_12
Cd1 0.0219(3) 0.0259(3) 0.0222(3) -0.00174(14) 0.00067(17) -0.00389(14)
O1 0.026(2) 0.050(3) 0.050(3) -0.006(2) -0.002(2) -0.006(2)
C1 0.027(3) 0.067(5) 0.044(4) 0.010(4) -0.002(3) -0.009(3)
C2 0.023(3) 0.056(4) 0.041(4) -0.003(3) -0.001(3) -0.007(3)
C3 0.023(3) 0.062(5) 0.042(4) 0.001(3) -0.003(3) -0.009(3)
C4 0.028(3) 0.072(6) 0.049(4) 0.012(4) -0.009(3) -0.008(4)
C5 0.036(4) 0.065(5) 0.047(5) 0.018(4) -0.005(3) -0.010(4)
C6 0.036(4) 0.129(10) 0.071(6) 0.056(7) -0.017(4) -0.024(5)
O2 0.072(5) 0.058(4) 0.053(4) -0.002(3) 0.028(3) 0.018(3)
N1 0.029(2) 0.024(2) 0.022(2) -0.0009(18) -0.0007(19) -0.0048(19)
C7 0.032(4) 0.130(10) 0.072(6) 0.044(7) -0.016(4) -0.037(5)
N2 0.068(5) 0.054(4) 0.052(4) -0.001(3) 0.025(4) 0.013(4)
C8 0.060(5) 0.057(5) 0.065(6) 0.006(4) 0.028(5) 0.018(4)
C9 0.030(3) 0.023(2) 0.027(3) 0.000(2) 0.002(2) -0.002(2)
O3 0.028(3) 0.083(5) 0.061(4) 0.020(3) -0.013(2) -0.013(3)
N3 0.034(3) 0.031(3) 0.024(2) 0.0016(19) 0.000(2) -0.007(2)
N4 0.032(3) 0.028(2) 0.025(2) -0.0039(19) 0.001(2) -0.010(2)
C10 0.035(3) 0.035(3) 0.026(3) -0.001(2) 0.000(2) -0.010(3)
N5 0.061(4) 0.035(3) 0.029(3) -0.002(2) 0.002(3) -0.019(3)
C11 0.131(12) 0.067(7) 0.122(11) 0.010(7) 0.062(10) 0.042(8)
C12 0.19(2) 0.165(17) 0.071(9) 0.035(9) 0.073(12) 0.082(15)
O1D 0.026 0.05 0.05 -0.006 -0.002 -0.006
C1D 0.027 0.067 0.044 0.01 -0.002 -0.009
C2D 0.023 0.056 0.041 -0.003 -0.001 -0.007
C3D 0.023 0.062 0.042 0.001 -0.003 -0.009
C4D 0.028 0.072 0.049 0.012 -0.009 -0.008
C5D 0.036 0.065 0.047 0.018 -0.005 -0.01
C6D 0.036 0.129 0.071 0.056 -0.017 -0.024
C7D 0.032 0.13 0.072 0.044 -0.016 -0.037
O3D 0.028 0.083 0.061 0.02 -0.013 -0.013
Cd1D 0.0219 0.0259 0.0222 -0.00174 0.00067 -0.00389
O2D 0.072 0.058 0.053 -0.002 0.028 0.018
N1D 0.029 0.024 0.022 -0.0009 -0.0007 -0.0048
N2D 0.068 0.054 0.052 -0.001 0.025 0.013
C8D 0.06 0.057 0.065 0.006 0.028 0.018
C9D 0.03 0.023 0.027 0 0.002 -0.002
N3D 0.034 0.031 0.024 0.0016 0 -0.007
N4D 0.032 0.028 0.025 -0.0039 0.001 -0.01
C10D 0.035 0.035 0.026 -0.001 0 -0.01
N5D 0.061 0.035 0.029 -0.002 0.002 -0.019
C11D 0.131 0.067 0.122 0.01 0.062 0.042
C12D 0.19 0.165 0.071 0.035 0.073 0.082
Cd1A 0.0219 0.0259 0.0222 0.00174 0.00067 0.00389
Cd1B 0.0219 0.0259 0.0222 -0.00174 0.00067 -0.00389
Cd1E 0.0219 0.0259 0.0222 0.00174 0.00067 0.00389
Cd1F 0.0219 0.0259 0.0222 -0.00174 0.00067 -0.00389
N3A 0.034 0.031 0.024 -0.0016 0 0.007
N3E 0.034 0.031 0.024 -0.0016 0 0.007
N4B 0.032 0.028 0.025 -0.0039 0.001 -0.01
N4F 0.032 0.028 0.025 -0.0039 0.001 -0.01
loop_
_geom_bond_atom_site_label_1
_geom_bond_atom_site_label_2
_geom_bond_site_symmetry_1
_geom_bond_site_symmetry_2
Cd1 O1 1_555 1_555
O1 C2 1_555 1_555
C1 C4 1_555 1_555
C2 C3 1_555 1_555
C3 C5 1_555 1_555
C4 H1 1_555 1_555
C5 C4 1_555 1_555
H2 C5 1_555 1_555
C6 C3 1_555 1_555
H3 C6 1_555 1_555
O2 Cd1 1_555 1_555
N1 Cd1 1_555 1_555
C7 C1 1_555 1_555
H4 C7 1_555 1_555
N2 C8 1_555 1_555
C8 O2 1_555 1_555
H5 C8 1_555 1_555
C9 N1 1_555 1_555
O3 Cd1 1_555 1_555
N3 C9 1_555 1_555
N4 N1 1_555 1_555
C10 N3 1_555 1_555
H6 C10 1_555 1_555
N5 C9 1_555 1_555
H7 N5 1_555 1_555
H8 N5 1_555 1_555
C11 N2 1_555 1_555
H9 C11 1_555 1_555
H10 C11 1_555 1_555
H11 C11 1_555 1_555
C12 N2 1_555 1_555
H12 C12 1_555 1_555
H13 C12 1_555 1_555
H14 C12 1_555 1_555
O1D C2D 1_555 1_555
C1D C1 1_555 1_555
C2D C3D 1_555 1_555
C3D C5D 1_555 1_555
C4D C1D 1_555 1_555
H1D C4D 1_555 1_555
C5D C4D 1_555 1_555
H2D C5D 1_555 1_555
C6D C3D 1_555 1_555
H3D C6D 1_555 1_555
C7D C1D 1_555 1_555
H4D C7D 1_555 1_555
O3D C2D 1_555 1_555
Cd1D O1D 1_555 1_555
O2D Cd1D 1_555 1_555
N1D Cd1D 1_555 1_555
N2D C8D 1_555 1_555
C8D O2D 1_555 1_555
H5D C8D 1_555 1_555
C9D N1D 1_555 1_555
N3D C9D 1_555 1_555
N4D N1D 1_555 1_555
C10D N3D 1_555 1_555
H6D C10D 1_555 1_555
N5D C9D 1_555 1_555
H7D N5D 1_555 1_555
H8D N5D 1_555 1_555
C11D N2D 1_555 1_555
H9D C11D 1_555 1_555
H10D C11D 1_555 1_555
H11D C11D 1_555 1_555
C12D N2D 1_555 1_555
H12D C12D 1_555 1_555
H13D C12D 1_555 1_555
H14D C12D 1_555 1_555
Cd1A N3D 1_555 1_555
Cd1B N4D 1_555 1_555
Cd1E N3 1_555 1_555
Cd1F N4 1_555 1_555
N3A Cd1D 1_555 1_555
N3E Cd1 1_555 1_555
N4B Cd1D 1_555 1_555
N4F Cd1 1_555 1_555
C2 O3 1_555 1_555
C6 C7 1_555 1_555
N4 C10 1_555 1_555
C6D C7D 1_555 1_555
O3D Cd1D 1_555 1_555
N4D C10D 1_555 1_555

#END
