
#######################################################################
#
#                 Cambridge Crystallographic Data Centre
#                                CCDC 
#
#######################################################################
#
# If this CIF has been generated from an entry in the Cambridge 
# Structural Database, then it will include bibliographic, chemical, 
# crystal, experimental, refinement or atomic coordinate data resulting 
# from the CCDC's data processing and validation procedures.
#
#######################################################################

data_XORGUI
_chemical_formula_moiety         '(C8 H4 Cd1 N8)n,3n(H2 O1)'
_chemical_name_systematic        
"catena-[(\m~4~-5-(Pyrazin-2-yl)-3,3'-bi-1,2,4-triazolyl)-cadmium trihydrate]"
_symmetry_cell_setting           monoclinic
_symmetry_space_group_name_H-M   'P 21/c'
_symmetry_Int_Tables_number      14
_space_group_name_Hall           '-P 2ybc'
loop_
_symmetry_equiv_pos_site_id
_symmetry_equiv_pos_as_xyz
1 x,y,z
2 -x,1/2+y,1/2-z
3 -x,-y,-z
4 x,1/2-y,1/2+z
_cell_length_a                   9.9480(14)
_cell_length_b                   10.1981(14)
_cell_length_c                   12.8656(18)
_cell_angle_alpha                90
_cell_angle_beta                 106.089(2)
_cell_angle_gamma                90
_cell_volume                     1254.1
_exptl_crystal_colour            colorless
_exptl_crystal_description       block
_cell_formula_units_Z            4
loop_
_atom_site_label
_atom_site_type_symbol
_atom_site_fract_x
_atom_site_fract_y
_atom_site_fract_z
_atom_site_U_iso_or_equiv
_atom_site_thermal_displace_type
Cd1 Cd 0.20267(4) 0.17157(3) 0.21739(3) 0.0150 Uani
N1 N 0.4008(5) 0.1712(4) 0.7698(4) 0.0229 Uani
N2 N -0.0500(5) 0.5031(4) 0.3134(3) 0.0215 Uani
N3 N 0.6116(5) -0.0149(5) 0.7850(4) 0.0278 Uani
N4 N 0.0203(5) 0.4408(5) 0.4080(3) 0.0208 Uani
C1 C -0.0177(6) 0.4361(5) 0.2358(4) 0.0217 Uani
H1 H -0.0514 0.4565 0.1627 0.0260 Uiso
C2 C 0.4185(6) 0.1105(5) 0.6826(4) 0.0210 Uani
C3 C 0.4872(7) 0.1375(6) 0.8642(5) 0.0315 Uani
H2 H 0.4766 0.1764 0.9269 0.0380 Uiso
C4 C 0.5236(7) 0.0183(6) 0.6911(5) 0.0298 Uani
H3 H 0.5325 -0.0218 0.6284 0.0360 Uiso
C5 C 0.5946(7) 0.0448(7) 0.8730(5) 0.0332 Uani
H4 H 0.6543 0.0248 0.9407 0.0400 Uiso
N5 N 0.2441(5) 0.1583(4) 0.4054(3) 0.0177 Uani
N6 N 0.0709(5) 0.3336(4) 0.2744(4) 0.0215 Uani
N7 N 0.2343(5) 0.2493(4) 0.5612(3) 0.0169 Uani
N8 N 0.3359(5) 0.0922(4) 0.4857(4) 0.0209 Uani
C6 C 0.0904(6) 0.3418(5) 0.3821(4) 0.0178 Uani
C7 C 0.1849(5) 0.2520(5) 0.4512(4) 0.0166 Uani
C8 C 0.3280(6) 0.1488(5) 0.5770(4) 0.0199 Uani
Cd1A Cd -0.20267(4) 0.67157(3) 0.28261(3) 0.0150 Uani
Cd1B Cd 0.79733(4) -0.17157(3) 0.78261(3) 0.0150 Uani
Cd1C Cd 0.20267(4) 0.32843(3) 0.71739(3) 0.0150 Uani
N1C N 0.4008(5) 0.3288(4) 0.2698(4) 0.0229 Uani
N2A N 0.0500(5) 0.0031(4) 0.1866(3) 0.0215 Uani
N3B N 0.3884(5) 0.0149(5) 0.2150(4) 0.0278 Uani
N7C N 0.2343(5) 0.2507(4) 0.0612(3) 0.0169 Uani
loop_
_atom_site_aniso_label
_atom_site_aniso_U_11
_atom_site_aniso_U_22
_atom_site_aniso_U_33
_atom_site_aniso_U_23
_atom_site_aniso_U_13
_atom_site_aniso_U_12
Cd1 0.0191(2) 0.0161(2) 0.0105(2) -0.00062(13) 0.00504(15) -0.00190(15)
N1 0.030(3) 0.023(2) 0.016(2) 0.0034(18) 0.007(2) 0.010(2)
N2 0.029(2) 0.021(2) 0.014(2) 0.0046(18) 0.0052(19) 0.010(2)
N3 0.033(3) 0.032(3) 0.016(2) 0.000(2) 0.003(2) 0.015(2)
N4 0.024(2) 0.027(2) 0.008(2) 0.0000(17) -0.0014(17) 0.008(2)
C1 0.030(3) 0.021(3) 0.013(2) 0.005(2) 0.004(2) 0.011(2)
C2 0.030(3) 0.018(3) 0.016(3) 0.003(2) 0.008(2) 0.012(2)
C3 0.047(4) 0.032(3) 0.015(3) -0.001(2) 0.008(3) 0.016(3)
C4 0.036(3) 0.035(3) 0.018(3) 0.003(2) 0.007(2) 0.021(3)
C5 0.042(4) 0.039(3) 0.014(3) 0.001(2) 0.000(2) 0.021(3)
N5 0.023(2) 0.019(2) 0.012(2) 0.0030(17) 0.0061(18) 0.0057(18)
N6 0.032(3) 0.021(2) 0.012(2) -0.0005(17) 0.0069(19) 0.016(2)
N7 0.021(2) 0.019(2) 0.010(2) 0.0003(16) 0.0032(17) 0.0040(18)
N8 0.029(2) 0.021(2) 0.013(2) 0.0009(17) 0.0063(19) 0.0107(19)
C6 0.023(3) 0.018(2) 0.012(2) 0.0009(19) 0.004(2) -0.002(2)
C7 0.021(3) 0.017(2) 0.012(2) 0.0021(19) 0.005(2) -0.003(2)
C8 0.026(3) 0.022(3) 0.012(2) 0.002(2) 0.006(2) 0.008(2)
Cd1A 0.0191 0.0161 0.0105 0.00062 0.00504 0.0019
Cd1B 0.0191 0.0161 0.0105 -0.00062 0.00504 -0.0019
Cd1C 0.0191 0.0161 0.0105 0.00062 0.00504 0.0019
N1C 0.03 0.023 0.016 -0.0034 0.007 -0.01
N2A 0.029 0.021 0.014 -0.0046 0.0052 -0.01
N3B 0.033 0.032 0.016 0 0.003 0.015
N7C 0.021 0.019 0.01 -0.0003 0.0032 -0.004
loop_
_geom_bond_atom_site_label_1
_geom_bond_atom_site_label_2
_geom_bond_site_symmetry_1
_geom_bond_site_symmetry_2
Cd1 N5 1_555 1_555
N1 C2 1_555 1_555
N2 N4 1_555 1_555
N3 C4 1_555 1_555
N4 C6 1_555 1_555
C1 N2 1_555 1_555
H1 C1 1_555 1_555
C2 C4 1_555 1_555
C3 N1 1_555 1_555
H2 C3 1_555 1_555
C4 H3 1_555 1_555
C5 N3 1_555 1_555
H4 C5 1_555 1_555
N5 N8 1_555 1_555
N6 Cd1 1_555 1_555
N7 C7 1_555 1_555
N8 C8 1_555 1_555
C6 N6 1_555 1_555
C7 N5 1_555 1_555
C8 C2 1_555 1_555
Cd1A N2 1_555 1_555
Cd1B N3 1_555 1_555
Cd1C N1 1_555 1_555
N1C Cd1 1_555 1_555
N2A Cd1 1_555 1_555
N3B Cd1 1_555 1_555
N7C Cd1 1_555 1_555
C1 N6 1_555 1_555
C3 C5 1_555 1_555
N7 C8 1_555 1_555
N7 Cd1C 1_555 1_555
C6 C7 1_555 1_555

#END
