
#######################################################################
#
#                 Cambridge Crystallographic Data Centre
#                                CCDC 
#
#######################################################################
#
# If this CIF has been generated from an entry in the Cambridge 
# Structural Database, then it will include bibliographic, chemical, 
# crystal, experimental, refinement or atomic coordinate data resulting 
# from the CCDC's data processing and validation procedures.
#
#######################################################################

data_NISPIP
_chemical_formula_moiety         '(C2 H8 N1 1+)n,n(C7 H4 O5 P1 Zn1 1-)'
_chemical_name_systematic        
'catena-(dimethylammonium (\m~4~-4-phosphonatobenzoato)-zinc(ii))'
_symmetry_cell_setting           monoclinic
_symmetry_space_group_name_H-M   'C 2/c'
_symmetry_Int_Tables_number      15
_space_group_name_Hall           '-C 2yc'
loop_
_symmetry_equiv_pos_site_id
_symmetry_equiv_pos_as_xyz
1 x,y,z
2 1/2+x,1/2+y,z
3 -x,y,1/2-z
4 1/2-x,1/2+y,1/2-z
5 -x,-y,-z
6 1/2-x,1/2-y,-z
7 x,-y,1/2+z
8 1/2+x,1/2-y,1/2+z
_cell_length_a                   22.071(8)
_cell_length_b                   5.4007(19)
_cell_length_c                   20.256(7)
_cell_angle_alpha                90
_cell_angle_beta                 108.335(4)
_cell_angle_gamma                90
_cell_volume                     2291.92
_exptl_crystal_colour            colorless
_exptl_crystal_description       columnar
_cell_formula_units_Z            8
loop_
_atom_site_label
_atom_site_type_symbol
_atom_site_fract_x
_atom_site_fract_y
_atom_site_fract_z
Zn1 Zn 0.196231(16) 0.54972(7) 0.040434(17)
P1 P 0.27379(4) 1.04456(15) 0.09652(4)
O1 O 0.21318(10) 0.8895(4) 0.07137(10)
O2 O 0.32237(10) 0.9729(4) 0.05982(10)
O3 O 0.26014(10) 1.3219(4) 0.09259(10)
C1 C 0.31223(13) 0.9807(5) 0.18825(14)
C2 C 0.34735(15) 0.7639(6) 0.21011(15)
H1 H 0.3510 0.6498 0.1772
C3 C 0.37696(16) 0.7165(6) 0.28023(16)
H2 H 0.4008 0.5726 0.2938
C4 C 0.37107(14) 0.8846(6) 0.33074(14)
C5 C 0.33568(15) 1.0974(6) 0.30935(15)
H3 H 0.3313 1.2096 0.3424
C6 C 0.30652(14) 1.1460(6) 0.23897(15)
H4 H 0.2829 1.2905 0.2256
C7 C 0.40481(14) 0.8280(6) 0.40646(15)
O4 O 0.38938(10) 0.9549(4) 0.45314(10)
O5 O 0.44802(12) 0.6721(5) 0.42226(12)
Zn1E Zn 0.303769(16) 0.95028(7) -0.040434(17)
Zn1_2 Zn 0.196231(16) 1.54972(7) 0.040434(17)
Zn1C Zn 0.303769(16) 1.04972(7) 0.459566(17)
O2E O 0.17763(10) 0.5271(4) -0.05982(10)
O3_2 O 0.26014(10) 0.3219(4) 0.09259(10)
O4C O 0.11062(10) 0.4549(4) 0.04686(10)
N1 N 0.04089(12) 0.1859(5) 0.92428(13)
H5 H 0.0553 0.2979 0.9586
H6 H 0.0040 0.1243 0.9273
C8 C 0.02820(19) 0.3121(8) 0.85670(18)
H7 H -0.0028 0.4407 0.8528
H8 H 0.0120 0.1946 0.8198
H9 H 0.0671 0.3832 0.8536
C9 C 0.08776(17) -0.0169(7) 0.9351(2)
H10 H 0.0936 -0.0919 0.9796
H11 H 0.1277 0.0480 0.9334
H12 H 0.0724 -0.1388 0.8992
loop_
_geom_bond_atom_site_label_1
_geom_bond_atom_site_label_2
_geom_bond_site_symmetry_1
_geom_bond_site_symmetry_2
Zn1 O1 1_555 1_555
P1 O1 1_555 1_555
O2 P1 1_555 1_555
O3 P1 1_555 1_555
C1 P1 1_555 1_555
C2 C1 1_555 1_555
H1 C2 1_555 1_555
C3 C2 1_555 1_555
H2 C3 1_555 1_555
C4 C3 1_555 1_555
C5 C4 1_555 1_555
H3 C5 1_555 1_555
C6 C1 1_555 1_555
H4 C6 1_555 1_555
C7 C4 1_555 1_555
O4 C7 1_555 1_555
O5 C7 1_555 1_555
N1 H5 1_555 1_555
H6 N1 1_555 1_555
C8 N1 1_555 1_555
H7 C8 1_555 1_555
H8 C8 1_555 1_555
H9 C8 1_555 1_555
C9 N1 1_555 1_555
H10 C9 1_555 1_555
H11 C9 1_555 1_555
H12 C9 1_555 1_555
Zn1E O2 1_555 1_555
Zn1_2 O3 1_555 1_555
Zn1C O4 1_555 1_555
O2E Zn1 1_555 1_555
O3_2 Zn1 1_555 1_555
O4C Zn1 1_555 1_555
C5 C6 1_555 1_555

#END
