
#######################################################################
#
#                 Cambridge Crystallographic Data Centre
#                                CCDC 
#
#######################################################################
#
# If this CIF has been generated from an entry in the Cambridge 
# Structural Database, then it will include bibliographic, chemical, 
# crystal, experimental, refinement or atomic coordinate data resulting 
# from the CCDC's data processing and validation procedures.
#
#######################################################################

data_FUFREE
_chemical_formula_moiety         '(C10 H7 Fe1 N3 O5)n,2n(H2 O1)'
_chemical_name_systematic        
"catena-((\m~3~-2-(Pyridin-4-yl)-1H-imidazole-4,5-dicarboxylato-N,N',O,O',O'')-aqua-iron(ii) dihydrate)"
_symmetry_cell_setting           orthorhombic
_symmetry_space_group_name_H-M   'P n a 21'
_symmetry_Int_Tables_number      33
_space_group_name_Hall           'P 2c -2n'
loop_
_symmetry_equiv_pos_site_id
_symmetry_equiv_pos_as_xyz
1 x,y,z
2 -x,-y,1/2+z
3 1/2-x,1/2+y,1/2+z
4 1/2+x,1/2-y,z
_cell_length_a                   7.7850(16)
_cell_length_b                   10.238(2)
_cell_length_c                   15.851(3)
_cell_angle_alpha                90
_cell_angle_beta                 90
_cell_angle_gamma                90
_cell_volume                     1263.37
_exptl_crystal_colour            red
_exptl_crystal_description       block
_cell_formula_units_Z            4
loop_
_atom_site_label
_atom_site_type_symbol
_atom_site_fract_x
_atom_site_fract_y
_atom_site_fract_z
_atom_site_U_iso_or_equiv
_atom_site_thermal_displace_type
Fe1 Fe 0.36188(3) 0.47017(3) 0.09834(2) 0.0175 Uani
O1 O 0.3348(2) -0.13332(17) 0.17102(13) 0.0350 Uani
O2 O 0.0678(2) -0.07457(15) 0.14327(12) 0.0269 Uani
O3 O 0.0295(2) 0.17129(16) 0.04588(10) 0.0252 Uani
O4 O 0.1552(2) 0.36482(16) 0.05235(11) 0.0256 Uani
O5 O 0.2005(3) 0.61535(18) 0.15409(14) 0.0337 Uani
N1 N 0.6090(2) 0.4282(2) 0.47672(13) 0.0239 Uani
N2 N 0.3706(2) 0.11032(19) 0.25545(12) 0.0193 Uani
H1 H 0.4140 0.0507 0.2893 0.0230 Uiso
N3 N 0.3178(2) 0.30396(18) 0.19950(12) 0.0197 Uani
C1 C 0.5470(3) 0.4961(3) 0.41087(15) 0.0294 Uani
H2 H 0.5492 0.5888 0.4136 0.0350 Uiso
C2 C 0.6111(3) 0.2981(3) 0.46944(17) 0.0298 Uani
H3 H 0.6576 0.2484 0.5146 0.0360 Uiso
C3 C 0.5496(3) 0.2326(2) 0.40004(16) 0.0292 Uani
H4 H 0.5557 0.1401 0.3973 0.0350 Uiso
C4 C 0.4807(3) 0.4387(2) 0.34009(15) 0.0255 Uani
H5 H 0.4366 0.4909 0.2955 0.0310 Uiso
C5 C 0.4785(3) 0.3033(2) 0.33400(15) 0.0205 Uani
C6 C 0.3946(3) 0.2409(2) 0.26185(14) 0.0182 Uani
C7 C 0.2676(3) 0.0870(2) 0.18747(14) 0.0181 Uani
C8 C 0.2350(3) 0.2088(2) 0.15302(13) 0.0178 Uani
C9 C 0.2192(3) -0.0502(2) 0.16453(14) 0.0207 Uani
C10 C 0.1332(2) 0.2489(2) 0.07836(12) 0.0183 Uani
H6 H 0.226(4) 0.676(3) 0.1579(18) 0.0220 Uiso
H7 H 0.099(4) 0.619(3) 0.1534(18) 0.0220 Uiso
Fe1A Fe 0.63812(3) 0.52983(3) 0.59834(2) 0.0175 Uani
Fe1C Fe -0.13812(3) 0.02983(3) 0.09834(2) 0.0175 Uani
O2C O 0.5678(2) 0.57457(15) 0.14327(12) 0.0269 Uani
O3C O 0.5295(2) 0.32871(16) 0.04588(10) 0.0252 Uani
N1A N 0.3910(2) 0.5718(2) -0.02328(13) 0.0239 Uani
O6 O -0.0385(4) 0.5824(2) 0.38537(18) 0.0528 Uani
H10 H 0.054(7) 0.604(5) 0.355(3) 0.0980 Uiso
H11 H -0.057(6) 0.585(4) 0.442(3) 0.0790 Uiso
O7 O 0.2472(4) 0.7100(3) 0.3372(2) 0.0790 Uani
H8 H 0.153(2) 0.751(3) 0.324(2) 0.0270 Uiso
H9 H 0.319(3) 0.774(2) 0.3493(18) 0.0270 Uiso
loop_
_atom_site_aniso_label
_atom_site_aniso_U_11
_atom_site_aniso_U_22
_atom_site_aniso_U_33
_atom_site_aniso_U_23
_atom_site_aniso_U_13
_atom_site_aniso_U_12
Fe1 0.01842(13) 0.01393(13) 0.02003(14) 0.00090(15) -0.00069(16) -0.00084(10)
O1 0.0227(9) 0.0173(9) 0.0650(14) -0.0043(8) -0.0077(8) 0.0032(7)
O2 0.0226(8) 0.0166(7) 0.0416(10) -0.0015(7) -0.0090(8) -0.0012(6)
O3 0.0314(9) 0.0230(8) 0.0212(8) 0.0005(7) -0.0035(7) -0.0096(7)
O4 0.0280(8) 0.0187(8) 0.0300(9) 0.0058(7) -0.0073(7) -0.0055(6)
O5 0.0268(9) 0.0188(9) 0.0556(12) -0.0055(9) 0.0101(9) -0.0011(8)
N1 0.0271(10) 0.0220(9) 0.0226(10) -0.0071(8) 0.0011(8) -0.0020(8)
N2 0.0211(9) 0.0171(9) 0.0197(9) 0.0001(7) -0.0018(7) 0.0010(7)
N3 0.0223(9) 0.0159(9) 0.0209(9) -0.0010(7) -0.0006(7) -0.0031(7)
C1 0.0423(15) 0.0205(11) 0.0254(13) -0.0038(10) 0.0020(11) -0.0052(10)
C2 0.0376(14) 0.0251(12) 0.0268(12) -0.0020(10) -0.0085(10) 0.0028(10)
C3 0.0381(14) 0.0183(11) 0.0311(13) -0.0050(10) -0.0077(11) 0.0020(10)
C4 0.0392(14) 0.0194(11) 0.0179(11) -0.0003(9) 0.0003(10) -0.0008(10)
C5 0.0202(10) 0.0193(10) 0.0219(10) -0.0013(9) 0.0018(8) -0.0025(9)
C6 0.0181(10) 0.0178(11) 0.0186(10) -0.0019(8) 0.0022(8) -0.0008(8)
C7 0.0170(10) 0.0168(10) 0.0206(11) -0.0010(8) 0.0002(8) -0.0016(8)
C8 0.0189(10) 0.0152(10) 0.0194(10) -0.0026(8) 0.0013(8) -0.0026(8)
C9 0.0252(12) 0.0153(10) 0.0216(11) -0.0003(8) 0.0002(9) 0.0001(9)
C10 0.0202(10) 0.0155(9) 0.0193(13) -0.0005(7) 0.0021(7) -0.0012(8)
Fe1A 0.01842 0.01393 0.02003 -0.0009 0.00069 -0.00084
Fe1C 0.01842 0.01393 0.02003 -0.0009 -0.00069 0.00084
O2C 0.0226 0.0166 0.0416 0.0015 -0.009 0.0012
O3C 0.0314 0.023 0.0212 -0.0005 -0.0035 0.0096
N1A 0.0271 0.022 0.0226 0.0071 -0.0011 -0.002
O6 0.0706(18) 0.0449(13) 0.0428(14) -0.0102(11) 0.0106(12) -0.0120(12)
O7 0.077(2) 0.076(2) 0.084(2) -0.0051(18) 0.0078(18) -0.0173(16)
loop_
_geom_bond_atom_site_label_1
_geom_bond_atom_site_label_2
_geom_bond_site_symmetry_1
_geom_bond_site_symmetry_2
Fe1 O4 1_555 1_555
O1 C9 1_555 1_555
O2 C9 1_555 1_555
O3 C10 1_555 1_555
O4 C10 1_555 1_555
O5 Fe1 1_555 1_555
O6 H10 1_555 1_555
O7 H8 1_555 1_555
N1 C1 1_555 1_555
N2 H1 1_555 1_555
N3 Fe1 1_555 1_555
C1 H2 1_555 1_555
C2 N1 1_555 1_555
H3 C2 1_555 1_555
C3 C2 1_555 1_555
H4 C3 1_555 1_555
C4 C1 1_555 1_555
H5 C4 1_555 1_555
C5 C3 1_555 1_555
C6 N2 1_555 1_555
C7 N2 1_555 1_555
C8 N3 1_555 1_555
C9 C7 1_555 1_555
C10 C8 1_555 1_555
H6 O5 1_555 1_555
H7 O5 1_555 1_555
H9 O7 1_555 1_555
H11 O6 1_555 1_555
Fe1A N1 1_555 1_555
Fe1C O2 1_555 1_555
O2C Fe1 1_555 1_555
O3C Fe1 1_555 1_555
N1A Fe1 1_555 1_555
O3 Fe1C 1_555 1_555
N3 C6 1_555 1_555
C4 C5 1_555 1_555
C5 C6 1_555 1_555
C7 C8 1_555 1_555

#END
