
#######################################################################
#
#                 Cambridge Crystallographic Data Centre
#                                CCDC 
#
#######################################################################
#
# If this CIF has been generated from an entry in the Cambridge 
# Structural Database, then it will include bibliographic, chemical, 
# crystal, experimental, refinement or atomic coordinate data resulting 
# from the CCDC's data processing and validation procedures.
#
#######################################################################

data_YOVPEG
_chemical_formula_moiety         '(C47 H32 Co1 N6 O5)n,n(C3 H7 N1 O1)'
_chemical_name_systematic        
"catena-((\m~3~-1,3,5-tris(4-(Imidazolyl)phenyl)benzene)-(\m~2~-4,4'-oxydibenzoato)-cobalt dimethylformamide solvate)"
_symmetry_cell_setting           monoclinic
_symmetry_space_group_name_H-M   'P 21/c'
_symmetry_Int_Tables_number      14
_space_group_name_Hall           '-P 2ybc'
loop_
_symmetry_equiv_pos_site_id
_symmetry_equiv_pos_as_xyz
1 x,y,z
2 -x,1/2+y,1/2-z
3 -x,-y,-z
4 x,1/2-y,1/2+z
_cell_length_a                   14.867(3)
_cell_length_b                   32.323(6)
_cell_length_c                   9.1792(18)
_cell_angle_alpha                90
_cell_angle_beta                 104.26(3)
_cell_angle_gamma                90
_cell_volume                     4275.12
_cell_formula_units_Z            4
loop_
_atom_site_label
_atom_site_type_symbol
_atom_site_fract_x
_atom_site_fract_y
_atom_site_fract_z
Co1 Co 0.19346(10) 0.12484(4) 1.38181(16)
C1 C 0.3241(8) 0.1675(3) 1.2090(12)
H1 H 0.3688 0.1734 1.2969
C2 C 0.1973(8) 0.1489(3) 1.0548(13)
H2 H 0.1371 0.1392 1.0173
C3 C 0.2558(8) 0.1614(3) 0.9698(13)
H3 H 0.2436 0.1618 0.8655
C4 C 0.4152(8) 0.1924(3) 1.0343(12)
C5 C 0.4031(8) 0.2211(3) 0.9210(13)
H4 H 0.3442 0.2267 0.8609
C6 C 0.4797(8) 0.2415(3) 0.8979(13)
H5 H 0.4714 0.2607 0.8202
C7 C 0.5688(8) 0.2347(3) 0.9856(12)
C8 C 0.5786(7) 0.2041(3) 1.0938(12)
H6 H 0.6376 0.1981 1.1526
C9 C 0.5035(8) 0.1821(3) 1.1177(11)
H7 H 0.5121 0.1609 1.1881
C10 C 0.6488(7) 0.2609(3) 0.9676(11)
C11 C 0.6435(7) 0.3025(3) 1.0060(11)
H8 H 0.5933 0.3118 1.0408
C12 C 0.7128(7) 0.3303(3) 0.9927(11)
C13 C 0.7851(7) 0.3147(3) 0.9356(11)
H9 H 0.8316 0.3328 0.9250
C14 C 0.7914(7) 0.2732(3) 0.8934(11)
C15 C 0.7210(7) 0.2466(3) 0.9129(11)
H10 H 0.7231 0.2188 0.8883
C16 C 0.8663(7) 0.2583(3) 0.8249(11)
C17 C 0.8920(7) 0.2165(3) 0.8276(11)
H11 H 0.8599 0.1973 0.8712
C18 C 0.9638(7) 0.2025(3) 0.7675(10)
H12 H 0.9815 0.1749 0.7760
C19 C 1.0080(7) 0.2302(3) 0.6953(11)
C20 C 0.9853(7) 0.2719(3) 0.6919(11)
H13 H 1.0171 0.2908 0.6465
C21 C 0.9156(7) 0.2855(3) 0.7559(11)
H14 H 0.9012 0.3135 0.7528
C22 C 1.0785(7) 0.1802(3) 0.5512(12)
H15 H 1.0323 0.1603 0.5413
C23 C 1.1990(8) 0.2125(3) 0.5312(13)
H16 H 1.2541 0.2189 0.5057
C24 C 1.1555(7) 0.2378(3) 0.6099(13)
H17 H 1.1738 0.2641 0.6458
C25 C 0.7121(8) 0.3739(3) 1.0367(10)
C26 C 0.7955(7) 0.3939(3) 1.1091(11)
H18 H 0.8513 0.3794 1.1316
C27 C 0.7936(7) 0.4355(3) 1.1464(11)
H19 H 0.8488 0.4487 1.1931
C28 C 0.7111(8) 0.4579(3) 1.1155(12)
C29 C 0.6291(8) 0.4374(3) 1.0510(12)
H20 H 0.5729 0.4515 1.0337
C30 C 0.6304(7) 0.3961(3) 1.0122(11)
H21 H 0.5747 0.3829 0.9684
C31 C 0.7735(8) 0.5290(3) 1.1387(12)
H22 H 0.8246 0.5232 1.1008
C32 C 0.6729(9) 0.5597(3) 1.2277(14)
H23 H 0.6411 0.5803 1.2652
C33 C 0.6462(9) 0.5200(3) 1.2103(15)
H24 H 0.5938 0.5083 1.2319
C34 C 0.0253(9) 0.1003(4) 1.2883(16)
C35 C -0.0747(8) 0.0891(3) 1.2241(13)
C36 C -0.1170(8) 0.0936(3) 1.0730(13)
H25 H -0.0835 0.1040 1.0079
C37 C -0.2098(9) 0.0826(4) 1.0182(13)
H26 H -0.2367 0.0856 0.9160
C38 C -0.2627(8) 0.0676(4) 1.1072(14)
C39 C -0.2225(8) 0.0639(3) 1.2585(15)
H27 H -0.2584 0.0558 1.3233
C40 C -0.1266(9) 0.0724(3) 1.3167(13)
H28 H -0.0985 0.0667 1.4169
C41 C -0.4136(8) 0.0750(4) 0.9490(13)
C42 C -0.4050(8) 0.1148(3) 0.9093(13)
H29 H -0.3530 0.1299 0.9574
C43 C -0.4735(9) 0.1334(3) 0.7967(14)
H30 H -0.4670 0.1609 0.7713
C44 C -0.5522(9) 0.1111(4) 0.7215(14)
C45 C -0.5597(9) 0.0701(4) 0.7630(15)
H31 H -0.6112 0.0545 0.7158
C46 C -0.4886(8) 0.0519(4) 0.8777(14)
H32 H -0.4931 0.0243 0.9041
C47 C -0.6249(9) 0.1321(4) 0.5950(15)
N1 N 0.2414(6) 0.1527(2) 1.2054(10)
N2 N 0.3360(6) 0.1733(2) 1.0696(10)
N3 N 1.1518(6) 0.1768(2) 0.4948(9)
N4 N 1.0793(6) 0.2165(3) 0.6255(9)
N5 N 0.7544(6) 0.5660(2) 1.1821(10)
N6 N 0.7109(6) 0.5004(2) 1.1551(10)
O1 O 0.0688(5) 0.0871(2) 1.4171(9)
O2 O 0.0613(5) 0.1237(3) 1.2134(9)
O3 O -0.3515(5) 0.0546(2) 1.0618(9)
O4 O -0.5991(7) 0.1627(3) 0.5342(10)
O5 O -0.7036(6) 0.1147(2) 0.5688(9)
Co1_2 Co -0.80654(10) 0.12484(4) 0.38181(16)
Co1_3 Co 1.19346(10) 0.12484(4) 0.38181(16)
Co1A Co 0.80654(10) 0.62484(4) 1.11819(16)
N3_2 N 0.1518(6) 0.1768(2) 1.4948(9)
N5A N 0.2456(6) 0.0660(2) 1.3179(10)
O5_2 O 0.2964(6) 0.1147(2) 1.5688(9)
C48 C 0.0844(10) 0.0866(4) 0.7624(14)
H33 H 0.1143 0.1007 0.6993
C49 C 0.0853(10) 0.0309(4) 0.9325(16)
H34 H 0.0233 0.0407 0.9244
H35 H 0.1207 0.0333 1.0349
H36 H 0.0835 0.0025 0.9019
C50 C 0.2236(10) 0.0461(5) 0.8329(17)
H37 H 0.2421 0.0646 0.7638
H38 H 0.2274 0.0180 0.8004
H39 H 0.2639 0.0496 0.9313
N7 N 0.1279(8) 0.0553(3) 0.8377(11)
O6 O 0.0071(6) 0.0992(3) 0.7681(10)
loop_
_geom_bond_atom_site_label_1
_geom_bond_atom_site_label_2
_geom_bond_site_symmetry_1
_geom_bond_site_symmetry_2
Co1 N1 1_555 1_555
C1 H1 1_555 1_555
C2 H2 1_555 1_555
C3 C2 1_555 1_555
H3 C3 1_555 1_555
C4 C5 1_555 1_555
C5 H4 1_555 1_555
C6 C5 1_555 1_555
H5 C6 1_555 1_555
C7 C6 1_555 1_555
C8 C7 1_555 1_555
H6 C8 1_555 1_555
C9 C4 1_555 1_555
H7 C9 1_555 1_555
C10 C7 1_555 1_555
C11 C10 1_555 1_555
H8 C11 1_555 1_555
C12 C11 1_555 1_555
C13 C12 1_555 1_555
H9 C13 1_555 1_555
C14 C13 1_555 1_555
C15 C10 1_555 1_555
H10 C15 1_555 1_555
C16 C14 1_555 1_555
C17 C16 1_555 1_555
H11 C17 1_555 1_555
C18 C17 1_555 1_555
H12 C18 1_555 1_555
C19 C18 1_555 1_555
C20 C19 1_555 1_555
H13 C20 1_555 1_555
C21 C16 1_555 1_555
H14 C21 1_555 1_555
C22 H15 1_555 1_555
C23 H16 1_555 1_555
C24 C23 1_555 1_555
H17 C24 1_555 1_555
C25 C12 1_555 1_555
C26 C25 1_555 1_555
H18 C26 1_555 1_555
C27 C26 1_555 1_555
H19 C27 1_555 1_555
C28 C27 1_555 1_555
C29 C28 1_555 1_555
H20 C29 1_555 1_555
C30 C25 1_555 1_555
H21 C30 1_555 1_555
C31 H22 1_555 1_555
C32 H23 1_555 1_555
C33 C32 1_555 1_555
H24 C33 1_555 1_555
C34 C35 1_555 1_555
C35 C36 1_555 1_555
C36 H25 1_555 1_555
C37 C36 1_555 1_555
H26 C37 1_555 1_555
C38 C37 1_555 1_555
C39 C38 1_555 1_555
H27 C39 1_555 1_555
C40 C35 1_555 1_555
H28 C40 1_555 1_555
C41 C42 1_555 1_555
C42 H29 1_555 1_555
C43 C42 1_555 1_555
H30 C43 1_555 1_555
C44 C43 1_555 1_555
C45 C44 1_555 1_555
H31 C45 1_555 1_555
C46 C41 1_555 1_555
H32 C46 1_555 1_555
C47 C44 1_555 1_555
N1 C1 1_555 1_555
N2 C1 1_555 1_555
N3 C22 1_555 1_555
N4 C19 1_555 1_555
N5 C31 1_555 1_555
N6 C28 1_555 1_555
O1 Co1 1_555 1_555
O2 Co1 1_555 1_555
O3 C38 1_555 1_555
O4 C47 1_555 1_555
O5 C47 1_555 1_555
C48 H33 1_555 1_555
C49 H34 1_555 1_555
H35 C49 1_555 1_555
H36 C49 1_555 1_555
C50 H37 1_555 1_555
H38 C50 1_555 1_555
H39 C50 1_555 1_555
N7 C48 1_555 1_555
O6 C48 1_555 1_555
Co1_2 O5 1_555 1_555
Co1_3 N3 1_555 1_555
Co1A N5 1_555 1_555
N3_2 Co1 1_555 1_555
N5A Co1 1_555 1_555
O5_2 Co1 1_555 1_555
C2 N1 1_555 1_555
C3 N2 1_555 1_555
C4 N2 1_555 1_555
C8 C9 1_555 1_555
C14 C15 1_555 1_555
C20 C21 1_555 1_555
C22 N4 1_555 1_555
C23 N3 1_555 1_555
C24 N4 1_555 1_555
C29 C30 1_555 1_555
C31 N6 1_555 1_555
C32 N5 1_555 1_555
C33 N6 1_555 1_555
C34 O1 1_555 1_555
C34 O2 1_555 1_555
C39 C40 1_555 1_555
C41 O3 1_555 1_555
C45 C46 1_555 1_555
C49 N7 1_555 1_555
C50 N7 1_555 1_555

#END
