
#######################################################################
#
#                 Cambridge Crystallographic Data Centre
#                                CCDC 
#
#######################################################################
#
# If this CIF has been generated from an entry in the Cambridge 
# Structural Database, then it will include bibliographic, chemical, 
# crystal, experimental, refinement or atomic coordinate data resulting 
# from the CCDC's data processing and validation procedures.
#
#######################################################################

data_AFITUF
_chemical_formula_moiety         '(C84 H40 Br8 N4 O16 Zn4)n,6.7n(C3 H7 N1 O1)'
_chemical_name_systematic        
"catena-[tetrakis(\m~4~-4,4'-Ethyne-1,2-diylbis(3-bromobenzoato)-O,O',O'',O''')-bis(\m~2~-4,4'-bipyridine-N,N')-tetra-zinc dimethylformamide solvate]"
_symmetry_cell_setting           monoclinic
_symmetry_space_group_name_H-M   'P 21'
_symmetry_Int_Tables_number      4
_space_group_name_Hall           'P 2yb'
loop_
_symmetry_equiv_pos_site_id
_symmetry_equiv_pos_as_xyz
1 x,y,z
2 -x,1/2+y,-z
_cell_length_a                   14.0828(9)
_cell_length_b                   28.2518(18)
_cell_length_c                   21.4518(14)
_cell_angle_alpha                90
_cell_angle_beta                 93.560(1)
_cell_angle_gamma                90
_cell_volume                     8518.44
_exptl_crystal_colour            colorless
_exptl_crystal_description       columnar
_cell_formula_units_Z            3
loop_
_atom_site_label
_atom_site_type_symbol
_atom_site_fract_x
_atom_site_fract_y
_atom_site_fract_z
Br5 Br 0.90353(8) 0.33211(6) 1.10764(8)
Br6 Br 0.50127(7) 0.20802(5) 1.16053(7)
Br7 Br 0.48700(6) 0.33894(4) 0.64070(5)
Br8 Br 0.48154(6) 0.20481(4) 0.57568(5)
Br9 Br 0.50148(6) 0.85108(4) 1.12121(5)
Br10 Br 0.48688(7) 0.72450(5) 1.03889(7)
Br11 Br 0.46688(13) 0.81103(9) 0.54778(13)
Br12 Br 0.51179(9) 0.67973(4) 0.61208(6)
C1 C 1.3935(7) 0.4838(4) 0.9132(6)
H1 H 1.4300 0.4620 0.9384
C2 C 1.2969(7) 0.4808(5) 0.9167(8)
H2 H 1.2691 0.4583 0.9429
C3 C 1.2435(5) 0.5109(3) 0.8814(4)
C4 C 1.1361(5) 0.5100(4) 0.8806(4)
C5 C 1.0916(6) 0.5460(3) 0.9178(4)
H3 H 1.1287 0.5689 0.9406
C6 C 1.0851(6) 0.4806(3) 0.8471(4)
H4 H 1.1139 0.4579 0.8216
C7 C 0.9851(6) 0.4829(3) 0.8494(4)
H5 H 0.9478 0.4605 0.8258
C8 C 0.9942(6) 0.5457(3) 0.9186(4)
H6 H 0.9640 0.5675 0.9448
C10 C 0.6883(5) 0.4507(3) 0.9683(4)
C11 C 0.6919(5) 0.4093(3) 1.0141(4)
C12 C 0.6056(6) 0.3889(3) 1.0281(4)
H7 H 0.5464 0.4024 1.0136
C13 C 0.7769(6) 0.3944(3) 1.0399(4)
H8 H 0.8333 0.4113 1.0323
C14 C 0.7808(6) 0.3557(3) 1.0762(5)
C15 C 0.6098(6) 0.3482(3) 1.0638(4)
H9 H 0.5533 0.3312 1.0709
C16 C 0.6983(5) 0.3320(3) 1.0894(4)
C17 C 0.6998(7) 0.2892(4) 1.1297(5)
C18 C 0.6988(7) 0.2521(3) 1.1567(5)
C19 C 0.6999(6) 0.2099(4) 1.1931(5)
C20 C 0.7813(7) 0.1919(4) 1.2234(5)
H10 H 0.8397 0.2083 1.2199
C21 C 0.6143(7) 0.1846(3) 1.1981(5)
C22 C 0.7813(6) 0.1511(3) 1.2586(4)
H11 H 0.8392 0.1393 1.2777
C23 C 0.6113(6) 0.1445(3) 1.2352(4)
H12 H 0.5527 0.1287 1.2400
C24 C 0.6967(6) 0.1273(3) 1.2660(4)
C25 C 0.6945(5) 0.0848(3) 1.3042(4)
C26 C 0.6907(6) 0.4477(3) 0.8019(4)
C27 C 0.6889(5) 0.4057(3) 0.7574(4)
C28 C 0.6074(6) 0.3944(3) 0.7234(4)
H13 H 0.5527 0.4138 0.7257
C29 C 0.7688(6) 0.3778(3) 0.7519(4)
H14 H 0.8266 0.3865 0.7741
C30 C 0.7673(5) 0.3385(3) 0.7159(4)
H15 H 0.8224 0.3193 0.7143
C31 C 0.6039(5) 0.3544(3) 0.6853(4)
C32 C 0.6826(5) 0.3264(3) 0.6805(4)
C33 C 0.6798(6) 0.2838(3) 0.6423(4)
C34 C 0.6810(6) 0.2481(3) 0.6136(4)
C35 C 0.6841(5) 0.2051(3) 0.5788(4)
C36 C 0.6003(6) 0.1800(3) 0.5562(4)
C37 C 0.7746(5) 0.1863(3) 0.5660(4)
H16 H 0.8312 0.2017 0.5816
C38 C 0.7796(5) 0.1453(3) 0.5304(4)
H17 H 0.8397 0.1328 0.5211
C39 C 0.6052(6) 0.1401(3) 0.5231(4)
H18 H 0.5484 0.1240 0.5098
C40 C 0.6938(5) 0.1218(3) 0.5077(4)
C41 C 0.6977(5) 0.0791(3) 0.4659(4)
C42 C 0.6949(6) 0.9505(3) 1.2978(4)
C43 C 0.6933(5) 0.9096(2) 1.2528(3)
C44 C 0.6157(5) 0.9007(3) 1.2122(4)
H19 H 0.5646 0.9227 1.2097
C45 C 0.7705(6) 0.8799(3) 1.2532(4)
H20 H 0.8261 0.8870 1.2788
C46 C 0.7677(5) 0.8389(3) 1.2159(3)
H21 H 0.8202 0.8178 1.2180
C47 C 0.6103(5) 0.8619(3) 1.1761(4)
C48 C 0.6877(5) 0.8290(3) 1.1754(4)
C49 C 0.6831(5) 0.7876(3) 1.1384(4)
C50 C 0.6813(5) 0.7535(3) 1.1070(4)
C51 C 0.6844(5) 0.7118(3) 1.0693(3)
C52 C 0.6064(6) 0.6925(3) 1.0356(4)
C53 C 0.7720(5) 0.6880(3) 1.0654(4)
H22 H 0.8285 0.6999 1.0864
C54 C 0.7736(5) 0.6458(3) 1.0291(4)
H23 H 0.8319 0.6290 1.0281
C55 C 0.6086(6) 0.6523(3) 1.0000(4)
H24 H 0.5525 0.6408 0.9783
C56 C 0.6970(5) 0.6283(3) 0.9962(4)
C57 C 0.6991(5) 0.5840(3) 0.9603(4)
C58 C 0.6860(6) 0.9480(3) 0.4639(4)
C59 C 0.6825(6) 0.9083(3) 0.5108(4)
C60 C 0.5955(6) 0.8840(3) 0.5174(5)
H25 H 0.5402 0.8933 0.4928
C61 C 0.7611(6) 0.8928(3) 0.5475(4)
H26 H 0.8206 0.9080 0.5436
C62 C 0.7556(7) 0.8571(3) 0.5884(5)
H27 H 0.8093 0.8486 0.6150
C63 C 0.5905(7) 0.8481(3) 0.5576(5)
C64 C 0.6666(7) 0.8316(3) 0.5913(4)
C65 C 0.6662(7) 0.7901(3) 0.6319(5)
C66 C 0.6614(6) 0.7545(3) 0.6618(5)
C67 C 0.6647(6) 0.7118(3) 0.6956(4)
C68 C 0.6020(7) 0.6735(4) 0.6796(5)
C69 C 0.7304(7) 0.7044(4) 0.7468(5)
H28 H 0.7713 0.7296 0.7604
C70 C 0.7371(7) 0.6611(3) 0.7784(5)
H29 H 0.7853 0.6565 0.8109
C71 C 0.6078(6) 0.6314(3) 0.7128(4)
H30 H 0.5653 0.6064 0.7011
C72 C 0.6735(5) 0.6248(3) 0.7625(4)
C73 C 0.6765(5) 0.5807(3) 0.8001(4)
C74 C 1.4054(7) 0.0310(4) 1.4314(5)
H31 H 1.4459 0.0393 1.4667
C75 C 1.3877(5) 0.0089(3) 1.3278(4)
H32 H 1.4153 0.0019 1.2895
C76 C 1.2913(5) 0.0095(3) 1.3296(4)
H33 H 1.2528 0.0048 1.2921
C77 C 1.3064(6) 0.0326(4) 1.4355(5)
H34 H 1.2793 0.0443 1.4719
C78 C 1.2490(5) 0.0167(3) 1.3845(4)
C79 C 1.1417(5) 0.0147(3) 1.3868(3)
C80 C 1.0902(5) -0.0175(3) 1.3528(4)
H35 H 1.1211 -0.0398 1.3279
C81 C 1.0954(5) 0.0466(3) 1.4258(4)
H36 H 1.1304 0.0686 1.4516
C82 C 0.9960(5) 0.0445(3) 1.4250(4)
H37 H 0.9640 0.0658 1.4507
C83 C 0.9922(5) -0.0178(3) 1.3545(4)
H38 H 0.9565 -0.0406 1.3305
C125 C 1.3830(9) 0.5269(5) 0.8326(7)
H59 H 1.4119 0.5391 0.7971
C126 C 1.2887(8) 0.5261(5) 0.8309(6)
H60 H 1.2527 0.5360 0.7943
N3 N 0.9395(4) 0.5149(2) 0.8828(3)
N4 N 1.4409(4) 0.5119(2) 0.8807(3)
N5 N 1.4440(4) 0.0180(2) 1.3781(3)
N6 N 0.9444(4) 0.0142(2) 1.3902(3)
O9 O 0.7690(4) 0.46543(18) 0.9507(3)
O10 O 0.6089(3) 0.46760(19) 0.9498(3)
O11 O 0.7716(4) 0.06441(19) 1.3228(3)
O12 O 0.6136(4) 0.0698(2) 1.3167(3)
O13 O 0.7710(4) 0.46256(19) 0.8210(3)
O14 O 0.6125(4) 0.46221(19) 0.8174(3)
O15 O 0.7800(4) 0.06588(18) 0.4532(2)
O16 O 0.6227(4) 0.05993(19) 0.4485(3)
O17 O 0.7728(4) 0.96173(19) 1.3242(3)
O18 O 0.6147(4) 0.96969(19) 1.3053(3)
O19 O 0.7810(3) 0.56698(18) 0.9523(3)
O20 O 0.6209(3) 0.56841(19) 0.9366(3)
O21 O 0.7663(4) 0.9648(2) 0.4570(3)
O22 O 0.6101(4) 0.9608(2) 0.4371(3)
O23 O 0.7551(3) 0.56604(19) 0.8237(3)
O24 O 0.5963(4) 0.56181(18) 0.8066(2)
Zn3 Zn 0.79563(5) 0.51537(3) 0.88692(4)
Zn4 Zn 1.58353(5) 0.51406(3) 0.87850(4)
Zn5 Zn 0.79904(5) 0.01343(3) 1.39022(4)
Zn6 Zn 0.58784(5) 0.01537(3) 1.37646(4)
N5_2 N 0.4440(4) 0.0180(2) 1.3781(3)
O10_2 O 1.6089(3) 0.46760(19) 0.9498(3)
O14_2 O 1.6125(4) 0.46221(19) 0.8174(3)
O15_2 O 0.7800(4) 0.06588(18) 1.4532(2)
O16_2 O 0.6227(4) 0.05993(19) 1.4485(3)
O17_2 O 0.7728(4) -0.03827(19) 1.3242(3)
O18_2 O 0.6147(4) -0.03031(19) 1.3053(3)
O20_2 O 1.6209(3) 0.56841(19) 0.9366(3)
O21_2 O 0.7663(4) -0.0352(2) 1.4570(3)
O22_2 O 0.6101(4) -0.0392(2) 1.4371(3)
O24_2 O 1.5963(4) 0.56181(18) 0.8066(2)
Zn4_2 Zn 0.58353(5) 0.51406(3) 0.87850(4)
Zn5_2 Zn 0.79904(5) 0.01343(3) 0.39022(4)
Zn5_3 Zn 0.79904(5) 1.01343(3) 1.39022(4)
Zn5_4 Zn 0.79904(5) 1.01343(3) 0.39022(4)
Zn6_2 Zn 1.58784(5) 0.01537(3) 1.37646(4)
Zn6_3 Zn 0.58784(5) 0.01537(3) 0.37646(4)
Zn6_4 Zn 0.58784(5) 1.01537(3) 1.37646(4)
Zn6_5 Zn 0.58784(5) 1.01537(3) 0.37646(4)
Br1 Br -0.20603(6) 0.48588(3) 0.41373(5)
Br2 Br -0.20835(7) 0.36988(4) 0.51811(6)
Br3 Br 0.20991(6) 0.48732(4) 0.07944(6)
Br4 Br 0.20497(6) 0.36691(3) -0.01405(4)
C9 C -0.0055(5) 0.2572(3) -0.1680(4)
C84 C 0.0158(5) 0.6224(3) 0.3287(4)
C85 C 0.0080(6) 0.5772(3) 0.3674(4)
C86 C -0.0804(5) 0.5567(3) 0.3744(4)
H39 H -0.1364 0.5719 0.3575
C87 C 0.0910(6) 0.5565(3) 0.3938(4)
H40 H 0.1516 0.5705 0.3893
C88 C -0.0873(6) 0.5136(3) 0.4064(4)
C89 C 0.0817(5) 0.5152(3) 0.4264(4)
H41 H 0.1381 0.5003 0.4433
C90 C -0.0029(5) 0.4941(3) 0.4363(4)
C91 C -0.0084(6) 0.4511(3) 0.4723(4)
C92 C -0.0098(6) 0.4178(3) 0.5055(4)
C93 C -0.0097(6) 0.3781(3) 0.5444(4)
C94 C -0.0913(6) 0.3530(3) 0.5555(4)
C95 C 0.0769(6) 0.3629(3) 0.5746(4)
H42 H 0.1335 0.3796 0.5670
C96 C 0.0826(6) 0.3235(3) 0.6159(4)
H43 H 0.1410 0.3150 0.6376
C97 C -0.0869(6) 0.3109(3) 0.5945(4)
H44 H -0.1428 0.2930 0.6000
C98 C -0.0011(5) 0.2973(3) 0.6235(4)
C99 C 0.0007(5) 0.2561(3) 0.6687(4)
C100 C -0.0067(6) 0.6218(3) 0.1703(4)
C101 C -0.0016(6) 0.5780(3) 0.1315(4)
C102 C -0.0836(5) 0.5565(3) 0.1070(4)
H45 H -0.1440 0.5694 0.1147
C103 C 0.0864(6) 0.5584(3) 0.1229(4)
H46 H 0.1431 0.5729 0.1399
C104 C 0.0900(6) 0.5162(3) 0.0881(5)
C105 C -0.0777(5) 0.5166(3) 0.0714(4)
H47 H -0.1345 0.5029 0.0530
C106 C 0.0064(5) 0.4960(3) 0.0616(4)
C107 C 0.0128(5) 0.4530(3) 0.0225(4)
C108 C 0.0136(5) 0.4206(3) -0.0103(4)
C109 C 0.0083(5) 0.3792(3) -0.0498(4)
C110 C -0.0788(5) 0.3675(3) -0.0823(4)
H48 H -0.1334 0.3868 -0.0791
C111 C 0.0885(5) 0.3501(3) -0.0570(4)
C112 C 0.0859(5) 0.3114(3) -0.0944(4)
H49 H 0.1416 0.2931 -0.0992
C113 C -0.0828(5) 0.3268(3) -0.1191(4)
H50 H -0.1420 0.3182 -0.1397
C114 C -0.0043(5) 0.2985(3) -0.1271(4)
C115 C 0.2986(5) 0.7256(3) 0.2243(4)
H51 H 0.2622 0.7514 0.2075
C116 C 0.3040(5) 0.6522(3) 0.2738(4)
H52 H 0.2718 0.6271 0.2929
C117 C 0.3943(5) 0.7255(3) 0.2221(4)
H53 H 0.4238 0.7518 0.2035
C118 C 0.4020(5) 0.6502(3) 0.2705(4)
H54 H 0.4355 0.6227 0.2849
C119 C 0.4526(5) 0.6883(3) 0.2463(3)
C120 C 0.5558(5) 0.6882(3) 0.2434(4)
C121 C 0.6089(5) 0.7253(3) 0.2696(4)
H55 H 0.5781 0.7515 0.2875
C122 C 0.6059(5) 0.6503(3) 0.2189(4)
H56 H 0.5736 0.6232 0.2021
C123 C 0.7018(5) 0.6536(3) 0.2202(4)
H57 H 0.7358 0.6284 0.2023
C124 C 0.7053(5) 0.7239(3) 0.2696(4)
H58 H 0.7410 0.7491 0.2887
N1 N 0.2551(4) 0.6887(2) 0.2504(3)
N2 N 0.7510(4) 0.6892(2) 0.2444(3)
O1 O 0.0939(4) 0.63560(18) 0.3132(3)
O2 O -0.0628(4) 0.6420(2) 0.3129(3)
O3 O 0.0802(4) 0.24501(18) 0.6944(3)
O4 O -0.0772(3) 0.23669(18) 0.6766(2)
O5 O 0.0704(4) 0.6427(2) 0.1845(3)
O6 O -0.0871(4) 0.63524(18) 0.1854(3)
O7 O 0.0703(4) 0.23572(17) -0.1773(3)
O8 O -0.0857(4) 0.24546(19) -0.1943(3)
Zn1 Zn 0.10907(5) 0.69002(3) 0.25478(4)
Zn2 Zn 0.89642(5) 0.68975(3) 0.24534(4)
Br1A Br 0.20603(6) 0.98588(3) 0.58627(5)
Br2A Br 0.20835(7) 0.86988(4) 0.48189(6)
Br3A Br -0.20991(6) 0.98732(4) -0.07944(6)
Br4A Br -0.20497(6) 0.86691(3) 0.01405(4)
C9A C 0.0055(5) 0.7572(3) 0.1680(4)
C84A C -0.0158(5) 1.1224(3) 0.6713(4)
C85A C -0.0080(6) 1.0772(3) 0.6326(4)
C86A C 0.0804(5) 1.0567(3) 0.6256(4)
H39A H 0.1364 1.0719 0.6425
C87A C -0.0910(6) 1.0565(3) 0.6062(4)
H40A H -0.1516 1.0705 0.6107
C88A C 0.0873(6) 1.0136(3) 0.5936(4)
C89A C -0.0817(5) 1.0152(3) 0.5736(4)
H41A H -0.1381 1.0003 0.5567
C90A C 0.0029(5) 0.9941(3) 0.5637(4)
C91A C 0.0084(6) 0.9511(3) 0.5277(4)
C92A C 0.0098(6) 0.9178(3) 0.4945(4)
C93A C 0.0097(6) 0.8781(3) 0.4556(4)
C94A C 0.0913(6) 0.8530(3) 0.4445(4)
C95A C -0.0769(6) 0.8629(3) 0.4254(4)
H42A H -0.1335 0.8796 0.4330
C96A C -0.0826(6) 0.8235(3) 0.3841(4)
H43A H -0.1410 0.8150 0.3624
C97A C 0.0869(6) 0.8109(3) 0.4055(4)
H44A H 0.1428 0.7930 0.4000
C98A C 0.0011(5) 0.7973(3) 0.3765(4)
C99A C -0.0007(5) 0.7561(3) 0.3313(4)
C100A C 0.0067(6) 1.1218(3) -0.1703(4)
C101A C 0.0016(6) 1.0780(3) -0.1315(4)
C102A C 0.0836(5) 1.0565(3) -0.1070(4)
H45A H 0.1440 1.0694 -0.1147
C103A C -0.0864(6) 1.0584(3) -0.1229(4)
H46A H -0.1431 1.0729 -0.1399
C104A C -0.0900(6) 1.0162(3) -0.0881(5)
C105A C 0.0777(5) 1.0166(3) -0.0714(4)
H47A H 0.1345 1.0029 -0.0530
C106A C -0.0064(5) 0.9960(3) -0.0616(4)
C107A C -0.0128(5) 0.9530(3) -0.0225(4)
C108A C -0.0136(5) 0.9206(3) 0.0103(4)
C109A C -0.0083(5) 0.8792(3) 0.0498(4)
C110A C 0.0788(5) 0.8675(3) 0.0823(4)
H48A H 0.1334 0.8868 0.0791
C111A C -0.0885(5) 0.8501(3) 0.0570(4)
C112A C -0.0859(5) 0.8114(3) 0.0944(4)
H49A H -0.1416 0.7931 0.0992
C113A C 0.0828(5) 0.8268(3) 0.1191(4)
H50A H 0.1420 0.8182 0.1397
C114A C 0.0043(5) 0.7985(3) 0.1271(4)
C115A C 0.7014(5) 1.2256(3) 0.7757(4)
H51A H 0.7378 1.2514 0.7925
C116A C 0.6960(5) 1.1522(3) 0.7262(4)
H52A H 0.7282 1.1271 0.7071
C117A C 0.6057(5) 1.2255(3) 0.7779(4)
H53A H 0.5762 1.2518 0.7965
C118A C 0.5980(5) 1.1502(3) 0.7295(4)
H54A H 0.5645 1.1227 0.7151
C119A C 0.5474(5) 1.1883(3) 0.7537(3)
C120A C 0.4442(5) 1.1882(3) 0.7566(4)
C121A C 0.3911(5) 1.2253(3) 0.7304(4)
H55A H 0.4219 1.2515 0.7125
C122A C 0.3941(5) 1.1503(3) 0.7811(4)
H56A H 0.4264 1.1232 0.7979
C123A C 0.2982(5) 1.1536(3) 0.7798(4)
H57A H 0.2642 1.1284 0.7977
C124A C 0.2947(5) 1.2239(3) 0.7304(4)
H58A H 0.2590 1.2491 0.7113
N1A N -0.2551(4) 1.1887(2) 0.7496(3)
N1A_2 N 0.7449(4) 1.1887(2) 0.7496(3)
N2A N 0.2490(4) 1.1892(2) 0.7556(3)
O1A O -0.0939(4) 1.13560(18) 0.6868(3)
O2_2 O 0.9372(4) 0.6420(2) 0.3129(3)
O2A O 0.0628(4) 1.1420(2) 0.6871(3)
O3A O 0.9198(4) 0.74501(18) 0.3056(3)
O3A_2 O -0.0802(4) 0.74501(18) 0.3056(3)
O3_2 O 0.0802(4) 1.24501(18) 0.6944(3)
O4A O 0.0772(3) 0.73669(18) 0.3234(2)
O4_2 O -0.0772(3) 1.23669(18) 0.6766(2)
O5A O -0.0704(4) 1.1427(2) -0.1845(3)
O5A_2 O -0.0704(4) 1.1427(2) 0.8155(3)
O6_2 O 0.9129(4) 0.63524(18) 0.1854(3)
O6A O 0.0871(4) 1.13524(18) -0.1854(3)
O6A_2 O 0.0871(4) 1.13524(18) 0.8146(3)
O7A O 0.9297(4) 0.73572(17) 0.1773(3)
O7A_2 O -0.0703(4) 0.73572(17) 0.1773(3)
O7_2 O 0.0703(4) 1.23572(17) 0.8227(3)
O8A O 0.0857(4) 0.74546(19) 0.1943(3)
O8_2 O -0.0857(4) 1.24546(19) 0.8057(3)
Zn1A Zn -0.10907(5) 0.19002(3) 0.74522(4)
Zn1A_2 Zn -0.10907(5) 0.19002(3) -0.25478(4)
Zn1A_3 Zn -0.10907(5) 1.19002(3) 0.74522(4)
Zn1A_4 Zn -0.10907(5) 1.19002(3) -0.25478(4)
Zn1A_5 Zn 0.89093(5) 1.19002(3) 0.74522(4)
Zn2_2 Zn -0.10358(5) 0.68975(3) 0.24534(4)
Zn2A Zn 0.10358(5) 0.18975(3) 0.75466(4)
Zn2A_2 Zn 0.10358(5) 0.18975(3) -0.24534(4)
Zn2A_3 Zn 0.10358(5) 1.18975(3) 0.75466(4)
Zn2A_4 Zn 0.10358(5) 1.18975(3) -0.24534(4)
C127? C 1.3899(18) 0.5532(12) 0.8679(15)
H61? H 1.4220 0.5799 0.8526
C128? C 1.2932(17) 0.5565(12) 0.8769(13)
H62? H 1.2615 0.5860 0.8799
loop_
_geom_bond_atom_site_label_1
_geom_bond_atom_site_label_2
_geom_bond_site_symmetry_1
_geom_bond_site_symmetry_2
Br1 C88 1_555 1_555
Br2 C94 1_555 1_555
Br3 C104 1_555 1_555
Br4 C111 1_555 1_555
Br5 C14 1_555 1_555
Br6 C21 1_555 1_555
Br7 C31 1_555 1_555
Br8 C36 1_555 1_555
Br9 C47 1_555 1_555
Br10 C52 1_555 1_555
Br11 C63 1_555 1_555
Br12 C68 1_555 1_555
C1 H1 1_555 1_555
C2 C1 1_555 1_555
H2 C2 1_555 1_555
C3 C2 1_555 1_555
C4 C3 1_555 1_555
C5 C4 1_555 1_555
H3 C5 1_555 1_555
C6 C4 1_555 1_555
H4 C6 1_555 1_555
C7 C6 1_555 1_555
H5 C7 1_555 1_555
C8 C5 1_555 1_555
H6 C8 1_555 1_555
C9 C114 1_555 1_555
C10 C11 1_555 1_555
C11 C12 1_555 1_555
C12 H7 1_555 1_555
C13 C11 1_555 1_555
H8 C13 1_555 1_555
C14 C13 1_555 1_555
C15 C12 1_555 1_555
H9 C15 1_555 1_555
C16 C14 1_555 1_555
C17 C16 1_555 1_555
C18 C17 1_555 1_555
C19 C18 1_555 1_555
C20 C19 1_555 1_555
H10 C20 1_555 1_555
C21 C19 1_555 1_555
C22 C20 1_555 1_555
H11 C22 1_555 1_555
C23 C21 1_555 1_555
H12 C23 1_555 1_555
C24 C22 1_555 1_555
C25 C24 1_555 1_555
C26 C27 1_555 1_555
C27 C28 1_555 1_555
C28 H13 1_555 1_555
C29 C27 1_555 1_555
H14 C29 1_555 1_555
C30 C29 1_555 1_555
H15 C30 1_555 1_555
C31 C28 1_555 1_555
C32 C30 1_555 1_555
C33 C32 1_555 1_555
C34 C33 1_555 1_555
C35 C34 1_555 1_555
C36 C35 1_555 1_555
C37 C35 1_555 1_555
H16 C37 1_555 1_555
C38 C37 1_555 1_555
H17 C38 1_555 1_555
C39 C36 1_555 1_555
H18 C39 1_555 1_555
C40 C38 1_555 1_555
C41 C40 1_555 1_555
C42 C43 1_555 1_555
C43 C44 1_555 1_555
C44 H19 1_555 1_555
C45 C43 1_555 1_555
H20 C45 1_555 1_555
C46 C45 1_555 1_555
H21 C46 1_555 1_555
C47 C44 1_555 1_555
C48 C46 1_555 1_555
C49 C48 1_555 1_555
C50 C49 1_555 1_555
C51 C50 1_555 1_555
C52 C51 1_555 1_555
C53 C51 1_555 1_555
H22 C53 1_555 1_555
C54 C53 1_555 1_555
H23 C54 1_555 1_555
C55 C52 1_555 1_555
H24 C55 1_555 1_555
C56 C54 1_555 1_555
C57 C56 1_555 1_555
C58 C59 1_555 1_555
C59 C60 1_555 1_555
C60 H25 1_555 1_555
C61 C59 1_555 1_555
H26 C61 1_555 1_555
C62 C61 1_555 1_555
H27 C62 1_555 1_555
C63 C60 1_555 1_555
C64 C62 1_555 1_555
C65 C64 1_555 1_555
C66 C65 1_555 1_555
C67 C66 1_555 1_555
C68 C67 1_555 1_555
C69 C67 1_555 1_555
H28 C69 1_555 1_555
C70 C69 1_555 1_555
H29 C70 1_555 1_555
C71 C68 1_555 1_555
H30 C71 1_555 1_555
C72 C70 1_555 1_555
C73 C72 1_555 1_555
C74 H31 1_555 1_555
C75 H32 1_555 1_555
C76 C75 1_555 1_555
H33 C76 1_555 1_555
C77 C74 1_555 1_555
H34 C77 1_555 1_555
C78 C76 1_555 1_555
C79 C78 1_555 1_555
C80 C79 1_555 1_555
H35 C80 1_555 1_555
C81 C79 1_555 1_555
H36 C81 1_555 1_555
C82 C81 1_555 1_555
H37 C82 1_555 1_555
C83 C80 1_555 1_555
H38 C83 1_555 1_555
C84 C85 1_555 1_555
C85 C86 1_555 1_555
C86 H39 1_555 1_555
C87 C85 1_555 1_555
H40 C87 1_555 1_555
C88 C86 1_555 1_555
C89 C87 1_555 1_555
H41 C89 1_555 1_555
C90 C88 1_555 1_555
C91 C90 1_555 1_555
C92 C91 1_555 1_555
C93 C92 1_555 1_555
C94 C93 1_555 1_555
C95 C93 1_555 1_555
H42 C95 1_555 1_555
C96 C95 1_555 1_555
H43 C96 1_555 1_555
C97 C94 1_555 1_555
H44 C97 1_555 1_555
C98 C96 1_555 1_555
C99 C98 1_555 1_555
C100 C101 1_555 1_555
C101 C102 1_555 1_555
C102 H45 1_555 1_555
C103 C101 1_555 1_555
H46 C103 1_555 1_555
C104 C103 1_555 1_555
C105 C102 1_555 1_555
H47 C105 1_555 1_555
C106 C104 1_555 1_555
C107 C106 1_555 1_555
C108 C107 1_555 1_555
C109 C108 1_555 1_555
C110 C109 1_555 1_555
H48 C110 1_555 1_555
C111 C109 1_555 1_555
C112 C111 1_555 1_555
H49 C112 1_555 1_555
C113 C110 1_555 1_555
H50 C113 1_555 1_555
C114 C112 1_555 1_555
C115 H51 1_555 1_555
C116 H52 1_555 1_555
C117 C115 1_555 1_555
H53 C117 1_555 1_555
C118 C116 1_555 1_555
H54 C118 1_555 1_555
C119 C117 1_555 1_555
C120 C119 1_555 1_555
C121 C120 1_555 1_555
H55 C121 1_555 1_555
C122 C120 1_555 1_555
H56 C122 1_555 1_555
C123 C122 1_555 1_555
H57 C123 1_555 1_555
C124 C121 1_555 1_555
H58 C124 1_555 1_555
C125 H59 1_555 1_555
C126 C3 1_555 1_555
H60 C126 1_555 1_555
N1 C115 1_555 1_555
N2 C123 1_555 1_555
N3 C7 1_555 1_555
N4 C1 1_555 1_555
N5 C74 1_555 1_555
N6 C82 1_555 1_555
O1 C84 1_555 1_555
O2 C84 1_555 1_555
O3 C99 1_555 1_555
O4 C99 1_555 1_555
O5 C100 1_555 1_555
O6 C100 1_555 1_555
O7 C9 1_555 1_555
O8 C9 1_555 1_555
O9 C10 1_555 1_555
O10 C10 1_555 1_555
O11 C25 1_555 1_555
O12 C25 1_555 1_555
O13 C26 1_555 1_555
O14 C26 1_555 1_555
O15 C41 1_555 1_555
O16 C41 1_555 1_555
O17 C42 1_555 1_555
O18 C42 1_555 1_555
O19 C57 1_555 1_555
O20 C57 1_555 1_555
O21 C58 1_555 1_555
O22 C58 1_555 1_555
O23 C73 1_555 1_555
O24 C73 1_555 1_555
Zn1 N1 1_555 1_555
Zn2 N2 1_555 1_555
Zn3 N3 1_555 1_555
Zn4 N4 1_555 1_555
Zn5 N6 1_555 1_555
Zn6 O12 1_555 1_555
Br1A C88A 1_555 1_555
Br2A C94A 1_555 1_555
Br3A C104A 1_555 1_555
Br4A C111A 1_555 1_555
C9A C114A 1_555 1_555
C84A C85A 1_555 1_555
C85A C86A 1_555 1_555
C86A H39A 1_555 1_555
C87A C85A 1_555 1_555
H40A C87A 1_555 1_555
C88A C86A 1_555 1_555
C89A C87A 1_555 1_555
H41A C89A 1_555 1_555
C90A C88A 1_555 1_555
C91A C90A 1_555 1_555
C92A C91A 1_555 1_555
C93A C92A 1_555 1_555
C94A C93A 1_555 1_555
C95A C93A 1_555 1_555
H42A C95A 1_555 1_555
C96A C95A 1_555 1_555
H43A C96A 1_555 1_555
C97A C94A 1_555 1_555
H44A C97A 1_555 1_555
C98A C96A 1_555 1_555
C99A C98A 1_555 1_555
C100A C101A 1_555 1_555
C101A C102A 1_555 1_555
C102A H45A 1_555 1_555
C103A C101A 1_555 1_555
H46A C103A 1_555 1_555
C104A C103A 1_555 1_555
C105A C102A 1_555 1_555
H47A C105A 1_555 1_555
C106A C104A 1_555 1_555
C107A C106A 1_555 1_555
C108A C107A 1_555 1_555
C109A C108A 1_555 1_555
C110A C109A 1_555 1_555
H48A C110A 1_555 1_555
C111A C109A 1_555 1_555
C112A C111A 1_555 1_555
H49A C112A 1_555 1_555
C113A C110A 1_555 1_555
H50A C113A 1_555 1_555
C114A C112A 1_555 1_555
C115A H51A 1_555 1_555
C116A H52A 1_555 1_555
C117A C115A 1_555 1_555
H53A C117A 1_555 1_555
C118A C116A 1_555 1_555
H54A C118A 1_555 1_555
C119A C117A 1_555 1_555
C120A C119A 1_555 1_555
C121A C120A 1_555 1_555
H55A C121A 1_555 1_555
C122A C120A 1_555 1_555
H56A C122A 1_555 1_555
C123A C122A 1_555 1_555
H57A C123A 1_555 1_555
C124A C121A 1_555 1_555
H58A C124A 1_555 1_555
N1A Zn1A_3 1_555 1_555
N1A_2 C115A 1_555 1_555
N2A C123A 1_555 1_555
N5_2 Zn6 1_555 1_555
O1A C84A 1_555 1_555
O2_2 Zn2 1_555 1_555
O2A C84A 1_555 1_555
O3A Zn2 1_555 1_555
O3A_2 C99A 1_555 1_555
O3_2 Zn2A_3 1_555 1_555
O4A Zn1 1_555 1_555
O4_2 Zn1A_3 1_555 1_555
O5A C100A 1_555 1_555
O5A_2 Zn1A_3 1_555 1_555
O6_2 Zn2 1_555 1_555
O6A C100A 1_555 1_555
O6A_2 Zn2A_3 1_555 1_555
O7A Zn2 1_555 1_555
O7A_2 C9A 1_555 1_555
O7_2 Zn2A_3 1_555 1_555
O8A Zn1 1_555 1_555
O8_2 Zn1A_3 1_555 1_555
O10_2 Zn4 1_555 1_555
O14_2 Zn4 1_555 1_555
O15_2 Zn5 1_555 1_555
O16_2 Zn6 1_555 1_555
O17_2 Zn5 1_555 1_555
O18_2 Zn6 1_555 1_555
O20_2 Zn4 1_555 1_555
O21_2 Zn5 1_555 1_555
O22_2 Zn6 1_555 1_555
O24_2 Zn4 1_555 1_555
Zn1A O4 1_555 1_555
Zn1A_2 O8 1_555 1_555
Zn1A_3 O1A 1_555 1_555
Zn1A_4 O5A 1_555 1_555
Zn1A_5 N1A_2 1_555 1_555
Zn2_2 O2 1_555 1_555
Zn2A O3 1_555 1_555
Zn2A_2 O7 1_555 1_555
Zn2A_3 N2A 1_555 1_555
Zn2A_4 O6A 1_555 1_555
Zn4_2 O10 1_555 1_555
Zn5_2 O15 1_555 1_555
Zn5_3 O17 1_555 1_555
Zn5_4 O21 1_555 1_555
Zn6_2 N5 1_555 1_555
Zn6_3 O16 1_555 1_555
Zn6_4 O18 1_555 1_555
Zn6_5 O22 1_555 1_555
C8 N3 1_555 1_555
C15 C16 1_555 1_555
C23 C24 1_555 1_555
C31 C32 1_555 1_555
C39 C40 1_555 1_555
C47 C48 1_555 1_555
C55 C56 1_555 1_555
C63 C64 1_555 1_555
C71 C72 1_555 1_555
C75 N5 1_555 1_555
C77 C78 1_555 1_555
C83 N6 1_555 1_555
C89 C90 1_555 1_555
C97 C98 1_555 1_555
C105 C106 1_555 1_555
C113 C114 1_555 1_555
C116 N1 1_555 1_555
C118 C119 1_555 1_555
C124 N2 1_555 1_555
C125 C126 1_555 1_555
C125 N4 1_555 1_555
O1 Zn1 1_555 1_555
O5 Zn1 1_555 1_555
O6 Zn2_2 1_555 1_555
O9 Zn3 1_555 1_555
O11 Zn5 1_555 1_555
O13 Zn3 1_555 1_555
O14 Zn4_2 1_555 1_555
O19 Zn3 1_555 1_555
O20 Zn4_2 1_555 1_555
O23 Zn3 1_555 1_555
O24 Zn4_2 1_555 1_555
C9A O8A 1_555 1_555
C89A C90A 1_555 1_555
C97A C98A 1_555 1_555
C99A O4A 1_555 1_555
C105A C106A 1_555 1_555
C113A C114A 1_555 1_555
C116A N1A_2 1_555 1_555
C118A C119A 1_555 1_555
C124A N2A 1_555 1_555
O2A Zn2A_3 1_555 1_555
O3A_2 Zn2_2 1_555 1_555
O7A_2 Zn2_2 1_555 1_555

#END
