
#######################################################################
#
#                 Cambridge Crystallographic Data Centre
#                                CCDC 
#
#######################################################################
#
# If this CIF has been generated from an entry in the Cambridge 
# Structural Database, then it will include bibliographic, chemical, 
# crystal, experimental, refinement or atomic coordinate data resulting 
# from the CCDC's data processing and validation procedures.
#
#######################################################################

data_AFITIT
_chemical_formula_moiety         '(C92 H64 N4 O16 Zn4)n,6.7n(C3 H7 N1 O1)'
_chemical_name_systematic        
"catena-[tetrakis(\m~4~-4,4'-Ethyne-1,2-diylbis(3-methylbenzoato)-O,O',O'',O''')-bis(\m~2~-4,4'-bipyridine-N,N')-tetra-zinc dimethylformamide solvate]"
_symmetry_cell_setting           monoclinic
_symmetry_space_group_name_H-M   'C 2'
_symmetry_Int_Tables_number      5
_space_group_name_Hall           'C 2y'
loop_
_symmetry_equiv_pos_site_id
_symmetry_equiv_pos_as_xyz
1 x,y,z
2 -x,y,-z
3 1/2+x,1/2+y,z
4 1/2-x,1/2+y,-z
_cell_length_a                   21.792(2)
_cell_length_b                   27.979(3)
_cell_length_c                   14.0334(15)
_cell_angle_alpha                90
_cell_angle_beta                 93.579(2)
_cell_angle_gamma                90
_cell_volume                     8539.73
_exptl_crystal_colour            colorless
_exptl_crystal_description       columnar
_cell_formula_units_Z            3
loop_
_atom_site_label
_atom_site_type_symbol
_atom_site_fract_x
_atom_site_fract_y
_atom_site_fract_z
C47 C 0.9187(3) 0.1517(2) 1.0042(4)
C48 C 0.8785(3) 0.19363(19) 1.0008(4)
C49 C 0.8695(3) 0.2196(2) 1.0888(4)
H33 H 0.8874 0.2089 1.1484
C50 C 0.8471(3) 0.20820(19) 0.9148(4)
H34 H 0.8510 0.1896 0.8589
C51 C 0.8113(3) 0.2483(2) 0.9096(4)
C52 C 0.7798(3) 0.26499(16) 0.8171(3)
H35 H 0.7934 0.2454 0.7645
H36 H 0.7902 0.2985 0.8062
H37 H 0.7351 0.2619 0.8204
C53 C 0.8334(3) 0.26086(19) 1.0818(4)
H38 H 0.8298 0.2801 1.1369
C54 C 0.8032(3) 0.2742(2) 0.9978(4)
C55 C 0.7626(3) 0.3159(2) 0.9927(5)
C56 C 0.7295(3) 0.3492(2) 0.9914(4)
C57 C 0.6909(3) 0.3917(2) 0.9966(5)
C58 C 0.6832(2) 0.4130(2) 1.0827(4)
H39 H 0.7027 0.4003 1.1396
C59 C 0.6645(3) 0.4096(2) 0.9113(4)
C60 C 0.6703(3) 0.38537(18) 0.8183(3)
H40 H 0.6457 0.4024 0.7683
H41 H 0.6556 0.3524 0.8224
H42 H 0.7136 0.3853 0.8028
C61 C 0.6291(3) 0.45171(19) 0.9214(4)
H43 H 0.6096 0.4652 0.8652
C62 C 0.6471(3) 0.45274(19) 1.0860(4)
H44 H 0.6395 0.4666 1.1459
C63 C 0.6213(3) 0.47312(19) 1.0021(4)
C64 C 0.5781(3) 0.51584(19) 1.0071(4)
C65 C 0.5193(2) 0.62009(17) 0.7028(3)
H45 H 0.5340 0.6473 0.7377
C66 C 0.4758(3) 0.54419(17) 0.6989(3)
H46 H 0.4596 0.5177 0.7314
C67 C 0.4770(3) 0.54254(16) 0.6019(3)
H47 H 0.4625 0.5151 0.5674
C68 C 0.5212(2) 0.61986(17) 0.6065(3)
H48 H 0.5378 0.6467 0.5757
C69 C 0.5001(2) 0.5825(2) 0.5532(3)
N3 N 0.49699(16) 0.5826(2) 0.7508(2)
O9 O 0.5625(2) 0.53540(13) 0.9299(3)
O10 O 0.5663(2) 0.52888(13) 1.0897(3)
O11 O 0.9434(2) 0.13819(13) 1.0837(3)
O12 O 0.92905(18) 0.13130(12) 0.9238(3)
Zn1 Zn 0.49488(2) 0.583849(16) 0.89522(3)
C47A C 0.0813(3) 0.1517(2) 0.9958(4)
C47B C 0.4187(3) 0.6517(2) 1.0042(4)
C47C C 0.5813(3) 0.6517(2) 0.9958(4)
C48A C 0.1215(3) 0.19363(19) 0.9992(4)
C48B C 0.3785(3) 0.69363(19) 1.0008(4)
C48C C 0.6215(3) 0.69363(19) 0.9992(4)
C49A C 0.1305(3) 0.2196(2) 0.9112(4)
C49C C 0.6305(3) 0.7196(2) 0.9112(4)
C49B C 0.3695(3) 0.7196(2) 1.0888(4)
H33A H 0.1126 0.2089 0.8516
H33C H 0.6126 0.7089 0.8516
H33B H 0.3874 0.7089 1.1484
C50A C 0.1529(3) 0.20820(19) 1.0852(4)
C50C C 0.6529(3) 0.70820(19) 1.0852(4)
C50B C 0.3471(3) 0.70820(19) 0.9148(4)
H34A H 0.1490 0.1896 1.1411
H34C H 0.6490 0.6896 1.1411
H34B H 0.3510 0.6896 0.8589
C51A C 0.1887(3) 0.2483(2) 1.0904(4)
C51C C 0.6887(3) 0.7483(2) 1.0904(4)
C51B C 0.3113(3) 0.7483(2) 0.9096(4)
C52A C 0.2202(3) 0.26499(16) 1.1829(3)
C52C C 0.7202(3) 0.76499(16) 1.1829(3)
C52B C 0.2798(3) 0.76499(16) 0.8171(3)
H35A H 0.2066 0.2454 1.2355
H35B H 0.2934 0.7454 0.7645
H35C H 0.7066 0.7454 1.2355
H36A H 0.2098 0.2985 1.1938
H36B H 0.2902 0.7985 0.8062
H36C H 0.7098 0.7985 1.1938
H37A H 0.2649 0.2619 1.1796
H37B H 0.2351 0.7619 0.8204
H37C H 0.7649 0.7619 1.1796
C53A C 0.1666(3) 0.26086(19) 0.9182(4)
C53C C 0.6666(3) 0.76086(19) 0.9182(4)
C53B C 0.3334(3) 0.76086(19) 1.0818(4)
H38A H 0.1702 0.2801 0.8631
H38B H 0.3298 0.7801 1.1369
H38C H 0.6702 0.7801 0.8631
C54A C 0.1968(3) 0.2742(2) 1.0022(4)
C54C C 0.6968(3) 0.7742(2) 1.0022(4)
C54B C 0.3032(3) 0.7742(2) 0.9978(4)
C55A C 0.2374(3) 0.3159(2) 1.0073(5)
C55B C 0.2626(3) 0.8159(2) 0.9927(5)
C55C C 0.7374(3) 0.8159(2) 1.0073(5)
C56A C 0.2705(3) 0.3492(2) 1.0086(4)
C56B C 0.2295(3) 0.8492(2) 0.9914(4)
C56C C 0.7705(3) 0.8492(2) 1.0086(4)
C57A C 0.3091(3) 0.3917(2) 1.0034(5)
C57B C 0.1909(3) 0.8917(2) 0.9966(5)
C57C C 0.8091(3) 0.8917(2) 1.0034(5)
C58A C 0.3168(2) 0.4130(2) 0.9173(4)
C58B C 0.1832(2) 0.9130(2) 1.0827(4)
C58C C 0.8168(2) 0.9130(2) 0.9173(4)
H39A H 0.2973 0.4003 0.8604
H39B H 0.2027 0.9003 1.1396
H39C H 0.7973 0.9003 0.8604
C59A C 0.3355(3) 0.4096(2) 1.0887(4)
C59B C 0.1645(3) 0.9096(2) 0.9113(4)
C59C C 0.8355(3) 0.9096(2) 1.0887(4)
C60A C 0.3297(3) 0.38537(18) 1.1817(3)
C60B C 0.1703(3) 0.88537(18) 0.8183(3)
C60C C 0.8297(3) 0.88537(18) 1.1817(3)
H40A H 0.3543 0.4024 1.2317
H40B H 0.1457 0.9024 0.7683
H40C H 0.8543 0.9024 1.2317
H41A H 0.3444 0.3524 1.1776
H41B H 0.1556 0.8524 0.8224
H41C H 0.8444 0.8524 1.1776
H42A H 0.2864 0.3853 1.1972
H42B H 0.2136 0.8853 0.8028
H42C H 0.7864 0.8853 1.1972
C61A C 0.3709(3) 0.45171(19) 1.0786(4)
C61B C 0.1291(3) 0.95171(19) 0.9214(4)
C61C C 0.8709(3) 0.95171(19) 1.0786(4)
H43A H 0.3904 0.4652 1.1348
H43B H 0.1096 0.9652 0.8652
H43C H 0.8904 0.9652 1.1348
C62A C 0.3529(3) 0.45274(19) 0.9140(4)
C62B C 0.1471(3) 0.95274(19) 1.0860(4)
C62C C 0.8529(3) 0.95274(19) 0.9140(4)
H44A H 0.3605 0.4666 0.8541
H44B H 0.1395 0.9666 1.1459
H44C H 0.8605 0.9666 0.8541
C63A C 0.3787(3) 0.47312(19) 0.9979(4)
C63B C 0.1213(3) 0.97312(19) 1.0021(4)
C63C C 0.8787(3) 0.97312(19) 0.9979(4)
C64A C 0.4219(3) 0.51584(19) 0.9929(4)
C64B C 0.0781(3) 1.01584(19) 1.0071(4)
C64C C 0.9219(3) 1.01584(19) 0.9929(4)
C65A C 0.4807(2) 0.62009(17) 0.2972(3)
C65B C 0.0193(2) 0.12009(17) 0.7028(3)
C65C C -0.0193(2) 0.12009(17) 0.2972(3)
H45A H 0.4660 0.6473 0.2623
H45B H 0.0340 0.1473 0.7377
H45C H -0.0340 0.1473 0.2623
C66A C 0.5242(3) 0.54419(17) 0.3011(3)
C66B C -0.0242(3) 0.04419(17) 0.6989(3)
C66C C 0.0242(3) 0.04419(17) 0.3011(3)
H46A H 0.5404 0.5177 0.2686
H46B H -0.0404 0.0177 0.7314
H46C H 0.0404 0.0177 0.2686
C67A C 0.5230(3) 0.54254(16) 0.3981(3)
C67B C -0.0230(3) 0.04254(16) 0.6019(3)
C67C C 0.0230(3) 0.04254(16) 0.3981(3)
H47A H 0.5375 0.5151 0.4326
H47B H -0.0375 0.0151 0.5674
H47C H 0.0375 0.0151 0.4326
C68A C 0.4788(2) 0.61986(17) 0.3935(3)
C68B C 0.0212(2) 0.11986(17) 0.6065(3)
C68C C -0.0212(2) 0.11986(17) 0.3935(3)
H48A H 0.4622 0.6467 0.4243
H48B H 0.0378 0.1467 0.5757
H48C H -0.0378 0.1467 0.4243
C69A C 0.4999(2) 0.5825(2) 0.4468(3)
C69B C 0.0001(2) 0.0825(2) 0.5532(3)
C69C C -0.0001(2) 0.0825(2) 0.4468(3)
N3A N 0.50301(16) 0.5826(2) 0.2492(2)
N3A_2 N 0.50301(16) 0.5826(2) 1.2492(2)
N3B N -0.00301(16) 0.0826(2) 0.7508(2)
N3C N 0.00301(16) 0.0826(2) 0.2492(2)
O9A O 0.4375(2) 0.53540(13) 1.0701(3)
O9A_2 O 0.4375(2) 0.53540(13) 0.0701(3)
O9B O 0.0625(2) 1.03540(13) 0.9299(3)
O9C O 0.9375(2) 1.03540(13) 1.0701(3)
O9B_2 O 0.0625(2) 0.03540(13) 0.9299(3)
O10A O 0.4337(2) 0.52888(13) 0.9103(3)
O10_2 O 0.5663(2) 0.52888(13) 0.0897(3)
O10B O 0.0663(2) 1.02888(13) 1.0897(3)
O10C O 0.9337(2) 1.02888(13) 0.9103(3)
O10C_2 O -0.0663(2) 0.02888(13) 0.9103(3)
O11A O 0.0566(2) 0.13819(13) 0.9163(3)
O11C O 0.5566(2) 0.63819(13) 0.9163(3)
O11B O 0.4434(2) 0.63819(13) 0.0837(3)
O11B_2 O 0.4434(2) 0.63819(13) 1.0837(3)
O12A O 0.07095(18) 0.13130(12) 1.0762(3)
O12B O 0.42905(18) 0.63130(12) 0.9238(3)
O12C O 0.57095(18) 0.63130(12) 0.0762(3)
O12C_2 O 0.57095(18) 0.63130(12) 1.0762(3)
O12_2 O -0.07095(18) 0.13130(12) 0.9238(3)
Zn1A Zn 0.50512(2) 0.583849(16) 0.10478(3)
Zn1A_2 Zn 0.50512(2) 0.583849(16) 1.10478(3)
Zn1C Zn 1.00512(2) 0.083849(16) 1.10478(3)
Zn1B Zn 0.99488(2) 0.083849(16) 0.89522(3)
Zn1B_2 Zn -0.00512(2) 0.083849(16) 0.89522(3)
Zn1C_2 Zn 0.00512(2) 0.083849(16) 1.10478(3)
Zn1C_3 Zn 0.00512(2) 1.083849(16) 1.10478(3)
Zn1B_3 Zn -0.00512(2) 1.083849(16) 0.89522(3)
Zn1C_4 Zn 1.00512(2) 1.083849(16) 1.10478(3)
Zn1B_4 Zn 0.99488(2) 1.083849(16) 0.89522(3)
Zn1C_5 Zn 0.00512(2) 0.083849(16) 0.10478(3)
C1 C 0.7137(3) 0.9832(2) 0.6917(4)
C2 C 0.7532(3) 1.0247(2) 0.6895(4)
C3 C 0.7645(3) 1.0462(2) 0.5976(4)
H1 H 0.7476 1.0321 0.5402
C4 C 0.7818(3) 1.04495(19) 0.7735(4)
H2 H 0.7765 1.0307 0.8339
C5 C 0.8173(3) 1.0854(2) 0.7672(4)
H3 H 0.8367 1.0986 0.8237
C6 C 0.8000(3) 1.0874(2) 0.5940(4)
C7 C 0.8137(3) 1.1063(2) 0.4943(4)
H4 H 0.7944 1.1377 0.4842
H5 H 0.7971 1.0840 0.4453
H6 H 0.8582 1.1093 0.4900
C8 C 0.8257(3) 1.1081(2) 0.6774(4)
C9 C 0.8621(3) 1.1500(2) 0.6773(4)
C10 C 0.8934(3) 1.1851(2) 0.6788(5)
C11 C 0.9298(3) 1.2271(2) 0.6800(4)
C12 C 0.9300(3) 1.2578(2) 0.6031(4)
C13 C 0.8897(3) 1.2495(2) 0.5160(4)
H7 H 0.9015 1.2196 0.4858
H8 H 0.8940 1.2761 0.4715
H9 H 0.8468 1.2474 0.5331
C14 C 0.9678(3) 1.2378(2) 0.7607(4)
H10 H 0.9679 1.2173 0.8147
C15 C 1.0051(3) 1.2775(2) 0.7634(4)
H11 H 1.0301 1.2843 0.8198
C16 C 0.9691(3) 1.2979(2) 0.6094(4)
H12 H 0.9692 1.3194 0.5571
C17 C 1.0069(3) 1.30654(19) 0.6888(4)
C18 C 1.0537(3) 1.34862(19) 0.6855(4)
C19 C 0.7121(3) 0.84915(19) 0.6749(5)
C20 C 0.7569(3) 0.80696(19) 0.6721(4)
C21 C 0.7658(3) 0.7848(2) 0.5936(5)
H13 H 0.7436 0.7957 0.5372
C22 C 0.7833(3) 0.7901(2) 0.7547(4)
H14 H 0.7762 0.8058 0.8130
C23 C 0.8216(3) 0.7490(2) 0.7555(5)
H15 H 0.8397 0.7367 0.8138
C24 C 0.8054(3) 0.7461(2) 0.5851(5)
C25 C 0.8104(5) 0.7213(4) 0.4870(7)
H16 H 0.7834 0.7375 0.4387
H17 H 0.7980 0.6877 0.4917
H18 H 0.8530 0.7229 0.4686
C26 C 0.8319(3) 0.7275(2) 0.6702(6)
C27 C 0.8683(3) 0.6840(3) 0.6719(5)
C28 C 0.8980(3) 0.6487(2) 0.6704(5)
C29 C 0.9347(3) 0.6056(2) 0.6753(5)
C30 C 0.9767(3) 0.5974(2) 0.7553(5)
H19 H 0.9796 0.6201 0.8057
C31 C 0.9291(3) 0.57211(19) 0.5997(4)
C32 C 0.8826(3) 0.5785(2) 0.5163(5)
H20 H 0.8988 0.6010 0.4705
H21 H 0.8443 0.5911 0.5392
H22 H 0.8747 0.5476 0.4851
C33 C 0.9662(2) 0.53278(18) 0.6063(4)
H23 H 0.9622 0.5095 0.5571
C34 C 1.0123(3) 0.5585(2) 0.7612(5)
H24 H 1.0389 0.5527 0.8163
C35 C 1.0096(3) 0.5253(2) 0.6815(4)
C36 C 1.0486(3) 0.4821(2) 0.6859(5)
C37 C 0.6785(2) 0.93422(18) 0.3947(3)
H25 H 0.7134 0.9433 0.4344
C38 C 0.57673(18) 0.9138(2) 0.3794(2)
H26 H 0.5388 0.9086 0.4077
C39 C 0.57751(19) 0.91266(19) 0.2820(3)
H27 H 0.5412 0.9057 0.2436
C40 C 0.6833(2) 0.93429(18) 0.3005(3)
H28 H 0.7209 0.9427 0.2742
C41 C 0.63192(19) 0.9218(2) 0.2409(3)
C42 C 0.63607(18) 0.9189(3) 0.1344(3)
C43 C 0.6009(2) 0.88503(18) 0.0807(3)
H29 H 0.5758 0.8625 0.1107
C44 C 0.6719(2) 0.94905(19) 0.0850(3)
H30 H 0.6969 0.9720 0.1188
C45 C 0.6723(2) 0.94666(17) -0.0130(3)
H31 H 0.6978 0.9682 -0.0448
C46 C 0.6043(2) 0.88593(17) -0.0180(3)
H32 H 0.5801 0.8636 -0.0550
N1 N 0.62721(15) 0.92202(17) 0.4364(2)
N2 N 0.63929(13) 0.9161(2) -0.0638(2)
O1 O 0.6909(2) 0.96703(14) 0.6152(3)
O2 O 0.70161(18) 0.96658(12) 0.7729(3)
O3 O 1.0643(2) 1.36414(13) 0.6081(3)
O4 O 1.07323(18) 1.36315(12) 0.7678(3)
O5 O 0.69155(19) 0.86454(13) 0.5976(3)
O6 O 0.7014(2) 0.86468(13) 0.7564(3)
O7 O 1.0604(2) 0.46413(13) 0.6044(3)
O8 O 1.0730(2) 0.46706(13) 0.7633(3)
Zn2 Zn 0.626475(19) 0.91633(2) 0.58075(3)
Zn3 Zn 0.638690(19) 0.91555(2) -0.20921(3)
C1B C 0.2137(3) 0.4832(2) 0.6917(4)
C2B C 0.2532(3) 0.5247(2) 0.6895(4)
C3B C 0.2645(3) 0.5462(2) 0.5976(4)
H1B H 0.2476 0.5321 0.5402
C4B C 0.2818(3) 0.54495(19) 0.7735(4)
H2B H 0.2765 0.5307 0.8339
C5B C 0.3173(3) 0.5854(2) 0.7672(4)
H3B H 0.3367 0.5986 0.8237
C6B C 0.3000(3) 0.5874(2) 0.5940(4)
C7B C 0.3137(3) 0.6063(2) 0.4943(4)
H4B H 0.2944 0.6377 0.4842
H5B H 0.2971 0.5840 0.4453
H6B H 0.3582 0.6093 0.4900
C8B C 0.3257(3) 0.6081(2) 0.6774(4)
C9B C 0.3621(3) 0.6500(2) 0.6773(4)
C10B C 0.3934(3) 0.6851(2) 0.6788(5)
C11B C 0.4298(3) 0.7271(2) 0.6800(4)
C12B C 0.4300(3) 0.7578(2) 0.6031(4)
C13B C 0.3897(3) 0.7495(2) 0.5160(4)
H7B H 0.4015 0.7196 0.4858
H8B H 0.3940 0.7761 0.4715
H9B H 0.3468 0.7474 0.5331
C14B C 0.4678(3) 0.7378(2) 0.7607(4)
H10B H 0.4679 0.7173 0.8147
C15B C 0.5051(3) 0.7775(2) 0.7634(4)
H11B H 0.5301 0.7843 0.8198
C16B C 0.4691(3) 0.7979(2) 0.6094(4)
H12B H 0.4692 0.8194 0.5571
C17B C 0.5069(3) 0.80654(19) 0.6888(4)
C18B C 0.5537(3) 0.84862(19) 0.6855(4)
C19B C 0.2121(3) 1.34915(19) 0.6749(5)
C20B C 0.2569(3) 1.30696(19) 0.6721(4)
C21B C 0.2658(3) 1.2848(2) 0.5936(5)
H13B H 0.2436 1.2957 0.5372
C22B C 0.2833(3) 1.2901(2) 0.7547(4)
H14B H 0.2762 1.3058 0.8130
C23B C 0.3216(3) 1.2490(2) 0.7555(5)
H15B H 0.3397 1.2367 0.8138
C24B C 0.3054(3) 1.2461(2) 0.5851(5)
C25B C 0.3104(5) 1.2213(4) 0.4870(7)
H16B H 0.2834 1.2375 0.4387
H17B H 0.2980 1.1877 0.4917
H18B H 0.3530 1.2229 0.4686
C26B C 0.3319(3) 1.2275(2) 0.6702(6)
C27B C 0.3683(3) 1.1840(3) 0.6719(5)
C28B C 0.3980(3) 1.1487(2) 0.6704(5)
C29B C 0.4347(3) 1.1056(2) 0.6753(5)
C30B C 0.4767(3) 1.0974(2) 0.7553(5)
H19B H 0.4796 1.1201 0.8057
C31B C 0.4291(3) 1.07211(19) 0.5997(4)
C32B C 0.3826(3) 1.0785(2) 0.5163(5)
H20B H 0.3988 1.1010 0.4705
H21B H 0.3443 1.0911 0.5392
H22B H 0.3747 1.0476 0.4851
C33B C 0.4662(2) 1.03278(18) 0.6063(4)
H23B H 0.4622 1.0095 0.5571
C34B C 0.5123(3) 1.0585(2) 0.7612(5)
H24B H 0.5389 1.0527 0.8163
C35B C 0.5096(3) 1.0253(2) 0.6815(4)
C36B C 0.5486(3) 0.9821(2) 0.6859(5)
C37B C 0.1785(2) 0.43422(18) 0.3947(3)
H25B H 0.2134 0.4433 0.4344
C38B C 0.07673(18) 0.4138(2) 0.3794(2)
H26B H 0.0388 0.4086 0.4077
C39B C 0.07751(19) 0.41266(19) 0.2820(3)
H27B H 0.0412 0.4057 0.2436
C40B C 0.1833(2) 0.43429(18) 0.3005(3)
H28B H 0.2209 0.4427 0.2742
C41B C 0.13192(19) 0.4218(2) 0.2409(3)
C42B C 0.13607(18) 0.4189(3) 0.1344(3)
C43B C 0.1009(2) 0.38503(18) 0.0807(3)
H29B H 0.0758 0.3625 0.1107
C44B C 0.1719(2) 0.44905(19) 0.0850(3)
H30B H 0.1969 0.4720 0.1188
C45B C 0.1723(2) 0.44666(17) -0.0130(3)
H31B H 0.1978 0.4682 -0.0448
C46B C 0.1043(2) 0.38593(17) -0.0180(3)
H32B H 0.0801 0.3636 -0.0550
N1B N 0.12721(15) 0.42202(17) 0.4364(2)
N2B N 0.13929(13) 0.4161(2) -0.0638(2)
N2_2 N 0.63929(13) 0.9161(2) 0.9362(2)
O1B O 0.1909(2) 0.46703(14) 0.6152(3)
O2B O 0.20161(18) 0.46658(12) 0.7729(3)
O2_2 O 0.70161(18) 0.96658(12) -0.2271(3)
O3B O 0.5643(2) 0.86414(13) 0.6081(3)
O3_2 O 0.0643(2) 0.36414(13) 0.6081(3)
O4B O 0.57323(18) 0.86315(12) 0.7678(3)
O4B_2 O 0.57323(18) 0.86315(12) -0.2322(3)
O5B O 0.19155(19) 1.36454(13) 0.5976(3)
O5B_2 O 0.19155(19) 0.36454(13) 0.5976(3)
O6B O 0.2014(2) 1.36468(13) 0.7564(3)
O6_2 O 0.7014(2) 0.86468(13) -0.2436(3)
O7B O 0.5604(2) 0.96413(13) 0.6044(3)
O7_2 O 0.0604(2) 0.46413(13) 0.6044(3)
O8B O 0.5730(2) 0.96706(13) 0.7633(3)
O8B_2 O 0.5730(2) 0.96706(13) -0.2367(3)
Zn2B Zn 0.126475(19) 0.41633(2) 0.58075(3)
Zn2B_2 Zn 1.126475(19) 1.41633(2) 0.58075(3)
Zn2B_3 Zn 1.126475(19) 0.41633(2) 0.58075(3)
Zn2B_4 Zn 0.126475(19) 1.41633(2) 0.58075(3)
Zn3_2 Zn 0.638690(19) 0.91555(2) 0.79079(3)
Zn3B Zn 1.138690(19) 1.41555(2) 0.79079(3)
Zn3B_2 Zn 1.138690(19) 0.41555(2) 0.79079(3)
Zn3B_3 Zn 0.138690(19) 0.41555(2) 0.79079(3)
Zn3B_4 Zn 0.138690(19) 1.41555(2) 0.79079(3)
Zn3B_5 Zn 0.138690(19) 0.41555(2) -0.20921(3)
loop_
_geom_bond_atom_site_label_1
_geom_bond_atom_site_label_2
_geom_bond_site_symmetry_1
_geom_bond_site_symmetry_2
C1 C2 1_555 1_555
C2 C3 1_555 1_555
C3 H1 1_555 1_555
C4 C2 1_555 1_555
H2 C4 1_555 1_555
C5 C4 1_555 1_555
H3 C5 1_555 1_555
C6 C3 1_555 1_555
C7 C6 1_555 1_555
H4 C7 1_555 1_555
H5 C7 1_555 1_555
H6 C7 1_555 1_555
C8 C5 1_555 1_555
C9 C8 1_555 1_555
C10 C9 1_555 1_555
C11 C10 1_555 1_555
C12 C11 1_555 1_555
C13 C12 1_555 1_555
H7 C13 1_555 1_555
H8 C13 1_555 1_555
H9 C13 1_555 1_555
C14 C11 1_555 1_555
H10 C14 1_555 1_555
C15 C14 1_555 1_555
H11 C15 1_555 1_555
C16 C12 1_555 1_555
H12 C16 1_555 1_555
C17 C15 1_555 1_555
C18 C17 1_555 1_555
C19 C20 1_555 1_555
C20 C21 1_555 1_555
C21 H13 1_555 1_555
C22 C20 1_555 1_555
H14 C22 1_555 1_555
C23 C22 1_555 1_555
H15 C23 1_555 1_555
C24 C21 1_555 1_555
C25 C24 1_555 1_555
H16 C25 1_555 1_555
H17 C25 1_555 1_555
H18 C25 1_555 1_555
C26 C23 1_555 1_555
C27 C26 1_555 1_555
C28 C27 1_555 1_555
C29 C28 1_555 1_555
C30 C29 1_555 1_555
H19 C30 1_555 1_555
C31 C29 1_555 1_555
C32 C31 1_555 1_555
H20 C32 1_555 1_555
H21 C32 1_555 1_555
H22 C32 1_555 1_555
C33 C31 1_555 1_555
H23 C33 1_555 1_555
C34 C30 1_555 1_555
H24 C34 1_555 1_555
C35 C33 1_555 1_555
C36 C35 1_555 1_555
C37 H25 1_555 1_555
C38 H26 1_555 1_555
C39 C38 1_555 1_555
H27 C39 1_555 1_555
C40 C37 1_555 1_555
H28 C40 1_555 1_555
C41 C39 1_555 1_555
C42 C41 1_555 1_555
C43 C42 1_555 1_555
H29 C43 1_555 1_555
C44 C42 1_555 1_555
H30 C44 1_555 1_555
C45 C44 1_555 1_555
H31 C45 1_555 1_555
C46 C43 1_555 1_555
H32 C46 1_555 1_555
C47 C48 1_555 1_555
C48 C49 1_555 1_555
C49 H33 1_555 1_555
C50 C48 1_555 1_555
H34 C50 1_555 1_555
C51 C50 1_555 1_555
C52 C51 1_555 1_555
H35 C52 1_555 1_555
H36 C52 1_555 1_555
H37 C52 1_555 1_555
C53 C49 1_555 1_555
H38 C53 1_555 1_555
C54 C51 1_555 1_555
C55 C54 1_555 1_555
C56 C55 1_555 1_555
C57 C56 1_555 1_555
C58 C57 1_555 1_555
H39 C58 1_555 1_555
C59 C57 1_555 1_555
C60 C59 1_555 1_555
H40 C60 1_555 1_555
H41 C60 1_555 1_555
H42 C60 1_555 1_555
C61 C59 1_555 1_555
H43 C61 1_555 1_555
C62 C58 1_555 1_555
H44 C62 1_555 1_555
C63 C61 1_555 1_555
C64 C63 1_555 1_555
C65 H45 1_555 1_555
C66 H46 1_555 1_555
C67 C66 1_555 1_555
H47 C67 1_555 1_555
C68 C65 1_555 1_555
H48 C68 1_555 1_555
C69 C67 1_555 1_555
N1 C37 1_555 1_555
N2 C45 1_555 1_555
N3 C65 1_555 1_555
O1 C1 1_555 1_555
O2 C1 1_555 1_555
O3 C18 1_555 1_555
O4 C18 1_555 1_555
O5 C19 1_555 1_555
O6 C19 1_555 1_555
O7 C36 1_555 1_555
O8 C36 1_555 1_555
O9 C64 1_555 1_555
O10 C64 1_555 1_555
O11 C47 1_555 1_555
O12 C47 1_555 1_555
Zn1 N3 1_555 1_555
Zn2 N1 1_555 1_555
Zn3 N2 1_555 1_555
C1B C2B 1_555 1_555
C2B C3B 1_555 1_555
C3B H1B 1_555 1_555
C4B C2B 1_555 1_555
H2B C4B 1_555 1_555
C5B C4B 1_555 1_555
H3B C5B 1_555 1_555
C6B C3B 1_555 1_555
C7B C6B 1_555 1_555
H4B C7B 1_555 1_555
H5B C7B 1_555 1_555
H6B C7B 1_555 1_555
C8B C5B 1_555 1_555
C9B C8B 1_555 1_555
C10B C9B 1_555 1_555
C11B C10B 1_555 1_555
C12B C11B 1_555 1_555
C13B C12B 1_555 1_555
H7B C13B 1_555 1_555
H8B C13B 1_555 1_555
H9B C13B 1_555 1_555
C14B C11B 1_555 1_555
H10B C14B 1_555 1_555
C15B C14B 1_555 1_555
H11B C15B 1_555 1_555
C16B C12B 1_555 1_555
H12B C16B 1_555 1_555
C17B C15B 1_555 1_555
C18B C17B 1_555 1_555
C19B C20B 1_555 1_555
C20B C21B 1_555 1_555
C21B H13B 1_555 1_555
C22B C20B 1_555 1_555
H14B C22B 1_555 1_555
C23B C22B 1_555 1_555
H15B C23B 1_555 1_555
C24B C21B 1_555 1_555
C25B C24B 1_555 1_555
H16B C25B 1_555 1_555
H17B C25B 1_555 1_555
H18B C25B 1_555 1_555
C26B C23B 1_555 1_555
C27B C26B 1_555 1_555
C28B C27B 1_555 1_555
C29B C28B 1_555 1_555
C30B C29B 1_555 1_555
H19B C30B 1_555 1_555
C31B C29B 1_555 1_555
C32B C31B 1_555 1_555
H20B C32B 1_555 1_555
H21B C32B 1_555 1_555
H22B C32B 1_555 1_555
C33B C31B 1_555 1_555
H23B C33B 1_555 1_555
C34B C30B 1_555 1_555
H24B C34B 1_555 1_555
C35B C33B 1_555 1_555
C36B C35B 1_555 1_555
C37B H25B 1_555 1_555
C38B H26B 1_555 1_555
C39B C38B 1_555 1_555
H27B C39B 1_555 1_555
C40B C37B 1_555 1_555
H28B C40B 1_555 1_555
C41B C39B 1_555 1_555
C42B C41B 1_555 1_555
C43B C42B 1_555 1_555
H29B C43B 1_555 1_555
C44B C42B 1_555 1_555
H30B C44B 1_555 1_555
C45B C44B 1_555 1_555
H31B C45B 1_555 1_555
C46B C43B 1_555 1_555
H32B C46B 1_555 1_555
C47A C48A 1_555 1_555
C47B C48B 1_555 1_555
C47C C48C 1_555 1_555
C48A C49A 1_555 1_555
C48B C49B 1_555 1_555
C48C C49C 1_555 1_555
C49A H33A 1_555 1_555
C49C H33C 1_555 1_555
C49B H33B 1_555 1_555
C50A C48A 1_555 1_555
C50C C48C 1_555 1_555
C50B C48B 1_555 1_555
H34A C50A 1_555 1_555
H34C C50C 1_555 1_555
H34B C50B 1_555 1_555
C51A C50A 1_555 1_555
C51C C50C 1_555 1_555
C51B C50B 1_555 1_555
C52A C51A 1_555 1_555
C52C C51C 1_555 1_555
C52B C51B 1_555 1_555
H35A C52A 1_555 1_555
H35B C52B 1_555 1_555
H35C C52C 1_555 1_555
H36A C52A 1_555 1_555
H36B C52B 1_555 1_555
H36C C52C 1_555 1_555
H37A C52A 1_555 1_555
H37B C52B 1_555 1_555
H37C C52C 1_555 1_555
C53A C49A 1_555 1_555
C53C C49C 1_555 1_555
C53B C49B 1_555 1_555
H38A C53A 1_555 1_555
H38B C53B 1_555 1_555
H38C C53C 1_555 1_555
C54A C51A 1_555 1_555
C54C C51C 1_555 1_555
C54B C51B 1_555 1_555
C55A C54A 1_555 1_555
C55B C54B 1_555 1_555
C55C C54C 1_555 1_555
C56A C55A 1_555 1_555
C56B C55B 1_555 1_555
C56C C55C 1_555 1_555
C57A C56A 1_555 1_555
C57B C56B 1_555 1_555
C57C C56C 1_555 1_555
C58A C57A 1_555 1_555
C58B C57B 1_555 1_555
C58C C57C 1_555 1_555
H39A C58A 1_555 1_555
H39B C58B 1_555 1_555
H39C C58C 1_555 1_555
C59A C57A 1_555 1_555
C59B C57B 1_555 1_555
C59C C57C 1_555 1_555
C60A C59A 1_555 1_555
C60B C59B 1_555 1_555
C60C C59C 1_555 1_555
H40A C60A 1_555 1_555
H40B C60B 1_555 1_555
H40C C60C 1_555 1_555
H41A C60A 1_555 1_555
H41B C60B 1_555 1_555
H41C C60C 1_555 1_555
H42A C60A 1_555 1_555
H42B C60B 1_555 1_555
H42C C60C 1_555 1_555
C61A C59A 1_555 1_555
C61B C59B 1_555 1_555
C61C C59C 1_555 1_555
H43A C61A 1_555 1_555
H43B C61B 1_555 1_555
H43C C61C 1_555 1_555
C62A C58A 1_555 1_555
C62B C58B 1_555 1_555
C62C C58C 1_555 1_555
H44A C62A 1_555 1_555
H44B C62B 1_555 1_555
H44C C62C 1_555 1_555
C63A C61A 1_555 1_555
C63B C61B 1_555 1_555
C63C C61C 1_555 1_555
C64A C63A 1_555 1_555
C64B C63B 1_555 1_555
C64C C63C 1_555 1_555
C65A H45A 1_555 1_555
C65B H45B 1_555 1_555
C65C H45C 1_555 1_555
C66A H46A 1_555 1_555
C66B H46B 1_555 1_555
C66C H46C 1_555 1_555
C67A C66A 1_555 1_555
C67B C66B 1_555 1_555
C67C C66C 1_555 1_555
H47A C67A 1_555 1_555
H47B C67B 1_555 1_555
H47C C67C 1_555 1_555
C68A C65A 1_555 1_555
C68B C65B 1_555 1_555
C68C C65C 1_555 1_555
H48A C68A 1_555 1_555
H48B C68B 1_555 1_555
H48C C68C 1_555 1_555
C69A C69 1_555 1_555
C69B C67B 1_555 1_555
C69C C67C 1_555 1_555
N1B C37B 1_555 1_555
N2B C45B 1_555 1_555
N2_2 Zn3_2 1_555 1_555
N3A C65A 1_555 1_555
N3A_2 Zn1A_2 1_555 1_555
N3B C65B 1_555 1_555
N3C C65C 1_555 1_555
O1B C1B 1_555 1_555
O2B C1B 1_555 1_555
O2_2 Zn3 1_555 1_555
O3B Zn2 1_555 1_555
O3_2 Zn2B 1_555 1_555
O4B C18B 1_555 1_555
O4B_2 Zn3 1_555 1_555
O5B C19B 1_555 1_555
O5B_2 Zn2B 1_555 1_555
O6B C19B 1_555 1_555
O6_2 Zn3 1_555 1_555
O7B Zn2 1_555 1_555
O7_2 Zn2B 1_555 1_555
O8B C36B 1_555 1_555
O8B_2 Zn3 1_555 1_555
O9A C64A 1_555 1_555
O9A_2 Zn1A 1_555 1_555
O9B C64B 1_555 1_555
O9C C64C 1_555 1_555
O9B_2 Zn1B_2 1_555 1_555
O10A Zn1 1_555 1_555
O10_2 Zn1A 1_555 1_555
O10B C64B 1_555 1_555
O10C C64C 1_555 1_555
O10C_2 Zn1B_2 1_555 1_555
O11A C47A 1_555 1_555
O11C Zn1 1_555 1_555
O11B Zn1A 1_555 1_555
O11B_2 C47B 1_555 1_555
O12A C47A 1_555 1_555
O12B Zn1 1_555 1_555
O12C Zn1A 1_555 1_555
O12C_2 C47C 1_555 1_555
O12_2 Zn1B_2 1_555 1_555
Zn1A N3A 1_555 1_555
Zn1A_2 O10 1_555 1_555
Zn1C O11 1_555 1_555
Zn1B O12 1_555 1_555
Zn1B_2 N3B 1_555 1_555
Zn1C_2 O12A 1_555 1_555
Zn1C_3 O10B 1_555 1_555
Zn1B_3 O9B 1_555 1_555
Zn1C_4 O9C 1_555 1_555
Zn1B_4 O10C 1_555 1_555
Zn1C_5 N3C 1_555 1_555
Zn2B N1B 1_555 1_555
Zn2B_2 O3 1_555 1_555
Zn2B_3 O7 1_555 1_555
Zn2B_4 O5B 1_555 1_555
Zn3_2 O2 1_555 1_555
Zn3B O4 1_555 1_555
Zn3B_2 O8 1_555 1_555
Zn3B_3 O2B 1_555 1_555
Zn3B_4 O6B 1_555 1_555
Zn3B_5 N2B 1_555 1_555
C6 C8 1_555 1_555
C16 C17 1_555 1_555
C24 C26 1_555 1_555
C34 C35 1_555 1_555
C38 N1 1_555 1_555
C40 C41 1_555 1_555
C46 N2 1_555 1_555
C53 C54 1_555 1_555
C62 C63 1_555 1_555
C66 N3 1_555 1_555
C68 C69 1_555 1_555
O1 Zn2 1_555 1_555
O5 Zn2 1_555 1_555
O6 Zn3_2 1_555 1_555
O9 Zn1 1_555 1_555
C6B C8B 1_555 1_555
C16B C17B 1_555 1_555
C18B O3B 1_555 1_555
C24B C26B 1_555 1_555
C34B C35B 1_555 1_555
C36B O7B 1_555 1_555
C38B N1B 1_555 1_555
C40B C41B 1_555 1_555
C46B N2B 1_555 1_555
C47B O12B 1_555 1_555
C47C O11C 1_555 1_555
C53A C54A 1_555 1_555
C53C C54C 1_555 1_555
C53B C54B 1_555 1_555
C62A C63A 1_555 1_555
C62B C63B 1_555 1_555
C62C C63C 1_555 1_555
C64A O10A 1_555 1_555
C66A N3A 1_555 1_555
C66B N3B 1_555 1_555
C66C N3C 1_555 1_555
C67A C69A 1_555 1_555
C68A C69A 1_555 1_555
C68B C69B 1_555 1_555
C68C C69C 1_555 1_555
C69B C69C 1_555 1_555
O1B Zn2B 1_555 1_555
O4B Zn3_2 1_555 1_555
O8B Zn3_2 1_555 1_555
O9A Zn1A_2 1_555 1_555
O11A Zn1B_2 1_555 1_555
O11B_2 Zn1A_2 1_555 1_555
O12C_2 Zn1A_2 1_555 1_555

#END
