
#######################################################################
#
#                 Cambridge Crystallographic Data Centre
#                                CCDC 
#
#######################################################################
#
# If this CIF has been generated from an entry in the Cambridge 
# Structural Database, then it will include bibliographic, chemical, 
# crystal, experimental, refinement or atomic coordinate data resulting 
# from the CCDC's data processing and validation procedures.
#
#######################################################################

data_ZIDDIB
_chemical_formula_moiety         '(C21 H11 In2 N3 O13)n,0.5n(I2),0.5n(H2 O1)'
_chemical_name_systematic        
'catena-[bis(\m~3~-Pyridine-2,5-dicarboxylato)-(\m~2~-pyridine-2,5-dicarboxylato)-aqua-di-indium(iii) hemikis(di-iodine) hemihydrate]'
_symmetry_cell_setting           orthorhombic
_symmetry_space_group_name_H-M   'P c c n'
_symmetry_Int_Tables_number      56
_space_group_name_Hall           '-P 2ab 2ac'
loop_
_symmetry_equiv_pos_site_id
_symmetry_equiv_pos_as_xyz
1 x,y,z
2 1/2-x,1/2-y,z
3 1/2+x,-y,1/2-z
4 -x,1/2+y,1/2-z
5 -x,-y,-z
6 1/2+x,1/2+y,-z
7 1/2-x,y,1/2+z
8 x,1/2-y,1/2+z
_cell_length_a                   16.0630(8)
_cell_length_b                   16.4850(9)
_cell_length_c                   19.0250(8)
_cell_angle_alpha                90
_cell_angle_beta                 90
_cell_angle_gamma                90
_cell_volume                     5037.79
_exptl_crystal_colour            orange
_exptl_crystal_description       block
_cell_formula_units_Z            8
loop_
_atom_site_label
_atom_site_type_symbol
_atom_site_fract_x
_atom_site_fract_y
_atom_site_fract_z
_atom_site_U_iso_or_equiv
_atom_site_thermal_displace_type
In1 In 0.45587(5) -0.25746(5) -0.01260(4) 0.0189 Uani
In2 In 0.72039(5) 0.06948(5) 0.18424(4) 0.0186 Uani
C1 C 0.8076(7) 0.1220(7) 0.0533(6) 0.0227 Uani
C2 C 0.7512(7) 0.0534(7) 0.0264(7) 0.0260 Uani
C3 C 0.7585(8) 0.0226(8) -0.0351(6) 0.0307 Uani
H1 H 0.7974 0.0439 -0.0663 0.0370 Uiso
C4 C 0.7079(7) -0.0438(8) -0.0560(6) 0.0273 Uani
H2 H 0.7140 -0.0673 -0.1001 0.0330 Uiso
C5 C 0.6502(8) -0.0723(7) -0.0097(6) 0.0263 Uani
C6 C 0.6468(7) -0.0360(7) 0.0564(5) 0.0223 Uani
H3 H 0.6077 -0.0547 0.0886 0.0270 Uiso
C7 C 0.5925(9) -0.1414(8) -0.0288(7) 0.0333 Uani
C8 C 0.8477(8) 0.0619(8) 0.2977(6) 0.0277 Uani
C9 C 0.8780(8) -0.0042(8) 0.2464(6) 0.0277 Uani
C10 C 0.9486(8) -0.0473(8) 0.2609(6) 0.0267 Uani
H4 H 0.9748 -0.0438 0.3044 0.0320 Uiso
C11 C 0.9791(9) -0.0957(8) 0.2085(7) 0.0360 Uani
H5 H 1.0278 -0.1250 0.2158 0.0430 Uiso
C12 C 0.9384(8) -0.1016(7) 0.1449(5) 0.0233 Uani
C13 C 0.8641(8) -0.0614(7) 0.1360(6) 0.0267 Uani
H6 H 0.8346 -0.0682 0.0943 0.0320 Uiso
C14 C 0.9728(8) -0.1513(7) 0.0848(6) 0.0250 Uani
C15 C 0.6287(9) -0.0443(8) 0.2790(7) 0.0370 Uani
C16 C 0.5660(7) -0.1104(7) 0.2910(6) 0.0237 Uani
C17 C 0.5461(8) -0.1306(7) 0.3632(6) 0.0283 Uani
H7 H 0.5707 -0.1018 0.3997 0.0340 Uiso
C18 C 0.4547(7) -0.2288(6) 0.3239(6) 0.0193 Uani
C19 C 0.4686(8) -0.2083(8) 0.2534(6) 0.0267 Uani
H8 H 0.4395 -0.2340 0.2175 0.0320 Uiso
C20 C 0.5266(8) -0.1490(8) 0.2388(6) 0.0283 Uani
H9 H 0.5385 -0.1358 0.1923 0.0340 Uiso
C21 C 0.3973(7) -0.2959(6) 0.3449(6) 0.0210 Uani
N1 N 0.6975(6) 0.0246(5) 0.0757(5) 0.0193 Uani
N2 N 0.8326(6) -0.0118(6) 0.1869(4) 0.0233 Uani
N3 N 0.4929(6) -0.1901(5) 0.3775(5) 0.0200 Uani
O1 O 0.8000(5) 0.1455(5) 0.1166(4) 0.0237 Uani
O2 O 0.8565(5) 0.1515(5) 0.0097(4) 0.0297 Uani
O3 O 0.6058(9) -0.1809(9) -0.0809(7) 0.0763 Uani
O4 O 0.5347(5) -0.1581(5) 0.0133(4) 0.0297 Uani
O5 O 0.7885(5) 0.1068(5) 0.2745(4) 0.0263 Uani
O6 O 0.8859(6) 0.0710(5) 0.3524(5) 0.0353 Uani
O7 O 1.0290(6) -0.2033(6) 0.1009(4) 0.0340 Uani
O8 O 0.9480(6) -0.1453(6) 0.0240(4) 0.0330 Uani
O9 O 0.6338(5) -0.0206(5) 0.2149(4) 0.0283 Uani
O10 O 0.6678(10) -0.0152(9) 0.3248(7) 0.0840 Uani
O11 O 0.3602(5) -0.3320(5) 0.2953(4) 0.0257 Uani
O12 O 0.3929(5) -0.3160(5) 0.4069(4) 0.0247 Uani
O13 O 0.3581(5) -0.1889(5) 0.0467(4) 0.0290 Uani
In1A In 1.04413(5) -0.24254(5) -0.01260(4) 0.0189 Uani
In1E In 0.95587(5) 0.24254(5) 0.01260(4) 0.0189 Uani
In1G In 0.45587(5) -0.24254(5) 0.48740(4) 0.0189 Uani
In2C In 0.27961(5) -0.43052(5) 0.31576(4) 0.0186 Uani
N3G N 0.4929(6) -0.3099(5) -0.1225(5) 0.0200 Uani
O2E O 0.3565(5) -0.3485(5) -0.0097(4) 0.0297 Uani
O7A O 0.4710(6) -0.2967(6) 0.1009(4) 0.0340 Uani
O8A O 0.5520(6) -0.3547(6) 0.0240(4) 0.0330 Uani
O11C O 0.6398(5) 0.1680(5) 0.2047(4) 0.0257 Uani
O12G O 0.3929(5) -0.1840(5) -0.0931(4) 0.0247 Uani
O14 O 0.2500 -0.2500 0.1457(7) 0.0423 Uani
I1 I 0.7500 -0.2500 0.08813(12) 0.0796 Uani
I2 I 0.7500 -0.2500 0.22998(11) 0.0704 Uani
loop_
_atom_site_aniso_label
_atom_site_aniso_U_11
_atom_site_aniso_U_22
_atom_site_aniso_U_33
_atom_site_aniso_U_23
_atom_site_aniso_U_13
_atom_site_aniso_U_12
In1 0.0218(4) 0.0197(4) 0.0152(4) -0.0016(3) -0.0028(3) -0.0009(3)
In2 0.0198(4) 0.0198(4) 0.0163(4) -0.0006(3) 0.0012(3) -0.0005(3)
C1 0.020(5) 0.022(6) 0.026(6) -0.003(5) 0.000(5) 0.000(5)
C2 0.019(6) 0.020(6) 0.039(7) 0.007(5) -0.002(5) -0.006(5)
C3 0.039(7) 0.033(7) 0.020(6) -0.002(5) 0.013(5) -0.008(6)
C4 0.030(6) 0.033(7) 0.019(6) -0.004(5) 0.002(5) -0.014(5)
C5 0.033(7) 0.023(6) 0.023(6) -0.009(5) -0.006(5) -0.014(5)
C6 0.029(6) 0.030(6) 0.008(5) 0.002(4) -0.003(4) -0.007(5)
C7 0.044(8) 0.028(7) 0.028(7) -0.007(5) -0.008(6) -0.016(6)
C8 0.026(6) 0.036(7) 0.021(6) -0.003(5) -0.003(5) -0.008(5)
C9 0.028(6) 0.032(7) 0.023(6) -0.002(5) -0.004(5) -0.006(5)
C10 0.031(7) 0.031(7) 0.018(6) -0.008(5) -0.001(5) 0.000(5)
C11 0.035(7) 0.031(7) 0.042(8) -0.006(6) -0.008(6) 0.002(6)
C12 0.038(7) 0.023(6) 0.009(5) 0.000(4) 0.000(5) 0.006(5)
C13 0.036(7) 0.017(6) 0.027(6) -0.003(5) -0.002(5) 0.003(5)
C14 0.030(6) 0.020(6) 0.025(6) -0.004(5) 0.009(5) -0.002(5)
C15 0.038(7) 0.035(7) 0.038(8) -0.014(6) -0.003(6) -0.022(6)
C16 0.026(6) 0.032(6) 0.013(5) 0.001(5) 0.000(5) 0.002(5)
C17 0.035(7) 0.025(6) 0.025(6) -0.001(5) -0.002(5) -0.007(5)
C18 0.020(5) 0.009(5) 0.029(6) -0.003(4) 0.005(5) -0.002(4)
C19 0.033(7) 0.029(7) 0.018(6) -0.010(5) -0.003(5) 0.000(5)
C20 0.040(7) 0.032(7) 0.013(5) 0.005(5) 0.004(5) -0.003(6)
C21 0.029(6) 0.013(5) 0.021(6) 0.003(4) -0.002(5) 0.000(5)
N1 0.022(5) 0.019(5) 0.017(4) 0.000(4) 0.006(4) -0.001(4)
N2 0.037(6) 0.023(5) 0.010(4) -0.004(4) 0.001(4) 0.005(4)
N3 0.022(5) 0.019(5) 0.019(5) 0.002(4) -0.005(4) 0.000(4)
O1 0.032(4) 0.022(4) 0.017(4) -0.005(3) 0.005(3) -0.008(3)
O2 0.032(5) 0.032(5) 0.025(4) 0.004(3) 0.009(4) -0.013(4)
O3 0.086(9) 0.083(9) 0.060(8) -0.039(7) 0.020(7) -0.051(8)
O4 0.037(5) 0.033(5) 0.019(4) -0.003(3) 0.001(4) -0.017(4)
O5 0.024(4) 0.032(5) 0.023(4) -0.014(3) -0.011(3) 0.003(4)
O6 0.043(5) 0.029(5) 0.034(5) -0.005(4) -0.002(4) 0.001(4)
O7 0.040(5) 0.035(5) 0.027(4) -0.007(4) 0.001(4) 0.010(4)
O8 0.044(5) 0.042(5) 0.013(4) 0.004(3) 0.001(4) 0.002(4)
O9 0.042(5) 0.034(5) 0.009(4) 0.009(3) 0.002(3) -0.012(4)
O10 0.104(8) 0.096(8) 0.052(6) 0.018(6) -0.009(6) -0.059(7)
O11 0.033(4) 0.028(4) 0.016(4) 0.002(3) -0.001(3) -0.009(4)
O12 0.030(4) 0.025(4) 0.019(4) -0.004(3) -0.006(3) -0.009(4)
O13 0.026(4) 0.032(5) 0.029(4) -0.002(4) -0.003(4) 0.004(4)
In1A 0.0218 0.0197 0.0152 0.0016 0.0028 -0.0009
In1E 0.0218 0.0197 0.0152 0.0016 0.0028 -0.0009
In1G 0.0218 0.0197 0.0152 0.0016 -0.0028 0.0009
In2C 0.0198 0.0198 0.0163 0.0006 0.0012 0.0005
N3G 0.022 0.019 0.019 -0.002 -0.005 0
O2E 0.032 0.032 0.025 -0.004 -0.009 -0.013
O7A 0.04 0.035 0.027 0.007 -0.001 0.01
O8A 0.044 0.042 0.013 -0.004 -0.001 0.002
O11C 0.033 0.028 0.016 -0.002 -0.001 0.009
O12G 0.03 0.025 0.019 0.004 -0.006 0.009
O14 0.057(9) 0.038(8) 0.032(7) 0.000 0.000 -0.019(7)
I1 0.0890(14) 0.0626(12) 0.0873(14) 0.000 0.000 -0.0151(10)
I2 0.0586(10) 0.0664(12) 0.0862(14) 0.000 0.000 -0.0059(9)
loop_
_geom_bond_atom_site_label_1
_geom_bond_atom_site_label_2
_geom_bond_site_symmetry_1
_geom_bond_site_symmetry_2
In1 O4 1_555 1_555
In2 N1 1_555 1_555
C1 C2 1_555 1_555
C2 C3 1_555 1_555
C3 H1 1_555 1_555
C4 C3 1_555 1_555
H2 C4 1_555 1_555
C5 C4 1_555 1_555
C6 C5 1_555 1_555
H3 C6 1_555 1_555
C7 C5 1_555 1_555
C8 C9 1_555 1_555
C9 C10 1_555 1_555
C10 H4 1_555 1_555
C11 C10 1_555 1_555
H5 C11 1_555 1_555
C12 C11 1_555 1_555
C13 C12 1_555 1_555
H6 C13 1_555 1_555
C14 C12 1_555 1_555
C15 C16 1_555 1_555
C16 C17 1_555 1_555
C17 H7 1_555 1_555
C18 C19 1_555 1_555
C19 H8 1_555 1_555
C20 C16 1_555 1_555
H9 C20 1_555 1_555
C21 C18 1_555 1_555
N1 C2 1_555 1_555
N2 In2 1_555 1_555
N3 C17 1_555 1_555
O1 In2 1_555 1_555
O2 C1 1_555 1_555
O3 C7 1_555 1_555
O4 C7 1_555 1_555
O5 In2 1_555 1_555
O6 C8 1_555 1_555
O7 C14 1_555 1_555
O8 C14 1_555 1_555
O9 In2 1_555 1_555
O10 C15 1_555 1_555
O11 C21 1_555 1_555
O12 C21 1_555 1_555
O13 In1 1_555 1_555
I1 I2 1_555 1_555
In1A O7 1_555 1_555
In1E O2 1_555 1_555
In1G N3 1_555 1_555
In2C O11 1_555 1_555
N3G In1 1_555 1_555
O2E In1 1_555 1_555
O7A In1 1_555 1_555
O8A In1 1_555 1_555
O11C In2 1_555 1_555
O12G In1 1_555 1_555
C1 O1 1_555 1_555
C6 N1 1_555 1_555
C8 O5 1_555 1_555
C9 N2 1_555 1_555
C13 N2 1_555 1_555
C15 O9 1_555 1_555
C18 N3 1_555 1_555
C19 C20 1_555 1_555
O8 In1A 1_555 1_555
O12 In1G 1_555 1_555

#END
