
#######################################################################
#
#                 Cambridge Crystallographic Data Centre
#                                CCDC 
#
#######################################################################
#
# If this CIF has been generated from an entry in the Cambridge 
# Structural Database, then it will include bibliographic, chemical, 
# crystal, experimental, refinement or atomic coordinate data resulting 
# from the CCDC's data processing and validation procedures.
#
#######################################################################

data_HELDOT
_chemical_formula_moiety         '(C62 H48 Co3 N2 O14)n'
_chemical_name_systematic        
"catena-(bis(\m~6~-4,4',4''-benzene-1,3,5-triylbenzoato)-tetrakis(N,N-dimethylacetamide)-tri-cobalt(ii) unknown solvate)"
_symmetry_cell_setting           trigonal
_symmetry_space_group_name_H-M   'P 32 2 1'
_symmetry_Int_Tables_number      154
_space_group_name_Hall           'P 32 2"'
loop_
_symmetry_equiv_pos_site_id
_symmetry_equiv_pos_as_xyz
1 x,y,z
2 -y,x-y,2/3+z
3 -x+y,-x,1/3+z
4 y,x,-z
5 x-y,-y,1/3-z
6 -x,-x+y,2/3-z
_cell_length_a                   25.472(4)
_cell_length_b                   25.472(4)
_cell_length_c                   13.143(3)
_cell_angle_alpha                90
_cell_angle_beta                 90
_cell_angle_gamma                120
_cell_volume                     7385.01
_exptl_crystal_colour            'deep purple'
_exptl_crystal_description       block
_cell_formula_units_Z            3
loop_
_atom_site_label
_atom_site_type_symbol
_atom_site_fract_x
_atom_site_fract_y
_atom_site_fract_z
Co1 Co 0.31524(3) 0.31524(3) 0.0000
Co2 Co 0.38910(3) 0.27655(3) 0.19119(6)
O1 O 0.3331(2) 0.2762(2) 0.3041(3)
O2 O 0.32708(18) 0.31261(16) 0.1574(3)
O3 O 0.1074(2) 0.65072(19) 0.2046(4)
O4 O 0.06418(17) 0.65468(17) 0.3509(3)
O5 O -0.20732(19) 0.13993(18) 0.7640(3)
O6 O -0.22292(16) 0.06797(16) 0.6508(3)
C1 C 0.3088(3) 0.2989(2) 0.2471(4)
C2 C 0.2605(3) 0.3100(3) 0.2888(4)
C3 C 0.2299(3) 0.2820(3) 0.3737(5)
H1 H 0.2402 0.2560 0.4096
C4 C 0.1825(3) 0.2907(3) 0.4105(5)
H2 H 0.1606 0.2697 0.4696
C5 C 0.1680(3) 0.3295(3) 0.3607(4)
C6 C 0.2025(2) 0.3599(2) 0.2735(4)
H3 H 0.1944 0.3879 0.2390
C7 C 0.2473(2) 0.3500(2) 0.2378(4)
H4 H 0.2693 0.3704 0.1784
C8 C 0.0850(2) 0.6316(2) 0.2931(5)
C9 C 0.0844(2) 0.5746(2) 0.3261(5)
C10 C 0.1090(3) 0.5481(3) 0.2642(5)
H5 H 0.1285 0.5679 0.2027
C11 C 0.1062(3) 0.4946(3) 0.2889(5)
H6 H 0.1223 0.4770 0.2440
C12 C 0.0792(2) 0.4656(2) 0.3821(5)
C13 C 0.0566(3) 0.4930(3) 0.4453(4)
H7 H 0.0394 0.4752 0.5091
C14 C 0.0587(3) 0.5463(3) 0.4164(5)
H8 H 0.0420 0.5638 0.4603
C15 C -0.1940(3) 0.1199(2) 0.6885(4)
C16 C -0.1368(2) 0.1660(2) 0.6329(4)
C17 C -0.1117(3) 0.2286(3) 0.6591(5)
H9 H -0.1301 0.2404 0.7101
C18 C -0.0613(3) 0.2707(3) 0.6100(6)
H10 H -0.0446 0.3119 0.6291
C19 C -0.0329(3) 0.2567(3) 0.5334(4)
C20 C -0.0589(3) 0.1941(2) 0.5087(5)
H11 H -0.0412 0.1823 0.4562
C21 C -0.1096(2) 0.1501(2) 0.5599(4)
H12 H -0.1253 0.1085 0.5438
C22 C 0.1184(3) 0.3382(2) 0.3944(4)
C23 C 0.1204(2) 0.3951(2) 0.3769(5)
H13 H 0.1549 0.4267 0.3436
C24 C 0.0740(3) 0.4060(2) 0.4069(4)
C25 C 0.0249(3) 0.3608(3) 0.4568(5)
H14 H -0.0071 0.3675 0.4774
C26 C 0.0679(3) 0.2952(3) 0.4454(4)
H15 H 0.0650 0.2572 0.4589
C27 C 0.0208(3) 0.3040(2) 0.4785(4)
O7 O 0.4407(2) 0.2447(3) 0.2547(4)
N1 N 0.4574(6) 0.1638(6) 0.2685(11)
C28 C 0.4241(6) 0.1913(6) 0.2768(9)
C29 C 0.3623(8) 0.1560(9) 0.3187(16)
H16 H 0.3638 0.1380 0.3838
H17 H 0.3367 0.1237 0.2709
H18 H 0.3455 0.1827 0.3292
C30 C 0.4360(10) 0.1024(8) 0.3009(18)
H19 H 0.4566 0.1027 0.3641
H20 H 0.4448 0.0807 0.2480
H21 H 0.3922 0.0821 0.3126
C31 C 0.5182(8) 0.1935(9) 0.2207(19)
H22 H 0.5266 0.2320 0.1901
H23 H 0.5195 0.1670 0.1679
H24 H 0.5489 0.2012 0.2726
Co1B Co 0.00000(4) 0.68476(3) 0.3333
Co1A Co -0.31524(3) 0.00000(4) 0.6667
Co1A_2 Co 0.68476(3) 0.00000(4) -0.3333
Co1B_2 Co 0.00000(4) -0.31524(3) -0.6667
Co2C Co 0.27655(3) 0.38910(3) -0.19119(6)
Co2D Co 0.11255(4) 0.72345(3) 0.14214(6)
Co2A Co -0.27655(3) 0.11255(4) 0.85786(6)
Co2A_2 Co 0.72345(3) 0.11255(4) -0.14214(6)
Co2D_2 Co 0.11255(4) -0.27655(3) -0.85786(6)
O1C O 0.2762(2) 0.3331(2) -0.3041(3)
O2C O 0.31261(16) 0.32708(18) -0.1574(3)
O3C O 0.65072(19) 0.1074(2) -0.2046(4)
O3D O 0.45668(28) 0.34928(19) 0.1287(4)
O3A O 0.34928(19) 0.45668(28) -0.1287(4)
O4C O 0.65468(17) 0.06418(17) -0.3509(3)
O4A O 0.34532(17) 0.40950(24) 0.0176(3)
O4D O 0.40950(24) 0.34532(17) -0.0176(3)
O5C O 0.13993(18) -0.20732(19) -0.7640(3)
O5B O 0.34725(26) 0.20732(19) 0.0973(3)
O5E O 0.20732(19) 0.34725(26) -0.0973(3)
O6C O 0.06797(16) -0.22292(16) -0.6508(3)
O6B O 0.29089(23) 0.22292(16) -0.0159(3)
O6E O 0.22292(16) 0.29089(23) 0.0159(3)
C1C C 0.2989(2) 0.3088(3) -0.2471(4)
C2C C 0.3100(3) 0.2605(3) -0.2888(4)
C3C C 0.2820(3) 0.2299(3) -0.3737(5)
H1C H 0.2560 0.2402 -0.4096
C4C C 0.2907(3) 0.1825(3) -0.4105(5)
H2C H 0.2697 0.1606 -0.4696
C5C C 0.3295(3) 0.1680(3) -0.3607(4)
C6C C 0.3599(2) 0.2025(2) -0.2735(4)
H3C H 0.3879 0.1944 -0.2390
C7C C 0.3500(2) 0.2473(2) -0.2378(4)
H4C H 0.3704 0.2693 -0.1784
C8C C 0.6316(2) 0.0850(2) -0.2931(5)
C9C C 0.5746(2) 0.0844(2) -0.3261(5)
C10C C 0.5481(3) 0.1090(3) -0.2642(5)
H5C H 0.5679 0.1285 -0.2027
C11C C 0.4946(3) 0.1062(3) -0.2889(5)
H6C H 0.4770 0.1223 -0.2440
C12C C 0.4656(2) 0.0792(2) -0.3821(5)
C13C C 0.4930(3) 0.0566(3) -0.4453(4)
H7C H 0.4752 0.0394 -0.5091
C14C C 0.5463(3) 0.0587(3) -0.4164(5)
H8C H 0.5638 0.0420 -0.4603
C15C C 0.1199(2) -0.1940(3) -0.6885(4)
C16C C 0.1660(2) -0.1368(2) -0.6329(4)
C17C C 0.2286(3) -0.1117(3) -0.6591(5)
H9C H 0.2404 -0.1301 -0.7101
C18C C 0.2707(3) -0.0613(3) -0.6100(6)
H10C H 0.3119 -0.0446 -0.6291
C19C C 0.2567(3) -0.0329(3) -0.5334(4)
C20C C 0.1941(2) -0.0589(3) -0.5087(5)
H11C H 0.1823 -0.0412 -0.4562
C21C C 0.1501(2) -0.1096(2) -0.5599(4)
H12C H 0.1085 -0.1253 -0.5438
C22C C 0.3382(2) 0.1184(3) -0.3944(4)
C23C C 0.3951(2) 0.1204(2) -0.3769(5)
H13C H 0.4267 0.1549 -0.3436
C24C C 0.4060(2) 0.0740(3) -0.4069(4)
C25C C 0.3608(3) 0.0249(3) -0.4568(5)
H14C H 0.3675 -0.0071 -0.4774
C26C C 0.2952(3) 0.0679(3) -0.4454(4)
H15C H 0.2572 0.0650 -0.4589
C27C C 0.3040(2) 0.0208(3) -0.4785(4)
O7C O 0.2447(3) 0.4407(2) -0.2547(4)
N1C N 0.1638(6) 0.4574(6) -0.2685(11)
C28C C 0.1913(6) 0.4241(6) -0.2768(9)
C29C C 0.1560(9) 0.3623(8) -0.3187(16)
H16C H 0.1380 0.3638 -0.3838
H17C H 0.1237 0.3367 -0.2709
H18C H 0.1827 0.3455 -0.3292
C30C C 0.1024(8) 0.4360(10) -0.3009(18)
H19C H 0.1027 0.4566 -0.3641
H20C H 0.0807 0.4448 -0.2480
H21C H 0.0821 0.3922 -0.3126
C31C C 0.1935(9) 0.5182(8) -0.2207(19)
H22C H 0.2320 0.5266 -0.1901
H23C H 0.1670 0.5195 -0.1679
H24C H 0.2012 0.5489 -0.2726
C32? C 0.4575(5) 0.2399(7) 0.3352(10)
C33? C 0.4209(16) 0.2347(18) 0.4277(18)
C34? C 0.5350(19) 0.239(2) 0.448(2)
C35? C 0.5467(16) 0.249(2) 0.254(2)
H25? H 0.4110 0.2673 0.4274
H26? H 0.4443 0.2380 0.4890
H27? H 0.3833 0.1954 0.4273
H28? H 0.5738 0.2398 0.4419
H29? H 0.5057 0.2017 0.4834
H30? H 0.5408 0.2742 0.4871
H31? H 0.5352 0.2693 0.2036
H32? H 0.5379 0.2092 0.2279
H33? H 0.5902 0.2734 0.2688
N2? N 0.5123(6) 0.2402(8) 0.3479(13)
loop_
_geom_bond_atom_site_label_1
_geom_bond_atom_site_label_2
_geom_bond_site_symmetry_1
_geom_bond_site_symmetry_2
Co1 O2 1_555 1_555
Co2 O1 1_555 1_555
O1 C1 1_555 1_555
O2 Co2 1_555 1_555
O3 C8 1_555 1_555
O4 C8 1_555 1_555
O5 C15 1_555 1_555
O6 C15 1_555 1_555
C1 O2 1_555 1_555
C2 C1 1_555 1_555
C3 C2 1_555 1_555
H1 C3 1_555 1_555
C4 C3 1_555 1_555
H2 C4 1_555 1_555
C5 C4 1_555 1_555
C6 C5 1_555 1_555
H3 C6 1_555 1_555
C7 C2 1_555 1_555
H4 C7 1_555 1_555
C8 C9 1_555 1_555
C9 C10 1_555 1_555
C10 H5 1_555 1_555
C11 C10 1_555 1_555
H6 C11 1_555 1_555
C12 C11 1_555 1_555
C13 C12 1_555 1_555
H7 C13 1_555 1_555
C14 C9 1_555 1_555
H8 C14 1_555 1_555
C15 C16 1_555 1_555
C16 C17 1_555 1_555
C17 H9 1_555 1_555
C18 C17 1_555 1_555
H10 C18 1_555 1_555
C19 C18 1_555 1_555
C20 C19 1_555 1_555
H11 C20 1_555 1_555
C21 C16 1_555 1_555
H12 C21 1_555 1_555
C22 C5 1_555 1_555
C23 C22 1_555 1_555
H13 C23 1_555 1_555
C24 C12 1_555 1_555
C25 C24 1_555 1_555
H14 C25 1_555 1_555
C26 C22 1_555 1_555
H15 C26 1_555 1_555
C27 C19 1_555 1_555
O7 Co2 1_555 1_555
N1 C28 1_555 1_555
C28 O7 1_555 1_555
C29 C28 1_555 1_555
H16 C29 1_555 1_555
H17 C29 1_555 1_555
H18 C29 1_555 1_555
C30 N1 1_555 1_555
H19 C30 1_555 1_555
H20 C30 1_555 1_555
H21 C30 1_555 1_555
C31 N1 1_555 1_555
H22 C31 1_555 1_555
H23 C31 1_555 1_555
H24 C31 1_555 1_555
Co1B O4 1_555 1_555
Co1A O6 1_555 1_555
Co1A_2 O4C 1_555 1_555
Co1B_2 O6C 1_555 1_555
Co2C O1C 1_555 1_555
Co2D O3 1_555 1_555
Co2A O5 1_555 1_555
Co2A_2 O3C 1_555 1_555
Co2D_2 O5C 1_555 1_555
O1C C1C 1_555 1_555
O2C Co1 1_555 1_555
O3C C8C 1_555 1_555
O3D Co2 1_555 1_555
O3A Co2C 1_555 1_555
O4C C8C 1_555 1_555
O4A Co1 1_555 1_555
O4D Co1 1_555 1_555
O5C C15C 1_555 1_555
O5B Co2 1_555 1_555
O5E Co2C 1_555 1_555
O6C C15C 1_555 1_555
O6B Co1 1_555 1_555
O6E Co1 1_555 1_555
C1C O2C 1_555 1_555
C2C C1C 1_555 1_555
C3C C2C 1_555 1_555
H1C C3C 1_555 1_555
C4C C3C 1_555 1_555
H2C C4C 1_555 1_555
C5C C4C 1_555 1_555
C6C C5C 1_555 1_555
H3C C6C 1_555 1_555
C7C C2C 1_555 1_555
H4C C7C 1_555 1_555
C8C C9C 1_555 1_555
C9C C10C 1_555 1_555
C10C H5C 1_555 1_555
C11C C10C 1_555 1_555
H6C C11C 1_555 1_555
C12C C11C 1_555 1_555
C13C C12C 1_555 1_555
H7C C13C 1_555 1_555
C14C C9C 1_555 1_555
H8C C14C 1_555 1_555
C15C C16C 1_555 1_555
C16C C17C 1_555 1_555
C17C H9C 1_555 1_555
C18C C17C 1_555 1_555
H10C C18C 1_555 1_555
C19C C18C 1_555 1_555
C20C C19C 1_555 1_555
H11C C20C 1_555 1_555
C21C C16C 1_555 1_555
H12C C21C 1_555 1_555
C22C C5C 1_555 1_555
C23C C22C 1_555 1_555
H13C C23C 1_555 1_555
C24C C12C 1_555 1_555
C25C C24C 1_555 1_555
H14C C25C 1_555 1_555
C26C C22C 1_555 1_555
H15C C26C 1_555 1_555
C27C C19C 1_555 1_555
O7C Co2C 1_555 1_555
N1C C28C 1_555 1_555
C28C O7C 1_555 1_555
C29C C28C 1_555 1_555
H16C C29C 1_555 1_555
H17C C29C 1_555 1_555
H18C C29C 1_555 1_555
C30C N1C 1_555 1_555
H19C C30C 1_555 1_555
H20C C30C 1_555 1_555
H21C C30C 1_555 1_555
C31C N1C 1_555 1_555
H22C C31C 1_555 1_555
H23C C31C 1_555 1_555
H24C C31C 1_555 1_555
C6 C7 1_555 1_555
C13 C14 1_555 1_555
C20 C21 1_555 1_555
C23 C24 1_555 1_555
C25 C27 1_555 1_555
C26 C27 1_555 1_555
Co2C O2C 1_555 1_555
C6C C7C 1_555 1_555
C13C C14C 1_555 1_555
C20C C21C 1_555 1_555
C23C C24C 1_555 1_555
C25C C27C 1_555 1_555
C26C C27C 1_555 1_555

#END
