
#######################################################################
#
#                 Cambridge Crystallographic Data Centre
#                                CCDC 
#
#######################################################################
#
# If this CIF has been generated from an entry in the Cambridge 
# Structural Database, then it will include bibliographic, chemical, 
# crystal, experimental, refinement or atomic coordinate data resulting 
# from the CCDC's data processing and validation procedures.
#
#######################################################################

data_HIMSAY
_chemical_formula_moiety         '(C34 H16 N10 Zn1)n,n(C6 H6)'
_chemical_name_systematic        
"catena-((\m~4~-1,2-bis(4-(Dicyanomethylidenyl)phenyl)-1,1,2,2-tetracyanoethane)-(\m~2~-4,4'-bipyridine)-zinc(ii) benzene clathrate)"
_symmetry_cell_setting           orthorhombic
_symmetry_space_group_name_H-M   'P c c m'
_symmetry_Int_Tables_number      49
_space_group_name_Hall           '-P 2 2c'
loop_
_symmetry_equiv_pos_site_id
_symmetry_equiv_pos_as_xyz
1 x,y,z
2 x,-y,1/2-z
3 -x,y,1/2-z
4 -x,-y,z
5 -x,-y,-z
6 -x,y,1/2+z
7 x,-y,1/2+z
8 x,y,-z
_cell_length_a                   11.361(5)
_cell_length_b                   12.645(6)
_cell_length_c                   14.775(7)
_cell_angle_alpha                90
_cell_angle_beta                 90
_cell_angle_gamma                90
_cell_volume                     2122.57
_exptl_crystal_colour            colorless
_exptl_crystal_description       prism
_cell_formula_units_Z            2
loop_
_atom_site_label
_atom_site_type_symbol
_atom_site_fract_x
_atom_site_fract_y
_atom_site_fract_z
Zn1 Zn 0.5000 0.0000 0.2500
N1 N 0.49952(13) 0.11975(9) 0.14743(7)
N2 N 0.0937(2) 0.64168(18) 0.14269(16)
N3 N 0.31054(11) 0.0000 0.2500
C1 C 0.46310(10) 0.15200(10) 0.08013(9)
C2 C 0.41707(17) 0.19236(16) 0.0000
C3 C 0.32557(18) 0.27193(17) 0.0000
C4 C 0.28025(14) 0.31211(14) 0.08104(10)
C5 C 0.19887(16) 0.39254(16) 0.08103(12)
C6 C 0.1583(2) 0.4342(2) 0.0000
C7 C 0.0667(2) 0.52194(18) 0.0000
C8 C 0.08087(17) 0.59107(15) 0.08084(16)
C9 C 0.24990(11) 0.08808(11) 0.26663(9)
C10 C 0.12820(11) 0.09183(11) 0.26669(10)
C11 C 0.06535(12) 0.0000 0.2500
H1 H 0.3062 0.2833 0.1370
H2 H 0.1704 0.4201 0.1367
H3 H 0.2922 0.1512 0.2792
H4 H 0.0883 0.1565 0.2780
Zn1E Zn 0.5000 0.0000 -0.2500
Zn1E_2 Zn -0.5000 1.0000 -0.2500
Zn1_2 Zn -0.5000 1.0000 0.2500
Zn1_3 Zn -0.5000 0.0000 0.2500
N1G N 0.49952(13) 0.11975(9) -0.14743(7)
N1D N -0.49952(13) 0.88025(9) -0.14743(7)
N1C N -0.49952(13) 0.88025(9) 0.14743(7)
N1A N 0.49952(13) -0.11975(9) 0.35257(7)
N1B N 0.50048(13) 0.11975(9) 0.35257(7)
N1C_2 N 0.50048(13) -0.11975(9) 0.14743(7)
N2D N -0.0937(2) 0.35832(18) -0.14269(16)
N2C N -0.0937(2) 0.35832(18) 0.14269(16)
N2G N 0.0937(2) 0.64168(18) -0.14269(16)
N3B N -0.31054(11) 0.0000 0.2500
N3B_2 N 0.68946(11) 0.0000 0.2500
C1G C 0.46310(10) 0.15200(10) -0.08013(9)
C1D C -0.46310(10) 0.84800(10) -0.08013(9)
C1C C -0.46310(10) 0.84800(10) 0.08013(9)
C2D C -0.41707(17) 0.80764(16) 0.0000
C3D C -0.32557(18) 0.72807(17) 0.0000
C4G C 0.28025(14) 0.31211(14) -0.08104(10)
C4D C -0.28025(14) 0.68789(14) -0.08104(10)
C4C C -0.28025(14) 0.68789(14) 0.08104(10)
C5G C 0.19887(16) 0.39254(16) -0.08103(12)
C5D C -0.19887(16) 0.60746(16) -0.08103(12)
C5C C -0.19887(16) 0.60746(16) 0.08103(12)
C6D C -0.1583(2) 0.5658(2) 0.0000
C7D C -0.0667(2) 0.47806(18) 0.0000
C8D C -0.08087(17) 0.40893(15) -0.08084(16)
C8C C -0.08087(17) 0.40893(15) 0.08084(16)
C8G C 0.08087(17) 0.59107(15) -0.08084(16)
C9A C 0.24990(11) -0.08808(11) 0.23337(9)
C9B C -0.24990(11) 0.08808(11) 0.23337(9)
C9C C -0.24990(11) -0.08808(11) 0.26663(9)
C10A C 0.12820(11) -0.09183(11) 0.23331(10)
C10B C -0.12820(11) 0.09183(11) 0.23331(10)
C10C C -0.12820(11) -0.09183(11) 0.26669(10)
C11B C -0.06535(12) 0.0000 0.2500
H1C H -0.3062 0.7167 0.1370
H1D H -0.3062 0.7167 -0.1370
H1G H 0.3062 0.2833 -0.1370
H2G H 0.1704 0.4201 -0.1367
H2D H -0.1704 0.5799 -0.1367
H2C H -0.1704 0.5799 0.1367
H3A H 0.2922 -0.1512 0.2208
H3C H -0.2922 -0.1512 0.2792
H3B H -0.2922 0.1512 0.2208
H4A H 0.0883 -0.1565 0.2220
H4C H -0.0883 -0.1565 0.2780
H4B H -0.0883 0.1565 0.2220
C12 C 0.1178(8) 0.0267(6) 0.000000(10)
C13 C 0.0302(9) 0.1038(5) 0.000000(10)
C14 C 0.0800(8) -0.0832(6) 0.000000(10)
H5 H 0.1980 0.0479 0.0000
H6 H 0.0514 0.1765 0.0000
H7 H 0.1383 -0.1370 0.0000
C12D C -0.1178(8) -0.0267(6) 0.000000(10)
C13D C -0.0302(9) -0.1038(5) 0.000000(10)
C14D C -0.0800(8) 0.0832(6) 0.000000(10)
H5D H -0.1980 -0.0479 0.0000
H6D H -0.0514 -0.1765 0.0000
H7D H -0.1383 0.1370 0.0000
loop_
_geom_bond_atom_site_label_1
_geom_bond_atom_site_label_2
_geom_bond_site_symmetry_1
_geom_bond_site_symmetry_2
Zn1 N1 1_555 1_555
N1 C1 1_555 1_555
N2 C8 1_555 1_555
N3 Zn1 1_555 1_555
C1 C2 1_555 1_555
C2 C3 1_555 1_555
C3 C4 1_555 1_555
C4 C5 1_555 1_555
C5 C6 1_555 1_555
C6 C7 1_555 1_555
C7 C8 1_555 1_555
C9 N3 1_555 1_555
C10 C9 1_555 1_555
C11 C10 1_555 1_555
C12 C13 1_555 1_555
C13 H6 1_555 1_555
C14 C12 1_555 1_555
H1 C4 1_555 1_555
H2 C5 1_555 1_555
H3 C9 1_555 1_555
H4 C10 1_555 1_555
H5 C12 1_555 1_555
H7 C14 1_555 1_555
Zn1E N1G 1_555 1_555
Zn1E_2 N1D 1_555 1_555
Zn1_2 N1C 1_555 1_555
Zn1_3 N3B 1_555 1_555
N1G C1G 1_555 1_555
N1D C1D 1_555 1_555
N1C C1C 1_555 1_555
N1A Zn1 1_555 1_555
N1B Zn1 1_555 1_555
N1C_2 Zn1 1_555 1_555
N2D C8D 1_555 1_555
N2C C8C 1_555 1_555
N2G C8G 1_555 1_555
N3B C9B 1_555 1_555
N3B_2 Zn1 1_555 1_555
C1G C2 1_555 1_555
C1D C2D 1_555 1_555
C1C C2D 1_555 1_555
C2D C3D 1_555 1_555
C3D C4D 1_555 1_555
C4G C3 1_555 1_555
C4D C5D 1_555 1_555
C4C C3D 1_555 1_555
C5G C6 1_555 1_555
C5D C6D 1_555 1_555
C5C C4C 1_555 1_555
C6D C5C 1_555 1_555
C7D C7 1_555 1_555
C8D C7D 1_555 1_555
C8C C7D 1_555 1_555
C8G C7 1_555 1_555
C9A N3 1_555 1_555
C9B C10B 1_555 1_555
C9C N3B 1_555 1_555
C10A C11 1_555 1_555
C10B C11B 1_555 1_555
C10C C9C 1_555 1_555
C11B C11 1_555 1_555
C12D C13D 1_555 1_555
C13D C14 1_555 1_555
C14D C13 1_555 1_555
H1C C4C 1_555 1_555
H1D C4D 1_555 1_555
H1G C4G 1_555 1_555
H2G C5G 1_555 1_555
H2D C5D 1_555 1_555
H2C C5C 1_555 1_555
H3A C9A 1_555 1_555
H3C C9C 1_555 1_555
H3B C9B 1_555 1_555
H4A C10A 1_555 1_555
H4C C10C 1_555 1_555
H4B C10B 1_555 1_555
H5D C12D 1_555 1_555
H6D C13D 1_555 1_555
H7D C14D 1_555 1_555
C4G C5G 1_555 1_555
C6D C7D 1_555 1_555
C9A C10A 1_555 1_555
C10C C11B 1_555 1_555
C12D C14D 1_555 1_555

#END
