
#######################################################################
#
#                 Cambridge Crystallographic Data Centre
#                                CCDC 
#
#######################################################################
#
# If this CIF has been generated from an entry in the Cambridge 
# Structural Database, then it will include bibliographic, chemical, 
# crystal, experimental, refinement or atomic coordinate data resulting 
# from the CCDC's data processing and validation procedures.
#
#######################################################################

data_EKIGIQ
_chemical_formula_moiety         '(C12 H10 Cd1 N8 O2)n,n(C2 H6 O1)'
_chemical_name_systematic        
'catena-[bis(\m-5-methyl[1,2,4]triazolo[1,5-a]pyrimidin-7-olato)-cadmium ethanol solvate]'
_symmetry_cell_setting           tetragonal
_symmetry_space_group_name_H-M   'I 41/a'
_symmetry_Int_Tables_number      88
_space_group_name_Hall           '-I 4ad'
loop_
_symmetry_equiv_pos_site_id
_symmetry_equiv_pos_as_xyz
1 x,y,z
2 1/2-x,-y,1/2+z
3 3/4-y,1/4+x,1/4+z
4 3/4+y,3/4-x,3/4+z
5 1/2+x,1/2+y,1/2+z
6 -x,1/2-y,z
7 1/4-y,3/4+x,3/4+z
8 1/4+y,1/4-x,1/4+z
9 -x,-y,-z
10 1/2+x,y,1/2-z
11 1/4+y,3/4-x,3/4-z
12 1/4-y,1/4+x,1/4-z
13 1/2-x,1/2-y,1/2-z
14 x,1/2+y,-z
15 3/4+y,1/4-x,1/4-z
16 3/4-y,3/4+x,3/4-z
_cell_length_a                   17.3655(15)
_cell_length_b                   17.3655(15)
_cell_length_c                   11.5508(9)
_cell_angle_alpha                90
_cell_angle_beta                 90
_cell_angle_gamma                90
_cell_volume                     3483.27
_exptl_crystal_colour            colorless
_exptl_crystal_description       block
_cell_formula_units_Z            8
loop_
_atom_site_label
_atom_site_type_symbol
_atom_site_fract_x
_atom_site_fract_y
_atom_site_fract_z
_atom_site_U_iso_or_equiv
_atom_site_thermal_displace_type
Cd1 Cd 0.0000 0.5000 1.0000 0.0280 Uani
N1 N 0.16724(15) 0.32986(15) 1.1408(2) 0.0305 Uani
N2 N 0.10450(16) 0.42141(16) 1.0388(2) 0.0346 Uani
N3 N 0.17912(16) 0.41082(17) 0.8620(2) 0.0359 Uani
N4 N 0.19738(14) 0.33576(15) 1.0314(2) 0.0272 Uani
O1 O 0.29064(14) 0.24463(13) 1.0572(2) 0.0373 Uani
C1 C 0.11265(19) 0.38225(19) 1.1389(3) 0.0354 Uani
H1 H 0.0815 0.3918 1.2028 0.0420 Uiso
C2 C 0.2388(2) 0.3702(2) 0.8180(3) 0.0384 Uani
C3 C 0.2781(2) 0.3134(2) 0.8768(3) 0.0374 Uani
H2 H 0.3179 0.2874 0.8395 0.0450 Uiso
C4 C 0.25981(18) 0.29375(19) 0.9907(3) 0.0299 Uani
C5 C 0.2621(3) 0.3920(3) 0.6965(3) 0.0603 Uani
H3 H 0.2233 0.3749 0.6431 0.0910 Uiso
H4 H 0.3103 0.3679 0.6779 0.0910 Uiso
H5 H 0.2674 0.4469 0.6913 0.0910 Uiso
C6 C 0.16039(18) 0.39193(18) 0.9695(3) 0.0296 Uani
N1H N -0.16724(15) 0.67014(15) 0.8592(2) 0.0305 Uani
N2H N -0.10450(16) 0.57859(16) 0.9612(2) 0.0346 Uani
N3H N -0.17912(16) 0.58918(17) 1.1380(2) 0.0359 Uani
N4H N -0.19738(14) 0.66424(15) 0.9686(2) 0.0272 Uani
O1H O -0.29064(14) 0.75537(13) 0.9428(2) 0.0373 Uani
C1H C -0.11265(19) 0.61775(19) 0.8611(3) 0.0354 Uani
H1H H -0.0815 0.6082 0.7972 0.0420 Uiso
C2H C -0.2388(2) 0.6298(2) 1.1820(3) 0.0384 Uani
C3H C -0.2781(2) 0.6866(2) 1.1232(3) 0.0374 Uani
H2H H -0.3179 0.7126 1.1605 0.0450 Uiso
C4H C -0.25981(18) 0.70625(19) 1.0093(3) 0.0299 Uani
C5H C -0.2621(3) 0.6080(3) 1.3035(3) 0.0603 Uani
H3H H -0.2233 0.6251 1.3569 0.0910 Uiso
H4H H -0.3103 0.6321 1.3221 0.0910 Uiso
H5H H -0.2674 0.5531 1.3087 0.0910 Uiso
C6H C -0.16039(18) 0.60807(18) 1.0305(3) 0.0296 Uani
Cd1B Cd 0.2500 0.2500 1.2500 0.0280 Uani
Cd1F Cd -0.2500 0.7500 0.7500 0.0280 Uani
N1C N 0.07986(15) 0.58276(15) 0.8908(2) 0.0305 Uani
N1K N -0.07986(15) 0.41724(15) 1.1092(2) 0.0305 Uani
O1C O -0.00537(13) 0.45936(14) 0.8072(2) 0.0373 Uani
O1K O 0.00537(13) 0.54064(14) 1.1928(2) 0.0373 Uani
O2? O 0.9314(6) 0.3095(6) 0.8496(12) 0.1343 Uani
H6? H 0.9521 0.3505 0.8336 0.1610 Uiso
C7? C 0.9660(9) 0.2502(11) 0.7862(14) 0.1257 Uani
H7? H 0.9867 0.2639 0.7119 0.1510 Uiso
H8? H 0.9329 0.2061 0.7803 0.1510 Uiso
C8? C 1.0265(11) 0.2420(11) 0.8782(18) 0.1507 Uani
H9? H 1.0610 0.2005 0.8603 0.2260 Uiso
H10? H 1.0549 0.2893 0.8832 0.2260 Uiso
H11? H 1.0016 0.2320 0.9509 0.2260 Uiso
loop_
_atom_site_aniso_label
_atom_site_aniso_U_11
_atom_site_aniso_U_22
_atom_site_aniso_U_33
_atom_site_aniso_U_23
_atom_site_aniso_U_13
_atom_site_aniso_U_12
Cd1 0.0250(2) 0.0296(2) 0.0294(2) 0.00920(13) 0.00487(13) 0.00363(13)
N1 0.03 0.0343 0.0272 0.0059 0.0004 0.0034
N2 0.0325(15) 0.0386(16) 0.0326(14) 0.0092(12) 0.0019(12) 0.0098(12)
N3 0.0386(16) 0.0428(17) 0.0262(14) 0.0082(12) 0.0005(12) 0.0062(13)
N4 0.0266 0.0301 0.0248 0.0032 -0.0026 0.0014
O1 0.0394 0.0351 0.0373 0.0044 -0.0009 0.0132
C1 0.0324(18) 0.042(2) 0.0317(17) 0.0079(15) 0.0032(14) 0.0078(16)
C2 0.043(2) 0.046(2) 0.0263(17) 0.0003(15) 0.0002(15) 0.0035(17)
C3 0.0408 0.042 0.0294 -0.0028 0.0048 0.0111
C4 0.0294 0.0284 0.0318 -0.0021 -0.0027 0.0038
C5 0.074(3) 0.074(3) 0.033(2) 0.011(2) 0.014(2) 0.022(2)
C6 0.0282(17) 0.0303(17) 0.0303(16) 0.0022(13) -0.0053(13) 0.0026(14)
N1H 0.03 0.0343 0.0272 0.0059 0.0004 0.0034
N2H 0.0325 0.0386 0.0326 0.0092 0.0019 0.0098
N3H 0.0386 0.0428 0.0262 0.0082 0.0005 0.0062
N4H 0.0266 0.0301 0.0248 0.0032 -0.0026 0.0014
O1H 0.0394 0.0351 0.0373 0.0044 -0.0009 0.0132
C1H 0.0324 0.042 0.0317 0.0079 0.0032 0.0078
C2H 0.043 0.046 0.0263 0.0003 0.0002 0.0035
C3H 0.0408 0.042 0.0294 -0.0028 0.0048 0.0111
C4H 0.0294 0.0284 0.0318 -0.0021 -0.0027 0.0038
C5H 0.074 0.074 0.033 0.011 0.014 0.022
C6H 0.0282 0.0303 0.0303 0.0022 -0.0053 0.0026
Cd1B 0.0296 0.025 0.0294 0.00487 -0.0092 -0.00363
Cd1F 0.0296 0.025 0.0294 0.00487 -0.0092 -0.00363
N1C 0.0343 0.03 0.0272 -0.0004 0.0059 -0.0034
N1K 0.0343 0.03 0.0272 -0.0004 0.0059 -0.0034
O1C 0.0351 0.0394 0.0373 0.0009 0.0044 -0.0132
O1K 0.0351 0.0394 0.0373 0.0009 0.0044 -0.0132
O2? 0.093(7) 0.096(7) 0.214(13) 0.010(8) 0.027(8) -0.009(6)
C7? 0.129(15) 0.126(14) 0.122(12) -0.033(13) -0.002(11) -0.004(15)
C8? 0.15(2) 0.072(11) 0.23(2) -0.055(14) -0.101(18) 0.046(13)
loop_
_geom_bond_atom_site_label_1
_geom_bond_atom_site_label_2
_geom_bond_site_symmetry_1
_geom_bond_site_symmetry_2
Cd1 N2 1_555 1_555
N1 N4 1_555 1_555
N2 C1 1_555 1_555
N3 C2 1_555 1_555
N4 C4 1_555 1_555
O1 C4 1_555 1_555
C1 N1 1_555 1_555
H1 C1 1_555 1_555
C2 C3 1_555 1_555
C3 H2 1_555 1_555
C4 C3 1_555 1_555
C5 C2 1_555 1_555
H3 C5 1_555 1_555
H4 C5 1_555 1_555
H5 C5 1_555 1_555
C6 N2 1_555 1_555
N1H N4H 1_555 1_555
N2H Cd1 1_555 1_555
N3H C2H 1_555 1_555
N4H C4H 1_555 1_555
O1H C4H 1_555 1_555
C1H N1H 1_555 1_555
H1H C1H 1_555 1_555
C2H C3H 1_555 1_555
C3H H2H 1_555 1_555
C4H C3H 1_555 1_555
C5H C2H 1_555 1_555
H3H C5H 1_555 1_555
H4H C5H 1_555 1_555
H5H C5H 1_555 1_555
C6H N2H 1_555 1_555
Cd1B N1 1_555 1_555
Cd1F N1H 1_555 1_555
N1C Cd1 1_555 1_555
N1K Cd1 1_555 1_555
O1C Cd1 1_555 1_555
O1K Cd1 1_555 1_555
N3 C6 1_555 1_555
N4 C6 1_555 1_555
O1 Cd1B 1_555 1_555
N2H C1H 1_555 1_555
N3H C6H 1_555 1_555
N4H C6H 1_555 1_555
O1H Cd1F 1_555 1_555

#END
