
#######################################################################
#
#                 Cambridge Crystallographic Data Centre
#                                CCDC 
#
#######################################################################
#
# If this CIF has been generated from an entry in the Cambridge 
# Structural Database, then it will include bibliographic, chemical, 
# crystal, experimental, refinement or atomic coordinate data resulting 
# from the CCDC's data processing and validation procedures.
#
#######################################################################

data_EKIGOW
_chemical_formula_moiety         '(C12 H10 Mn1 N8 O2)n,n(C2 H6 O1)'
_chemical_name_systematic        
'catena-[bis(\m-5-methyl[1,2,4]triazolo[1,5-a]pyrimidin-7-olato)-manganese ethanol solvate]'
_symmetry_cell_setting           tetragonal
_symmetry_space_group_name_H-M   'I 41/a'
_symmetry_Int_Tables_number      88
_space_group_name_Hall           '-I 4ad'
loop_
_symmetry_equiv_pos_site_id
_symmetry_equiv_pos_as_xyz
1 x,y,z
2 1/2-x,-y,1/2+z
3 3/4-y,1/4+x,1/4+z
4 3/4+y,3/4-x,3/4+z
5 1/2+x,1/2+y,1/2+z
6 -x,1/2-y,z
7 1/4-y,3/4+x,3/4+z
8 1/4+y,1/4-x,1/4+z
9 -x,-y,-z
10 1/2+x,y,1/2-z
11 1/4+y,3/4-x,3/4-z
12 1/4-y,1/4+x,1/4-z
13 1/2-x,1/2-y,1/2-z
14 x,1/2+y,-z
15 3/4+y,1/4-x,1/4-z
16 3/4-y,3/4+x,3/4-z
_cell_length_a                   17.1232(4)
_cell_length_b                   17.1232(4)
_cell_length_c                   11.3086(5)
_cell_angle_alpha                90
_cell_angle_beta                 90
_cell_angle_gamma                90
_cell_volume                     3315.73
_exptl_crystal_colour            red
_exptl_crystal_description       block
_cell_formula_units_Z            8
loop_
_atom_site_label
_atom_site_type_symbol
_atom_site_fract_x
_atom_site_fract_y
_atom_site_fract_z
_atom_site_U_iso_or_equiv
_atom_site_thermal_displace_type
Mn1 Mn 1.0000 0.5000 1.0000 0.0135 Uani
N1 N 0.83219(18) 0.33059(18) 1.1482(2) 0.0153 Uani
N2 N 0.89788(18) 0.42200(18) 1.0417(3) 0.0163 Uani
N3 N 0.82138(19) 0.40994(19) 0.8623(3) 0.0193 Uani
N4 N 0.80293(17) 0.33583(18) 1.0350(2) 0.0139 Uani
O1 O 0.70792(15) 0.24572(15) 1.0665(2) 0.0171 Uani
C1 C 0.8887(2) 0.3833(2) 1.1454(3) 0.0173 Uani
H1 H 0.9203 0.3932 1.2106 0.0200 Uiso
C2 C 0.8407(2) 0.3917(2) 0.9718(3) 0.0159 Uani
C3 C 0.7610(2) 0.3694(2) 0.8173(3) 0.0199 Uani
C4 C 0.7198(2) 0.3124(2) 0.8789(3) 0.0202 Uani
H2 H 0.6790 0.2863 0.8417 0.0240 Uiso
C5 C 0.7387(2) 0.2936(2) 0.9954(3) 0.0143 Uani
C6 C 0.7380(3) 0.3908(3) 0.6920(3) 0.0333 Uani
H3 H 0.7310 0.4463 0.6865 0.0500 Uiso
H4 H 0.6900 0.3650 0.6719 0.0500 Uiso
H5 H 0.7783 0.3747 0.6384 0.0500 Uiso
N1H N 1.16781(18) 0.66941(18) 0.8518(2) 0.0153 Uani
N2H N 1.10212(18) 0.57800(18) 0.9583(3) 0.0163 Uani
N3H N 1.17862(19) 0.59006(19) 1.1377(3) 0.0193 Uani
N4H N 1.19707(17) 0.66417(18) 0.9650(2) 0.0139 Uani
O1H O 1.29208(15) 0.75428(15) 0.9335(2) 0.0171 Uani
C1H C 1.1113(2) 0.6167(2) 0.8546(3) 0.0173 Uani
H1H H 1.0797 0.6068 0.7894 0.0200 Uiso
C2H C 1.1593(2) 0.6083(2) 1.0282(3) 0.0159 Uani
C3H C 1.2390(2) 0.6306(2) 1.1827(3) 0.0199 Uani
C4H C 1.2802(2) 0.6876(2) 1.1211(3) 0.0202 Uani
H2H H 1.3210 0.7137 1.1583 0.0240 Uiso
C5H C 1.2613(2) 0.7064(2) 1.0046(3) 0.0143 Uani
C6H C 1.2620(3) 0.6092(3) 1.3080(3) 0.0333 Uani
H3H H 1.2690 0.5537 1.3135 0.0500 Uiso
H4H H 1.3100 0.6350 1.3281 0.0500 Uiso
H5H H 1.2217 0.6253 1.3616 0.0500 Uiso
Mn1C Mn 1.2500 0.7500 0.7500 0.0135 Uani
Mn1G Mn 0.7500 0.2500 1.2500 0.0135 Uani
N1F N 0.91941(18) 0.58219(18) 0.8982(2) 0.0153 Uani
N1N N 1.08059(18) 0.41781(18) 1.1018(2) 0.0153 Uani
O1F O 1.00428(15) 0.45792(15) 0.8165(2) 0.0171 Uani
O1N O 0.99572(15) 0.54208(15) 1.1835(2) 0.0171 Uani
O2? O 0.9263(4) 0.6925(4) 0.1637(7) 0.0570 Uani
H6? H 0.9442 0.6527 0.1935 0.0850 Uiso
C7? C 0.9624(7) 0.7517(7) 0.2022(10) 0.0547 Uani
H7? H 0.9865 0.7414 0.2783 0.0650 Uiso
H8? H 0.9292 0.7974 0.2073 0.0650 Uiso
C8? C 1.0204(9) 0.7608(13) 0.1079(12) 0.0697 Uani
H9? H 1.0129 0.7184 0.0536 0.1050 Uiso
H10? H 1.0721 0.7584 0.1403 0.1050 Uiso
H11? H 1.0137 0.8095 0.0670 0.1050 Uiso
loop_
_atom_site_aniso_label
_atom_site_aniso_U_11
_atom_site_aniso_U_22
_atom_site_aniso_U_33
_atom_site_aniso_U_23
_atom_site_aniso_U_13
_atom_site_aniso_U_12
Mn1 0.0130(5) 0.0135(5) 0.0140(4) 0.0035(3) -0.0017(3) -0.0011(3)
N1 0.0161 0.0175 0.0124 0.0006 -0.0006 -0.0007
N2 0.0153(17) 0.0178(17) 0.0159(15) 0.0022(14) -0.0001(13) -0.0028(14)
N3 0.0241(19) 0.0199(18) 0.0140(15) 0.0049(14) 0.0044(14) -0.0064(15)
N4 0.0141 0.0161 0.0115 0.0023 0.0022 -0.0001
O1 0.0167 0.018 0.0165 0 0.0028 -0.0041
C1 0.014 0.02 0.018 0.0009 -0.0009 0.0002
C2 0.017(2) 0.0143(19) 0.0163(18) -0.0006(16) 0.0048(16) 0.0000(16)
C3 0.024(2) 0.021(2) 0.0147(19) -0.0012(16) 0.0004(17) -0.0008(17)
C4 0.023 0.021 0.0167 -0.0017 -0.0045 -0.0057
C5 0.0143 0.015 0.0135 -0.0035 0.0024 -0.0005
C6 0.042(3) 0.041(3) 0.017(2) 0.006(2) -0.007(2) -0.017(2)
N1H 0.0161 0.0175 0.0124 0.0006 -0.0006 -0.0007
N2H 0.0153 0.0178 0.0159 0.0022 -0.0001 -0.0028
N3H 0.0241 0.0199 0.014 0.0049 0.0044 -0.0064
N4H 0.0141 0.0161 0.0115 0.0023 0.0022 -0.0001
O1H 0.0167 0.018 0.0165 0 0.0028 -0.0041
C1H 0.014 0.02 0.018 0.0009 -0.0009 0.0002
C2H 0.017 0.0143 0.0163 -0.0006 0.0048 0
C3H 0.024 0.021 0.0147 -0.0012 0.0004 -0.0008
C4H 0.023 0.021 0.0167 -0.0017 -0.0045 -0.0057
C5H 0.0143 0.015 0.0135 -0.0035 0.0024 -0.0005
C6H 0.042 0.041 0.017 0.006 -0.007 -0.017
Mn1C 0.0135 0.013 0.014 0.0017 0.0035 0.0011
Mn1G 0.0135 0.013 0.014 0.0017 0.0035 0.0011
N1F 0.0175 0.0161 0.0124 -0.0006 -0.0006 0.0007
N1N 0.0175 0.0161 0.0124 -0.0006 -0.0006 0.0007
O1F 0.018 0.0167 0.0165 0.0028 0 0.0041
O1N 0.018 0.0167 0.0165 0.0028 0 0.0041
O2? 0.039(4) 0.036(4) 0.096(6) -0.001(4) -0.003(4) 0.006(4)
C7? 0.073(8) 0.035(6) 0.056(7) 0.005(6) -0.026(6) 0.011(7)
C8? 0.077(17) 0.052(13) 0.080(8) -0.002(9) -0.030(8) 0.017(11)
loop_
_geom_bond_atom_site_label_1
_geom_bond_atom_site_label_2
_geom_bond_site_symmetry_1
_geom_bond_site_symmetry_2
Mn1 N2 1_555 1_555
N1 N4 1_555 1_555
N2 C1 1_555 1_555
N3 C2 1_555 1_555
N4 C2 1_555 1_555
O1 C5 1_555 1_555
C1 N1 1_555 1_555
H1 C1 1_555 1_555
C2 N2 1_555 1_555
C3 N3 1_555 1_555
C4 C3 1_555 1_555
H2 C4 1_555 1_555
C5 N4 1_555 1_555
C6 C3 1_555 1_555
H3 C6 1_555 1_555
H4 C6 1_555 1_555
H5 C6 1_555 1_555
N1H N4H 1_555 1_555
N2H Mn1 1_555 1_555
N3H C2H 1_555 1_555
N4H C2H 1_555 1_555
O1H C5H 1_555 1_555
C1H N1H 1_555 1_555
H1H C1H 1_555 1_555
C2H N2H 1_555 1_555
C3H N3H 1_555 1_555
C4H C3H 1_555 1_555
H2H C4H 1_555 1_555
C5H N4H 1_555 1_555
C6H C3H 1_555 1_555
H3H C6H 1_555 1_555
H4H C6H 1_555 1_555
H5H C6H 1_555 1_555
Mn1C N1H 1_555 1_555
Mn1G N1 1_555 1_555
N1F Mn1 1_555 1_555
N1N Mn1 1_555 1_555
O1F Mn1 1_555 1_555
O1N Mn1 1_555 1_555
O1 Mn1G 1_555 1_555
C4 C5 1_555 1_555
N2H C1H 1_555 1_555
O1H Mn1C 1_555 1_555
C4H C5H 1_555 1_555

#END
