
#######################################################################
#
#                 Cambridge Crystallographic Data Centre
#                                CCDC 
#
#######################################################################
#
# If this CIF has been generated from an entry in the Cambridge 
# Structural Database, then it will include bibliographic, chemical, 
# crystal, experimental, refinement or atomic coordinate data resulting 
# from the CCDC's data processing and validation procedures.
#
#######################################################################

data_IBICON
_chemical_formula_moiety         '(C11 H15 Br1 N2 O2 Zn1)n,2n(H2 O1)'
_chemical_name_systematic        
'catena-((\m~3~-3-Methyl-2-(pyridin-4-ylmethylamino)butanoato)-bromo-zinc dihydrate)'
_symmetry_cell_setting           hexagonal
_symmetry_space_group_name_H-M   'P 65'
_symmetry_Int_Tables_number      170
_space_group_name_Hall           'P 65'
loop_
_symmetry_equiv_pos_site_id
_symmetry_equiv_pos_as_xyz
1 x,y,z
2 x-y,x,5/6+z
3 -y,x-y,2/3+z
4 -x,-y,1/2+z
5 -x+y,-x,1/3+z
6 y,-x+y,1/6+z
_cell_length_a                   17.7786(7)
_cell_length_b                   17.7786(7)
_cell_length_c                   10.4868(18)
_cell_angle_alpha                90
_cell_angle_beta                 90
_cell_angle_gamma                120
_cell_volume                     2870.57
_exptl_crystal_colour            colorless
_exptl_crystal_description       rod
_cell_formula_units_Z            6
loop_
_atom_site_label
_atom_site_type_symbol
_atom_site_fract_x
_atom_site_fract_y
_atom_site_fract_z
_atom_site_U_iso_or_equiv
_atom_site_thermal_displace_type
Br1 Br 1.13126(7) 0.45179(9) 0.08769(13) 0.0696 Uani
Zn1 Zn 1.07043(4) 0.54262(5) 0.07724(6) 0.0210 Uani
O1 O 1.0263(3) 0.5151(3) -0.1180(4) 0.0243 Uani
N1 N 0.6725(3) 0.5178(4) 0.2038(5) 0.0257 Uani
N2 N 0.9406(3) 0.5066(4) 0.0969(4) 0.0206 Uani
H1 H 0.9204 0.4741 0.1690 0.0240 Uiso
C1 C 0.7221(5) 0.5036(5) 0.2862(7) 0.0397 Uani
H2 H 0.6980 0.4769 0.3637 0.0480 Uiso
C2 C 0.7088(5) 0.5595(5) 0.0980(7) 0.0314 Uani
H3 H 0.6764 0.5730 0.0427 0.0380 Uiso
C3 C 0.7946(4) 0.5847(5) 0.0649(7) 0.0331 Uani
H4 H 0.8180 0.6126 -0.0122 0.0400 Uiso
C4 C 0.8433(5) 0.5674(5) 0.1484(7) 0.0316 Uani
C5 C 0.8049(5) 0.5260(5) 0.2612(7) 0.0457 Uani
H5 H 0.8364 0.5137 0.3201 0.0540 Uiso
C6 C 0.9337(4) 0.5868(5) 0.1151(7) 0.0324 Uani
H6 H 0.9520 0.6208 0.0373 0.0380 Uiso
H7 H 0.9731 0.6217 0.1825 0.0380 Uiso
C7 C 0.9473(4) 0.4691(4) -0.1288(6) 0.0214 Uani
C8 C 0.8870(4) 0.4519(4) -0.0124(6) 0.0248 Uani
H8 H 0.8467 0.4723 -0.0354 0.0300 Uiso
C9 C 0.8317(5) 0.3544(5) 0.0177(7) 0.0339 Uani
H9 H 0.8037 0.3254 -0.0623 0.0410 Uiso
C10 C 0.8889(6) 0.3176(6) 0.0587(9) 0.0490 Uani
H10 H 0.9196 0.3463 0.1351 0.0740 Uiso
H11 H 0.9299 0.3269 -0.0077 0.0740 Uiso
H12 H 0.8534 0.2565 0.0746 0.0740 Uiso
C11 C 0.7592(6) 0.3346(7) 0.1121(8) 0.0548 Uani
H13 H 0.7260 0.2731 0.1265 0.0820 Uiso
H14 H 0.7220 0.3545 0.0782 0.0820 Uiso
H15 H 0.7838 0.3637 0.1912 0.0820 Uiso
O3 O 0.9079(3) 0.4299(4) -0.2280(4) 0.0452 Uani
Zn1C Zn 0.92957(4) 0.45738(5) -0.42276(6) 0.0210 Uani
Zn1E Zn 0.54262(5) 0.47219(6) 0.24391(6) 0.0210 Uani
N1A N 1.1547(5) 0.6725(3) 0.0371(5) 0.0257 Uani
O3C O 1.0921(3) 0.5701(4) 0.2720(4) 0.0452 Uani
O2 O 0.0523(5) 0.3127(5) 0.3061(8) 0.0687 Uani
O4 O 0.136(3) 0.206(3) 0.340(3) 0.3020 Uiso
loop_
_atom_site_aniso_label
_atom_site_aniso_U_11
_atom_site_aniso_U_22
_atom_site_aniso_U_33
_atom_site_aniso_U_23
_atom_site_aniso_U_13
_atom_site_aniso_U_12
Br1 0.0630(6) 0.0922(8) 0.0697(7) -0.0017(7) -0.0036(6) 0.0508(6)
Zn1 0.0119(3) 0.0302(4) 0.0138(3) -0.0003(3) 0.0003(3) 0.0053(3)
O1 0.018(2) 0.031(2) 0.015(2) 0.0013(17) 0.0023(16) 0.0055(19)
N1 0.027 0.041 0.021 -0.0011 0.001 0.026
N2 0.020(2) 0.030(3) 0.007(2) -0.0002(19) 0.0026(19) 0.009(2)
C1 0.037 0.08 0.015 0.013 0.006 0.039
C2 0.033 0.044 0.025 0.003 -0.003 0.025
C3 0.039 0.052 0.022 0.005 0.006 0.033
C4 0.032 0.049 0.024 -0.003 -0.001 0.028
C5 0.044 0.097 0.021 0.006 0.005 0.054
C6 0.019(3) 0.042(4) 0.036(4) -0.012(3) -0.005(3) 0.015(3)
C7 0.019(3) 0.022(3) 0.011(3) 0.002(2) 0.002(2) 0.001(2)
C8 0.012(3) 0.036(4) 0.013(3) -0.006(2) -0.003(2) 0.002(3)
C9 0.026(3) 0.035(4) 0.019(3) -0.001(3) 0.001(3) -0.001(3)
C10 0.044(4) 0.041(4) 0.047(5) 0.008(4) 0.005(4) 0.010(4)
C11 0.028(4) 0.066(6) 0.035(4) 0.010(4) 0.013(3) -0.003(4)
O3 0.023(2) 0.065(4) 0.009(2) -0.003(2) -0.0014(17) -0.007(2)
Zn1C 0.0119 0.0302 0.0138 0.0003 -0.0003 0.0053
Zn1E 0.0302 0.0315 0.0138 -0.0006 -0.0003 0.0249
N1A 0.016 0.027 0.021 0.001 0.0021 0.001
O3C 0.023 0.065 0.009 0.003 0.0014 -0.007
O2 0.060(5) 0.070(5) 0.074(5) -0.014(4) -0.018(4) 0.031(4)
loop_
_geom_bond_atom_site_label_1
_geom_bond_atom_site_label_2
_geom_bond_site_symmetry_1
_geom_bond_site_symmetry_2
Br1 Zn1 1_555 1_555
Zn1 O1 1_555 1_555
O1 C7 1_555 1_555
N1 C1 1_555 1_555
N2 Zn1 1_555 1_555
H1 N2 1_555 1_555
C1 H2 1_555 1_555
C2 N1 1_555 1_555
H3 C2 1_555 1_555
C3 C2 1_555 1_555
H4 C3 1_555 1_555
C4 C3 1_555 1_555
C5 C1 1_555 1_555
H5 C5 1_555 1_555
C6 N2 1_555 1_555
H6 C6 1_555 1_555
H7 C6 1_555 1_555
C7 C8 1_555 1_555
C8 N2 1_555 1_555
H8 C8 1_555 1_555
C9 C8 1_555 1_555
H9 C9 1_555 1_555
C10 C9 1_555 1_555
H10 C10 1_555 1_555
H11 C10 1_555 1_555
H12 C10 1_555 1_555
C11 C9 1_555 1_555
H13 C11 1_555 1_555
H14 C11 1_555 1_555
H15 C11 1_555 1_555
O3 C7 1_555 1_555
Zn1C O3 1_555 1_555
Zn1E N1 1_555 1_555
N1A Zn1 1_555 1_555
O3C Zn1 1_555 1_555
C4 C5 1_555 1_555
C4 C6 1_555 1_555

#END
