
#######################################################################
#
#                 Cambridge Crystallographic Data Centre
#                                CCDC 
#
#######################################################################
#
# If this CIF has been generated from an entry in the Cambridge 
# Structural Database, then it will include bibliographic, chemical, 
# crystal, experimental, refinement or atomic coordinate data resulting 
# from the CCDC's data processing and validation procedures.
#
#######################################################################

data_IBIDAA
_chemical_formula_moiety         '(C11 H15 Br1 N2 O2 Zn1)n'
_chemical_name_systematic        
catena-((\m~3~-3-Methyl-2-(pyridin-4-ylmethylamino)butanoato)-bromo-zinc)
_symmetry_cell_setting           hexagonal
_symmetry_space_group_name_H-M   'P 61'
_symmetry_Int_Tables_number      169
_space_group_name_Hall           'P 61'
loop_
_symmetry_equiv_pos_site_id
_symmetry_equiv_pos_as_xyz
1 x,y,z
2 x-y,x,1/6+z
3 -y,x-y,1/3+z
4 -x,-y,1/2+z
5 -x+y,-x,2/3+z
6 y,-x+y,5/6+z
_cell_length_a                   17.8590(10)
_cell_length_b                   17.8590(10)
_cell_length_c                   10.5031(12)
_cell_angle_alpha                90
_cell_angle_beta                 90
_cell_angle_gamma                120
_cell_volume                     2901.1
_exptl_crystal_colour            colorless
_exptl_crystal_description       rod
_cell_formula_units_Z            6
loop_
_atom_site_label
_atom_site_type_symbol
_atom_site_fract_x
_atom_site_fract_y
_atom_site_fract_z
_atom_site_U_iso_or_equiv
_atom_site_thermal_displace_type
Br1 Br 0.54637(8) 0.67742(6) 0.43001(12) 0.0793 Uani
C1 C 0.6631(6) 0.4233(6) 0.4087(8) 0.0604 Uani
H1 H 0.6365 0.4207 0.3282 0.0900 Uiso
H2 H 0.6397 0.3660 0.4426 0.0900 Uiso
H3 H 0.7244 0.4485 0.3974 0.0900 Uiso
C2 C 0.6453(4) 0.4782(5) 0.5007(5) 0.0349 Uani
H4 H 0.6756 0.4814 0.5800 0.0420 Uiso
C3 C 0.6786(6) 0.5679(8) 0.4572(11) 0.0791 Uani
H5 H 0.7403 0.5962 0.4487 0.1190 Uiso
H6 H 0.6638 0.5984 0.5182 0.1190 Uiso
H7 H 0.6534 0.5675 0.3763 0.1190 Uiso
C4 C 0.5483(3) 0.4351(4) 0.5335(4) 0.0289 Uani
H8 H 0.5285 0.3752 0.5584 0.0340 Uiso
C5 C 0.4152(4) 0.3482(4) 0.4037(6) 0.0381 Uani
H9 H 0.3799 0.3519 0.3367 0.0460 Uiso
H10 H 0.3818 0.3328 0.4818 0.0460 Uiso
C6 C 0.4348(4) 0.2770(4) 0.3709(5) 0.0328 Uani
C7 C 0.4739(6) 0.2787(4) 0.2574(6) 0.0489 Uani
H11 H 0.4843 0.3213 0.1978 0.0590 Uiso
C8 C 0.4157(4) 0.2100(4) 0.4537(6) 0.0383 Uani
H12 H 0.3873 0.2055 0.5300 0.0460 Uiso
C9 C 0.4395(4) 0.1496(5) 0.4219(6) 0.0383 Uani
H13 H 0.4255 0.1040 0.4776 0.0460 Uiso
C10 C 0.4977(5) 0.2189(6) 0.2310(6) 0.0479 Uani
H14 H 0.5253 0.2224 0.1543 0.0570 Uiso
C11 C 0.5330(3) 0.4804(4) 0.6465(5) 0.0224 Uani
N1 N 0.4929(3) 0.4334(3) 0.4201(3) 0.0196 Uani
H15 H 0.5255 0.4457 0.3482 0.0230 Uiso
N2 N 0.4823(3) 0.1542(3) 0.3131(4) 0.0316 Uani
O1 O 0.5725(3) 0.4826(4) 0.7451(4) 0.0470 Uani
O2 O 0.4830(3) 0.5092(3) 0.6360(3) 0.0279 Uani
Zn1 Zn 0.45615(4) 0.52621(4) 0.44051(5) 0.0232 Uani
N2A N 0.3281(4) 0.4823(3) 0.4798(4) 0.0316 Uani
O1C O 0.4275(3) 0.5174(4) 0.2451(4) 0.0470 Uani
Zn1C Zn 0.54385(4) 0.47379(4) 0.94051(5) 0.0232 Uani
Zn1E Zn 0.52621(4) 0.07006(6) 0.27384(5) 0.0232 Uani
loop_
_atom_site_aniso_label
_atom_site_aniso_U_11
_atom_site_aniso_U_22
_atom_site_aniso_U_33
_atom_site_aniso_U_23
_atom_site_aniso_U_13
_atom_site_aniso_U_12
Br1 0.1083(8) 0.0537(5) 0.0813(7) 0.0033(5) -0.0044(6) 0.0445(5)
C1 0.072(5) 0.098(6) 0.048(4) -0.018(4) 0.007(3) 0.070(5)
C2 0.029(3) 0.064(4) 0.026(3) -0.004(2) -0.005(2) 0.034(3)
C3 0.057(5) 0.113(8) 0.080(7) -0.012(6) 0.011(5) 0.052(6)
C4 0.032(3) 0.056(3) 0.012(2) 0.000(2) -0.0069(18) 0.032(3)
C5 0.047(3) 0.040(3) 0.041(3) -0.009(2) -0.010(3) 0.032(3)
C6 0.054(4) 0.031(3) 0.025(3) -0.005(2) -0.010(2) 0.030(3)
C7 0.101(6) 0.031(3) 0.028(3) 0.001(2) 0.009(3) 0.043(3)
C8 0.061 0.034 0.027 0.002 0.01 0.029
C9 0.06 0.033 0.023 0.006 0.01 0.024
C10 0.089 0.036 0.021 0.001 0.013 0.033
C11 0.019 0.039 0.018 0.002 0.0026 0.021
N1 0.0230(18) 0.034(2) 0.0084(17) -0.0077(14) -0.0063(13) 0.0191(17)
N2 0.053 0.018 0.024 -0.0033 -0.0003 0.018
O1 0.051 0.099 0.021 -0.005 -0.0027 0.06
O2 0.039 0.044 0.018 -0.0025 0.0003 0.0338
Zn1 0.0342(3) 0.0358(3) 0.0154(2) -0.0020(2) -0.0015(2) 0.0294(3)
N2A 0.035 0.053 0.024 -0.0003 0.003 0.035
O1C 0.051 0.099 0.021 0.005 0.0027 0.06
Zn1C 0.0342 0.0358 0.0154 0.002 0.0015 0.0294
Zn1E 0.0358 0.0112 0.0154 -0.0005 -0.002 0.0064
loop_
_geom_bond_atom_site_label_1
_geom_bond_atom_site_label_2
_geom_bond_site_symmetry_1
_geom_bond_site_symmetry_2
Br1 Zn1 1_555 1_555
C1 H1 1_555 1_555
H2 C1 1_555 1_555
H3 C1 1_555 1_555
C2 C1 1_555 1_555
H4 C2 1_555 1_555
C3 C2 1_555 1_555
H5 C3 1_555 1_555
H6 C3 1_555 1_555
H7 C3 1_555 1_555
C4 C2 1_555 1_555
H8 C4 1_555 1_555
C5 H9 1_555 1_555
H10 C5 1_555 1_555
C6 C5 1_555 1_555
C7 C6 1_555 1_555
H11 C7 1_555 1_555
C8 C6 1_555 1_555
H12 C8 1_555 1_555
C9 C8 1_555 1_555
H13 C9 1_555 1_555
C10 C7 1_555 1_555
H14 C10 1_555 1_555
C11 C4 1_555 1_555
N1 C4 1_555 1_555
H15 N1 1_555 1_555
N2 C9 1_555 1_555
O1 C11 1_555 1_555
O2 C11 1_555 1_555
Zn1 N1 1_555 1_555
N2A Zn1 1_555 1_555
O1C Zn1 1_555 1_555
Zn1C O1 1_555 1_555
Zn1E N2 1_555 1_555
C5 N1 1_555 1_555
C10 N2 1_555 1_555
O2 Zn1 1_555 1_555

#END
