
#######################################################################
#
#                 Cambridge Crystallographic Data Centre
#                                CCDC 
#
#######################################################################
#
# If this CIF has been generated from an entry in the Cambridge 
# Structural Database, then it will include bibliographic, chemical, 
# crystal, experimental, refinement or atomic coordinate data resulting 
# from the CCDC's data processing and validation procedures.
#
#######################################################################

data_UWUQEJ
_chemical_name_common            UTSA-15
_chemical_formula_moiety         
'(C18 H12 Cu1 N2 O5)n,0.5n(C3 H7 N1 O1),1.2n(H2 O1)'
_chemical_name_systematic        
"catena-((\m~3~-2-hydroxybenzene-1,4-dicarboxylato)-(\m~2~-4,4'-bipyridine)-copper(ii) N,N-dimethylformamide solvate hydrate)"
_symmetry_cell_setting           orthorhombic
_symmetry_space_group_name_H-M   'P b a m'
_symmetry_Int_Tables_number      55
_space_group_name_Hall           '-P 2 2ab'
loop_
_symmetry_equiv_pos_site_id
_symmetry_equiv_pos_as_xyz
1 x,y,z
2 -x,-y,z
3 1/2+x,1/2-y,-z
4 1/2-x,1/2+y,-z
5 -x,-y,-z
6 x,y,-z
7 1/2-x,1/2+y,z
8 1/2+x,1/2-y,z
_cell_length_a                   21.073(4)
_cell_length_b                   13.061(3)
_cell_length_c                   11.123(2)
_cell_angle_alpha                90
_cell_angle_beta                 90
_cell_angle_gamma                90
_cell_volume                     3061.43
_exptl_crystal_colour            green
_exptl_crystal_description       column
_cell_formula_units_Z            4
loop_
_atom_site_label
_atom_site_type_symbol
_atom_site_fract_x
_atom_site_fract_y
_atom_site_fract_z
Cu1 Cu 0.95265(4) 0.14499(8) 0.5000
O1 O 0.8590(2) 0.1622(4) 0.5000
O2 O 0.8881(2) 0.3234(4) 0.5000
O3 O 0.5409(2) 0.3079(5) 0.5000
O4 O 0.5699(3) 0.4689(4) 0.5000
O5 O 0.8059(3) 0.4633(5) 0.5000
H1 H 0.8412 0.4370 0.5000
C1 C 0.8461(4) 0.2559(6) 0.5000
C2 C 0.7788(3) 0.2870(5) 0.5000
C3 C 0.7304(4) 0.2146(6) 0.5000
H2 H 0.7410 0.1455 0.5000
C4 C 0.6673(3) 0.2418(6) 0.5000
H3 H 0.6360 0.1917 0.5000
C5 C 0.6508(4) 0.3446(5) 0.5000
C6 C 0.6971(3) 0.4171(6) 0.5000
H4 H 0.6861 0.4860 0.5000
C7 C 0.7611(4) 0.3891(6) 0.5000
C8 C 0.5823(3) 0.3799(6) 0.5000
N1 N 0.95313(17) 0.1427(3) 0.6825(5)
C9 C 0.9197(4) 0.0770(6) 0.7439(6)
H5 H 0.8958 0.0291 0.7019
C10 C 0.9178(4) 0.0747(6) 0.8677(6)
H6 H 0.8923 0.0270 0.9068
C11 C 0.9530(2) 0.1418(4) 0.9327(6)
C12 C 0.9889(4) 0.2093(7) 0.8673(6)
H7 H 1.0145 0.2565 0.9068
C13 C 0.9873(4) 0.2078(6) 0.7447(6)
H8 H 1.0117 0.2554 0.7031
Cu1B Cu 0.45265(4) 0.35501(8) 0.5000
Cu1C Cu 0.54735(4) 0.64499(8) 0.5000
Cu1_2 Cu 0.95265(4) 0.14499(8) 1.5000
O3B O 1.0409(2) 0.1921(5) 0.5000
O4C O 0.9301(3) -0.0311(4) 0.5000
N1E N 0.95313(17) 0.1427(3) 1.3175(5)
N1E_2 N 0.95313(17) 0.1427(3) 0.3175(5)
C9E C 0.9197(4) 0.0770(6) 1.2561(6)
H5E H 0.8958 0.0291 1.2981
C10E C 0.9178(4) 0.0747(6) 1.1323(6)
H6E H 0.8923 0.0270 1.0932
C11E C 0.9530(2) 0.1418(4) 1.0673(6)
C12E C 0.9889(4) 0.2093(7) 1.1327(6)
H7E H 1.0145 0.2565 1.0932
C13E C 0.9873(4) 0.2078(6) 1.2553(6)
H8E H 1.0117 0.2554 1.2969
loop_
_geom_bond_atom_site_label_1
_geom_bond_atom_site_label_2
_geom_bond_site_symmetry_1
_geom_bond_site_symmetry_2
Cu1 O1 1_555 1_555
O1 C1 1_555 1_555
O2 C1 1_555 1_555
O3 C8 1_555 1_555
O4 C8 1_555 1_555
O5 H1 1_555 1_555
C1 C2 1_555 1_555
C2 C3 1_555 1_555
C3 H2 1_555 1_555
C4 C3 1_555 1_555
H3 C4 1_555 1_555
C5 C4 1_555 1_555
C6 C5 1_555 1_555
H4 C6 1_555 1_555
C7 O5 1_555 1_555
C8 C5 1_555 1_555
N1 Cu1 1_555 1_555
C9 N1 1_555 1_555
H5 C9 1_555 1_555
C10 C9 1_555 1_555
H6 C10 1_555 1_555
C11 C10 1_555 1_555
C12 C11 1_555 1_555
H7 C12 1_555 1_555
C13 N1 1_555 1_555
H8 C13 1_555 1_555
Cu1B O3 1_555 1_555
Cu1C O4 1_555 1_555
Cu1_2 N1E 1_555 1_555
O3B Cu1 1_555 1_555
O4C Cu1 1_555 1_555
N1E C9E 1_555 1_555
N1E_2 Cu1 1_555 1_555
C9E H5E 1_555 1_555
C10E C9E 1_555 1_555
H6E C10E 1_555 1_555
C11E C11 1_555 1_555
C12E C11E 1_555 1_555
H7E C12E 1_555 1_555
C13E N1E 1_555 1_555
H8E C13E 1_555 1_555
C2 C7 1_555 1_555
C6 C7 1_555 1_555
C12 C13 1_555 1_555
C10E C11E 1_555 1_555
C12E C13E 1_555 1_555

#END
