
#######################################################################
#
#                 Cambridge Crystallographic Data Centre
#                                CCDC 
#
#######################################################################
#
# If this CIF has been generated from an entry in the Cambridge 
# Structural Database, then it will include bibliographic, chemical, 
# crystal, experimental, refinement or atomic coordinate data resulting 
# from the CCDC's data processing and validation procedures.
#
#######################################################################

data_CUSXIY
_chemical_name_common            MOF-180
_chemical_formula_moiety         '(C66 H30 O13 Zn4)n,H2 O1'
_chemical_name_systematic        
catena-[bis(\m-4,4',4''-(benzene-1,3,5-triyl-tris(ethyne-2,1-diyl)tribenzoato))-(\m-oxido)-tetra-zinc]
_symmetry_cell_setting           trigonal
_symmetry_space_group_name_H-M   'P -3 1 c'
_symmetry_Int_Tables_number      163
_space_group_name_Hall           '-P 3 2c'
loop_
_symmetry_equiv_pos_site_id
_symmetry_equiv_pos_as_xyz
1 x,y,z
2 -y,x-y,z
3 -x+y,-x,z
4 -y,-x,1/2-z
5 -x+y,y,1/2-z
6 x,x-y,1/2-z
7 -x,-y,-z
8 y,-x+y,-z
9 x-y,x,-z
10 y,x,1/2+z
11 x-y,-y,1/2+z
12 -x,-x+y,1/2+z
_cell_length_a                   45.846(16)
_cell_length_b                   45.846(16)
_cell_length_c                   37.11(3)
_cell_angle_alpha                90
_cell_angle_beta                 90
_cell_angle_gamma                120
_cell_volume                     67549.9
_exptl_crystal_description       'hexagonal plate'
_cell_formula_units_Z            8
loop_
_atom_site_label
_atom_site_type_symbol
_atom_site_fract_x
_atom_site_fract_y
_atom_site_fract_z
Zn1 Zn 0.1563(3) 0.30302(17) 0.2106(2)
Zn2 Zn 0.14869(16) 0.36437(15) 0.2410(3)
O1 O 0.16763(10) 0.3353(2) 0.2500
Zn3 Zn 0.3333 0.6667 -0.2069(6)
Zn4 Zn 0.2950(3) 0.6327(2) -0.2715(3)
O2 O 0.3333 0.6667 -0.2500
O3 O 0.1415(5) 0.3625(5) 0.1964(7)
O4 O 0.1483(5) 0.3216(5) 0.1741(6)
O5 O -0.1100(5) 0.1959(5) -0.2005(7)
O6 O -0.1115(5) 0.2352(5) -0.2335(6)
O7 O 0.2693(12) 0.6064(11) -0.2371(14)
O8 O 0.2992(10) 0.6294(10) -0.1881(13)
O9 O 0.1276(5) 0.2656(5) 0.2211(6)
O10 O 0.1776(4) 0.4021(5) 0.2564(6)
C1 C 0.1083(8) 0.3890(8) -0.0427(10)
C2 C 0.0803(8) 0.3656(8) -0.0628(10)
C3 C 0.0759(8) 0.3725(8) -0.0987(11)
C4 C 0.0999(8) 0.4031(8) -0.1145(10)
C5 C 0.1280(8) 0.4267(8) -0.0947(10)
C6 C 0.1321(8) 0.4195(9) -0.0588(10)
C7 C 0.1130(8) 0.3815(8) -0.0058(11)
C8 C 0.1173(8) 0.3753(8) 0.0249(10)
C9 C 0.1228(8) 0.3675(8) 0.0614(10)
C10 C 0.1221(8) 0.3864(8) 0.0908(11)
C11 C 0.1279(8) 0.3791(8) 0.1260(11)
C12 C 0.1348(7) 0.3528(8) 0.1324(11)
C13 C 0.1353(8) 0.3338(9) 0.1027(10)
C14 C 0.1294(8) 0.3412(8) 0.0676(10)
C15 C 0.1419(8) 0.3453(9) 0.1697(10)
C16 C 0.0469(7) 0.3480(8) -0.1193(10)
C17 C 0.0226(8) 0.3272(8) -0.1362(10)
C18 C -0.0067(8) 0.3020(7) -0.1559(10)
C19 C -0.0203(8) 0.2677(8) -0.1479(11)
C20 C -0.0492(8) 0.2433(8) -0.1660(10)
C21 C -0.0651(8) 0.2526(8) -0.1925(10)
C22 C -0.0509(8) 0.2871(8) -0.2007(10)
C23 C -0.0220(8) 0.3115(9) -0.1826(10)
C24 C -0.0971(8) 0.2265(8) -0.2102(10)
C25 C 0.1531(8) 0.4581(8) -0.1113(10)
C26 C 0.1741(8) 0.4842(8) -0.1253(10)
C27 C 0.1993(8) 0.5150(9) -0.1426(10)
C28 C 0.1951(16) 0.5218(16) -0.181(2)
C29 C 0.2187(15) 0.5506(16) -0.200(2)
C30 C 0.2487(8) 0.5741(8) -0.1781(10)
C31 C 0.2515(17) 0.5722(16) -0.145(2)
C32 C 0.2277(16) 0.5432(16) -0.127(2)
C33 C 0.2748(8) 0.6040(8) -0.1986(11)
C34 C 0.1248(7) 0.2497(13) 0.2500
C35 C 0.1060(7) 0.2120(14) 0.2500
C36 C 0.1024(8) 0.1934(8) 0.2824(9)
C37 C 0.0844(8) 0.1585(8) 0.2794(9)
C38 C 0.0696(7) 0.1393(13) 0.2500
C39 C 0.0514(7) 0.1028(13) 0.2500
C40 C 0.0361(7) 0.0722(14) 0.2500
C41 C 0.0178(6) 0.0355(13) 0.2500
C42 C 0.0353(12) 0.0177(6) 0.2500
C43 C 0.2090(7) 0.4180(13) 0.2500
C44 C 0.2279(7) 0.4558(14) 0.2500
C45 C 0.2112(8) 0.4740(8) 0.2569(10)
C46 C 0.2289(8) 0.5094(8) 0.2569(10)
C47 C 0.2637(7) 0.5273(14) 0.2500
C48 C 0.2820(7) 0.5639(14) 0.2500
C49 C 0.2973(7) 0.5945(14) 0.2500
C50 C 0.3156(6) 0.6311(13) 0.2500
C51 C 0.3510(6) 0.6490(6) 0.2500
H1 H 0.064(5) 0.345(5) -0.052(7)
H2 H 0.097(5) 0.408(5) -0.139(7)
H3 H 0.151(5) 0.436(5) -0.045(7)
H4 H 0.117(6) 0.404(5) 0.087(7)
H5 H 0.127(5) 0.392(6) 0.146(7)
H6 H 0.140(6) 0.316(6) 0.106(7)
H7 H 0.130(5) 0.328(6) 0.048(7)
H8 H -0.010(5) 0.261(5) -0.130(7)
H9 H -0.058(5) 0.220(6) -0.160(7)
H10 H -0.061(6) 0.294(5) -0.219(7)
H11 H -0.013(5) 0.335(5) -0.188(7)
H12 H 0.171(11) 0.502(11) -0.196(14)
H13 H 0.217(11) 0.557(11) -0.229(13)
H14 H 0.273(10) 0.594(12) -0.130(14)
H15 H 0.233(10) 0.543(11) -0.097(13)
H16 H 0.112(5) 0.204(6) 0.305(7)
H17 H 0.082(6) 0.146(5) 0.301(7)
H18 H 0.060(9) 0.030(4) 0.2500
H19 H 0.187(5) 0.462(5) 0.262(7)
H20 H 0.217(5) 0.521(6) 0.262(7)
H21 H 0.363(4) 0.637(4) 0.2500
O9A O -0.2656(5) -0.1380(7) 0.2211(6)
C34A C -0.2497(13) -0.1249(15) 0.2500
C35A C -0.2120(14) -0.1060(16) 0.2500
C36A C -0.1934(8) -0.0910(11) 0.2824(9)
C37A C -0.1585(8) -0.0741(11) 0.2794(9)
C38A C -0.1393(13) -0.0697(15) 0.2500
C39A C -0.1028(13) -0.0514(15) 0.2500
C40A C -0.0722(14) -0.0361(16) 0.2500
C41A C -0.0355(13) -0.0177(14) 0.2500
C42A C -0.0177(6) 0.0176(13) 0.2500
H16A H -0.204(6) -0.092(8) 0.305(7)
H17A H -0.146(5) -0.064(8) 0.301(7)
H18A H -0.030(4) 0.030(10) 0.2500
O9B O 0.1380(7) -0.1276(5) 0.2211(6)
C34B C 0.1249(15) -0.1248(7) 0.2500
C35B C 0.1060(16) -0.1060(7) 0.2500
C36B C 0.0910(11) -0.1024(8) 0.2824(9)
C37B C 0.0741(11) -0.0844(8) 0.2794(9)
C38B C 0.0697(15) -0.0696(7) 0.2500
C39B C 0.0514(15) -0.0514(7) 0.2500
C40B C 0.0361(16) -0.0361(7) 0.2500
C41B C 0.0177(14) -0.0178(6) 0.2500
C42B C -0.0176(13) -0.0353(12) 0.2500
H16B H 0.092(8) -0.112(5) 0.305(7)
H17B H 0.064(8) -0.082(6) 0.301(7)
H18B H -0.030(10) -0.060(9) 0.2500
O9D O 0.1380(7) 0.2656(5) 0.2789(6)
C36D C 0.0910(11) 0.1934(8) 0.2176(9)
C37D C 0.0741(11) 0.1585(8) 0.2206(9)
H16D H 0.092(8) 0.204(6) 0.195(7)
H17D H 0.064(8) 0.146(5) 0.199(7)
O9E O 0.1276(5) -0.1380(7) 0.2789(6)
C36E C 0.1024(8) -0.0910(11) 0.2176(9)
C37E C 0.0844(8) -0.0741(11) 0.2206(9)
H16E H 0.112(5) -0.092(8) 0.195(7)
H17E H 0.082(6) -0.064(8) 0.199(7)
O9C O -0.2656(5) -0.1276(5) 0.2789(6)
C36C C -0.1934(8) -0.1024(8) 0.2176(9)
C37C C -0.1585(8) -0.0844(8) 0.2206(9)
H16C H -0.204(6) -0.112(5) 0.195(7)
H17C H -0.146(5) -0.082(6) 0.199(7)
O10A O 0.5979(5) 0.7755(6) 0.2564(6)
C43A C 0.5820(13) 0.7910(15) 0.2500
C44A C 0.5442(14) 0.7721(16) 0.2500
C45A C 0.5260(8) 0.7372(11) 0.2569(10)
C46A C 0.4906(8) 0.7195(11) 0.2569(10)
C47A C 0.4727(14) 0.7364(16) 0.2500
C48A C 0.4361(14) 0.7181(16) 0.2500
C49A C 0.4055(14) 0.7028(16) 0.2500
C50A C 0.3689(13) 0.6845(14) 0.2500
C51A C 0.3510(6) 0.7020(8) 0.2500
H19A H 0.538(5) 0.725(7) 0.262(7)
H20A H 0.479(6) 0.696(8) 0.262(7)
H21A H 0.363(4) 0.726(6) 0.2500
O10B O 0.2245(6) 0.8224(4) 0.2564(6)
C43B C 0.2090(15) 0.7910(7) 0.2500
C44B C 0.2279(16) 0.7721(7) 0.2500
C45B C 0.2628(11) 0.7888(8) 0.2569(10)
C46B C 0.2805(11) 0.7711(8) 0.2569(10)
C47B C 0.2636(16) 0.7363(7) 0.2500
C48B C 0.2819(16) 0.7180(7) 0.2500
C49B C 0.2972(16) 0.7027(7) 0.2500
C50B C 0.3155(14) 0.6844(6) 0.2500
C51B C 0.2980(8) 0.6490(6) 0.2500
H19B H 0.275(7) 0.813(5) 0.262(7)
H20B H 0.304(8) 0.783(5) 0.262(7)
H21B H 0.274(6) 0.637(4) 0.2500
O10C O 0.5979(5) 0.8224(4) 0.2436(6)
C45C C 0.5260(8) 0.7888(8) 0.2431(10)
C46C C 0.4906(8) 0.7711(8) 0.2431(10)
H19C H 0.538(5) 0.813(5) 0.238(7)
H20C H 0.479(6) 0.783(5) 0.238(7)
O10D O 0.2245(6) 0.4021(5) 0.2436(6)
C45D C 0.2628(11) 0.4740(8) 0.2431(10)
C46D C 0.2805(11) 0.5094(8) 0.2431(10)
H19D H 0.275(7) 0.462(5) 0.238(7)
H20D H 0.304(8) 0.521(6) 0.238(7)
O10E O 0.1776(4) 0.7755(6) 0.2436(6)
C45E C 0.2112(8) 0.7372(11) 0.2431(10)
C46E C 0.2289(8) 0.7195(11) 0.2431(10)
H19E H 0.187(5) 0.725(7) 0.238(7)
H20E H 0.217(5) 0.696(8) 0.238(7)
Zn1A Zn -0.30302(17) -0.14672(34) 0.2106(2)
Zn2A Zn -0.36437(15) -0.21568(22) 0.2410(3)
O1A O -0.3353(2) -0.16767(22) 0.2500
Zn3_2 Zn -0.6667 -0.3333 -0.2069(6)
Zn4A Zn -0.6327(2) -0.3377(4) -0.2715(3)
O3A O -0.3625(5) -0.2210(7) 0.1964(7)
O4A O -0.3216(5) -0.1733(7) 0.1741(6)
O5A O -0.1959(5) -0.3059(7) -0.2005(7)
O6A O -0.2352(5) -0.3467(7) -0.2335(6)
O7A O -0.6064(11) -0.3371(16) -0.2371(14)
O8A O -0.6294(10) -0.3302(14) -0.1881(13)
C1A C -0.3890(8) -0.2807(11) -0.0427(10)
C2A C -0.3656(8) -0.2853(11) -0.0628(10)
C3A C -0.3725(8) -0.2966(11) -0.0987(11)
C4A C -0.4031(8) -0.3032(11) -0.1145(10)
C5A C -0.4267(8) -0.2987(11) -0.0947(10)
C6A C -0.4195(9) -0.2874(12) -0.0588(10)
C7A C -0.3815(8) -0.2685(11) -0.0058(11)
C8A C -0.3753(8) -0.2580(11) 0.0249(10)
C9A C -0.3675(8) -0.2447(11) 0.0614(10)
C10A C -0.3864(8) -0.2643(11) 0.0908(11)
C11A C -0.3791(8) -0.2512(11) 0.1260(11)
C12A C -0.3528(8) -0.2180(11) 0.1324(11)
C13A C -0.3338(9) -0.1985(12) 0.1027(10)
C14A C -0.3412(8) -0.2118(11) 0.0676(10)
C15A C -0.3453(9) -0.2034(12) 0.1697(10)
C16A C -0.3480(8) -0.3011(11) -0.1193(10)
C17A C -0.3272(8) -0.3046(11) -0.1362(10)
C18A C -0.3020(7) -0.3087(11) -0.1559(10)
C19A C -0.2677(8) -0.2880(11) -0.1479(11)
C20A C -0.2433(8) -0.2925(11) -0.1660(10)
C21A C -0.2526(8) -0.3177(11) -0.1925(10)
C22A C -0.2871(8) -0.3380(11) -0.2007(10)
C23A C -0.3115(9) -0.3335(12) -0.1826(10)
C24A C -0.2265(8) -0.3236(11) -0.2102(10)
C25A C -0.4581(8) -0.3050(11) -0.1113(10)
C26A C -0.4842(8) -0.3101(11) -0.1253(10)
C27A C -0.5150(9) -0.3157(12) -0.1426(10)
C28A C -0.5218(16) -0.3267(23) -0.181(2)
C29A C -0.5506(16) -0.3319(22) -0.200(2)
C30A C -0.5741(8) -0.3254(11) -0.1781(10)
C31A C -0.5722(16) -0.3207(23) -0.145(2)
C32A C -0.5432(16) -0.3155(23) -0.127(2)
C33A C -0.6040(8) -0.3292(11) -0.1986(11)
H1A H -0.345(5) -0.281(7) -0.052(7)
H2A H -0.408(5) -0.311(7) -0.139(7)
H3A H -0.436(5) -0.285(7) -0.045(7)
H4A H -0.404(5) -0.287(8) 0.087(7)
H5A H -0.392(6) -0.265(8) 0.146(7)
H6A H -0.316(6) -0.176(8) 0.106(7)
H7A H -0.328(6) -0.198(8) 0.048(7)
H8A H -0.261(5) -0.271(7) -0.130(7)
H9A H -0.220(6) -0.278(8) -0.160(7)
H10A H -0.294(5) -0.355(8) -0.219(7)
H11A H -0.335(5) -0.348(7) -0.188(7)
H12A H -0.502(11) -0.331(16) -0.196(14)
H13A H -0.557(11) -0.340(16) -0.229(13)
H14A H -0.594(12) -0.321(16) -0.130(14)
H15A H -0.543(11) -0.310(15) -0.097(13)
Zn1B Zn 0.14672(34) -0.1563(3) 0.2106(2)
Zn2B Zn 0.21568(22) -0.14869(16) 0.2410(3)
O1B O 0.16767(22) -0.16763(10) 0.2500
Zn4B Zn 0.3377(4) -0.2950(3) -0.2715(3)
O3B O 0.2210(7) -0.1415(5) 0.1964(7)
O4B O 0.1733(7) -0.1483(5) 0.1741(6)
O5B O 0.3059(7) 0.1100(5) -0.2005(7)
O6B O 0.3467(7) 0.1115(5) -0.2335(6)
O7B O 0.3371(16) -0.2693(12) -0.2371(14)
O8B O 0.3302(14) -0.2992(10) -0.1881(13)
C1B C 0.2807(11) -0.1083(8) -0.0427(10)
C2B C 0.2853(11) -0.0803(8) -0.0628(10)
C3B C 0.2966(11) -0.0759(8) -0.0987(11)
C4B C 0.3032(11) -0.0999(8) -0.1145(10)
C5B C 0.2987(11) -0.1280(8) -0.0947(10)
C6B C 0.2874(12) -0.1321(8) -0.0588(10)
C7B C 0.2685(11) -0.1130(8) -0.0058(11)
C8B C 0.2580(11) -0.1173(8) 0.0249(10)
C9B C 0.2447(11) -0.1228(8) 0.0614(10)
C10B C 0.2643(11) -0.1221(8) 0.0908(11)
C11B C 0.2512(11) -0.1279(8) 0.1260(11)
C12B C 0.2180(11) -0.1348(7) 0.1324(11)
C13B C 0.1985(12) -0.1353(8) 0.1027(10)
C14B C 0.2118(11) -0.1294(8) 0.0676(10)
C15B C 0.2034(12) -0.1419(8) 0.1697(10)
C16B C 0.3011(11) -0.0469(7) -0.1193(10)
C17B C 0.3046(11) -0.0226(8) -0.1362(10)
C18B C 0.3087(11) 0.0067(8) -0.1559(10)
C19B C 0.2880(11) 0.0203(8) -0.1479(11)
C20B C 0.2925(11) 0.0492(8) -0.1660(10)
C21B C 0.3177(11) 0.0651(8) -0.1925(10)
C22B C 0.3380(11) 0.0509(8) -0.2007(10)
C23B C 0.3335(12) 0.0220(8) -0.1826(10)
C24B C 0.3236(11) 0.0971(8) -0.2102(10)
C25B C 0.3050(11) -0.1531(8) -0.1113(10)
C26B C 0.3101(11) -0.1741(8) -0.1253(10)
C27B C 0.3157(12) -0.1993(8) -0.1426(10)
C28B C 0.3267(23) -0.1951(16) -0.181(2)
C29B C 0.3319(22) -0.2187(15) -0.200(2)
C30B C 0.3254(11) -0.2487(8) -0.1781(10)
C31B C 0.3207(23) -0.2515(17) -0.145(2)
C32B C 0.3155(23) -0.2277(16) -0.127(2)
C33B C 0.3292(11) -0.2748(8) -0.1986(11)
H1B H 0.281(7) -0.064(5) -0.052(7)
H2B H 0.311(7) -0.097(5) -0.139(7)
H3B H 0.285(7) -0.151(5) -0.045(7)
H4B H 0.287(8) -0.117(6) 0.087(7)
H5B H 0.265(8) -0.127(5) 0.146(7)
H6B H 0.176(8) -0.140(6) 0.106(7)
H7B H 0.198(8) -0.130(5) 0.048(7)
H8B H 0.271(7) 0.010(5) -0.130(7)
H9B H 0.278(8) 0.058(5) -0.160(7)
H10B H 0.355(8) 0.061(6) -0.219(7)
H11B H 0.348(7) 0.013(5) -0.188(7)
H12B H 0.331(16) -0.171(11) -0.196(14)
H13B H 0.340(16) -0.217(11) -0.229(13)
H14B H 0.321(16) -0.273(10) -0.130(14)
H15B H 0.310(15) -0.233(10) -0.097(13)
Zn1C Zn -0.30302(17) -0.1563(3) -0.7106(2)
Zn2C Zn -0.36437(15) -0.14869(16) -0.7410(3)
Zn4C Zn -0.6327(2) -0.2950(3) -0.2285(3)
O3C O -0.3625(5) -0.1415(5) -0.6964(7)
O4C O -0.3216(5) -0.1483(5) -0.6741(6)
O5C O -0.1959(5) 0.1100(5) -0.2995(7)
O6C O -0.2352(5) 0.1115(5) -0.2665(6)
O7C O -0.6064(11) -0.2693(12) -0.2629(14)
O8C O -0.6294(10) -0.2992(10) -0.3119(13)
C1C C -0.3890(8) -0.1083(8) -0.4573(10)
C2C C -0.3656(8) -0.0803(8) -0.4372(10)
C3C C -0.3725(8) -0.0759(8) -0.4013(11)
C4C C -0.4031(8) -0.0999(8) -0.3855(10)
C5C C -0.4267(8) -0.1280(8) -0.4053(10)
C6C C -0.4195(9) -0.1321(8) -0.4412(10)
C7C C -0.3815(8) -0.1130(8) -0.4942(11)
C8C C -0.3753(8) -0.1173(8) -0.5249(10)
C9C C -0.3675(8) -0.1228(8) -0.5614(10)
C10C C -0.3864(8) -0.1221(8) -0.5908(11)
C11C C -0.3791(8) -0.1279(8) -0.6260(11)
C12C C -0.3528(8) -0.1348(7) -0.6324(11)
C13C C -0.3338(9) -0.1353(8) -0.6027(10)
C14C C -0.3412(8) -0.1294(8) -0.5676(10)
C15C C -0.3453(9) -0.1419(8) -0.6697(10)
C16C C -0.3480(8) -0.0469(7) -0.3807(10)
C17C C -0.3272(8) -0.0226(8) -0.3638(10)
C18C C -0.3020(7) 0.0067(8) -0.3441(10)
C19C C -0.2677(8) 0.0203(8) -0.3521(11)
C20C C -0.2433(8) 0.0492(8) -0.3340(10)
C21C C -0.2526(8) 0.0651(8) -0.3075(10)
C22C C -0.2871(8) 0.0509(8) -0.2993(10)
C23C C -0.3115(9) 0.0220(8) -0.3174(10)
C24C C -0.2265(8) 0.0971(8) -0.2898(10)
C25C C -0.4581(8) -0.1531(8) -0.3887(10)
C26C C -0.4842(8) -0.1741(8) -0.3747(10)
C27C C -0.5150(9) -0.1993(8) -0.3574(10)
C28C C -0.5218(16) -0.1951(16) -0.319(2)
C29C C -0.5506(16) -0.2187(15) -0.300(2)
C30C C -0.5741(8) -0.2487(8) -0.3219(10)
C31C C -0.5722(16) -0.2515(17) -0.355(2)
C32C C -0.5432(16) -0.2277(16) -0.373(2)
C33C C -0.6040(8) -0.2748(8) -0.3014(11)
H1C H -0.345(5) -0.064(5) -0.448(7)
H2C H -0.408(5) -0.097(5) -0.361(7)
H3C H -0.436(5) -0.151(5) -0.455(7)
H4C H -0.404(5) -0.117(6) -0.587(7)
H5C H -0.392(6) -0.127(5) -0.646(7)
H6C H -0.316(6) -0.140(6) -0.606(7)
H7C H -0.328(6) -0.130(5) -0.548(7)
H8C H -0.261(5) 0.010(5) -0.370(7)
H9C H -0.220(6) 0.058(5) -0.340(7)
H10C H -0.294(5) 0.061(6) -0.281(7)
H11C H -0.335(5) 0.013(5) -0.312(7)
H12C H -0.502(11) -0.171(11) -0.304(14)
H13C H -0.557(11) -0.217(11) -0.271(13)
H14C H -0.594(12) -0.273(10) -0.370(14)
H15C H -0.543(11) -0.233(10) -0.403(13)
Zn1D Zn 0.14672(34) 0.30302(17) -0.7106(2)
Zn2D Zn 0.21568(22) 0.36437(15) -0.7410(3)
Zn4D Zn 0.3377(4) 0.6327(2) -0.2285(3)
O3D O 0.2210(7) 0.3625(5) -0.6964(7)
O4D O 0.1733(7) 0.3216(5) -0.6741(6)
O5D O 0.3059(7) 0.1959(5) -0.2995(7)
O6D O 0.3467(7) 0.2352(5) -0.2665(6)
O7D O 0.3371(16) 0.6064(11) -0.2629(14)
O8D O 0.3302(14) 0.6294(10) -0.3119(13)
C1D C 0.2807(11) 0.3890(8) -0.4573(10)
C2D C 0.2853(11) 0.3656(8) -0.4372(10)
C3D C 0.2966(11) 0.3725(8) -0.4013(11)
C4D C 0.3032(11) 0.4031(8) -0.3855(10)
C5D C 0.2987(11) 0.4267(8) -0.4053(10)
C6D C 0.2874(12) 0.4195(9) -0.4412(10)
C7D C 0.2685(11) 0.3815(8) -0.4942(11)
C8D C 0.2580(11) 0.3753(8) -0.5249(10)
C9D C 0.2447(11) 0.3675(8) -0.5614(10)
C10D C 0.2643(11) 0.3864(8) -0.5908(11)
C11D C 0.2512(11) 0.3791(8) -0.6260(11)
C12D C 0.2180(11) 0.3528(8) -0.6324(11)
C13D C 0.1985(12) 0.3338(9) -0.6027(10)
C14D C 0.2118(11) 0.3412(8) -0.5676(10)
C15D C 0.2034(12) 0.3453(9) -0.6697(10)
C16D C 0.3011(11) 0.3480(8) -0.3807(10)
C17D C 0.3046(11) 0.3272(8) -0.3638(10)
C18D C 0.3087(11) 0.3020(7) -0.3441(10)
C19D C 0.2880(11) 0.2677(8) -0.3521(11)
C20D C 0.2925(11) 0.2433(8) -0.3340(10)
C21D C 0.3177(11) 0.2526(8) -0.3075(10)
C22D C 0.3380(11) 0.2871(8) -0.2993(10)
C23D C 0.3335(12) 0.3115(9) -0.3174(10)
C24D C 0.3236(11) 0.2265(8) -0.2898(10)
C25D C 0.3050(11) 0.4581(8) -0.3887(10)
C26D C 0.3101(11) 0.4842(8) -0.3747(10)
C27D C 0.3157(12) 0.5150(9) -0.3574(10)
C28D C 0.3267(23) 0.5218(16) -0.319(2)
C29D C 0.3319(22) 0.5506(16) -0.300(2)
C30D C 0.3254(11) 0.5741(8) -0.3219(10)
C31D C 0.3207(23) 0.5722(16) -0.355(2)
C32D C 0.3155(23) 0.5432(16) -0.373(2)
C33D C 0.3292(11) 0.6040(8) -0.3014(11)
H1D H 0.281(7) 0.345(5) -0.448(7)
H2D H 0.311(7) 0.408(5) -0.361(7)
H3D H 0.285(7) 0.436(5) -0.455(7)
H4D H 0.287(8) 0.404(5) -0.587(7)
H5D H 0.265(8) 0.392(6) -0.646(7)
H6D H 0.176(8) 0.316(6) -0.606(7)
H7D H 0.198(8) 0.328(6) -0.548(7)
H8D H 0.271(7) 0.261(5) -0.370(7)
H9D H 0.278(8) 0.220(6) -0.340(7)
H10D H 0.355(8) 0.294(5) -0.281(7)
H11D H 0.348(7) 0.335(5) -0.312(7)
H12D H 0.331(16) 0.502(11) -0.304(14)
H13D H 0.340(16) 0.557(11) -0.271(13)
H14D H 0.321(16) 0.594(12) -0.370(14)
H15D H 0.310(15) 0.543(11) -0.403(13)
Zn1E Zn 0.1563(3) -0.14672(34) -0.7106(2)
Zn2E Zn 0.14869(16) -0.21568(22) -0.7410(3)
Zn4E Zn 0.2950(3) -0.3377(4) -0.2285(3)
O3E O 0.1415(5) -0.2210(7) -0.6964(7)
O4E O 0.1483(5) -0.1733(7) -0.6741(6)
O5E O -0.1100(5) -0.3059(7) -0.2995(7)
O6E O -0.1115(5) -0.3467(7) -0.2665(6)
O7E O 0.2693(12) -0.3371(16) -0.2629(14)
O8E O 0.2992(10) -0.3302(14) -0.3119(13)
C1E C 0.1083(8) -0.2807(11) -0.4573(10)
C2E C 0.0803(8) -0.2853(11) -0.4372(10)
C3E C 0.0759(8) -0.2966(11) -0.4013(11)
C4E C 0.0999(8) -0.3032(11) -0.3855(10)
C5E C 0.1280(8) -0.2987(11) -0.4053(10)
C6E C 0.1321(8) -0.2874(12) -0.4412(10)
C7E C 0.1130(8) -0.2685(11) -0.4942(11)
C8E C 0.1173(8) -0.2580(11) -0.5249(10)
C9E C 0.1228(8) -0.2447(11) -0.5614(10)
C10E C 0.1221(8) -0.2643(11) -0.5908(11)
C11E C 0.1279(8) -0.2512(11) -0.6260(11)
C12E C 0.1348(7) -0.2180(11) -0.6324(11)
C13E C 0.1353(8) -0.1985(12) -0.6027(10)
C14E C 0.1294(8) -0.2118(11) -0.5676(10)
C15E C 0.1419(8) -0.2034(12) -0.6697(10)
C16E C 0.0469(7) -0.3011(11) -0.3807(10)
C17E C 0.0226(8) -0.3046(11) -0.3638(10)
C18E C -0.0067(8) -0.3087(11) -0.3441(10)
C19E C -0.0203(8) -0.2880(11) -0.3521(11)
C20E C -0.0492(8) -0.2925(11) -0.3340(10)
C21E C -0.0651(8) -0.3177(11) -0.3075(10)
C22E C -0.0509(8) -0.3380(11) -0.2993(10)
C23E C -0.0220(8) -0.3335(12) -0.3174(10)
C24E C -0.0971(8) -0.3236(11) -0.2898(10)
C25E C 0.1531(8) -0.3050(11) -0.3887(10)
C26E C 0.1741(8) -0.3101(11) -0.3747(10)
C27E C 0.1993(8) -0.3157(12) -0.3574(10)
C28E C 0.1951(16) -0.3267(23) -0.319(2)
C29E C 0.2187(15) -0.3319(22) -0.300(2)
C30E C 0.2487(8) -0.3254(11) -0.3219(10)
C31E C 0.2515(17) -0.3207(23) -0.355(2)
C32E C 0.2277(16) -0.3155(23) -0.373(2)
C33E C 0.2748(8) -0.3292(11) -0.3014(11)
H1E H 0.064(5) -0.281(7) -0.448(7)
H2E H 0.097(5) -0.311(7) -0.361(7)
H3E H 0.151(5) -0.285(7) -0.455(7)
H4E H 0.117(6) -0.287(8) -0.587(7)
H5E H 0.127(5) -0.265(8) -0.646(7)
H6E H 0.140(6) -0.176(8) -0.606(7)
H7E H 0.130(5) -0.198(8) -0.548(7)
H8E H -0.010(5) -0.271(7) -0.370(7)
H9E H -0.058(5) -0.278(8) -0.340(7)
H10E H -0.061(6) -0.355(8) -0.281(7)
H11E H -0.013(5) -0.348(7) -0.312(7)
H12E H 0.171(11) -0.331(16) -0.304(14)
H13E H 0.217(11) -0.340(16) -0.271(13)
H14E H 0.273(10) -0.321(16) -0.370(14)
H15E H 0.233(10) -0.310(15) -0.403(13)
Zn1C_2 Zn -0.30302(17) -0.1563(3) 0.2894(2)
Zn1D_2 Zn 0.14672(34) 0.30302(17) 0.2894(2)
Zn1E_2 Zn 0.1563(3) -0.14672(34) 0.2894(2)
Zn1F Zn -0.1563(3) -0.30302(17) -0.2106(2)
Zn1G Zn 0.30302(17) 0.14672(34) -0.2106(2)
Zn1H Zn -0.14672(34) 0.1563(3) -0.2106(2)
Zn1I Zn 0.30302(17) 0.1563(3) -0.2894(2)
Zn1J Zn -0.14672(34) -0.30302(17) -0.2894(2)
Zn1K Zn -0.1563(3) 0.14672(34) -0.2894(2)
Zn2A_2 Zn 0.63563(15) 0.78432(22) 0.2410(3)
Zn2B_2 Zn 0.21568(22) 0.85131(16) 0.2410(3)
Zn2C_2 Zn -0.36437(15) -0.14869(16) 0.2590(3)
Zn2C_3 Zn 0.63563(15) 0.85131(16) 0.2590(3)
Zn2D_2 Zn 0.21568(22) 0.36437(15) 0.2590(3)
Zn2E_2 Zn 0.14869(16) -0.21568(22) 0.2590(3)
Zn2E_3 Zn 0.14869(16) 0.78432(22) 0.2590(3)
Zn2F Zn -0.14869(16) -0.36437(15) -0.2410(3)
Zn2G Zn 0.36437(15) 0.21568(22) -0.2410(3)
Zn2H Zn -0.21568(22) 0.14869(16) -0.2410(3)
Zn2I Zn 0.36437(15) 0.14869(16) -0.2590(3)
Zn2J Zn -0.21568(22) -0.36437(15) -0.2590(3)
Zn2K Zn -0.14869(16) 0.21568(22) -0.2590(3)
O1_2 O 0.16763(10) 0.3353(2) -0.7500
O1A_2 O -0.3353(2) -0.16767(22) -0.7500
O1B_2 O 0.16767(22) -0.16763(10) -0.7500
Zn3_3 Zn 0.3333 -0.3333 -0.2069(6)
Zn3C Zn -0.6667 -0.3333 -0.2931(6)
Zn3C_2 Zn 0.3333 -0.3333 -0.2931(6)
Zn3C_3 Zn 0.3333 0.6667 -0.2931(6)
Zn4_2 Zn 0.2950(3) -0.3673(2) -0.2715(3)
Zn4A_2 Zn 0.3673(2) 0.6623(4) -0.2715(3)
Zn4B_2 Zn -0.6623(4) -0.2950(3) -0.2715(3)
Zn4B_3 Zn 0.3377(4) 0.7050(3) -0.2715(3)
Zn4C_2 Zn 0.3673(2) -0.2950(3) -0.2285(3)
Zn4C_3 Zn 0.3673(2) 0.7050(3) -0.2285(3)
Zn4D_2 Zn -0.6623(4) -0.3673(2) -0.2285(3)
Zn4E_2 Zn -0.7050(3) -0.3377(4) -0.2285(3)
Zn4E_3 Zn 0.2950(3) 0.6623(4) -0.2285(3)
O2_2 O -0.6667 -0.3333 -0.2500
O2_3 O 0.3333 -0.3333 -0.2500
O5F O 0.1100(5) -0.1959(5) 0.2005(7)
O5G O 0.1959(5) 0.3059(7) 0.2005(7)
O5H O -0.3059(7) -0.1100(5) 0.2005(7)
O5I O 0.1959(5) -0.1100(5) -0.7005(7)
O5J O -0.3059(7) -0.1959(5) -0.7005(7)
O5K O 0.1100(5) 0.3059(7) -0.7005(7)
O6F O 0.1115(5) -0.2352(5) -0.7665(6)
O6G O 0.2352(5) 0.3467(7) -0.7665(6)
O6H O -0.3467(7) -0.1115(5) -0.7665(6)
O6I O 0.2352(5) -0.1115(5) 0.2665(6)
O6J O -0.3467(7) -0.2352(5) 0.2665(6)
O6K O 0.1115(5) 0.3467(7) 0.2665(6)
O7_2 O 0.2693(12) -0.3936(11) -0.2371(14)
O7A_2 O 0.3936(11) 0.6629(16) -0.2371(14)
O7B_2 O -0.6629(16) -0.2693(12) -0.2371(14)
O7C_2 O 0.3936(11) -0.2693(12) -0.2629(14)
O7D_2 O -0.6629(16) -0.3936(11) -0.2629(14)
O7E_2 O 0.2693(12) 0.6629(16) -0.2629(14)
O8_2 O -0.7008(10) -0.3706(10) -0.1881(13)
O8_3 O 0.2992(10) -0.3706(10) -0.1881(13)
O8A_2 O 0.3706(10) 0.6698(14) -0.1881(13)
O8B_2 O -0.6698(14) -0.2992(10) -0.1881(13)
O8B_3 O 0.3302(14) 0.7008(10) -0.1881(13)
O8C_2 O 0.3706(10) -0.2992(10) -0.3119(13)
O8D_2 O -0.6698(14) -0.3706(10) -0.3119(13)
O8E_2 O 0.2992(10) 0.6698(14) -0.3119(13)
O9C_2 O -0.2656(5) -0.1276(5) -0.7211(6)
O9D_2 O 0.1380(7) 0.2656(5) -0.7211(6)
O9E_2 O 0.1276(5) -0.1380(7) -0.7211(6)
O10A_2 O -0.4021(5) -0.2245(6) 0.2564(6)
O10B_2 O 0.2245(6) -0.1776(4) 0.2564(6)
O10C_2 O -0.4021(5) -0.1776(4) -0.7564(6)
O10D_2 O 0.2245(6) 0.4021(5) -0.7564(6)
O10E_2 O 0.1776(4) -0.2245(6) -0.7564(6)
O11? O 0.2698(10) 0.6248(11) -0.2039(14)
O12? O 0.3041(11) 0.6043(10) -0.2010(14)
C52? C 0.1926(16) 0.5380(16) -0.150(2)
C53? C 0.2177(15) 0.5675(16) -0.167(2)
C54? C 0.2564(17) 0.5461(17) -0.163(2)
C55? C 0.2312(17) 0.5166(17) -0.147(2)
H22? H 0.167(11) 0.535(11) -0.144(14)
H23? H 0.210(11) 0.587(11) -0.171(14)
H24? H 0.283(11) 0.550(11) -0.166(14)
H25? H 0.235(11) 0.495(11) -0.137(13)
loop_
_geom_bond_atom_site_label_1
_geom_bond_atom_site_label_2
_geom_bond_site_symmetry_1
_geom_bond_site_symmetry_2
Zn1 O1 1_555 1_555
Zn2 O1 1_555 1_555
O1 Zn1D_2 1_555 1_555
Zn3 O2 1_555 1_555
Zn4 O2 1_555 1_555
O2 Zn4D 1_555 1_555
O3 Zn2 1_555 1_555
O4 Zn1 1_555 1_555
O5 C24 1_555 1_555
O6 C24 1_555 1_555
O7 Zn4 1_555 1_555
O8 Zn3 1_555 1_555
O9 Zn1 1_555 1_555
O10 Zn2 1_555 1_555
C1 C2 1_555 1_555
C2 C3 1_555 1_555
C3 C4 1_555 1_555
C4 C5 1_555 1_555
C5 C6 1_555 1_555
C6 C1 1_555 1_555
C7 C1 1_555 1_555
C8 C7 1_555 1_555
C9 C8 1_555 1_555
C10 C9 1_555 1_555
C11 C10 1_555 1_555
C12 C11 1_555 1_555
C13 C12 1_555 1_555
C14 C9 1_555 1_555
C15 O3 1_555 1_555
C16 C3 1_555 1_555
C17 C16 1_555 1_555
C18 C17 1_555 1_555
C19 C18 1_555 1_555
C20 C19 1_555 1_555
C21 C20 1_555 1_555
C22 C21 1_555 1_555
C23 C18 1_555 1_555
C24 C21 1_555 1_555
C25 C5 1_555 1_555
C26 C25 1_555 1_555
C27 C26 1_555 1_555
C28 C27 1_555 1_555
C29 C28 1_555 1_555
C30 C29 1_555 1_555
C31 C30 1_555 1_555
C32 C27 1_555 1_555
C33 O7 1_555 1_555
C34 O9 1_555 1_555
C35 C34 1_555 1_555
C36 C35 1_555 1_555
C37 C36 1_555 1_555
C38 C37 1_555 1_555
C39 C38 1_555 1_555
C40 C39 1_555 1_555
C41 C40 1_555 1_555
C42 C41 1_555 1_555
C43 O10 1_555 1_555
C44 C43 1_555 1_555
C45 C44 1_555 1_555
C46 C45 1_555 1_555
C47 C46 1_555 1_555
C48 C47 1_555 1_555
C49 C48 1_555 1_555
C50 C49 1_555 1_555
C51 C50 1_555 1_555
H1 C2 1_555 1_555
H2 C4 1_555 1_555
H3 C6 1_555 1_555
H4 C10 1_555 1_555
H5 C11 1_555 1_555
H6 C13 1_555 1_555
H7 C14 1_555 1_555
H8 C19 1_555 1_555
H9 C20 1_555 1_555
H10 C22 1_555 1_555
H11 C23 1_555 1_555
H12 C28 1_555 1_555
H13 C29 1_555 1_555
H14 C31 1_555 1_555
H15 C32 1_555 1_555
H16 C36 1_555 1_555
H17 C37 1_555 1_555
H18 C42 1_555 1_555
H19 C45 1_555 1_555
H20 C46 1_555 1_555
H21 C51 1_555 1_555
O9A C34A 1_555 1_555
C34A C35A 1_555 1_555
C35A C36A 1_555 1_555
C36A C37A 1_555 1_555
C37A C38A 1_555 1_555
C38A C39A 1_555 1_555
C39A C40A 1_555 1_555
C40A C41A 1_555 1_555
C41A C42A 1_555 1_555
C42A C41 1_555 1_555
H16A C36A 1_555 1_555
H17A C37A 1_555 1_555
H18A C42A 1_555 1_555
O9B C34B 1_555 1_555
C34B C35B 1_555 1_555
C35B C36B 1_555 1_555
C36B C37B 1_555 1_555
C37B C38B 1_555 1_555
C38B C39B 1_555 1_555
C39B C40B 1_555 1_555
C40B C41B 1_555 1_555
C41B C42 1_555 1_555
C42B C41A 1_555 1_555
H16B C36B 1_555 1_555
H17B C37B 1_555 1_555
H18B C42B 1_555 1_555
O9D C34 1_555 1_555
C36D C35 1_555 1_555
C37D C38 1_555 1_555
H16D C36D 1_555 1_555
H17D C37D 1_555 1_555
O9E C34B 1_555 1_555
C36E C35B 1_555 1_555
C37E C38B 1_555 1_555
H16E C36E 1_555 1_555
H17E C37E 1_555 1_555
O9C C34A 1_555 1_555
C36C C35A 1_555 1_555
C37C C38A 1_555 1_555
H16C C36C 1_555 1_555
H17C C37C 1_555 1_555
O10A C43A 1_555 1_555
C43A C44A 1_555 1_555
C44A C45A 1_555 1_555
C45A C46A 1_555 1_555
C46A C47A 1_555 1_555
C47A C48A 1_555 1_555
C48A C49A 1_555 1_555
C49A C50A 1_555 1_555
C50A C51 1_555 1_555
C51A C50A 1_555 1_555
H19A C45A 1_555 1_555
H20A C46A 1_555 1_555
H21A C51A 1_555 1_555
O10B C43B 1_555 1_555
C43B C44B 1_555 1_555
C44B C45B 1_555 1_555
C45B C46B 1_555 1_555
C46B C47B 1_555 1_555
C47B C48B 1_555 1_555
C48B C49B 1_555 1_555
C49B C50B 1_555 1_555
C50B C51A 1_555 1_555
C51B C50 1_555 1_555
H19B C45B 1_555 1_555
H20B C46B 1_555 1_555
H21B C51B 1_555 1_555
O10C C43A 1_555 1_555
C45C C44A 1_555 1_555
C46C C47A 1_555 1_555
H19C C45C 1_555 1_555
H20C C46C 1_555 1_555
O10D C43 1_555 1_555
C45D C44 1_555 1_555
C46D C47 1_555 1_555
H19D C45D 1_555 1_555
H20D C46D 1_555 1_555
O10E C43B 1_555 1_555
C45E C44B 1_555 1_555
C46E C47B 1_555 1_555
H19E C45E 1_555 1_555
H20E C46E 1_555 1_555
Zn1A O9A 1_555 1_555
Zn2A O1A 1_555 1_555
O1A Zn1A 1_555 1_555
Zn3_2 O8A 1_555 1_555
Zn4A O7A 1_555 1_555
O3A Zn2A 1_555 1_555
O4A Zn1A 1_555 1_555
O5A C24A 1_555 1_555
O6A C24A 1_555 1_555
O7A C33A 1_555 1_555
O8A C33A 1_555 1_555
C1A C2A 1_555 1_555
C2A C3A 1_555 1_555
C3A C4A 1_555 1_555
C4A C5A 1_555 1_555
C5A C6A 1_555 1_555
C6A C1A 1_555 1_555
C7A C1A 1_555 1_555
C8A C7A 1_555 1_555
C9A C8A 1_555 1_555
C10A C9A 1_555 1_555
C11A C10A 1_555 1_555
C12A C11A 1_555 1_555
C13A C12A 1_555 1_555
C14A C9A 1_555 1_555
C15A O3A 1_555 1_555
C16A C3A 1_555 1_555
C17A C16A 1_555 1_555
C18A C17A 1_555 1_555
C19A C18A 1_555 1_555
C20A C19A 1_555 1_555
C21A C20A 1_555 1_555
C22A C21A 1_555 1_555
C23A C18A 1_555 1_555
C24A C21A 1_555 1_555
C25A C5A 1_555 1_555
C26A C25A 1_555 1_555
C27A C26A 1_555 1_555
C28A C27A 1_555 1_555
C29A C28A 1_555 1_555
C30A C29A 1_555 1_555
C31A C30A 1_555 1_555
C32A C27A 1_555 1_555
C33A C30A 1_555 1_555
H1A C2A 1_555 1_555
H2A C4A 1_555 1_555
H3A C6A 1_555 1_555
H4A C10A 1_555 1_555
H5A C11A 1_555 1_555
H6A C13A 1_555 1_555
H7A C14A 1_555 1_555
H8A C19A 1_555 1_555
H9A C20A 1_555 1_555
H10A C22A 1_555 1_555
H11A C23A 1_555 1_555
H12A C28A 1_555 1_555
H13A C29A 1_555 1_555
H14A C31A 1_555 1_555
H15A C32A 1_555 1_555
Zn1B O9B 1_555 1_555
Zn2B O1B 1_555 1_555
O1B Zn1B 1_555 1_555
Zn4B O7B 1_555 1_555
O3B Zn2B 1_555 1_555
O4B Zn1B 1_555 1_555
O5B C24B 1_555 1_555
O6B C24B 1_555 1_555
O7B C33B 1_555 1_555
O8B C33B 1_555 1_555
C1B C2B 1_555 1_555
C2B C3B 1_555 1_555
C3B C4B 1_555 1_555
C4B C5B 1_555 1_555
C5B C6B 1_555 1_555
C6B C1B 1_555 1_555
C7B C1B 1_555 1_555
C8B C7B 1_555 1_555
C9B C8B 1_555 1_555
C10B C9B 1_555 1_555
C11B C10B 1_555 1_555
C12B C11B 1_555 1_555
C13B C12B 1_555 1_555
C14B C9B 1_555 1_555
C15B O3B 1_555 1_555
C16B C3B 1_555 1_555
C17B C16B 1_555 1_555
C18B C17B 1_555 1_555
C19B C18B 1_555 1_555
C20B C19B 1_555 1_555
C21B C20B 1_555 1_555
C22B C21B 1_555 1_555
C23B C18B 1_555 1_555
C24B C21B 1_555 1_555
C25B C5B 1_555 1_555
C26B C25B 1_555 1_555
C27B C26B 1_555 1_555
C28B C27B 1_555 1_555
C29B C28B 1_555 1_555
C30B C29B 1_555 1_555
C31B C30B 1_555 1_555
C32B C27B 1_555 1_555
C33B C30B 1_555 1_555
H1B C2B 1_555 1_555
H2B C4B 1_555 1_555
H3B C6B 1_555 1_555
H4B C10B 1_555 1_555
H5B C11B 1_555 1_555
H6B C13B 1_555 1_555
H7B C14B 1_555 1_555
H8B C19B 1_555 1_555
H9B C20B 1_555 1_555
H10B C22B 1_555 1_555
H11B C23B 1_555 1_555
H12B C28B 1_555 1_555
H13B C29B 1_555 1_555
H14B C31B 1_555 1_555
H15B C32B 1_555 1_555
Zn1C O4C 1_555 1_555
Zn2C O3C 1_555 1_555
Zn4C Zn3_2 1_555 1_555
O3C C15C 1_555 1_555
O4C C15C 1_555 1_555
O5C C24C 1_555 1_555
O6C C24C 1_555 1_555
O7C Zn4C 1_555 1_555
O8C Zn4A 1_555 1_555
C1C C2C 1_555 1_555
C2C C3C 1_555 1_555
C3C C4C 1_555 1_555
C4C C5C 1_555 1_555
C5C C6C 1_555 1_555
C6C C1C 1_555 1_555
C7C C1C 1_555 1_555
C8C C7C 1_555 1_555
C9C C8C 1_555 1_555
C10C C9C 1_555 1_555
C11C C10C 1_555 1_555
C12C C11C 1_555 1_555
C13C C12C 1_555 1_555
C14C C9C 1_555 1_555
C15C C12C 1_555 1_555
C16C C3C 1_555 1_555
C17C C16C 1_555 1_555
C18C C17C 1_555 1_555
C19C C18C 1_555 1_555
C20C C19C 1_555 1_555
C21C C20C 1_555 1_555
C22C C21C 1_555 1_555
C23C C18C 1_555 1_555
C24C C21C 1_555 1_555
C25C C5C 1_555 1_555
C26C C25C 1_555 1_555
C27C C26C 1_555 1_555
C28C C27C 1_555 1_555
C29C C28C 1_555 1_555
C30C C29C 1_555 1_555
C31C C30C 1_555 1_555
C32C C27C 1_555 1_555
C33C O7C 1_555 1_555
H1C C2C 1_555 1_555
H2C C4C 1_555 1_555
H3C C6C 1_555 1_555
H4C C10C 1_555 1_555
H5C C11C 1_555 1_555
H6C C13C 1_555 1_555
H7C C14C 1_555 1_555
H8C C19C 1_555 1_555
H9C C20C 1_555 1_555
H10C C22C 1_555 1_555
H11C C23C 1_555 1_555
H12C C28C 1_555 1_555
H13C C29C 1_555 1_555
H14C C31C 1_555 1_555
H15C C32C 1_555 1_555
Zn1D O4D 1_555 1_555
Zn2D O3D 1_555 1_555
Zn4D Zn3 1_555 1_555
O3D C15D 1_555 1_555
O4D C15D 1_555 1_555
O5D C24D 1_555 1_555
O6D C24D 1_555 1_555
O7D Zn4D 1_555 1_555
O8D Zn4 1_555 1_555
C1D C2D 1_555 1_555
C2D C3D 1_555 1_555
C3D C4D 1_555 1_555
C4D C5D 1_555 1_555
C5D C6D 1_555 1_555
C6D C1D 1_555 1_555
C7D C1D 1_555 1_555
C8D C7D 1_555 1_555
C9D C8D 1_555 1_555
C10D C9D 1_555 1_555
C11D C10D 1_555 1_555
C12D C11D 1_555 1_555
C13D C12D 1_555 1_555
C14D C9D 1_555 1_555
C15D C12D 1_555 1_555
C16D C3D 1_555 1_555
C17D C16D 1_555 1_555
C18D C17D 1_555 1_555
C19D C18D 1_555 1_555
C20D C19D 1_555 1_555
C21D C20D 1_555 1_555
C22D C21D 1_555 1_555
C23D C18D 1_555 1_555
C24D C21D 1_555 1_555
C25D C5D 1_555 1_555
C26D C25D 1_555 1_555
C27D C26D 1_555 1_555
C28D C27D 1_555 1_555
C29D C28D 1_555 1_555
C30D C29D 1_555 1_555
C31D C30D 1_555 1_555
C32D C27D 1_555 1_555
C33D O7D 1_555 1_555
H1D C2D 1_555 1_555
H2D C4D 1_555 1_555
H3D C6D 1_555 1_555
H4D C10D 1_555 1_555
H5D C11D 1_555 1_555
H6D C13D 1_555 1_555
H7D C14D 1_555 1_555
H8D C19D 1_555 1_555
H9D C20D 1_555 1_555
H10D C22D 1_555 1_555
H11D C23D 1_555 1_555
H12D C28D 1_555 1_555
H13D C29D 1_555 1_555
H14D C31D 1_555 1_555
H15D C32D 1_555 1_555
Zn1E O4E 1_555 1_555
Zn2E O3E 1_555 1_555
Zn4E Zn4B 1_555 1_555
O3E C15E 1_555 1_555
O4E C15E 1_555 1_555
O5E C24E 1_555 1_555
O6E C24E 1_555 1_555
O7E Zn4E 1_555 1_555
O8E Zn4B 1_555 1_555
C1E C2E 1_555 1_555
C2E C3E 1_555 1_555
C3E C4E 1_555 1_555
C4E C5E 1_555 1_555
C5E C6E 1_555 1_555
C6E C1E 1_555 1_555
C7E C1E 1_555 1_555
C8E C7E 1_555 1_555
C9E C8E 1_555 1_555
C10E C9E 1_555 1_555
C11E C10E 1_555 1_555
C12E C11E 1_555 1_555
C13E C12E 1_555 1_555
C14E C9E 1_555 1_555
C15E C12E 1_555 1_555
C16E C3E 1_555 1_555
C17E C16E 1_555 1_555
C18E C17E 1_555 1_555
C19E C18E 1_555 1_555
C20E C19E 1_555 1_555
C21E C20E 1_555 1_555
C22E C21E 1_555 1_555
C23E C18E 1_555 1_555
C24E C21E 1_555 1_555
C25E C5E 1_555 1_555
C26E C25E 1_555 1_555
C27E C26E 1_555 1_555
C28E C27E 1_555 1_555
C29E C28E 1_555 1_555
C30E C29E 1_555 1_555
C31E C30E 1_555 1_555
C32E C27E 1_555 1_555
C33E O7E 1_555 1_555
H1E C2E 1_555 1_555
H2E C4E 1_555 1_555
H3E C6E 1_555 1_555
H4E C10E 1_555 1_555
H5E C11E 1_555 1_555
H6E C13E 1_555 1_555
H7E C14E 1_555 1_555
H8E C19E 1_555 1_555
H9E C20E 1_555 1_555
H10E C22E 1_555 1_555
H11E C23E 1_555 1_555
H12E C28E 1_555 1_555
H13E C29E 1_555 1_555
H14E C31E 1_555 1_555
H15E C32E 1_555 1_555
Zn1C_2 O9C 1_555 1_555
Zn1D_2 O9D 1_555 1_555
Zn1E_2 O9E 1_555 1_555
Zn1F O5A 1_555 1_555
Zn1G O5B 1_555 1_555
Zn1H O5 1_555 1_555
Zn1I O5D 1_555 1_555
Zn1J O5E 1_555 1_555
Zn1K O5C 1_555 1_555
Zn2A_2 O10A 1_555 1_555
Zn2B_2 O10B 1_555 1_555
Zn2C_2 O1A 1_555 1_555
Zn2C_3 O10C 1_555 1_555
Zn2D_2 O1 1_555 1_555
Zn2E_2 O1B 1_555 1_555
Zn2E_3 O10E 1_555 1_555
Zn2F O6E 1_555 1_555
Zn2G O6D 1_555 1_555
Zn2H O6C 1_555 1_555
Zn2I O6B 1_555 1_555
Zn2J O6A 1_555 1_555
Zn2K O6 1_555 1_555
O1_2 Zn1D 1_555 1_555
O1A_2 Zn1C 1_555 1_555
O1B_2 Zn1E 1_555 1_555
Zn3_3 O8B 1_555 1_555
Zn3C Zn4A 1_555 1_555
Zn3C_2 Zn4B 1_555 1_555
Zn3C_3 Zn4 1_555 1_555
Zn4_2 Zn4E 1_555 1_555
Zn4A_2 O2 1_555 1_555
Zn4B_2 Zn4C 1_555 1_555
Zn4B_3 O2 1_555 1_555
Zn4C_2 Zn4B 1_555 1_555
Zn4C_3 Zn3 1_555 1_555
Zn4D_2 Zn3_2 1_555 1_555
Zn4E_2 Zn3_2 1_555 1_555
Zn4E_3 Zn3 1_555 1_555
O2_2 Zn3_2 1_555 1_555
O2_3 Zn4B 1_555 1_555
O5F Zn1B 1_555 1_555
O5G Zn1 1_555 1_555
O5H Zn1A 1_555 1_555
O5I Zn1E 1_555 1_555
O5J Zn1C 1_555 1_555
O5K Zn1D 1_555 1_555
O6F Zn2E 1_555 1_555
O6G Zn2D 1_555 1_555
O6H Zn2C 1_555 1_555
O6I Zn2B 1_555 1_555
O6J Zn2A 1_555 1_555
O6K Zn2 1_555 1_555
O7_2 Zn4E 1_555 1_555
O7A_2 Zn4D 1_555 1_555
O7B_2 Zn4C 1_555 1_555
O7C_2 Zn4B 1_555 1_555
O7D_2 Zn4A 1_555 1_555
O7E_2 Zn4 1_555 1_555
O8_2 Zn3_2 1_555 1_555
O8_3 Zn4E 1_555 1_555
O8A_2 Zn3 1_555 1_555
O8B_2 Zn3_2 1_555 1_555
O8B_3 Zn3 1_555 1_555
O8C_2 Zn4B 1_555 1_555
O8D_2 Zn4A 1_555 1_555
O8E_2 Zn4 1_555 1_555
O9C_2 Zn1C 1_555 1_555
O9D_2 Zn1D 1_555 1_555
O9E_2 Zn1E 1_555 1_555
O10A_2 Zn2A 1_555 1_555
O10B_2 Zn2B 1_555 1_555
O10C_2 Zn2C 1_555 1_555
O10D_2 Zn2D 1_555 1_555
O10E_2 Zn2E 1_555 1_555
Zn4 Zn4D 1_555 1_555
Zn4 Zn4E_3 1_555 1_555
O2 Zn3C_3 1_555 1_555
O2 Zn4C_3 1_555 1_555
O2 Zn4E_3 1_555 1_555
O4 C15 1_555 1_555
O7 Zn4E_3 1_555 1_555
O8 C33 1_555 1_555
O8 Zn4D 1_555 1_555
O8 Zn4E_3 1_555 1_555
C12 C15 1_555 1_555
C13 C14 1_555 1_555
C22 C23 1_555 1_555
C30 C33 1_555 1_555
C31 C32 1_555 1_555
C41B C42B 1_555 1_555
C36D C37D 1_555 1_555
C36E C37E 1_555 1_555
C36C C37C 1_555 1_555
C50B C51B 1_555 1_555
C45C C46C 1_555 1_555
O10D Zn2D_2 1_555 1_555
C45D C46D 1_555 1_555
C45E C46E 1_555 1_555
O1A Zn1C_2 1_555 1_555
Zn4A Zn4C 1_555 1_555
Zn4A Zn4D_2 1_555 1_555
Zn4A O2_2 1_555 1_555
O4A C15A 1_555 1_555
O7A Zn4D_2 1_555 1_555
O8A Zn4C 1_555 1_555
O8A Zn4D_2 1_555 1_555
C12A C15A 1_555 1_555
C13A C14A 1_555 1_555
C22A C23A 1_555 1_555
C31A C32A 1_555 1_555
O1B Zn1E_2 1_555 1_555
O4B C15B 1_555 1_555
O7B Zn4C_2 1_555 1_555
O8B Zn4E 1_555 1_555
O8B Zn4C_2 1_555 1_555
C12B C15B 1_555 1_555
C13B C14B 1_555 1_555
C22B C23B 1_555 1_555
C31B C32B 1_555 1_555
Zn2C O1A_2 1_555 1_555
Zn4C O2_2 1_555 1_555
Zn4C O8B_2 1_555 1_555
O7C Zn4B_2 1_555 1_555
O8C C33C 1_555 1_555
O8C Zn3C 1_555 1_555
O8C Zn4B_2 1_555 1_555
C13C C14C 1_555 1_555
C22C C23C 1_555 1_555
C30C C33C 1_555 1_555
C31C C32C 1_555 1_555
Zn2D O1_2 1_555 1_555
Zn4D Zn4A_2 1_555 1_555
Zn4D O8A_2 1_555 1_555
O7D Zn4A_2 1_555 1_555
O8D C33D 1_555 1_555
O8D Zn3C_3 1_555 1_555
O8D Zn4A_2 1_555 1_555
C13D C14D 1_555 1_555
C22D C23D 1_555 1_555
C30D C33D 1_555 1_555
C31D C32D 1_555 1_555
Zn2E O1B_2 1_555 1_555
Zn4E Zn3_3 1_555 1_555
Zn4E O2_3 1_555 1_555
O7E Zn4_2 1_555 1_555
O8E C33E 1_555 1_555
O8E Zn3C_2 1_555 1_555
O8E Zn4_2 1_555 1_555
C13E C14E 1_555 1_555
C22E C23E 1_555 1_555
C30E C33E 1_555 1_555
C31E C32E 1_555 1_555
Zn3_3 Zn4C_2 1_555 1_555
Zn3_3 O2_3 1_555 1_555
Zn3_3 O8_3 1_555 1_555
Zn3C Zn4B_2 1_555 1_555
Zn3C O2_2 1_555 1_555
Zn3C O8D_2 1_555 1_555
Zn3C_2 Zn4_2 1_555 1_555
Zn3C_2 O2_3 1_555 1_555
Zn3C_2 O8C_2 1_555 1_555
Zn3C_3 Zn4A_2 1_555 1_555
Zn3C_3 Zn4B_3 1_555 1_555
Zn3C_3 O8E_2 1_555 1_555
Zn4_2 O2_3 1_555 1_555
Zn4_2 O7_2 1_555 1_555
Zn4A_2 Zn4C_3 1_555 1_555
Zn4A_2 O7A_2 1_555 1_555
Zn4B_2 Zn4E_2 1_555 1_555
Zn4B_2 O2_2 1_555 1_555
Zn4B_2 O7B_2 1_555 1_555
Zn4B_3 Zn4C_3 1_555 1_555
Zn4B_3 Zn4E_3 1_555 1_555
Zn4B_3 O8E_2 1_555 1_555
Zn4C_2 O2_3 1_555 1_555
Zn4C_2 O7C_2 1_555 1_555
Zn4C_3 O8A_2 1_555 1_555
Zn4C_3 O8B_3 1_555 1_555
Zn4D_2 O2_2 1_555 1_555
Zn4D_2 O7D_2 1_555 1_555
Zn4D_2 O8_2 1_555 1_555
Zn4E_2 O2_2 1_555 1_555
Zn4E_2 O8_2 1_555 1_555
Zn4E_2 O8B_2 1_555 1_555
Zn4E_3 O7E_2 1_555 1_555
Zn4E_3 O8B_3 1_555 1_555

#END
