
#######################################################################
#
#                 Cambridge Crystallographic Data Centre
#                                CCDC 
#
#######################################################################
#
# If this CIF has been generated from an entry in the Cambridge 
# Structural Database, then it will include bibliographic, chemical, 
# crystal, experimental, refinement or atomic coordinate data resulting 
# from the CCDC's data processing and validation procedures.
#
#######################################################################

data_OXANOR
_chemical_formula_moiety         '(C30 H35 Co3 N4 O12 1+)n,n(N1 O3 1-)'
_chemical_name_systematic        
'catena-(tetrakis(\m~3~-isonicotinato)-(\m~3~-hydroxo)-triethanol-tri-cobalt nitrate)'
_symmetry_cell_setting           orthorhombic
_symmetry_space_group_name_H-M   'P n m a'
_symmetry_Int_Tables_number      62
_space_group_name_Hall           '-P 2ac 2n'
loop_
_symmetry_equiv_pos_site_id
_symmetry_equiv_pos_as_xyz
1 x,y,z
2 1/2-x,-y,1/2+z
3 -x,1/2+y,-z
4 1/2+x,1/2-y,1/2-z
5 -x,-y,-z
6 1/2+x,y,1/2-z
7 x,1/2-y,z
8 1/2-x,1/2+y,1/2+z
_cell_length_a                   18.986(4)
_cell_length_b                   19.683(4)
_cell_length_c                   12.081(2)
_cell_angle_alpha                90
_cell_angle_beta                 90
_cell_angle_gamma                90
_cell_volume                     4514.69
_exptl_crystal_colour            red
_exptl_crystal_description       block
_cell_formula_units_Z            4
loop_
_atom_site_label
_atom_site_type_symbol
_atom_site_fract_x
_atom_site_fract_y
_atom_site_fract_z
Co1 Co 0.30923(5) 1.16208(4) 0.67025(7)
Co2 Co 0.15669(6) 0.7500 0.42999(9)
C1 C 0.2135(5) 1.0382(4) 0.6118(7)
H1 H 0.1870 1.0558 0.6720
C2 C 0.1891(5) 0.9818(4) 0.5583(6)
H2 H 0.1470 0.9602 0.5822
C3 C 0.2268(4) 0.9560(3) 0.4675(5)
C4 C 0.2884(5) 0.9889(5) 0.4381(7)
H3 H 0.3162 0.9729 0.3781
C5 C 0.3087(5) 1.0452(5) 0.4976(8)
H4 H 0.3507 1.0675 0.4754
C6 C 0.2018(4) 0.8956(3) 0.4032(5)
C7 C 0.0079(4) 0.6921(4) 0.4210(8)
H5 H 0.0325 0.6504 0.4290
C8 C -0.0647(4) 0.6902(4) 0.4006(8)
H6 H -0.0887 0.6480 0.3940
C9 C -0.1004(5) 0.7500 0.3905(7)
C10 C -0.1780(6) 0.7500 0.3591(15)
C11 C 0.1912(10) 0.7983(9) 0.6729(12)
H7 H 0.2172 0.8321 0.6344
C12 C 0.1890(11) 0.8011(9) 0.7857(12)
H8 H 0.2096 0.8384 0.8236
C13 C 0.1569(5) 0.7500 0.8444(7)
C14 C 0.1593(5) 0.7500 0.9713(7)
N1 N 0.2748(3) 1.0705(3) 0.5824(5)
N2 N 0.0441(4) 0.7500 0.4296(6)
N3 N 0.1584(5) 0.7500 0.6135(6)
O1 O 0.1563(3) 0.7500 0.2550(5)
O2 O 0.1599(3) 0.8549(2) 0.4504(4)
O3 O 0.2248(3) 0.8901(3) 0.3070(4)
O4 O -0.2072(3) 0.6948(3) 0.3478(7)
O5 O 0.1591(5) 0.8054(3) 1.0156(4)
O6 O 0.2705(5) 0.7500 0.4179(8)
H9 H 0.2767 0.7610 0.3506
C15 C 0.3288(5) 0.7204 0.4701(8)
H10 H 0.3282 0.7305 0.5478
H11 H 0.3278 0.6720 0.4609
C16 C 0.3943(7) 0.7500 0.4151(15)
H12 H 0.4354 0.7307 0.4493
H13 H 0.3948 0.7984 0.4250
H14 H 0.3944 0.7395 0.3375
O7 O 0.4128(3) 1.1161(4) 0.6878(7)
H15 H 0.4217 1.1140 0.7567
C17 C 0.4751(5) 1.1390(6) 0.6397(12)
H16 H 0.4644 1.1710 0.5788
H17 H 0.5041 1.1629 0.6955
C18 C 0.5148(8) 1.0779(8) 0.5951(14)
H18 H 0.5589 1.0931 0.5608
H19 H 0.5254 1.0466 0.6559
H20 H 0.4858 1.0547 0.5397
H21 H 0.115(5) 0.7500 0.240(7)
Co1D Co -0.30923(5) 0.83792(4) 0.32975(7)
Co1A Co 0.19077(5) 0.83792(4) 0.17025(7)
Co1A_2 Co 0.19077(5) 0.83792(4) 1.17025(7)
Co1B Co -0.30923(5) 0.66208(4) 0.32975(7)
Co1E Co -0.19077(5) 1.16208(4) 0.82975(7)
Co1G Co 0.19077(5) 0.66208(4) 0.17025(7)
Co1G_2 Co 0.19077(5) 0.66208(4) 1.17025(7)
Co2B Co -0.15669(6) 1.2500 0.57001(9)
C1D C -0.2135(5) 0.9618(4) 0.3882(7)
H1D H -0.1870 0.9442 0.3280
C2D C -0.1891(5) 1.0182(4) 0.4417(6)
H2D H -0.1470 1.0398 0.4178
C3D C -0.2268(4) 1.0440(3) 0.5325(5)
C4D C -0.2884(5) 1.0111(5) 0.5619(7)
H3D H -0.3162 1.0271 0.6219
C5D C -0.3087(5) 0.9548(5) 0.5024(8)
H4D H -0.3507 0.9325 0.5246
C6D C -0.2018(4) 1.1044(3) 0.5968(5)
C7F C 0.0079(4) 0.8079(4) 0.4210(8)
H5F H 0.0325 0.8496 0.4290
C8F C -0.0647(4) 0.8098(4) 0.4006(8)
H6F H -0.0887 0.8520 0.3940
C11F C 0.1912(10) 0.7017(9) 0.6729(12)
H7F H 0.2172 0.6679 0.6344
C12F C 0.1890(11) 0.6989(9) 0.7857(12)
H8F H 0.2096 0.6616 0.8236
N1D N -0.2748(3) 0.9295(3) 0.4176(5)
O1A O 0.3437(3) 1.2500 0.7550(5)
O1C O -0.3437(3) 0.7500 0.2450(5)
O2D O -0.1599(3) 1.1451(2) 0.5496(4)
O2F O 0.1599(3) 0.6451(2) 0.4504(4)
O3D O -0.2248(3) 1.1099(3) 0.6930(4)
O3A O 0.2752(3) 1.1099(3) 0.8070(4)
O3E O -0.2752(3) 0.8901(3) 0.1930(4)
O4F O -0.2072(3) 0.8052(3) 0.3478(7)
O4B O 0.2072(3) 1.1948(3) 0.6522(7)
O5F O 0.1591(5) 0.6946(3) 1.0156(4)
O5A O 0.3409(5) 1.1946(3) 0.5156(4)
O5E O -0.3409(5) 0.8054(3) 0.4844(4)
H9F H 0.2767 0.7390 0.3506
C15F C 0.3288(5) 0.7796 0.4701(8)
H10F H 0.3282 0.7695 0.5478
H11F H 0.3278 0.8280 0.4609
H12F H 0.4354 0.7693 0.4493
H13F H 0.3948 0.7016 0.4250
H14F H 0.3944 0.7605 0.3375
O7D O -0.4128(3) 0.8839(4) 0.3122(7)
H15D H -0.4217 0.8860 0.2433
C17D C -0.4751(5) 0.8610(6) 0.3603(12)
H16D H -0.4644 0.8290 0.4212
H17D H -0.5041 0.8371 0.3045
C18D C -0.5148(8) 0.9221(8) 0.4049(14)
H18D H -0.5589 0.9069 0.4392
H19D H -0.5254 0.9534 0.3441
H20D H -0.4858 0.9453 0.4603
N4 N 0.0127(12) 0.5005(12) 0.381(2)
O8 O 0.0669(12) 0.5093(10) 0.3285(18)
O9 O -0.0313(16) 0.460(2) 0.347(3)
O10 O 0.0014(18) 0.5313(14) 0.467(2)
N4D N -0.0127(12) 0.4995(12) 0.619(2)
O8D O -0.0669(12) 0.4907(10) 0.6715(18)
O9D O 0.0313(16) 0.540(2) 0.653(3)
O10D O -0.0014(18) 0.4687(14) 0.533(2)
C19? C 0.1253(10) 0.7012(8) -0.3297(10)
C20? C 0.1237(9) 0.6984(7) -0.2149(11)
H22? H 0.1018 0.6666 -0.3701
H23? H 0.1005 0.6622 -0.1777
loop_
_geom_bond_atom_site_label_1
_geom_bond_atom_site_label_2
_geom_bond_site_symmetry_1
_geom_bond_site_symmetry_2
Co1 N1 1_555 1_555
Co2 N2 1_555 1_555
C1 H1 1_555 1_555
C2 C1 1_555 1_555
H2 C2 1_555 1_555
C3 C2 1_555 1_555
C4 C3 1_555 1_555
H3 C4 1_555 1_555
C5 C4 1_555 1_555
H4 C5 1_555 1_555
C6 C3 1_555 1_555
C7 H5 1_555 1_555
C8 C7 1_555 1_555
H6 C8 1_555 1_555
C9 C8 1_555 1_555
C10 C9 1_555 1_555
C11 H7 1_555 1_555
C12 C11 1_555 1_555
H8 C12 1_555 1_555
C13 C12 1_555 1_555
C14 C13 1_555 1_555
N1 C1 1_555 1_555
N2 C7 1_555 1_555
N3 Co2 1_555 1_555
O1 Co2 1_555 1_555
O2 Co2 1_555 1_555
O3 C6 1_555 1_555
O4 C10 1_555 1_555
O5 C14 1_555 1_555
O6 Co2 1_555 1_555
H9 O6 1_555 1_555
C15 O6 1_555 1_555
H10 C15 1_555 1_555
H11 C15 1_555 1_555
C16 C15 1_555 1_555
H12 C16 1_555 1_555
H13 C16 1_555 1_555
H14 C16 1_555 1_555
O7 Co1 1_555 1_555
H15 O7 1_555 1_555
C17 O7 1_555 1_555
H16 C17 1_555 1_555
H17 C17 1_555 1_555
C18 C17 1_555 1_555
H18 C18 1_555 1_555
H19 C18 1_555 1_555
H20 C18 1_555 1_555
H21 O1 1_555 1_555
N4 O8 1_555 1_555
O9 N4 1_555 1_555
O10 N4 1_555 1_555
Co1D N1D 1_555 1_555
Co1A O1 1_555 1_555
Co1A_2 O5 1_555 1_555
Co1B O4 1_555 1_555
Co1E O3D 1_555 1_555
Co1G O1 1_555 1_555
Co1G_2 O5F 1_555 1_555
Co2B O2D 1_555 1_555
C1D H1D 1_555 1_555
C2D C1D 1_555 1_555
H2D C2D 1_555 1_555
C3D C2D 1_555 1_555
C4D C3D 1_555 1_555
H3D C4D 1_555 1_555
C5D C4D 1_555 1_555
H4D C5D 1_555 1_555
C6D C3D 1_555 1_555
C7F N2 1_555 1_555
H5F C7F 1_555 1_555
C8F C9 1_555 1_555
H6F C8F 1_555 1_555
C11F N3 1_555 1_555
H7F C11F 1_555 1_555
C12F C13 1_555 1_555
H8F C12F 1_555 1_555
N1D C1D 1_555 1_555
O1A Co1 1_555 1_555
O1C Co1D 1_555 1_555
O2D C6D 1_555 1_555
O2F Co2 1_555 1_555
O3D C6D 1_555 1_555
O3A Co1 1_555 1_555
O3E Co1D 1_555 1_555
O4F C10 1_555 1_555
O4B Co1 1_555 1_555
O5F C14 1_555 1_555
O5A Co1 1_555 1_555
O5E Co1D 1_555 1_555
H9F O6 1_555 1_555
C15F O6 1_555 1_555
H10F C15 1_555 1_555
H11F C15F 1_555 1_555
H12F C16 1_555 1_555
H13F C16 1_555 1_555
H14F C16 1_555 1_555
O7D Co1D 1_555 1_555
H15D O7D 1_555 1_555
C17D O7D 1_555 1_555
H16D C17D 1_555 1_555
H17D C17D 1_555 1_555
C18D C17D 1_555 1_555
H18D C18D 1_555 1_555
H19D C18D 1_555 1_555
H20D C18D 1_555 1_555
N4D O8D 1_555 1_555
O9D N4D 1_555 1_555
O10D O10 1_555 1_555
C5 N1 1_555 1_555
C6 O2 1_555 1_555
C11 N3 1_555 1_555
O3 Co1A 1_555 1_555
C15 C15F 1_555 1_555
H10 C15F 1_555 1_555
C16 C15F 1_555 1_555
Co1D O4F 1_555 1_555
Co1B O1C 1_555 1_555
C5D N1D 1_555 1_555
C7F C8F 1_555 1_555
C11F C12F 1_555 1_555
C15F H10F 1_555 1_555
N4D O10D 1_555 1_555

#END
