
#######################################################################
#
#                 Cambridge Crystallographic Data Centre
#                                CCDC 
#
#######################################################################
#
# If this CIF has been generated from an entry in the Cambridge 
# Structural Database, then it will include bibliographic, chemical, 
# crystal, experimental, refinement or atomic coordinate data resulting 
# from the CCDC's data processing and validation procedures.
#
#######################################################################

data_OXAPAF
_chemical_formula_moiety         '(C30 H35 Co3 N4 O12 1+)n,n(N1 O3 1-)'
_chemical_name_systematic        
'catena-(tetrakis(\m~3~-isonicotinato)-(\m~3~-hydroxo)-dipropanol-aqua-tri-cobalt nitrate)'
_symmetry_cell_setting           orthorhombic
_symmetry_space_group_name_H-M   'P n m a'
_symmetry_Int_Tables_number      62
_space_group_name_Hall           '-P 2ac 2n'
loop_
_symmetry_equiv_pos_site_id
_symmetry_equiv_pos_as_xyz
1 x,y,z
2 1/2-x,-y,1/2+z
3 -x,1/2+y,-z
4 1/2+x,1/2-y,1/2-z
5 -x,-y,-z
6 1/2+x,y,1/2-z
7 x,1/2-y,z
8 1/2-x,1/2+y,1/2+z
_cell_length_a                   18.9542(19)
_cell_length_b                   19.697(2)
_cell_length_c                   12.0228(13)
_cell_angle_alpha                90
_cell_angle_beta                 90
_cell_angle_gamma                90
_cell_volume                     4488.6
_exptl_crystal_colour            red
_exptl_crystal_description       block
_cell_formula_units_Z            4
loop_
_atom_site_label
_atom_site_type_symbol
_atom_site_fract_x
_atom_site_fract_y
_atom_site_fract_z
Co1 Co 0.80589(4) 1.16279(4) 0.32238(7)
Co2 Co 0.65833(6) 0.7500 0.56412(9)
C1 C 0.7264(4) 0.9566(3) 0.5249(5)
C2 C 0.6884(5) 0.9812(4) 0.4343(6)
H1 H 0.6465 0.9591 0.4105
C3 C 0.7124(4) 1.0382(4) 0.3797(6)
H2 H 0.6859 1.0549 0.3184
C4 C 0.8072(5) 1.0482(5) 0.4958(8)
H3 H 0.8483 1.0720 0.5188
C5 C 0.7875(5) 0.9910(5) 0.5547(7)
H4 H 0.8155 0.9754 0.6151
C6 C 0.7033(3) 0.8946(3) 0.5896(6)
C7 C 0.4017(5) 0.7500 0.6133(7)
C8 C 0.4380(4) 0.6906(4) 0.5991(8)
H5 H 0.4143 0.6483 0.6050
C9 C 0.5093(4) 0.6925(3) 0.5761(8)
H6 H 0.5336 0.6507 0.5666
C10 C 0.3251(6) 0.7500 0.6463(14)
C11 C 0.6594(5) 0.7500 0.1491(8)
C12 C 0.6938(9) 0.7009(8) 0.2096(12)
H7 H 0.7181 0.6654 0.1722
C14 C 0.6932(9) 0.7028(9) 0.3225(12)
H9 H 0.7185 0.6687 0.3617
N1 N 0.7718(3) 1.0714(3) 0.4092(5)
N2 N 0.5455(4) 0.7500 0.5665(6)
N3 N 0.6590(4) 0.7500 0.3815(6)
O1 O 0.6593(3) 0.7500 0.7394(5)
O2 O 0.6609(2) 0.8547(2) 0.5437(4)
O3 O 0.7293(3) 0.8881(3) 0.6844(4)
O4 O 0.2966(3) 0.6955(3) 0.6572(7)
O5 O 0.6625(5) 0.8052(3) -0.0229(4)
O6 O 0.7717(4) 0.7500 0.5729(7)
H12 H 0.7885 0.7500 0.5083
O7 O 0.9092(3) 1.1186(4) 0.3049(7)
H13 H 0.9090 1.0801 0.3368
C16 C 0.9691(6) 1.1507(6) 0.3511(14)
H14 H 0.9931 1.1775 0.2926
H15 H 0.9538 1.1824 0.4102
C17 C 1.0210(8) 1.0997(8) 0.3998(17)
H16 H 1.0001 1.0744 0.4628
H17 H 1.0378 1.0672 0.3429
C18 C 1.0810(10) 1.1476(10) 0.4390(19)
H18 H 1.1241 1.1212 0.4513
H19 H 1.0898 1.1821 0.3820
H20 H 1.0671 1.1698 0.5086
C19 C 0.6621(5) 0.7500 0.0226(8)
Co1F Co 0.80589(4) 0.33721(4) 0.32238(7)
Co1A Co 0.69411(4) 0.83721(4) 0.82238(7)
Co1G Co 0.69411(4) 0.66279(4) 0.82238(7)
Co1B Co 0.19411(4) 0.66279(4) 0.67762(7)
Co1A_2 Co 0.69411(4) 0.83721(4) -0.17762(7)
Co1D Co 0.19411(4) 0.83721(4) 0.67762(7)
Co1G_2 Co 0.69411(4) 0.66279(4) -0.17762(7)
C1F C 0.7264(4) 0.5434(3) 0.5249(5)
C2F C 0.6884(5) 0.5188(4) 0.4343(6)
H1F H 0.6465 0.5409 0.4105
C3F C 0.7124(4) 0.4618(4) 0.3797(6)
H2F H 0.6859 0.4451 0.3184
C4F C 0.8072(5) 0.4518(5) 0.4958(8)
H3F H 0.8483 0.4280 0.5188
C5F C 0.7875(5) 0.5090(5) 0.5547(7)
H4F H 0.8155 0.5246 0.6151
C6F C 0.7033(3) 0.6054(3) 0.5896(6)
C8F C 0.4380(4) 0.8094(4) 0.5991(8)
H5F H 0.4143 0.8517 0.6050
C9F C 0.5093(4) 0.8075(3) 0.5761(8)
H6F H 0.5336 0.8493 0.5666
C12F C 0.6938(9) 0.7991(8) 0.2096(12)
H7F H 0.7181 0.8346 0.1722
C14F C 0.6932(9) 0.7972(9) 0.3225(12)
H9F H 0.7185 0.8313 0.3617
N1F N 0.7718(3) 0.4286(3) 0.4092(5)
O1A O 0.8407(3) 1.2500 0.2394(5)
O1A_2 O 0.8407(3) 0.2500 0.2394(5)
O2F O 0.6609(2) 0.6453(2) 0.5437(4)
O3F O 0.7293(3) 0.6119(3) 0.6844(4)
O3A O 0.7707(3) 1.1119(3) 0.1844(4)
O3G O 0.7707(3) 0.3881(3) 0.1844(4)
O4F O 0.2966(3) 0.8045(3) 0.6572(7)
O4B O 0.7034(3) 1.1955(3) 0.3428(7)
O4D O 0.7034(3) 0.3045(3) 0.3428(7)
O5F O 0.6625(5) 0.6948(3) -0.0229(4)
O5A O 0.8375(5) 1.1948(3) 0.4771(4)
O5G O 0.8375(5) 0.3052(3) 0.4771(4)
O7F O 0.9092(3) 0.3814(4) 0.3049(7)
H13F H 0.9090 0.4199 0.3368
C16F C 0.9691(6) 0.3493(6) 0.3511(14)
H14F H 0.9931 0.3225 0.2926
H15F H 0.9538 0.3176 0.4102
C17F C 1.0210(8) 0.4003(8) 0.3998(17)
H16F H 1.0001 0.4256 0.4628
H17F H 1.0378 0.4328 0.3429
C18F C 1.0810(10) 0.3524(10) 0.4390(19)
H18F H 1.1241 0.3788 0.4513
H19F H 1.0898 0.3179 0.3820
H20F H 1.0671 0.3302 0.5086
N4 N 0.434(3) 0.5394(18) 0.301(3)
O8 O 0.432(4) 0.486(2) 0.352(5)
O9 O 0.381(3) 0.572(2) 0.286(5)
O10 O 0.490(3) 0.559(3) 0.262(5)
C13? C 0.6240(7) 0.8006(6) 1.2080(11)
H8? H 0.6004 0.8363 1.1700
C15? C 0.6241(8) 0.7979(7) 1.3229(10)
H10? H 0.5984 0.8314 1.3626
H11? H 0.6175 0.7581 0.7612
N5? N 0.4754(18) 0.5054(12) 0.405(2)
O11? O 0.434(3) 0.488(2) 0.333(4)
O12? O 0.495(2) 0.4651(14) 0.475(3)
O13? O 0.495(2) 0.5642(12) 0.411(3)
loop_
_geom_bond_atom_site_label_1
_geom_bond_atom_site_label_2
_geom_bond_site_symmetry_1
_geom_bond_site_symmetry_2
Co1 N1 1_555 1_555
Co2 N2 1_555 1_555
C1 C2 1_555 1_555
C2 H1 1_555 1_555
C3 C2 1_555 1_555
H2 C3 1_555 1_555
C4 H3 1_555 1_555
C5 C1 1_555 1_555
H4 C5 1_555 1_555
C6 C1 1_555 1_555
C7 C8 1_555 1_555
C8 H5 1_555 1_555
C9 C8 1_555 1_555
H6 C9 1_555 1_555
C10 C7 1_555 1_555
C11 C12 1_555 1_555
C12 H7 1_555 1_555
C14 C12 1_555 1_555
H9 C14 1_555 1_555
N1 C3 1_555 1_555
N2 C9 1_555 1_555
N3 Co2 1_555 1_555
O1 Co2 1_555 1_555
O2 Co2 1_555 1_555
O3 C6 1_555 1_555
O4 C10 1_555 1_555
O5 C19 1_555 1_555
O6 Co2 1_555 1_555
H12 O6 1_555 1_555
O7 Co1 1_555 1_555
H13 O7 1_555 1_555
C16 O7 1_555 1_555
H14 C16 1_555 1_555
H15 C16 1_555 1_555
C17 C16 1_555 1_555
H16 C17 1_555 1_555
H17 C17 1_555 1_555
C18 C17 1_555 1_555
H18 C18 1_555 1_555
H19 C18 1_555 1_555
H20 C18 1_555 1_555
N4 O8 1_555 1_555
O9 N4 1_555 1_555
O10 N4 1_555 1_555
C19 C11 1_555 1_555
Co1F N1F 1_555 1_555
Co1A O1 1_555 1_555
Co1G O1 1_555 1_555
Co1B O4 1_555 1_555
Co1A_2 O5 1_555 1_555
Co1D O4F 1_555 1_555
Co1G_2 O5F 1_555 1_555
C1F C2F 1_555 1_555
C2F H1F 1_555 1_555
C3F C2F 1_555 1_555
H2F C3F 1_555 1_555
C4F H3F 1_555 1_555
C5F C1F 1_555 1_555
H4F C5F 1_555 1_555
C6F C1F 1_555 1_555
C8F C7 1_555 1_555
H5F C8F 1_555 1_555
C9F N2 1_555 1_555
H6F C9F 1_555 1_555
C12F C11 1_555 1_555
H7F C12F 1_555 1_555
C14F N3 1_555 1_555
H9F C14F 1_555 1_555
N1F C3F 1_555 1_555
O1A Co1 1_555 1_555
O1A_2 Co1F 1_555 1_555
O2F Co2 1_555 1_555
O3F Co1G 1_555 1_555
O3A Co1 1_555 1_555
O3G Co1F 1_555 1_555
O4F C10 1_555 1_555
O4B Co1 1_555 1_555
O4D Co1F 1_555 1_555
O5F C19 1_555 1_555
O5A Co1 1_555 1_555
O5G Co1F 1_555 1_555
O7F Co1F 1_555 1_555
H13F O7F 1_555 1_555
C16F O7F 1_555 1_555
H14F C16F 1_555 1_555
H15F C16F 1_555 1_555
C17F C16F 1_555 1_555
H16F C17F 1_555 1_555
H17F C17F 1_555 1_555
C18F C17F 1_555 1_555
H18F C18F 1_555 1_555
H19F C18F 1_555 1_555
H20F C18F 1_555 1_555
C4 C5 1_555 1_555
C4 N1 1_555 1_555
C6 O2 1_555 1_555
C14 N3 1_555 1_555
O3 Co1A 1_555 1_555
C4F C5F 1_555 1_555
C4F N1F 1_555 1_555
C6F O2F 1_555 1_555
C6F O3F 1_555 1_555
C8F C9F 1_555 1_555
C12F C14F 1_555 1_555

#END
