
#######################################################################
#
#                 Cambridge Crystallographic Data Centre
#                                CCDC 
#
#######################################################################
#
# If this CIF has been generated from an entry in the Cambridge 
# Structural Database, then it will include bibliographic, chemical, 
# crystal, experimental, refinement or atomic coordinate data resulting 
# from the CCDC's data processing and validation procedures.
#
#######################################################################

data_CEKHAD
_chemical_formula_moiety         '(C38 H36 Cu2 N2 O8 P4)n,n(H2 O1)'
_chemical_name_systematic        
'catena-(bis(\m~2~-Methylenebis(phenyl(phosphinato)))-(\m~2~-1,2-bis(pyridin-4-yl)ethane)-di-copper(ii) monohydrate)'
_symmetry_cell_setting           tetragonal
_symmetry_space_group_name_H-M   'I -4'
_symmetry_Int_Tables_number      82
_space_group_name_Hall           'I -4'
loop_
_symmetry_equiv_pos_site_id
_symmetry_equiv_pos_as_xyz
1 x,y,z
2 -x,-y,z
3 y,-x,-z
4 -y,x,-z
5 1/2+x,1/2+y,1/2+z
6 1/2-x,1/2-y,1/2+z
7 1/2+y,1/2-x,1/2-z
8 1/2-y,1/2+x,1/2-z
_cell_length_a                   29.610(4)
_cell_length_b                   29.610(4)
_cell_length_c                   9.770(2)
_cell_angle_alpha                90
_cell_angle_beta                 90
_cell_angle_gamma                90
_cell_volume                     8565.87
_exptl_crystal_colour            'light blue'
_exptl_crystal_description       needle
_cell_formula_units_Z            8
loop_
_atom_site_label
_atom_site_type_symbol
_atom_site_fract_x
_atom_site_fract_y
_atom_site_fract_z
Cu1 Cu 0.54500(9) 0.23503(9) 0.5314(3)
Cu2 Cu 0.56531(9) 0.23069(9) 0.0343(3)
P1 P 0.62064(17) 0.22875(17) 0.7596(5)
P2 P 0.49300(17) 0.25806(18) 0.2596(6)
P3 P 0.58415(19) 0.29813(18) 0.2899(6)
P4 P 0.55384(19) 0.30291(18) 0.7935(6)
O1 O 0.5294(4) 0.2952(4) 0.6638(12)
O2 O 0.6043(4) 0.2819(4) 0.1573(12)
O3 O 0.4961(4) 0.2381(4) 0.3985(12)
O4 O 0.5101(4) 0.2296(4) 0.1410(11)
O5 O 0.5873(4) 0.2670(4) 0.4128(12)
O6 O 0.5377(4) 0.2772(4) 0.9186(12)
O7 O 0.5972(4) 0.2110(4) 0.6317(12)
O8 O 0.6082(4) 0.2087(4) 0.8962(11)
N1 N 0.5028(6) 0.2006(6) 0.6564(14)
N2 N 0.3179(6) 0.0917(5) 1.3412(15)
C1 C 0.5248(5) 0.3110(5) 0.2654(18)
H1 H 0.5206 0.3275 0.1805
H2 H 0.5139 0.3296 0.3401
C2 C 0.6127(5) 0.2887(5) 0.7697(18)
H3 H 0.6236 0.3027 0.6862
H4 H 0.6302 0.3006 0.8455
C3 C 0.4349(3) 0.2704(4) 0.2206(15)
C4 C 0.4026(5) 0.2694(4) 0.3236(11)
H5 H 0.4113 0.2651 0.4141
C5 C 0.3572(4) 0.2747(4) 0.2914(13)
H6 H 0.3355 0.274 0.3603
C6 C 0.3441(3) 0.2811(4) 0.1561(15)
H7 H 0.3137 0.2846 0.1345
C7 C 0.3765(5) 0.2821(4) 0.0530(11)
H8 H 0.3677 0.2863 -0.0375
C8 C 0.4219(4) 0.2767(4) 0.0853(13)
H9 H 0.4435 0.2774 0.0163
C9 C 0.6100(4) 0.3509(3) 0.3406(14)
C10 C 0.6004(4) 0.3697(4) 0.4676(13)
H10 H 0.58 0.3555 0.526
C11 C 0.6212(4) 0.4097(4) 0.5073(11)
H11 H 0.6147 0.4223 0.5923
C12 C 0.6516(4) 0.4309(3) 0.4201(14)
H12 H 0.6655 0.4576 0.4467
C13 C 0.6613(4) 0.4120(4) 0.2931(13)
H13 H 0.6816 0.4262 0.2347
C14 C 0.6405(4) 0.3720(4) 0.2533(11)
H14 H 0.6469 0.3594 0.1683
C15 C 0.5536(4) 0.3618(3) 0.8340(15)
C16 C 0.5789(4) 0.3790(5) 0.9419(13)
H15 H 0.5948 0.3596 0.9988
C17 C 0.5803(5) 0.4253(5) 0.9647(13)
H16 H 0.5972 0.4369 1.0369
C18 C 0.5565(5) 0.4544(3) 0.8796(17)
H17 H 0.5574 0.4854 0.8949
C19 C 0.5312(4) 0.4372(5) 0.7717(14)
H18 H 0.5152 0.4567 0.7148
C20 C 0.5297(4) 0.3909(5) 0.7489(12)
H19 H 0.5128 0.3794 0.6768
C21 C 0.6795(3) 0.2181(4) 0.7355(15)
C22 C 0.7053(5) 0.1954(4) 0.8325(12)
H20 H 0.6915 0.1827 0.9088
C23 C 0.7518(5) 0.1918(4) 0.8155(14)
H21 H 0.769 0.1766 0.8804
C24 C 0.7725(3) 0.2108(5) 0.7015(17)
H22 H 0.8035 0.2083 0.6901
C25 C 0.7467(5) 0.2335(4) 0.6045(13)
H23 H 0.7605 0.2462 0.5282
C26 C 0.7002(4) 0.2371(4) 0.6215(13)
H24 H 0.683 0.2523 0.5566
C27 C 0.5168(7) 0.1644(7) 0.721(2)
H25 H 0.5462 0.1543 0.7077
C28 C 0.4864(9) 0.1394(8) 0.813(2)
H26 H 0.495 0.112 0.852
C29 C 0.4432(9) 0.1587(9) 0.842(3)
C30 C 0.4322(8) 0.1983(8) 0.770(2)
H27 H 0.4044 0.2122 0.7857
C31 C 0.4626(7) 0.2172(7) 0.676(2)
H28 H 0.4538 0.2425 0.6262
C32 C 0.4066(8) 0.1348(8) 0.925(2)
H29 H 0.3769 0.1471 0.9053
H30 H 0.4064 0.1026 0.9074
C33 C 0.4207(8) 0.1449(9) 1.068(2)
H31 H 0.4243 0.1771 1.0829
H32 H 0.4486 0.1296 1.0918
C34 C 0.3808(10) 0.1263(12) 1.150(3)
C35 C 0.3473(8) 0.0640(7) 1.287(2)
H33 H 0.3465 0.0335 1.3095
C36 C 0.3813(11) 0.0802(10) 1.191(3)
H34 H 0.4030 0.061 1.1563
C37 C 0.3467(9) 0.1517(9) 1.209(3)
H35 H 0.344 0.1820 1.1854
C38 C 0.3148(7) 0.1338(8) 1.304(2)
H36 H 0.292 0.152 1.3386
Cu2_2 Cu 0.56531(9) 0.23069(9) 1.0343(3)
Cu2G Cu 0.26931(9) 0.06531(9) 1.4657(3)
O6_2 O 0.5377(4) 0.2772(4) -0.0814(12)
O8_2 O 0.6082(4) 0.2087(4) -0.1038(11)
N2F N 0.5917(5) 0.1821(6) 0.1588(15)
O9 O 0.6025(13) 0.1091(11) 0.902(4)
O10 O 0.4549(14) 0.1423(12) 0.398(5)
loop_
_geom_bond_atom_site_label_1
_geom_bond_atom_site_label_2
_geom_bond_site_symmetry_1
_geom_bond_site_symmetry_2
Cu1 O1 1_555 1_555
Cu2 O2 1_555 1_555
P1 O7 1_555 1_555
P2 O3 1_555 1_555
P3 O2 1_555 1_555
P4 O1 1_555 1_555
O3 Cu1 1_555 1_555
O4 Cu2 1_555 1_555
O5 Cu1 1_555 1_555
O6 P4 1_555 1_555
O7 Cu1 1_555 1_555
O8 P1 1_555 1_555
N1 Cu1 1_555 1_555
N2 C35 1_555 1_555
C1 P2 1_555 1_555
H1 C1 1_555 1_555
H2 C1 1_555 1_555
C2 P1 1_555 1_555
H3 C2 1_555 1_555
H4 C2 1_555 1_555
C3 P2 1_555 1_555
C4 C3 1_555 1_555
H5 C4 1_555 1_555
C5 C4 1_555 1_555
H6 C5 1_555 1_555
C6 C5 1_555 1_555
H7 C6 1_555 1_555
C7 C6 1_555 1_555
H8 C7 1_555 1_555
C8 C3 1_555 1_555
H9 C8 1_555 1_555
C9 P3 1_555 1_555
C10 C9 1_555 1_555
H10 C10 1_555 1_555
C11 C10 1_555 1_555
H11 C11 1_555 1_555
C12 C11 1_555 1_555
H12 C12 1_555 1_555
C13 C12 1_555 1_555
H13 C13 1_555 1_555
C14 C9 1_555 1_555
H14 C14 1_555 1_555
C15 P4 1_555 1_555
C16 C15 1_555 1_555
H15 C16 1_555 1_555
C17 C16 1_555 1_555
H16 C17 1_555 1_555
C18 C17 1_555 1_555
H17 C18 1_555 1_555
C19 C18 1_555 1_555
H18 C19 1_555 1_555
C20 C15 1_555 1_555
H19 C20 1_555 1_555
C21 P1 1_555 1_555
C22 C21 1_555 1_555
H20 C22 1_555 1_555
C23 C22 1_555 1_555
H21 C23 1_555 1_555
C24 C23 1_555 1_555
H22 C24 1_555 1_555
C25 C24 1_555 1_555
H23 C25 1_555 1_555
C26 C21 1_555 1_555
H24 C26 1_555 1_555
C27 N1 1_555 1_555
H25 C27 1_555 1_555
C28 C27 1_555 1_555
H26 C28 1_555 1_555
C29 C28 1_555 1_555
C30 C29 1_555 1_555
H27 C30 1_555 1_555
C31 N1 1_555 1_555
H28 C31 1_555 1_555
C32 C29 1_555 1_555
H29 C32 1_555 1_555
H30 C32 1_555 1_555
C33 C32 1_555 1_555
H31 C33 1_555 1_555
H32 C33 1_555 1_555
C34 C33 1_555 1_555
C35 H33 1_555 1_555
C36 C34 1_555 1_555
H34 C36 1_555 1_555
C37 C34 1_555 1_555
H35 C37 1_555 1_555
C38 N2 1_555 1_555
H36 C38 1_555 1_555
Cu2_2 O6 1_555 1_555
Cu2G N2 1_555 1_555
O6_2 Cu2 1_555 1_555
O8_2 Cu2 1_555 1_555
N2F Cu2 1_555 1_555
P2 O4 1_555 1_555
P3 O5 1_555 1_555
P3 C1 1_555 1_555
P4 C2 1_555 1_555
O8 Cu2_2 1_555 1_555
C7 C8 1_555 1_555
C13 C14 1_555 1_555
C19 C20 1_555 1_555
C25 C26 1_555 1_555
C30 C31 1_555 1_555
C35 C36 1_555 1_555
C37 C38 1_555 1_555

#END
