
#######################################################################
#
#                 Cambridge Crystallographic Data Centre
#                                CCDC 
#
#######################################################################
#
# If this CIF has been generated from an entry in the Cambridge 
# Structural Database, then it will include bibliographic, chemical, 
# crystal, experimental, refinement or atomic coordinate data resulting 
# from the CCDC's data processing and validation procedures.
#
#######################################################################

data_DOHDOU
_chemical_formula_moiety         '(C3 H4 Mg1 O6)n,n(C2 H7 N1)'
_chemical_name_systematic        
'catena-(bis(\m~2~-formato)-(\m~2~-formic acid)-magnesium(ii) dimethylamine)'
_symmetry_cell_setting           rhombohedral
_symmetry_space_group_name_H-M   'R -3 c'
_symmetry_Int_Tables_number      167
_space_group_name_Hall           '-R 3 2"c'
loop_
_symmetry_equiv_pos_site_id
_symmetry_equiv_pos_as_xyz
1 x,y,z
2 -y,x-y,z
3 -x+y,-x,z
4 y,x,1/2-z
5 2/3+x,1/3+y,1/3+z
6 2/3-y,1/3+x-y,1/3+z
7 2/3-x+y,1/3-x,1/3+z
8 2/3+y,1/3+x,5/6-z
9 1/3+x,2/3+y,2/3+z
10 1/3+y,2/3+x,1/6-z
11 x-y,-y,1/2-z
12 -x,-x+y,1/2-z
13 1/3-y,2/3+x-y,2/3+z
14 1/3-x+y,2/3-x,2/3+z
15 1/3+x-y,2/3-y,1/6-z
16 1/3-x,2/3-x+y,1/6-z
17 2/3+x-y,1/3-y,5/6-z
18 2/3-x,1/3-x+y,5/6-z
19 -x,-y,-z
20 y,-x+y,-z
21 x-y,x,-z
22 -y,-x,1/2+z
23 1/3-x,2/3-y,2/3-z
24 1/3+y,2/3-x+y,2/3-z
25 1/3+x-y,2/3+x,2/3-z
26 1/3-y,2/3-x,1/6+z
27 2/3-x,1/3-y,1/3-z
28 2/3-y,1/3-x,5/6+z
29 -x+y,y,1/2+z
30 x,x-y,1/2+z
31 2/3+y,1/3-x+y,1/3-z
32 2/3+x-y,1/3+x,1/3-z
33 2/3-x+y,1/3+y,5/6+z
34 2/3+x,1/3+x-y,5/6+z
35 1/3-x+y,2/3+y,1/6+z
36 1/3+x,2/3+x-y,1/6+z
_cell_length_a                   8.149(3)
_cell_length_b                   8.149(3)
_cell_length_c                   22.598(8)
_cell_angle_alpha                90
_cell_angle_beta                 90
_cell_angle_gamma                120
_cell_volume                     1299.6
_exptl_crystal_colour            colorless
_exptl_crystal_description       cubic
_cell_formula_units_Z            6
loop_
_atom_site_label
_atom_site_type_symbol
_atom_site_fract_x
_atom_site_fract_y
_atom_site_fract_z
Mg1 Mg 1.0000 0.0000 0.00000
O1 O 0.7894(2) 0.0002(2) 0.05287(7)
C2 C 0.6667 -0.1286(4) 0.0833
H1 H 0.6667 -0.235(5) 0.0833
Mg1I Mg 0.3333 -0.3333 0.16667
Mg1I_2 Mg 1.3333 -0.3333 0.16667
Mg1I_3 Mg 1.3333 0.6667 0.16667
O1O O 0.5439(2) -0.1225(3) 0.11380(7)
O1A O 0.9998(2) -0.2108(3) 0.05287(7)
O1N O 1.1225(3) -0.3335(2) 0.11380(7)
O1B O 1.2108(3) 0.2106(2) 0.05287(7)
O1I O 1.3335(2) 0.4561(2) 0.11380(7)
O1R O 1.2106(2) -0.0002(2) -0.05287(7)
O1S O 1.0002(2) 0.2108(3) -0.05287(7)
O1T O 0.7892(3) -0.2106(2) -0.05287(7)
C2A C 1.1286(4) -0.2047(4) 0.0833
C2B C 1.2047(4) 0.3333 0.0833
H1A H 1.235(5) -0.0983(50) 0.0833
H1B H 1.0983(50) 0.3333 0.0833
C1 C 1.0000 0.0000 0.1957(3)
N1 N 1.0907(11) 0.0907(11) 0.25000
C1C C 1.0000 0.0000 0.3043(3)
N1B N 1.0000(16) -0.0907(11) 0.25000
N1A N 0.9093(11) 0.0000(16) 0.25000
loop_
_geom_bond_atom_site_label_1
_geom_bond_atom_site_label_2
_geom_bond_site_symmetry_1
_geom_bond_site_symmetry_2
C1 N1 1_555 1_555
N1 C1C 1_555 1_555
Mg1 O1 1_555 1_555
O1 C2 1_555 1_555
C2 H1 1_555 1_555
C1C N1B 1_555 1_555
N1B C1 1_555 1_555
N1A C1 1_555 1_555
Mg1I O1O 1_555 1_555
Mg1I_2 O1N 1_555 1_555
Mg1I_3 O1I 1_555 1_555
O1O C2 1_555 1_555
O1A Mg1 1_555 1_555
O1N C2A 1_555 1_555
O1B Mg1 1_555 1_555
O1I C2B 1_555 1_555
O1R Mg1 1_555 1_555
O1S Mg1 1_555 1_555
O1T Mg1 1_555 1_555
C2A O1A 1_555 1_555
C2B O1B 1_555 1_555
H1A C2A 1_555 1_555
H1B C2B 1_555 1_555
N1 N1B 1_555 1_555
N1 N1A 1_555 1_555
C1C N1A 1_555 1_555
N1B N1A 1_555 1_555

#END
