
#######################################################################
#
#                 Cambridge Crystallographic Data Centre
#                                CCDC 
#
#######################################################################
#
# If this CIF has been generated from an entry in the Cambridge 
# Structural Database, then it will include bibliographic, chemical, 
# crystal, experimental, refinement or atomic coordinate data resulting 
# from the CCDC's data processing and validation procedures.
#
#######################################################################

data_WAJJEY01
_chemical_formula_moiety         '(C9 H3 Li1 O6 Zn1)n,n(N2)'
_chemical_name_systematic        
'catena-((\m~8~-Benzene-1,3,5-tricarboxylato)-lithium-zinc dinitrogen clathrate)'
_symmetry_cell_setting           tetragonal
_symmetry_space_group_name_H-M   'P 41 21 2'
_symmetry_Int_Tables_number      92
_space_group_name_Hall           'P 4abw 2nw'
loop_
_symmetry_equiv_pos_site_id
_symmetry_equiv_pos_as_xyz
1 x,y,z
2 -x,-y,1/2+z
3 1/2-y,1/2+x,1/4+z
4 1/2+y,1/2-x,3/4+z
5 1/2-x,1/2+y,1/4-z
6 1/2+x,1/2-y,3/4-z
7 y,x,-z
8 -y,-x,1/2-z
_cell_length_a                   16.3514(6)
_cell_length_b                   16.3514(6)
_cell_length_c                   11.2764(8)
_cell_angle_alpha                90
_cell_angle_beta                 90
_cell_angle_gamma                90
_cell_volume                     3014.95
_exptl_crystal_colour            colorless
_exptl_crystal_description       block
_cell_formula_units_Z            8
loop_
_atom_site_label
_atom_site_type_symbol
_atom_site_fract_x
_atom_site_fract_y
_atom_site_fract_z
_atom_site_U_iso_or_equiv
_atom_site_thermal_displace_type
Li1 Li 0.1745(3) 0.5961(3) 0.8727(4) 0.0163 Uani
Zn1 Zn 0.082855(18) 0.674027(18) 0.08990(3) 0.0117 Uani
O1 O 0.00156(10) 0.68133(10) 0.22735(16) 0.0116 Uani
O2 O -0.05991(11) 0.60966(11) 0.36988(17) 0.0160 Uani
O3 O 0.24970(10) 0.82881(11) 0.40573(18) 0.0166 Uani
O4 O 0.31548(11) 0.77081(11) 0.55717(18) 0.0194 Uani
O5 O 0.19358(11) 0.51555(11) 0.74039(17) 0.0133 Uani
O6 O 0.12316(11) 0.43853(11) 0.61515(18) 0.0181 Uani
C1 C 0.00127(16) 0.64442(14) 0.3259(2) 0.0115 Uani
C2 C 0.26037(16) 0.77207(16) 0.4821(3) 0.0137 Uani
C3 C 0.15604(15) 0.50412(16) 0.6416(2) 0.0128 Uani
C4 C 0.07689(16) 0.64147(15) 0.4000(2) 0.0124 Uani
C5 C 0.13497(15) 0.70408(15) 0.3980(3) 0.0133 Uani
H1 H 0.1304 0.7462 0.3430 0.0130 Uiso
C6 C 0.19965(16) 0.70337(16) 0.4782(3) 0.0141 Uani
C7 C 0.20731(16) 0.63904(16) 0.5593(2) 0.0150 Uani
H2 H 0.2497 0.6391 0.6142 0.0080 Uiso
C8 C 0.15081(15) 0.57445(16) 0.5574(2) 0.0123 Uani
C9 C 0.08529(16) 0.57688(16) 0.4785(2) 0.0130 Uani
H3 H 0.0469 0.5349 0.4786 0.0060 Uiso
Li1B Li -0.0961(3) 0.6745(3) 0.1227(4) 0.0163 Uani
Li1G Li 0.4039(3) 0.8255(3) 0.6273(4) 0.0163 Uani
Li1C Li 0.0961(3) 0.3255(3) 0.6227(4) 0.0163 Uani
Zn1B Zn -0.174027(18) 0.582855(18) 0.33990(3) 0.0117 Uani
Zn1G Zn 0.325973(18) 0.917145(18) 0.41010(3) 0.0117 Uani
Zn1C Zn 0.174027(18) 0.417145(18) 0.83990(3) 0.0117 Uani
O1C O 0.18133(10) 0.49844(10) 0.97735(16) 0.0116 Uani
O2C O 0.10966(11) 0.55991(11) 0.11988(17) 0.0160 Uani
O3G O 0.17119(11) 0.75030(10) 0.09427(18) 0.0166 Uani
O4G O 0.22919(11) 0.68452(11) 0.94283(18) 0.0194 Uani
O5B O -0.01555(11) 0.69358(11) -0.00961(17) 0.0133 Uani
O6B O 0.06147(11) 0.62316(11) 0.86515(18) 0.0181 Uani
loop_
_atom_site_aniso_label
_atom_site_aniso_U_11
_atom_site_aniso_U_22
_atom_site_aniso_U_33
_atom_site_aniso_U_23
_atom_site_aniso_U_13
_atom_site_aniso_U_12
Li1 0.014(2) 0.018(2) 0.017(2) -0.0046(18) -0.0040(19) -0.0005(19)
Zn1 0.01077(16) 0.01209(16) 0.01219(15) 0.00042(13) 0.00018(13) -0.00078(13)
O1 0.0126(9) 0.0116(9) 0.0105(10) 0.0001(8) -0.0006(8) 0.0002(7)
O2 0.0111(9) 0.0198(10) 0.0170(11) 0.0031(8) -0.0019(8) -0.0034(7)
O3 0.0147(9) 0.0152(9) 0.0199(10) 0.0019(9) -0.0024(8) -0.0060(7)
O4 0.0173(10) 0.0194(10) 0.0215(12) 0.0009(8) -0.0056(9) -0.0065(8)
O5 0.0166(10) 0.0136(9) 0.0098(10) 0.0019(8) 0.0012(8) 0.0022(7)
O6 0.0197(10) 0.0137(10) 0.0210(12) 0.0019(8) -0.0033(8) -0.0039(8)
C1 0.0141(13) 0.0076(12) 0.0127(15) -0.0021(11) -0.0019(11) -0.0007(10)
C2 0.0137(13) 0.0127(13) 0.0147(15) -0.0021(11) 0.0015(12) -0.0013(11)
C3 0.0127(13) 0.0158(13) 0.0099(15) 0.0037(11) 0.0024(11) 0.0017(10)
C4 0.0132(12) 0.0140(12) 0.0099(13) 0.0013(11) -0.0023(11) -0.0002(11)
C5 0.0140(13) 0.0122(13) 0.0136(15) 0.0019(11) 0.0000(12) 0.0004(10)
C6 0.0138(13) 0.0144(13) 0.0142(15) -0.0026(11) 0.0001(11) -0.0025(10)
C7 0.0143(13) 0.0172(14) 0.0136(16) 0.0034(11) -0.0030(11) -0.0007(11)
C8 0.0141(13) 0.0132(13) 0.0095(13) 0.0016(10) -0.0008(10) 0.0017(11)
C9 0.0136(12) 0.0118(12) 0.0137(14) -0.0011(11) 0.0000(11) -0.0014(11)
Li1B 0.018 0.014 0.017 -0.004 0.0046 0.0005
Li1G 0.018 0.014 0.017 -0.004 -0.0046 -0.0005
Li1C 0.018 0.014 0.017 0.004 -0.0046 0.0005
Zn1B 0.01209 0.01077 0.01219 0.00018 -0.00042 0.00078
Zn1G 0.01209 0.01077 0.01219 0.00018 0.00042 -0.00078
Zn1C 0.01209 0.01077 0.01219 -0.00018 0.00042 0.00078
O1C 0.0116 0.0126 0.0105 0.0006 0.0001 -0.0002
O2C 0.0198 0.0111 0.017 0.0019 0.0031 0.0034
O3G 0.0152 0.0147 0.0199 -0.0024 0.0019 -0.006
O4G 0.0194 0.0173 0.0215 -0.0056 0.0009 -0.0065
O5B 0.0136 0.0166 0.0098 0.0012 -0.0019 -0.0022
O6B 0.0137 0.0197 0.021 -0.0033 -0.0019 0.0039
loop_
_geom_bond_atom_site_label_1
_geom_bond_atom_site_label_2
_geom_bond_site_symmetry_1
_geom_bond_site_symmetry_2
Li1 O5 1_555 1_555
Zn1 O1 1_555 1_555
O1 C1 1_555 1_555
O2 C1 1_555 1_555
O3 C2 1_555 1_555
O4 C2 1_555 1_555
O5 C3 1_555 1_555
O6 C3 1_555 1_555
C1 C4 1_555 1_555
C2 C6 1_555 1_555
C3 C8 1_555 1_555
C4 C5 1_555 1_555
C5 H1 1_555 1_555
C6 C5 1_555 1_555
C7 C6 1_555 1_555
H2 C7 1_555 1_555
C8 C7 1_555 1_555
C9 C4 1_555 1_555
H3 C9 1_555 1_555
Li1B O1 1_555 1_555
Li1G O4 1_555 1_555
Li1C O6 1_555 1_555
Zn1B O2 1_555 1_555
Zn1G O3 1_555 1_555
Zn1C O5 1_555 1_555
O1C Li1 1_555 1_555
O2C Zn1 1_555 1_555
O3G Zn1 1_555 1_555
O4G Li1 1_555 1_555
O5B Zn1 1_555 1_555
O6B Li1 1_555 1_555
C8 C9 1_555 1_555
Li1B O5B 1_555 1_555
Zn1C O1C 1_555 1_555

#END
