
#######################################################################
#
#                 Cambridge Crystallographic Data Centre
#                                CCDC 
#
#######################################################################
#
# If this CIF has been generated from an entry in the Cambridge 
# Structural Database, then it will include bibliographic, chemical, 
# crystal, experimental, refinement or atomic coordinate data resulting 
# from the CCDC's data processing and validation procedures.
#
#######################################################################

data_DOTSOV42
_chemical_name_common            HKUST-1
_chemical_formula_moiety         '(C36 H12 Cu6 O24)n'
_chemical_name_systematic        
catena-(tetrakis(\m~6~-1,3,5-Benzenetricarboxylato)-hexa-copper)
_symmetry_cell_setting           cubic
_symmetry_space_group_name_H-M   'F m -3 m'
_symmetry_Int_Tables_number      225
_space_group_name_Hall           '-F 4 2 3'
loop_
_symmetry_equiv_pos_site_id
_symmetry_equiv_pos_as_xyz
1 x,y,z
2 z,x,y
3 y,z,x
4 -z,x,-y
5 -y,-z,x
6 y,-z,-x
7 -x,y,-z
8 -z,-x,y
9 x,-y,-z
10 y,x,-z
11 -z,y,x
12 x,-z,y
13 -x,-y,z
14 z,-x,-y
15 -y,z,-x
16 -y,-x,-z
17 -z,-y,-x
18 -x,-z,-y
19 z,-y,x
20 x,z,-y
21 -x,z,y
22 y,-x,z
23 z,y,-x
24 -y,x,z
25 x,1/2+y,1/2+z
26 z,1/2+x,1/2+y
27 y,1/2+z,1/2+x
28 -z,1/2+x,1/2-y
29 -y,1/2-z,1/2+x
30 y,1/2-z,1/2-x
31 -x,1/2+y,1/2-z
32 -z,1/2-x,1/2+y
33 x,1/2-y,1/2-z
34 y,1/2+x,1/2-z
35 -z,1/2+y,1/2+x
36 x,1/2-z,1/2+y
37 -x,1/2-y,1/2+z
38 z,1/2-x,1/2-y
39 -y,1/2+z,1/2-x
40 -y,1/2-x,1/2-z
41 -z,1/2-y,1/2-x
42 -x,1/2-z,1/2-y
43 z,1/2-y,1/2+x
44 x,1/2+z,1/2-y
45 -x,1/2+z,1/2+y
46 y,1/2-x,1/2+z
47 z,1/2+y,1/2-x
48 -y,1/2+x,1/2+z
49 1/2+x,y,1/2+z
50 1/2+z,x,1/2+y
51 1/2+y,z,1/2+x
52 1/2-z,x,1/2-y
53 1/2-y,-z,1/2+x
54 1/2+y,-z,1/2-x
55 1/2-x,y,1/2-z
56 1/2-z,-x,1/2+y
57 1/2+x,-y,1/2-z
58 1/2+y,x,1/2-z
59 1/2-z,y,1/2+x
60 1/2+x,-z,1/2+y
61 1/2-x,-y,1/2+z
62 1/2+z,-x,1/2-y
63 1/2-y,z,1/2-x
64 1/2-y,-x,1/2-z
65 1/2-z,-y,1/2-x
66 1/2-x,-z,1/2-y
67 1/2+z,-y,1/2+x
68 1/2+x,z,1/2-y
69 1/2-x,z,1/2+y
70 1/2+y,-x,1/2+z
71 1/2+z,y,1/2-x
72 1/2-y,x,1/2+z
73 1/2+x,1/2+y,z
74 1/2+z,1/2+x,y
75 1/2+y,1/2+z,x
76 1/2-z,1/2+x,-y
77 1/2-y,1/2-z,x
78 1/2+y,1/2-z,-x
79 1/2-x,1/2+y,-z
80 1/2-z,1/2-x,y
81 1/2+x,1/2-y,-z
82 1/2+y,1/2+x,-z
83 1/2-z,1/2+y,x
84 1/2+x,1/2-z,y
85 1/2-x,1/2-y,z
86 1/2+z,1/2-x,-y
87 1/2-y,1/2+z,-x
88 1/2-y,1/2-x,-z
89 1/2-z,1/2-y,-x
90 1/2-x,1/2-z,-y
91 1/2+z,1/2-y,x
92 1/2+x,1/2+z,-y
93 1/2-x,1/2+z,y
94 1/2+y,1/2-x,z
95 1/2+z,1/2+y,-x
96 1/2-y,1/2+x,z
97 -x,-y,-z
98 -z,-x,-y
99 -y,-z,-x
100 z,-x,y
101 y,z,-x
102 -y,z,x
103 x,-y,z
104 z,x,-y
105 -x,y,z
106 -y,-x,z
107 z,-y,-x
108 -x,z,-y
109 x,y,-z
110 -z,x,y
111 y,-z,x
112 y,x,z
113 z,y,x
114 x,z,y
115 -z,y,-x
116 -x,-z,y
117 x,-z,-y
118 -y,x,-z
119 -z,-y,x
120 y,-x,-z
121 -x,1/2-y,1/2-z
122 -z,1/2-x,1/2-y
123 -y,1/2-z,1/2-x
124 z,1/2-x,1/2+y
125 y,1/2+z,1/2-x
126 -y,1/2+z,1/2+x
127 x,1/2-y,1/2+z
128 z,1/2+x,1/2-y
129 -x,1/2+y,1/2+z
130 -y,1/2-x,1/2+z
131 z,1/2-y,1/2-x
132 -x,1/2+z,1/2-y
133 x,1/2+y,1/2-z
134 -z,1/2+x,1/2+y
135 y,1/2-z,1/2+x
136 y,1/2+x,1/2+z
137 z,1/2+y,1/2+x
138 x,1/2+z,1/2+y
139 -z,1/2+y,1/2-x
140 -x,1/2-z,1/2+y
141 x,1/2-z,1/2-y
142 -y,1/2+x,1/2-z
143 -z,1/2-y,1/2+x
144 y,1/2-x,1/2-z
145 1/2-x,-y,1/2-z
146 1/2-z,-x,1/2-y
147 1/2-y,-z,1/2-x
148 1/2+z,-x,1/2+y
149 1/2+y,z,1/2-x
150 1/2-y,z,1/2+x
151 1/2+x,-y,1/2+z
152 1/2+z,x,1/2-y
153 1/2-x,y,1/2+z
154 1/2-y,-x,1/2+z
155 1/2+z,-y,1/2-x
156 1/2-x,z,1/2-y
157 1/2+x,y,1/2-z
158 1/2-z,x,1/2+y
159 1/2+y,-z,1/2+x
160 1/2+y,x,1/2+z
161 1/2+z,y,1/2+x
162 1/2+x,z,1/2+y
163 1/2-z,y,1/2-x
164 1/2-x,-z,1/2+y
165 1/2+x,-z,1/2-y
166 1/2-y,x,1/2-z
167 1/2-z,-y,1/2+x
168 1/2+y,-x,1/2-z
169 1/2-x,1/2-y,-z
170 1/2-z,1/2-x,-y
171 1/2-y,1/2-z,-x
172 1/2+z,1/2-x,y
173 1/2+y,1/2+z,-x
174 1/2-y,1/2+z,x
175 1/2+x,1/2-y,z
176 1/2+z,1/2+x,-y
177 1/2-x,1/2+y,z
178 1/2-y,1/2-x,z
179 1/2+z,1/2-y,-x
180 1/2-x,1/2+z,-y
181 1/2+x,1/2+y,-z
182 1/2-z,1/2+x,y
183 1/2+y,1/2-z,x
184 1/2+y,1/2+x,z
185 1/2+z,1/2+y,x
186 1/2+x,1/2+z,y
187 1/2-z,1/2+y,-x
188 1/2-x,1/2-z,y
189 1/2+x,1/2-z,-y
190 1/2-y,1/2+x,-z
191 1/2-z,1/2-y,x
192 1/2+y,1/2-x,-z
_cell_length_a                   26.28791(29)
_cell_length_b                   26.28791(29)
_cell_length_c                   26.28791(29)
_cell_angle_alpha                90
_cell_angle_beta                 90
_cell_angle_gamma                90
_cell_volume                     18166.4
_cell_formula_units_Z            8
loop_
_atom_site_label
_atom_site_type_symbol
_atom_site_fract_x
_atom_site_fract_y
_atom_site_fract_z
_atom_site_U_iso_or_equiv
_atom_site_thermal_displace_type
Cu1 Cu 0.28322 0.28322 0.00000 0.0033 Uiso
O1 O 0.31698 0.24421 -0.05251 0.0111 Uiso
C1 C 0.32187 0.17813 -0.11334 0.0073 Uiso
C2 C 0.29644 0.20356 -0.06939 0.0099 Uiso
C3 C 0.36497 0.20129 -0.13503 0.0112 Uiso
H1 H 0.38019 0.23407 -0.11982 0.0283 Uiso
Cu1FC Cu 0.21678 0.21678 0.00000 0.0033 Uiso
Cu1WA Cu 0.50000 0.28322 -0.21678 0.0033 Uiso
Cu1GC Cu 0.50000 0.21678 -0.28322 0.0033 Uiso
Cu1E Cu 0.28322 0.00000 -0.28322 0.0033 Uiso
Cu1ZA Cu 0.21678 0.00000 -0.21678 0.0033 Uiso
Cu1YA Cu 0.50000 0.28322 0.21678 0.0033 Uiso
Cu1AC Cu 0.50000 0.21678 0.28322 0.0033 Uiso
Cu1B Cu 0.28322 0.00000 0.28322 0.0033 Uiso
Cu1JB Cu 0.21678 0.00000 0.21678 0.0033 Uiso
Cu1Z Cu 0.28322 0.50000 -0.21678 0.0033 Uiso
Cu1HC Cu 0.21678 0.50000 -0.28322 0.0033 Uiso
Cu1C Cu 0.00000 0.28322 -0.28322 0.0033 Uiso
Cu1EA Cu 0.00000 0.21678 -0.21678 0.0033 Uiso
Cu1CA Cu 0.28322 0.50000 0.21678 0.0033 Uiso
Cu1XB Cu 0.21678 0.50000 0.28322 0.0033 Uiso
Cu1A Cu 0.00000 0.28322 0.28322 0.0033 Uiso
Cu1KA Cu 0.00000 0.21678 0.21678 0.0033 Uiso
O1UF O 0.25579 0.18302 -0.05251 0.0111 Uiso
O1DF O 0.44749 0.24421 -0.18302 0.0111 Uiso
O1GC O 0.44749 0.18302 -0.24421 0.0111 Uiso
O1LD O 0.31698 0.05251 -0.24421 0.0111 Uiso
O1ZA O 0.25579 0.05251 -0.18302 0.0111 Uiso
O1DD O 0.31698 0.24421 0.05251 0.0111 Uiso
O1IC O 0.25579 0.18302 0.05251 0.0111 Uiso
O1RB O 0.44749 0.24421 0.18302 0.0111 Uiso
O1OF O 0.44749 0.18302 0.24421 0.0111 Uiso
O1K O 0.31698 0.05251 0.24421 0.0111 Uiso
O1PE O 0.25579 0.05251 0.18302 0.0111 Uiso
O1GD O 0.24421 0.31698 -0.05251 0.0111 Uiso
O1FC O 0.18302 0.25579 -0.05251 0.0111 Uiso
O1Z O 0.24421 0.44749 -0.18302 0.0111 Uiso
O1WF O 0.18302 0.44749 -0.24421 0.0111 Uiso
O1C O 0.05251 0.31698 -0.24421 0.0111 Uiso
O1LE O 0.05251 0.25579 -0.18302 0.0111 Uiso
O1I O 0.24421 0.31698 0.05251 0.0111 Uiso
O1LF O 0.18302 0.25579 0.05251 0.0111 Uiso
O1TD O 0.24421 0.44749 0.18302 0.0111 Uiso
O1NC O 0.18302 0.44749 0.24421 0.0111 Uiso
O1ED O 0.05251 0.31698 0.24421 0.0111 Uiso
O1NA O 0.05251 0.25579 0.18302 0.0111 Uiso
O1FB O 0.55251 0.24421 -0.18302 0.0111 Uiso
O1WA O 0.44749 0.31698 -0.25579 0.0111 Uiso
O1AF O 0.55251 0.31698 -0.25579 0.0111 Uiso
O1MF O 0.55251 0.18302 -0.24421 0.0111 Uiso
O1VF O 0.44749 0.25579 -0.31698 0.0111 Uiso
O1JC O 0.55251 0.25579 -0.31698 0.0111 Uiso
O1S O 0.31698 -0.05251 -0.24421 0.0111 Uiso
O1E O 0.24421 0.05251 -0.31698 0.0111 Uiso
O1VC O 0.24421 -0.05251 -0.31698 0.0111 Uiso
O1SE O 0.25579 -0.05251 -0.18302 0.0111 Uiso
O1GF O 0.18302 0.05251 -0.25579 0.0111 Uiso
O1PB O 0.18302 -0.05251 -0.25579 0.0111 Uiso
C1GC C 0.38666 0.17813 -0.17813 0.0073 Uiso
C1ZA C 0.32187 0.11334 -0.17813 0.0073 Uiso
C1IC C 0.32187 0.17813 0.11334 0.0073 Uiso
C1RB C 0.38666 0.17813 0.17813 0.0073 Uiso
C1K C 0.32187 0.11334 0.17813 0.0073 Uiso
C1FC C 0.17813 0.32187 -0.11334 0.0073 Uiso
C1Z C 0.17813 0.38666 -0.17813 0.0073 Uiso
C1C C 0.11334 0.32187 -0.17813 0.0073 Uiso
C1I C 0.17813 0.32187 0.11334 0.0073 Uiso
C1NC C 0.17813 0.38666 0.17813 0.0073 Uiso
C1NA C 0.11334 0.32187 0.17813 0.0073 Uiso
C2GC C 0.43061 0.20356 -0.20356 0.0099 Uiso
C2ZA C 0.29644 0.06939 -0.20356 0.0099 Uiso
C2IC C 0.29644 0.20356 0.06939 0.0099 Uiso
C2RB C 0.43061 0.20356 0.20356 0.0099 Uiso
C2K C 0.29644 0.06939 0.20356 0.0099 Uiso
C2FC C 0.20356 0.29644 -0.06939 0.0099 Uiso
C2Z C 0.20356 0.43061 -0.20356 0.0099 Uiso
C2C C 0.06939 0.29644 -0.20356 0.0099 Uiso
C2I C 0.20356 0.29644 0.06939 0.0099 Uiso
C2NC C 0.20356 0.43061 0.20356 0.0099 Uiso
C2NA C 0.06939 0.29644 0.20356 0.0099 Uiso
C3GC C 0.36497 0.13503 -0.20129 0.0112 Uiso
C3ZA C 0.29871 0.13503 -0.13503 0.0112 Uiso
C3RB C 0.36497 0.20129 0.13503 0.0112 Uiso
C3K C 0.36497 0.13503 0.20129 0.0112 Uiso
C3IC C 0.29871 0.13503 0.13503 0.0112 Uiso
C3Z C 0.20129 0.36497 -0.13503 0.0112 Uiso
C3C C 0.13503 0.36497 -0.20129 0.0112 Uiso
C3FC C 0.13503 0.29871 -0.13503 0.0112 Uiso
C3I C 0.20129 0.36497 0.13503 0.0112 Uiso
C3NC C 0.13503 0.36497 0.20129 0.0112 Uiso
C3NA C 0.13503 0.29871 0.13503 0.0112 Uiso
H1UF H 0.26593 0.11981 -0.11982 0.0283 Uiso
H1LD H 0.38019 0.11982 -0.23407 0.0283 Uiso
H1DD H 0.38019 0.23407 0.11982 0.0283 Uiso
H1IC H 0.26593 0.11981 0.11982 0.0283 Uiso
H1K H 0.38019 0.11982 0.23407 0.0283 Uiso
H1GD H 0.23407 0.38019 -0.11982 0.0283 Uiso
H1FC H 0.11981 0.26593 -0.11982 0.0283 Uiso
H1C H 0.11982 0.38019 -0.23407 0.0283 Uiso
H1I H 0.23407 0.38019 0.11982 0.0283 Uiso
H1LF H 0.11981 0.26593 0.11982 0.0283 Uiso
H1ED H 0.11982 0.38019 0.23407 0.0283 Uiso
loop_
_geom_bond_atom_site_label_1
_geom_bond_atom_site_label_2
_geom_bond_site_symmetry_1
_geom_bond_site_symmetry_2
Cu1 O1 1_555 1_555
O1 C2 1_555 1_555
C1 C2 1_555 1_555
C2 O1UF 1_555 1_555
C3 C1 1_555 1_555
H1 C3 1_555 1_555
Cu1FC Cu1 1_555 1_555
Cu1WA Cu1GC 1_555 1_555
Cu1GC O1GC 1_555 1_555
Cu1E Cu1ZA 1_555 1_555
Cu1ZA O1ZA 1_555 1_555
Cu1YA Cu1AC 1_555 1_555
Cu1AC O1OF 1_555 1_555
Cu1B Cu1JB 1_555 1_555
Cu1JB O1PE 1_555 1_555
Cu1Z Cu1HC 1_555 1_555
Cu1HC O1WF 1_555 1_555
Cu1C Cu1EA 1_555 1_555
Cu1EA O1LE 1_555 1_555
Cu1CA Cu1XB 1_555 1_555
Cu1XB O1NC 1_555 1_555
Cu1A Cu1KA 1_555 1_555
Cu1KA O1NA 1_555 1_555
O1UF Cu1FC 1_555 1_555
O1DF Cu1WA 1_555 1_555
O1GC C2GC 1_555 1_555
O1LD Cu1E 1_555 1_555
O1ZA C2ZA 1_555 1_555
O1DD Cu1 1_555 1_555
O1IC Cu1FC 1_555 1_555
O1RB Cu1YA 1_555 1_555
O1OF C2RB 1_555 1_555
O1K Cu1B 1_555 1_555
O1PE C2K 1_555 1_555
O1GD Cu1 1_555 1_555
O1FC Cu1FC 1_555 1_555
O1Z Cu1Z 1_555 1_555
O1WF C2Z 1_555 1_555
O1C Cu1C 1_555 1_555
O1LE C2C 1_555 1_555
O1I Cu1 1_555 1_555
O1LF Cu1FC 1_555 1_555
O1TD Cu1CA 1_555 1_555
O1NC C2NC 1_555 1_555
O1ED Cu1A 1_555 1_555
O1NA C2NA 1_555 1_555
O1FB Cu1WA 1_555 1_555
O1WA Cu1WA 1_555 1_555
O1AF Cu1WA 1_555 1_555
O1MF Cu1GC 1_555 1_555
O1VF Cu1GC 1_555 1_555
O1JC Cu1GC 1_555 1_555
O1S Cu1E 1_555 1_555
O1E Cu1E 1_555 1_555
O1VC Cu1E 1_555 1_555
O1SE Cu1ZA 1_555 1_555
O1GF Cu1ZA 1_555 1_555
O1PB Cu1ZA 1_555 1_555
C1GC C3 1_555 1_555
C1ZA C2ZA 1_555 1_555
C1IC C2IC 1_555 1_555
C1RB C2RB 1_555 1_555
C1K C2K 1_555 1_555
C1FC C2FC 1_555 1_555
C1Z C2Z 1_555 1_555
C1C C2C 1_555 1_555
C1I C2I 1_555 1_555
C1NC C2NC 1_555 1_555
C1NA C2NA 1_555 1_555
C2GC O1DF 1_555 1_555
C2ZA O1LD 1_555 1_555
C2IC O1DD 1_555 1_555
C2RB O1RB 1_555 1_555
C2K O1K 1_555 1_555
C2FC O1GD 1_555 1_555
C2Z O1Z 1_555 1_555
C2C O1C 1_555 1_555
C2I O1I 1_555 1_555
C2NC O1TD 1_555 1_555
C2NA O1ED 1_555 1_555
C3GC C1GC 1_555 1_555
C3ZA C1 1_555 1_555
C3RB C1IC 1_555 1_555
C3K C1RB 1_555 1_555
C3IC C1IC 1_555 1_555
C3Z C1FC 1_555 1_555
C3C C1Z 1_555 1_555
C3FC C1FC 1_555 1_555
C3I C1I 1_555 1_555
C3NC C1NC 1_555 1_555
C3NA C1I 1_555 1_555
H1UF C3ZA 1_555 1_555
H1LD C3GC 1_555 1_555
H1DD C3RB 1_555 1_555
H1IC C3IC 1_555 1_555
H1K C3K 1_555 1_555
H1GD C3Z 1_555 1_555
H1FC C3FC 1_555 1_555
H1C C3C 1_555 1_555
H1I C3I 1_555 1_555
H1LF C3NA 1_555 1_555
H1ED C3NC 1_555 1_555
O1IC C2IC 1_555 1_555
O1FC C2FC 1_555 1_555
O1LF C2I 1_555 1_555
C1GC C2GC 1_555 1_555
C1ZA C3GC 1_555 1_555
C1ZA C3ZA 1_555 1_555
C1RB C3RB 1_555 1_555
C1K C3K 1_555 1_555
C1K C3IC 1_555 1_555
C1Z C3Z 1_555 1_555
C1C C3C 1_555 1_555
C1C C3FC 1_555 1_555
C1NC C3I 1_555 1_555
C1NA C3NC 1_555 1_555
C1NA C3NA 1_555 1_555

#END
