
#######################################################################
#
#                 Cambridge Crystallographic Data Centre
#                                CCDC 
#
#######################################################################
#
# If this CIF has been generated from an entry in the Cambridge 
# Structural Database, then it will include bibliographic, chemical, 
# crystal, experimental, refinement or atomic coordinate data resulting 
# from the CCDC's data processing and validation procedures.
#
#######################################################################

data_CIFMAH
_chemical_formula_moiety         
'(C57 H37 Co3 N1 O14 1-)n,n(C2 H8 N1 1+),n(H2 O1),13.75n(C3 H7 N1 O1)'
_chemical_name_systematic        
"catena-(Dimethylammonium bis(\m~5~-4,4',4''-(benzene-1,3,5-triyl)tribenzoato)-(\m~3~-oxo)-dimethylformamide-tri-cobalt dimethylformamide solvate monohydrate)"
_symmetry_cell_setting           orthorhombic
_symmetry_space_group_name_H-M   'P n m a'
_symmetry_Int_Tables_number      62
_space_group_name_Hall           '-P 2ac 2n'
loop_
_symmetry_equiv_pos_site_id
_symmetry_equiv_pos_as_xyz
1 x,y,z
2 1/2-x,-y,1/2+z
3 -x,1/2+y,-z
4 1/2+x,1/2-y,1/2-z
5 -x,-y,-z
6 1/2+x,y,1/2-z
7 x,1/2-y,z
8 1/2-x,1/2+y,1/2+z
_cell_length_a                   17.443(4)
_cell_length_b                   25.094(5)
_cell_length_c                   21.991(4)
_cell_angle_alpha                90
_cell_angle_beta                 90
_cell_angle_gamma                90
_cell_volume                     9625.78
_exptl_crystal_colour            blue
_exptl_crystal_description       block
_cell_formula_units_Z            4
loop_
_atom_site_label
_atom_site_type_symbol
_atom_site_fract_x
_atom_site_fract_y
_atom_site_fract_z
O2 O 0.8811(3) 0.6798(2) 0.5653(4)
O3 O 0.9307(3) 0.6092(3) 0.5290(3)
O4 O 0.5014(2) 0.36248(15) 0.15526(19)
O5 O 0.4360(2) 0.30931(14) 0.21956(16)
C1 C 0.4345(3) 0.3893(2) 0.3074(3)
H2 H 0.4004 0.3611 0.3122
C2 C 0.5301(3) 0.4334(2) 0.2500(3)
H3 H 0.5608 0.4361 0.2155
C3 C 0.5359(3) 0.4711(3) 0.2958(3)
H4 H 0.5716 0.4984 0.2917
C4 C 0.4396(3) 0.4275(2) 0.3518(3)
H5 H 0.4082 0.4250 0.3859
C5 C 0.4713(3) 0.3513(2) 0.2057(3)
C6 C 0.4791(3) 0.3920(2) 0.2555(3)
Co1 Co 0.11287(5) 0.7500 0.66593(4)
Co2 Co -0.00148(3) 0.67884(3) 0.57610(3)
C7 C 0.4310(3) 0.5311(2) 0.4215(3)
H6 H 0.3833 0.5183 0.4095
C8 C 0.2320(3) 0.6390(2) 0.5436(3)
C9 C 0.5735(3) 0.5686(2) 0.4582(3)
C10 C 0.4958(3) 0.5109(2) 0.3948(3)
C11 C 0.1622(3) 0.6654(2) 0.5713(3)
C12 C 0.3641(3) 0.5935(2) 0.4942(3)
C13 C 0.4349(3) 0.5703(2) 0.4658(3)
C14 C 0.3639(3) 0.6144(2) 0.5513(3)
H7 H 0.4086 0.6132 0.5744
C15 C 0.5670(3) 0.5303(2) 0.4134(3)
H8 H 0.6112 0.5170 0.3952
C16 C 0.7834(3) 0.5672(3) 0.4980(4)
H9 H 0.8238 0.5431 0.4965
C17 C 0.2997(3) 0.6372(2) 0.5756(3)
H10 H 0.3017 0.6516 0.6145
C18 C 0.5077(3) 0.5891(2) 0.4833(3)
H11 H 0.5112 0.6159 0.5124
C19 C 0.7962(3) 0.6179(4) 0.5179(3)
C20 C 0.6506(3) 0.5863(3) 0.4791(3)
C21 C 0.2962(3) 0.5954(3) 0.4616(3)
H12 H 0.2948 0.5823 0.4220
C22 C 0.7358(4) 0.6524(3) 0.5185(4)
H13 H 0.7433 0.6869 0.5327
C23 C 0.2304(3) 0.6167(3) 0.4870(3)
H14 H 0.1847 0.6157 0.4653
C24 C 0.7119(3) 0.5513(3) 0.4804(3)
H15 H 0.7042 0.5160 0.4689
C25 C 0.4906(3) 0.4696(2) 0.3471(3)
C26 C 0.6642(3) 0.6376(3) 0.4987(4)
H16 H 0.6246 0.6624 0.4985
C27 C 0.8746(4) 0.6390(4) 0.5388(4)
O6 O 0.1706(2) 0.69256(16) 0.61706(18)
O7 O 0.0989(2) 0.65743(16) 0.54320(18)
O8 O 0.0096(2) 0.7500 0.6156(2)
O9 O 0.2065(3) 0.7500 0.7285(3)
N1 N 0.2897(16) 0.7500 0.8066(11)
C28 C 0.2661(16) 0.7500 0.7516(14)
H17 H 0.3061 0.7500 0.7236
C29 C 0.3675(19) 0.7500 0.8318(19)
H18 H 0.3925 0.7830 0.8218
C30 C 0.242(2) 0.7500 0.8592(9)
H19 H 0.1978 0.7721 0.8520
H18F H 0.3925 0.7170 0.8218
H19F H 0.1978 0.7279 0.8520
O2F O 0.8811(3) 0.8202(2) 0.5653(4)
O3F O 0.9307(3) 0.8908(3) 0.5290(3)
O4F O 0.5014(2) 1.13752(15) 0.15526(19)
O5F O 0.4360(2) 1.19069(14) 0.21956(16)
C1F C 0.4345(3) 1.1107(2) 0.3074(3)
H2F H 0.4004 1.1389 0.3122
C2F C 0.5301(3) 1.0666(2) 0.2500(3)
H3F H 0.5608 1.0639 0.2155
C3F C 0.5359(3) 1.0289(3) 0.2958(3)
H4F H 0.5716 1.0016 0.2917
C4F C 0.4396(3) 1.0725(2) 0.3518(3)
H5F H 0.4082 1.0750 0.3859
C5F C 0.4713(3) 1.1487(2) 0.2057(3)
C6F C 0.4791(3) 1.1080(2) 0.2555(3)
Co2F Co -0.00148(3) 0.82116(3) 0.57610(3)
C7F C 0.4310(3) 0.9689(2) 0.4215(3)
H6F H 0.3833 0.9817 0.4095
C8F C 0.2320(3) 0.8610(2) 0.5436(3)
C9F C 0.5735(3) 0.9314(2) 0.4582(3)
C10F C 0.4958(3) 0.9891(2) 0.3948(3)
C11F C 0.1622(3) 0.8346(2) 0.5713(3)
C12F C 0.3641(3) 0.9065(2) 0.4942(3)
C13F C 0.4349(3) 0.9297(2) 0.4658(3)
C14F C 0.3639(3) 0.8856(2) 0.5513(3)
H7F H 0.4086 0.8868 0.5744
C15F C 0.5670(3) 0.9697(2) 0.4134(3)
H8F H 0.6112 0.9830 0.3952
C16F C 0.7834(3) 0.9328(3) 0.4980(4)
H9F H 0.8238 0.9569 0.4965
C17F C 0.2997(3) 0.8628(2) 0.5756(3)
H10F H 0.3017 0.8484 0.6145
C18F C 0.5077(3) 0.9109(2) 0.4833(3)
H11F H 0.5112 0.8841 0.5124
C19F C 0.7962(3) 0.8821(4) 0.5179(3)
C20F C 0.6506(3) 0.9137(3) 0.4791(3)
C21F C 0.2962(3) 0.9046(3) 0.4616(3)
H12F H 0.2948 0.9177 0.4220
C22F C 0.7358(4) 0.8476(3) 0.5185(4)
H13F H 0.7433 0.8131 0.5327
C23F C 0.2304(3) 0.8833(3) 0.4870(3)
H14F H 0.1847 0.8843 0.4653
C24F C 0.7119(3) 0.9487(3) 0.4804(3)
H15F H 0.7042 0.9840 0.4689
C25F C 0.4906(3) 1.0304(2) 0.3471(3)
C26F C 0.6642(3) 0.8624(3) 0.4987(4)
H16F H 0.6246 0.8376 0.4985
C27F C 0.8746(4) 0.8610(4) 0.5388(4)
O6F O 0.1706(2) 0.80744(16) 0.61706(18)
O7F O 0.0989(2) 0.84257(16) 0.54320(18)
O2_2 O -0.1189(3) 0.6798(2) 0.5653(4)
O2F_2 O -0.1189(3) 0.8202(2) 0.5653(4)
O3_2 O -0.0693(3) 0.6092(3) 0.5290(3)
O3F_2 O -0.0693(3) 0.8908(3) 0.5290(3)
O4A O -0.0014(2) 0.63752(15) 0.65526(19)
O4G O -0.0014(2) 0.86248(15) 0.65526(19)
O5A O 0.0640(2) 0.69069(14) 0.71956(16)
O5G O 0.0640(2) 0.80931(14) 0.71956(16)
Co1A Co 0.38713(5) 0.2500 0.16593(4)
Co1A_2 Co 0.38713(5) 1.2500 0.16593(4)
Co2_2 Co 0.99852(3) 0.67884(3) 0.57610(3)
Co2A Co 0.50148(3) 0.32116(3) 0.07610(3)
Co2F_2 Co 0.99852(3) 0.82116(3) 0.57610(3)
Co2G Co 0.50148(3) 1.17884(3) 0.07610(3)
N2 N 0.4997(13) 0.2500 0.4032(11)
H20 H 0.5085 0.2792 0.4258
C31 C 0.4182(11) 0.2500 0.3776(11)
H21 H 0.4007 0.2861 0.3732
C32 C 0.5478(11) 0.2500 0.3466(10)
H22 H 0.5474 0.2150 0.3288
H20F H 0.5085 0.2208 0.4258
H21F H 0.4007 0.2139 0.3732
H22F H 0.5474 0.2850 0.3288
O1 O -0.0052(6) 0.7500 0.4919(5)
H1 H 0.016(3) 0.725(2) 0.461(3)
H1F H 0.016(3) 0.775(2) 0.461(3)
H23? H 0.5085 0.2792 0.4258
H24? H 0.3961 0.7209 0.8148
H25? H 0.3650 0.7462 0.8751
H26? H 0.2253 0.7143 0.8677
H27? H 0.2700 0.7636 0.8933
H28? H 0.5272 0.2752 0.3180
H29? H 0.4179 0.2327 0.3387
H30? H 0.5994 0.2598 0.3566
H31? H 0.3848 0.2312 0.4050
loop_
_geom_bond_atom_site_label_1
_geom_bond_atom_site_label_2
_geom_bond_site_symmetry_1
_geom_bond_site_symmetry_2
O1 H1 1_555 1_555
O2 C27 1_555 1_555
O3 C27 1_555 1_555
O4 C5 1_555 1_555
O5 C5 1_555 1_555
C1 H2 1_555 1_555
C2 H3 1_555 1_555
C3 C2 1_555 1_555
H4 C3 1_555 1_555
C4 C1 1_555 1_555
H5 C4 1_555 1_555
C5 C6 1_555 1_555
C6 C1 1_555 1_555
Co1 O6 1_555 1_555
Co2 O7 1_555 1_555
C7 H6 1_555 1_555
C8 C11 1_555 1_555
C9 C15 1_555 1_555
C10 C7 1_555 1_555
C11 O6 1_555 1_555
C12 C13 1_555 1_555
C13 C7 1_555 1_555
C14 C12 1_555 1_555
H7 C14 1_555 1_555
C15 C10 1_555 1_555
H8 C15 1_555 1_555
C16 H9 1_555 1_555
C17 C8 1_555 1_555
H10 C17 1_555 1_555
C18 C9 1_555 1_555
H11 C18 1_555 1_555
C19 C16 1_555 1_555
C20 C9 1_555 1_555
C21 C12 1_555 1_555
H12 C21 1_555 1_555
C22 C19 1_555 1_555
H13 C22 1_555 1_555
C23 C8 1_555 1_555
H14 C23 1_555 1_555
C24 C16 1_555 1_555
H15 C24 1_555 1_555
C25 C3 1_555 1_555
C26 C20 1_555 1_555
H16 C26 1_555 1_555
C27 C19 1_555 1_555
O7 C11 1_555 1_555
O8 Co1 1_555 1_555
O9 Co1 1_555 1_555
N1 C28 1_555 1_555
C28 O9 1_555 1_555
H17 C28 1_555 1_555
C29 N1 1_555 1_555
H18 C29 1_555 1_555
C30 N1 1_555 1_555
H19 C30 1_555 1_555
N2 H20 1_555 1_555
C31 N2 1_555 1_555
H21 C31 1_555 1_555
C32 N2 1_555 1_555
H22 C32 1_555 1_555
H1F O1 1_555 1_555
H18F C29 1_555 1_555
H19F C30 1_555 1_555
O2F C27F 1_555 1_555
O3F C27F 1_555 1_555
O4F C5F 1_555 1_555
O5F C5F 1_555 1_555
C1F H2F 1_555 1_555
C2F H3F 1_555 1_555
C3F C2F 1_555 1_555
H4F C3F 1_555 1_555
C4F C1F 1_555 1_555
H5F C4F 1_555 1_555
C5F C6F 1_555 1_555
C6F C1F 1_555 1_555
Co2F O8 1_555 1_555
C7F H6F 1_555 1_555
C8F C11F 1_555 1_555
C9F C15F 1_555 1_555
C10F C7F 1_555 1_555
C11F O6F 1_555 1_555
C12F C13F 1_555 1_555
C13F C7F 1_555 1_555
C14F C12F 1_555 1_555
H7F C14F 1_555 1_555
C15F C10F 1_555 1_555
H8F C15F 1_555 1_555
C16F H9F 1_555 1_555
C17F C8F 1_555 1_555
H10F C17F 1_555 1_555
C18F C9F 1_555 1_555
H11F C18F 1_555 1_555
C19F C16F 1_555 1_555
C20F C9F 1_555 1_555
C21F C12F 1_555 1_555
H12F C21F 1_555 1_555
C22F C19F 1_555 1_555
H13F C22F 1_555 1_555
C23F C8F 1_555 1_555
H14F C23F 1_555 1_555
C24F C16F 1_555 1_555
H15F C24F 1_555 1_555
C25F C3F 1_555 1_555
C26F C20F 1_555 1_555
H16F C26F 1_555 1_555
C27F C19F 1_555 1_555
O6F Co1 1_555 1_555
O7F Co2F 1_555 1_555
O2_2 Co2 1_555 1_555
O2F_2 Co2F 1_555 1_555
O3_2 Co2 1_555 1_555
O3F_2 Co2F 1_555 1_555
O4A Co2 1_555 1_555
O4G Co2F 1_555 1_555
O5A Co1 1_555 1_555
O5G Co1 1_555 1_555
Co1A O5 1_555 1_555
Co1A_2 O5F 1_555 1_555
Co2_2 O2 1_555 1_555
Co2A O4 1_555 1_555
Co2F_2 O2F 1_555 1_555
Co2G O4F 1_555 1_555
H20F N2 1_555 1_555
H21F C31 1_555 1_555
H22F C32 1_555 1_555
O3 Co2_2 1_555 1_555
C2 C6 1_555 1_555
C4 C25 1_555 1_555
Co2 O8 1_555 1_555
C10 C25 1_555 1_555
C13 C18 1_555 1_555
C14 C17 1_555 1_555
C20 C24 1_555 1_555
C21 C23 1_555 1_555
C22 C26 1_555 1_555
O3F Co2F_2 1_555 1_555
C2F C6F 1_555 1_555
C4F C25F 1_555 1_555
C10F C25F 1_555 1_555
C11F O7F 1_555 1_555
C13F C18F 1_555 1_555
C14F C17F 1_555 1_555
C20F C24F 1_555 1_555
C21F C23F 1_555 1_555
C22F C26F 1_555 1_555

#END
