
#######################################################################
#
#                 Cambridge Crystallographic Data Centre
#                                CCDC 
#
#######################################################################
#
# If this CIF has been generated from an entry in the Cambridge 
# Structural Database, then it will include bibliographic, chemical, 
# crystal, experimental, refinement or atomic coordinate data resulting 
# from the CCDC's data processing and validation procedures.
#
#######################################################################

data_HANKEO
_chemical_name_common            CPM-15-Mn
_chemical_formula_moiety         '(C2 H8 N1 1+)n,n(C63 H45 In6 Mn3 O56 1-)'
_chemical_name_systematic        
'catena-[Dimethylammonium (\m~6~-benzene-1,3,5-tricarboxylato)-hexakis(\m~4~-benzene-1,3,5-tricarboxylato)-bis(\m~3~-oxo)-dodeca-aqua-penta-indium-tetra-manganese unknown solvate]'
_symmetry_cell_setting           cubic
_symmetry_space_group_name_H-M   'F d -3 m'
_symmetry_Int_Tables_number      227
_space_group_name_Hall           '-F 4vw 2vw 3'
loop_
_symmetry_equiv_pos_site_id
_symmetry_equiv_pos_as_xyz
1 x,y,z
2 3/4-x,1/4-y,1/2+z
3 1/4-x,1/2+y,3/4-z
4 1/2+x,3/4-y,1/4-z
5 z,x,y
6 1/2+z,3/4-x,1/4-y
7 3/4-z,1/4-x,1/2+y
8 1/4-z,1/2+x,3/4-y
9 y,z,x
10 1/4-y,1/2+z,3/4-x
11 1/2+y,3/4-z,1/4-x
12 3/4-y,1/4-z,1/2+x
13 3/4+y,1/4+x,1/2-z
14 -y,-x,-z
15 1/4+y,1/2-x,3/4+z
16 1/2-y,3/4+x,1/4+z
17 3/4+x,1/4+z,1/2-y
18 1/2-x,3/4+z,1/4+y
19 -x,-z,-y
20 1/4+x,1/2-z,3/4+y
21 3/4+z,1/4+y,1/2-x
22 1/4+z,1/2-y,3/4+x
23 1/2-z,3/4+y,1/4+x
24 -z,-y,-x
25 x,1/2+y,1/2+z
26 3/4-x,3/4-y,z
27 1/4-x,y,1/4-z
28 1/2+x,1/4-y,3/4-z
29 z,1/2+x,1/2+y
30 1/2+z,1/4-x,3/4-y
31 3/4-z,3/4-x,y
32 1/4-z,x,1/4-y
33 y,1/2+z,1/2+x
34 1/4-y,z,1/4-x
35 1/2+y,1/4-z,3/4-x
36 3/4-y,3/4-z,x
37 3/4+y,3/4+x,-z
38 -y,1/2-x,1/2-z
39 1/4+y,-x,1/4+z
40 1/2-y,1/4+x,3/4+z
41 3/4+x,3/4+z,-y
42 1/2-x,1/4+z,3/4+y
43 -x,1/2-z,1/2-y
44 1/4+x,-z,1/4+y
45 3/4+z,3/4+y,-x
46 1/4+z,-y,1/4+x
47 1/2-z,1/4+y,3/4+x
48 -z,1/2-y,1/2-x
49 1/2+x,y,1/2+z
50 1/4-x,1/4-y,z
51 3/4-x,1/2+y,1/4-z
52 x,3/4-y,3/4-z
53 1/2+z,x,1/2+y
54 z,3/4-x,3/4-y
55 1/4-z,1/4-x,y
56 3/4-z,1/2+x,1/4-y
57 1/2+y,z,1/2+x
58 3/4-y,1/2+z,1/4-x
59 y,3/4-z,3/4-x
60 1/4-y,1/4-z,x
61 1/4+y,1/4+x,-z
62 1/2-y,-x,1/2-z
63 3/4+y,1/2-x,1/4+z
64 -y,3/4+x,3/4+z
65 1/4+x,1/4+z,-y
66 -x,3/4+z,3/4+y
67 1/2-x,-z,1/2-y
68 3/4+x,1/2-z,1/4+y
69 1/4+z,1/4+y,-x
70 3/4+z,1/2-y,1/4+x
71 -z,3/4+y,3/4+x
72 1/2-z,-y,1/2-x
73 1/2+x,1/2+y,z
74 1/4-x,3/4-y,1/2+z
75 3/4-x,y,3/4-z
76 x,1/4-y,1/4-z
77 1/2+z,1/2+x,y
78 z,1/4-x,1/4-y
79 1/4-z,3/4-x,1/2+y
80 3/4-z,x,3/4-y
81 1/2+y,1/2+z,x
82 3/4-y,z,3/4-x
83 y,1/4-z,1/4-x
84 1/4-y,3/4-z,1/2+x
85 1/4+y,3/4+x,1/2-z
86 1/2-y,1/2-x,-z
87 3/4+y,-x,3/4+z
88 -y,1/4+x,1/4+z
89 1/4+x,3/4+z,1/2-y
90 -x,1/4+z,1/4+y
91 1/2-x,1/2-z,-y
92 3/4+x,-z,3/4+y
93 1/4+z,3/4+y,1/2-x
94 3/4+z,-y,3/4+x
95 -z,1/4+y,1/4+x
96 1/2-z,1/2-y,-x
97 -x,-y,-z
98 1/4+x,3/4+y,1/2-z
99 3/4+x,1/2-y,1/4+z
100 1/2-x,1/4+y,3/4+z
101 -z,-x,-y
102 1/2-z,1/4+x,3/4+y
103 1/4+z,3/4+x,1/2-y
104 3/4+z,1/2-x,1/4+y
105 -y,-z,-x
106 3/4+y,1/2-z,1/4+x
107 1/2-y,1/4+z,3/4+x
108 1/4+y,3/4+z,1/2-x
109 1/4-y,3/4-x,1/2+z
110 y,x,z
111 3/4-y,1/2+x,1/4-z
112 1/2+y,1/4-x,3/4-z
113 1/4-x,3/4-z,1/2+y
114 1/2+x,1/4-z,3/4-y
115 x,z,y
116 3/4-x,1/2+z,1/4-y
117 1/4-z,3/4-y,1/2+x
118 3/4-z,1/2+y,1/4-x
119 1/2+z,1/4-y,3/4-x
120 z,y,x
121 -x,1/2-y,1/2-z
122 1/4+x,1/4+y,-z
123 3/4+x,-y,3/4+z
124 1/2-x,3/4+y,1/4+z
125 -z,1/2-x,1/2-y
126 1/2-z,3/4+x,1/4+y
127 1/4+z,1/4+x,-y
128 3/4+z,-x,3/4+y
129 -y,1/2-z,1/2-x
130 3/4+y,-z,3/4+x
131 1/2-y,3/4+z,1/4+x
132 1/4+y,1/4+z,-x
133 1/4-y,1/4-x,z
134 y,1/2+x,1/2+z
135 3/4-y,x,3/4-z
136 1/2+y,3/4-x,1/4-z
137 1/4-x,1/4-z,y
138 1/2+x,3/4-z,1/4-y
139 x,1/2+z,1/2+y
140 3/4-x,z,3/4-y
141 1/4-z,1/4-y,x
142 3/4-z,y,3/4-x
143 1/2+z,3/4-y,1/4-x
144 z,1/2+y,1/2+x
145 1/2-x,-y,1/2-z
146 3/4+x,3/4+y,-z
147 1/4+x,1/2-y,3/4+z
148 -x,1/4+y,1/4+z
149 1/2-z,-x,1/2-y
150 -z,1/4+x,1/4+y
151 3/4+z,3/4+x,-y
152 1/4+z,1/2-x,3/4+y
153 1/2-y,-z,1/2-x
154 1/4+y,1/2-z,3/4+x
155 -y,1/4+z,1/4+x
156 3/4+y,3/4+z,-x
157 3/4-y,3/4-x,z
158 1/2+y,x,1/2+z
159 1/4-y,1/2+x,3/4-z
160 y,1/4-x,1/4-z
161 3/4-x,3/4-z,y
162 x,1/4-z,1/4-y
163 1/2+x,z,1/2+y
164 1/4-x,1/2+z,3/4-y
165 3/4-z,3/4-y,x
166 1/4-z,1/2+y,3/4-x
167 z,1/4-y,1/4-x
168 1/2+z,y,1/2+x
169 1/2-x,1/2-y,-z
170 3/4+x,1/4+y,1/2-z
171 1/4+x,-y,1/4+z
172 -x,3/4+y,3/4+z
173 1/2-z,1/2-x,-y
174 -z,3/4+x,3/4+y
175 3/4+z,1/4+x,1/2-y
176 1/4+z,-x,1/4+y
177 1/2-y,1/2-z,-x
178 1/4+y,-z,1/4+x
179 -y,3/4+z,3/4+x
180 3/4+y,1/4+z,1/2-x
181 3/4-y,1/4-x,1/2+z
182 1/2+y,1/2+x,z
183 1/4-y,x,1/4-z
184 y,3/4-x,3/4-z
185 3/4-x,1/4-z,1/2+y
186 x,3/4-z,3/4-y
187 1/2+x,1/2+z,y
188 1/4-x,z,1/4-y
189 3/4-z,1/4-y,1/2+x
190 1/4-z,y,1/4-x
191 z,3/4-y,3/4-x
192 1/2+z,1/2+y,x
_cell_length_a                   50.9199(4)
_cell_length_b                   50.9199(4)
_cell_length_c                   50.9199(4)
_cell_angle_alpha                90
_cell_angle_beta                 90
_cell_angle_gamma                90
_cell_volume                     132027
_exptl_crystal_colour            colorless
_exptl_crystal_description       block
_cell_formula_units_Z            32
loop_
_atom_site_label
_atom_site_type_symbol
_atom_site_fract_x
_atom_site_fract_y
_atom_site_fract_z
_atom_site_U_iso_or_equiv
_atom_site_thermal_displace_type
In1 In -0.122043(19) 1.122043(19) 0.0000 0.0787 Uani
In2 In -0.323015(17) 1.073015(17) 0.02280(2) 0.0572 Uani
Mn2 Mn 0.04022(11) 1.04022(11) 0.09323(14) 0.1263 Uani
O1 O -0.1109(2) 1.09992(18) 0.0344(2) 0.1137 Uani
O2 O -0.0765(2) 1.1187(3) 0.0198(3) 0.1523 Uani
O3 O 0.0098(3) 1.0572(4) 0.0870(6) 0.4160 Uani
O4 O -0.16282(15) 1.10754(16) 0.01264(17) 0.0830 Uani
O5 O -0.15704(15) 1.12835(17) -0.02509(16) 0.0907 Uani
O6 O -0.28461(14) 1.07914(14) 0.00325(13) 0.0710 Uani
O7 O -0.30312(18) 1.05312(18) 0.05312(18) 0.0560 Uani
O8 O -0.36173(13) 1.07078(13) 0.03998(14) 0.0687 Uani
O9 O 0.04592(10) 1.04592(10) 0.04592(10) 0.0060 Uiso
C1 C -0.0866(4) 1.1041(4) 0.0350(3) 0.1177 Uani
C2 C -0.0868(4) 1.0698(3) 0.0698(3) 0.0993 Uani
C3 C -0.0714(3) 1.0878(3) 0.0552(3) 0.0973 Uani
C4 C -0.0447(3) 1.0906(4) 0.0559(4) 0.1373 Uani
C5 C -0.0313(5) 1.0732(4) 0.0732(4) 0.1373 Uani
C6 C -0.0011(8) 1.0778(5) 0.0778(5) 0.1970 Uiso
C7 C -0.1711(2) 1.1165(2) -0.0090(3) 0.0807 Uani
C8 C -0.2073(2) 1.1176(3) -0.0427(2) 0.0767 Uani
C9 C -0.1996(2) 1.1110(2) -0.0164(2) 0.0780 Uani
C10 C -0.2170(2) 1.09952(19) 0.0014(2) 0.0657 Uani
C11 C -0.2428(2) 1.0934(3) -0.0072(2) 0.0690 Uani
C12 C -0.2619(2) 1.0824(3) 0.0119(2) 0.0633 Uani
C13 C -0.3726(3) 1.0604(2) 0.0604(2) 0.0603 Uani
C14 C -0.3950(3) 1.07042(18) 0.07042(18) 0.0437 Uani
C15 C -0.40671(19) 1.09329(19) 0.0599(3) 0.0707 Uani
O10 O -0.33993(16) 1.08993(16) -0.0129(2) 0.0993 Uani
O11 O 0.0356(4) 1.0356(4) 0.1216(5) 0.2320 Uiso
O12 O 0.0687(4) 1.0687(4) 0.1061(5) 0.2190 Uiso
O13 O 0.0153(3) 1.0153(3) 0.0764(4) 0.2070 Uiso
In1ZC In -0.122043(19) 1.0000 0.122043(19) 0.0787 Uani
In1VC In 0.0000 1.122043(19) -0.122043(19) 0.0787 Uani
In1WD In -0.2500 1.122043(19) -0.127957(19) 0.0787 Uani
In1XE In -0.122043(19) 1.2500 0.127957(19) 0.0787 Uani
In1OE In -0.372043(19) 0.872043(19) 0.0000 0.0787 Uani
In1CC In -0.372043(19) 1.0000 -0.127957(19) 0.0787 Uani
In1RC In 0.122043(19) 0.877957(19) 0.0000 0.0787 Uani
In1D In 0.0000 0.877957(19) 0.122043(19) 0.0787 Uani
In2DA In -0.27280(2) 1.073015(17) 0.073015(17) 0.0572 Uani
In2M In -0.073015(17) 1.323015(17) -0.02280(2) 0.0572 Uani
In2CC In -0.323015(17) 1.02280(2) 0.073015(17) 0.0572 Uani
In2XB In -0.47720(2) 1.176985(17) 0.073015(17) 0.0572 Uani
In2WA In -0.426985(17) 1.176985(17) 0.02280(2) 0.0572 Uani
In2DB In -0.426985(17) 1.02280(2) 0.176985(17) 0.0572 Uani
In2E In -0.47720(2) 1.073015(17) 0.176985(17) 0.0572 Uani
In2LB In -0.073015(17) 1.27280(2) -0.073015(17) 0.0572 Uani
Mn2H Mn 0.04022(11) 1.09323(14) 0.04022(11) 0.1263 Uani
Mn2M Mn -0.04022(11) 0.95978(11) -0.09323(14) 0.1263 Uani
Mn2D Mn 0.09323(14) 1.04022(11) 0.04022(11) 0.1263 Uani
Mn2W Mn -0.09323(14) 0.95978(11) -0.04022(11) 0.1263 Uani
O1JD O -0.1109(2) 1.0344(2) 0.09992(18) 0.1137 Uani
O1M O -0.09992(18) 1.1109(2) -0.0344(2) 0.1137 Uani
O1VC O -0.0344(2) 1.1109(2) -0.09992(18) 0.1137 Uani
O1ED O 0.09992(18) 0.8891(2) 0.0344(2) 0.1137 Uani
O1D O 0.0344(2) 0.8891(2) 0.09992(18) 0.1137 Uani
O1ZC O -0.09992(18) 0.9656(2) 0.1109(2) 0.1137 Uani
O1OD O 0.0344(2) 1.09992(18) -0.1109(2) 0.1137 Uani
O2JD O -0.0765(2) 1.0198(3) 0.1187(3) 0.1523 Uani
O2M O -0.1187(3) 1.0765(2) -0.0198(3) 0.1523 Uani
O2VC O -0.0198(3) 1.0765(2) -0.1187(3) 0.1523 Uani
O2ED O 0.1187(3) 0.9235(2) 0.0198(3) 0.1523 Uani
O2D O 0.0198(3) 0.9235(2) 0.1187(3) 0.1523 Uani
O2ZC O -0.1187(3) 0.9802(3) 0.0765(2) 0.1523 Uani
O2OD O 0.0198(3) 1.1187(3) -0.0765(2) 0.1523 Uani
O3JD O 0.0098(3) 1.0870(6) 0.0572(4) 0.4160 Uani
O3M O -0.0572(4) 0.9902(3) -0.0870(6) 0.4160 Uani
O3VC O -0.0870(6) 0.9902(3) -0.0572(4) 0.4160 Uani
O3ED O 0.0572(4) 1.0098(3) 0.0870(6) 0.4160 Uani
O3D O 0.0870(6) 1.0098(3) 0.0572(4) 0.4160 Uani
O3H O 0.0572(4) 1.0870(6) 0.0098(3) 0.4160 Uani
O3RC O -0.0098(3) 0.9428(4) -0.0870(6) 0.4160 Uani
O4KE O -0.26264(17) 1.10754(16) -0.08718(15) 0.0830 Uani
O4M O -0.10754(16) 1.16282(15) -0.01264(17) 0.0830 Uani
O4XE O -0.10754(16) 1.26264(17) 0.08718(15) 0.0830 Uani
O4ZE O -0.35754(16) 0.91282(15) 0.01264(17) 0.0830 Uani
O4CC O -0.35754(16) 1.01264(17) -0.08718(15) 0.0830 Uani
O4JD O -0.16282(15) 1.01264(17) 0.10754(16) 0.0830 Uani
O4ZC O -0.10754(16) 0.98736(17) 0.16282(15) 0.0830 Uani
O4VC O -0.01264(17) 1.16282(15) -0.10754(16) 0.0830 Uani
O4OD O 0.01264(17) 1.10754(16) -0.16282(15) 0.0830 Uani
O5KE O -0.22491(16) 1.12835(17) -0.09296(15) 0.0907 Uani
O5M O -0.12835(17) 1.15704(15) 0.02509(16) 0.0907 Uani
O5XE O -0.12835(17) 1.22491(16) 0.09296(15) 0.0907 Uani
O5ZE O -0.37835(17) 0.90704(15) -0.02509(16) 0.0907 Uani
O5CC O -0.37835(17) 0.97491(16) -0.09296(15) 0.0907 Uani
O5JD O -0.15704(15) 0.97491(16) 0.12835(17) 0.0907 Uani
O5ZC O -0.12835(17) 1.02509(16) 0.15704(15) 0.0907 Uani
O5VC O 0.02509(16) 1.15704(15) -0.12835(17) 0.0907 Uani
O5OD O -0.02509(16) 1.12835(17) -0.15704(15) 0.0907 Uani
O6KE O -0.25325(13) 1.07914(14) 0.03461(14) 0.0710 Uani
O6M O -0.07914(14) 1.28461(14) -0.00325(13) 0.0710 Uani
O6XE O -0.07914(14) 1.25325(13) -0.03461(14) 0.0710 Uani
O6ZE O -0.32914(14) 1.03461(14) 0.00325(13) 0.0710 Uani
O6CC O -0.32914(14) 1.00325(13) 0.03461(14) 0.0710 Uani
O6DA O -0.25325(13) 1.03461(14) 0.07914(14) 0.0710 Uani
O6QD O -0.03461(14) 1.32914(14) -0.00325(13) 0.0710 Uani
O7M O -0.05312(18) 1.30312(18) -0.05312(18) 0.0560 Uani
O8JD O -0.36173(13) 1.03998(14) 0.07078(13) 0.0687 Uani
O8XB O -0.46002(14) 1.13827(13) 0.07078(13) 0.0687 Uani
O8YF O -0.42922(13) 1.13827(13) 0.03998(14) 0.0687 Uani
O8DB O -0.42922(13) 1.03998(14) 0.13827(13) 0.0687 Uani
O8KF O -0.46002(14) 1.07078(13) 0.13827(13) 0.0687 Uani
O8ZE O -0.32078(13) 1.11173(13) 0.03998(14) 0.0687 Uani
O8KE O -0.28998(14) 1.07078(13) 0.11173(13) 0.0687 Uani
O8DA O -0.28998(14) 1.11173(13) 0.07078(13) 0.0687 Uani
O8M O -0.07078(13) 1.36173(13) -0.03998(14) 0.0687 Uani
O8QD O -0.11173(13) 1.32078(13) -0.03998(14) 0.0687 Uani
O9M O -0.04592(10) 0.95408(10) -0.04592(10) 0.0060 Uiso
C1JD C -0.0866(4) 1.0350(3) 0.1041(4) 0.1177 Uani
C1M C -0.1041(4) 1.0866(4) -0.0350(3) 0.1177 Uani
C1VC C -0.0350(3) 1.0866(4) -0.1041(4) 0.1177 Uani
C1ED C 0.1041(4) 0.9134(4) 0.0350(3) 0.1177 Uani
C1D C 0.0350(3) 0.9134(4) 0.1041(4) 0.1177 Uani
C2M C -0.0698(3) 1.0868(4) -0.0698(3) 0.0993 Uani
C2D C 0.0698(3) 0.9132(4) 0.0698(3) 0.0993 Uani
C3JD C -0.0714(3) 1.0552(3) 0.0878(3) 0.0973 Uani
C3M C -0.0878(3) 1.0714(3) -0.0552(3) 0.0973 Uani
C3VC C -0.0552(3) 1.0714(3) -0.0878(3) 0.0973 Uani
C3ED C 0.0878(3) 0.9286(3) 0.0552(3) 0.0973 Uani
C3D C 0.0552(3) 0.9286(3) 0.0878(3) 0.0973 Uani
C4JD C -0.0447(3) 1.0559(4) 0.0906(4) 0.1373 Uani
C4M C -0.0906(4) 1.0447(3) -0.0559(4) 0.1373 Uani
C4VC C -0.0559(4) 1.0447(3) -0.0906(4) 0.1373 Uani
C4ED C 0.0906(4) 0.9553(3) 0.0559(4) 0.1373 Uani
C4D C 0.0559(4) 0.9553(3) 0.0906(4) 0.1373 Uani
C5M C -0.0732(4) 1.0313(5) -0.0732(4) 0.1373 Uani
C5D C 0.0732(4) 0.9687(5) 0.0732(4) 0.1373 Uani
C6M C -0.0778(5) 1.0011(8) -0.0778(5) 0.1970 Uiso
C6D C 0.0778(5) 0.9989(8) 0.0778(5) 0.1970 Uiso
C7KE C -0.2410(3) 1.1165(2) -0.0789(2) 0.0807 Uani
C7M C -0.1165(2) 1.1711(2) 0.0090(3) 0.0807 Uani
C7XE C -0.1165(2) 1.2410(3) 0.0789(2) 0.0807 Uani
C7ZE C -0.3665(2) 0.9211(2) -0.0090(3) 0.0807 Uani
C7CC C -0.3665(2) 0.9910(3) -0.0789(2) 0.0807 Uani
C8M C -0.1176(3) 1.2073(2) 0.0427(2) 0.0767 Uani
C8CC C -0.3676(3) 0.9573(2) -0.0427(2) 0.0767 Uani
C9KE C -0.2336(2) 1.1110(2) -0.0504(2) 0.0780 Uani
C9M C -0.1110(2) 1.1996(2) 0.0164(2) 0.0780 Uani
C9XE C -0.1110(2) 1.2336(2) 0.0504(2) 0.0780 Uani
C9ZE C -0.3610(2) 0.9496(2) -0.0164(2) 0.0780 Uani
C9CC C -0.3610(2) 0.9836(2) -0.0504(2) 0.0780 Uani
C10KE C -0.2514(2) 1.09952(19) -0.0330(2) 0.0657 Uani
C10M C -0.09952(19) 1.2170(2) -0.0014(2) 0.0657 Uani
C10XE C -0.09952(19) 1.2514(2) 0.0330(2) 0.0657 Uani
C10ZE C -0.34952(19) 0.9670(2) 0.0014(2) 0.0657 Uani
C10CC C -0.34952(19) 1.0014(2) -0.0330(2) 0.0657 Uani
C11M C -0.0934(3) 1.2428(2) 0.0072(2) 0.0690 Uani
C11CC C -0.3434(3) 0.9928(2) -0.0072(2) 0.0690 Uani
C12M C -0.0824(3) 1.2619(2) -0.0119(2) 0.0633 Uani
C12CC C -0.3324(3) 1.0119(2) 0.0119(2) 0.0633 Uani
C13XB C -0.4396(2) 1.1274(3) 0.0604(2) 0.0603 Uani
C13DB C -0.4396(2) 1.0604(2) 0.1274(3) 0.0603 Uani
C14XB C -0.42958(18) 1.1050(3) 0.07042(18) 0.0437 Uani
C14DB C -0.42958(18) 1.07042(18) 0.1050(3) 0.0437 Uani
C15XB C -0.4401(3) 1.09329(19) 0.09329(19) 0.0707 Uani
C15DB C -0.40671(19) 1.0599(3) 0.09329(19) 0.0707 Uani
O10DA O -0.2371(2) 1.08993(16) 0.08993(16) 0.0993 Uani
O10M O -0.08993(16) 1.33993(16) 0.0129(2) 0.0993 Uani
O11H O 0.0356(4) 1.1216(5) 0.0356(4) 0.2320 Uiso
O11M O -0.0356(4) 0.9644(4) -0.1216(5) 0.2320 Uiso
O12H O 0.0687(4) 1.1061(5) 0.0687(4) 0.2190 Uiso
O12M O -0.0687(4) 0.9313(4) -0.1061(5) 0.2190 Uiso
O13H O 0.0153(3) 1.0764(4) 0.0153(3) 0.2070 Uiso
O13M O -0.0153(3) 0.9847(3) -0.0764(4) 0.2070 Uiso
Mn1? Mn -0.323015(17) 1.073015(17) 0.02280(2) 0.0572 Uani
Mn3? Mn 0.05354(18) 1.05354(18) 0.0949(2) 0.1623 Uani
loop_
_atom_site_aniso_label
_atom_site_aniso_U_11
_atom_site_aniso_U_22
_atom_site_aniso_U_33
_atom_site_aniso_U_23
_atom_site_aniso_U_13
_atom_site_aniso_U_12
In1 0.0771(7) 0.0771(7) 0.0819(10) 0.0056(4) 0.0056(4) -0.0206(6)
In2 0.0578(6) 0.0578(6) 0.0559(9) -0.0032(5) 0.0032(5) 0.0004(6)
Mn2 0.114(4) 0.114(4) 0.151(7) -0.040(4) -0.040(4) -0.026(5)
O1 0.116(8) 0.100(7) 0.125(8) 0.024(6) -0.043(7) -0.023(6)
O2 0.132(10) 0.174(12) 0.151(11) 0.079(9) -0.008(8) -0.027(8)
O3 0.098(11) 0.34(3) 0.81(5) 0.35(3) 0.106(18) 0.030(13)
O4 0.072(6) 0.101(7) 0.076(6) 0.012(5) 0.008(5) -0.019(5)
O5 0.063(5) 0.120(7) 0.089(6) 0.025(5) 0.012(5) -0.032(5)
O6 0.061(5) 0.082(5) 0.070(5) -0.008(4) 0.021(4) -0.011(4)
O7 0.056(4) 0.056(4) 0.056(4) 0.008(5) -0.008(5) -0.008(5)
O8 0.057(4) 0.077(5) 0.072(5) 0.011(4) 0.014(4) 0.026(4)
C1 0.145(17) 0.117(14) 0.091(12) -0.019(10) -0.025(13) -0.027(13)
C2 0.116(17) 0.091(9) 0.091(9) 0.020(12) -0.002(9) -0.002(9)
C3 0.102(12) 0.098(11) 0.092(10) 0.005(8) -0.031(9) -0.002(9)
C4 0.094(13) 0.149(16) 0.169(17) -0.006(13) 0.001(12) -0.019(11)
C5 0.086(16) 0.163(15) 0.163(15) 0.070(19) -0.045(12) -0.045(12)
C7 0.065(9) 0.075(9) 0.102(11) -0.021(8) 0.013(9) -0.021(7)
C8 0.069(7) 0.092(13) 0.069(7) 0.001(7) 0.001(10) -0.001(7)
C9 0.061(8) 0.088(9) 0.085(9) -0.003(7) -0.003(7) 0.017(7)
C10 0.069(8) 0.050(7) 0.078(8) 0.003(6) 0.024(7) -0.022(6)
C11 0.068(7) 0.071(11) 0.068(7) -0.008(6) 0.031(10) 0.008(6)
C12 0.062(6) 0.066(11) 0.062(6) 0.004(6) 0.010(10) -0.004(6)
C13 0.061(11) 0.060(6) 0.060(6) 0.018(9) 0.010(6) 0.010(6)
C14 0.059(10) 0.036(5) 0.036(5) 0.016(7) 0.016(5) 0.016(5)
C15 0.085(8) 0.085(8) 0.042(9) -0.002(5) -0.002(5) -0.039(11)
O10 0.094(5) 0.094(5) 0.110(10) 0.030(5) -0.030(5) -0.006(7)
In1ZC 0.0771 0.0819 0.0771 0.0056 -0.0206 0.0056
In1VC 0.0819 0.0771 0.0771 -0.0206 0.0056 0.0056
In1WD 0.0819 0.0771 0.0771 0.0206 0.0056 -0.0056
In1XE 0.0771 0.0819 0.0771 0.0056 0.0206 -0.0056
In1OE 0.0771 0.0771 0.0819 -0.0056 -0.0056 -0.0206
In1CC 0.0771 0.0819 0.0771 -0.0056 -0.0206 -0.0056
In1RC 0.0771 0.0771 0.0819 0.0056 0.0056 -0.0206
In1D 0.0819 0.0771 0.0771 -0.0206 0.0056 0.0056
In2DA 0.0559 0.0578 0.0578 -0.0004 0.0032 0.0032
In2M 0.0578 0.0578 0.0559 0.0032 -0.0032 0.0004
In2CC 0.0578 0.0559 0.0578 -0.0032 0.0004 0.0032
In2XB 0.0559 0.0578 0.0578 0.0004 -0.0032 0.0032
In2WA 0.0578 0.0578 0.0559 0.0032 -0.0032 0.0004
In2DB 0.0578 0.0559 0.0578 0.0032 0.0004 -0.0032
In2E 0.0559 0.0578 0.0578 0.0004 0.0032 -0.0032
In2LB 0.0578 0.0559 0.0578 0.0032 -0.0004 0.0032
Mn2H 0.114 0.151 0.114 -0.04 -0.026 -0.04
Mn2M 0.114 0.114 0.151 -0.04 -0.04 -0.026
Mn2D 0.151 0.114 0.114 -0.026 -0.04 -0.04
Mn2W 0.151 0.114 0.114 -0.026 -0.04 -0.04
O1JD 0.116 0.125 0.1 0.024 -0.023 -0.043
O1M 0.1 0.116 0.125 -0.043 0.024 -0.023
O1VC 0.125 0.116 0.1 -0.023 0.024 -0.043
O1ED 0.1 0.116 0.125 -0.043 0.024 -0.023
O1D 0.125 0.116 0.1 -0.023 0.024 -0.043
O1ZC 0.1 0.125 0.116 -0.043 -0.023 0.024
O1OD 0.125 0.1 0.116 -0.023 -0.043 0.024
O2JD 0.132 0.151 0.174 0.079 -0.027 -0.008
O2M 0.174 0.132 0.151 -0.008 0.079 -0.027
O2VC 0.151 0.132 0.174 -0.027 0.079 -0.008
O2ED 0.174 0.132 0.151 -0.008 0.079 -0.027
O2D 0.151 0.132 0.174 -0.027 0.079 -0.008
O2ZC 0.174 0.151 0.132 -0.008 -0.027 0.079
O2OD 0.151 0.174 0.132 -0.027 -0.008 0.079
O3JD 0.098 0.81 0.34 0.35 0.03 0.106
O3M 0.34 0.098 0.81 0.106 0.35 0.03
O3VC 0.81 0.098 0.34 0.03 0.35 0.106
O3ED 0.34 0.098 0.81 0.106 0.35 0.03
O3D 0.81 0.098 0.34 0.03 0.35 0.106
O3H 0.34 0.81 0.098 0.106 0.03 0.35
O3RC 0.098 0.34 0.81 0.35 0.106 0.03
O4KE 0.076 0.101 0.072 0.019 0.008 -0.012
O4M 0.101 0.072 0.076 0.008 0.012 -0.019
O4XE 0.101 0.076 0.072 0.008 0.019 -0.012
O4ZE 0.101 0.072 0.076 -0.008 -0.012 -0.019
O4CC 0.101 0.076 0.072 -0.008 -0.019 -0.012
O4JD 0.072 0.076 0.101 0.012 -0.019 0.008
O4ZC 0.101 0.076 0.072 0.008 -0.019 0.012
O4VC 0.076 0.072 0.101 -0.019 0.012 0.008
O4OD 0.076 0.101 0.072 -0.019 0.008 0.012
O5KE 0.089 0.12 0.063 0.032 0.012 -0.025
O5M 0.12 0.063 0.089 0.012 0.025 -0.032
O5XE 0.12 0.089 0.063 0.012 0.032 -0.025
O5ZE 0.12 0.063 0.089 -0.012 -0.025 -0.032
O5CC 0.12 0.089 0.063 -0.012 -0.032 -0.025
O5JD 0.063 0.089 0.12 0.025 -0.032 0.012
O5ZC 0.12 0.089 0.063 0.012 -0.032 0.025
O5VC 0.089 0.063 0.12 -0.032 0.025 0.012
O5OD 0.089 0.12 0.063 -0.032 0.012 0.025
O6KE 0.07 0.082 0.061 0.011 0.021 0.008
O6M 0.082 0.061 0.07 0.021 -0.008 -0.011
O6XE 0.082 0.07 0.061 0.021 0.011 0.008
O6ZE 0.082 0.061 0.07 -0.021 0.008 -0.011
O6CC 0.082 0.07 0.061 -0.021 -0.011 0.008
O6DA 0.07 0.061 0.082 0.011 0.008 0.021
O6QD 0.061 0.082 0.07 0.008 -0.021 -0.011
O7M 0.056 0.056 0.056 -0.008 0.008 -0.008
O8JD 0.057 0.072 0.077 0.011 0.026 0.014
O8XB 0.072 0.057 0.077 0.026 0.011 0.014
O8YF 0.077 0.057 0.072 0.014 0.011 0.026
O8DB 0.077 0.072 0.057 0.014 0.026 0.011
O8KF 0.072 0.077 0.057 0.026 0.014 0.011
O8ZE 0.077 0.057 0.072 -0.014 -0.011 0.026
O8KE 0.072 0.077 0.057 -0.026 0.014 -0.011
O8DA 0.072 0.057 0.077 -0.026 -0.011 0.014
O8M 0.077 0.057 0.072 0.014 0.011 0.026
O8QD 0.057 0.077 0.072 -0.011 -0.014 0.026
C1JD 0.145 0.091 0.117 -0.019 -0.027 -0.025
C1M 0.117 0.145 0.091 -0.025 -0.019 -0.027
C1VC 0.091 0.145 0.117 -0.027 -0.019 -0.025
C1ED 0.117 0.145 0.091 -0.025 -0.019 -0.027
C1D 0.091 0.145 0.117 -0.027 -0.019 -0.025
C2M 0.091 0.116 0.091 -0.002 0.02 -0.002
C2D 0.091 0.116 0.091 -0.002 0.02 -0.002
C3JD 0.102 0.092 0.098 0.005 -0.002 -0.031
C3M 0.098 0.102 0.092 -0.031 0.005 -0.002
C3VC 0.092 0.102 0.098 -0.002 0.005 -0.031
C3ED 0.098 0.102 0.092 -0.031 0.005 -0.002
C3D 0.092 0.102 0.098 -0.002 0.005 -0.031
C4JD 0.094 0.169 0.149 -0.006 -0.019 0.001
C4M 0.149 0.094 0.169 0.001 -0.006 -0.019
C4VC 0.169 0.094 0.149 -0.019 -0.006 0.001
C4ED 0.149 0.094 0.169 0.001 -0.006 -0.019
C4D 0.169 0.094 0.149 -0.019 -0.006 0.001
C5M 0.163 0.086 0.163 -0.045 0.07 -0.045
C5D 0.163 0.086 0.163 -0.045 0.07 -0.045
C7KE 0.102 0.075 0.065 0.021 0.013 0.021
C7M 0.075 0.065 0.102 0.013 -0.021 -0.021
C7XE 0.075 0.102 0.065 0.013 0.021 0.021
C7ZE 0.075 0.065 0.102 -0.013 0.021 -0.021
C7CC 0.075 0.102 0.065 -0.013 -0.021 0.021
C8M 0.092 0.069 0.069 0.001 0.001 -0.001
C8CC 0.092 0.069 0.069 -0.001 -0.001 -0.001
C9KE 0.085 0.088 0.061 -0.017 -0.003 0.003
C9M 0.088 0.061 0.085 -0.003 -0.003 0.017
C9XE 0.088 0.085 0.061 -0.003 -0.017 0.003
C9ZE 0.088 0.061 0.085 0.003 0.003 0.017
C9CC 0.088 0.085 0.061 0.003 0.017 0.003
C10KE 0.078 0.05 0.069 0.022 0.024 -0.003
C10M 0.05 0.069 0.078 0.024 0.003 -0.022
C10XE 0.05 0.078 0.069 0.024 0.022 -0.003
C10ZE 0.05 0.069 0.078 -0.024 -0.003 -0.022
C10CC 0.05 0.078 0.069 -0.024 -0.022 -0.003
C11M 0.071 0.068 0.068 0.031 -0.008 0.008
C11CC 0.071 0.068 0.068 -0.031 0.008 0.008
C12M 0.066 0.062 0.062 0.01 0.004 -0.004
C12CC 0.066 0.062 0.062 -0.01 -0.004 -0.004
C13XB 0.06 0.061 0.06 0.01 0.018 0.01
C13DB 0.06 0.06 0.061 0.01 0.01 0.018
C14XB 0.036 0.059 0.036 0.016 0.016 0.016
C14DB 0.036 0.036 0.059 0.016 0.016 0.016
C15XB 0.042 0.085 0.085 -0.039 -0.002 -0.002
C15DB 0.085 0.042 0.085 -0.002 -0.039 -0.002
O10DA 0.11 0.094 0.094 0.006 -0.03 -0.03
O10M 0.094 0.094 0.11 -0.03 0.03 -0.006
Mn1? 0.0578(6) 0.0578(6) 0.0559(9) -0.0032(5) 0.0032(5) 0.0004(6)
Mn3? 0.179(6) 0.179(6) 0.129(7) -0.044(5) -0.044(5) -0.039(8)
loop_
_geom_bond_atom_site_label_1
_geom_bond_atom_site_label_2
_geom_bond_site_symmetry_1
_geom_bond_site_symmetry_2
In1 O1 1_555 1_555
In2 O6 1_555 1_555
Mn2 O3 1_555 1_555
O1 C1 1_555 1_555
O2 In1 1_555 1_555
O3 C6 1_555 1_555
O4 In1 1_555 1_555
O5 In1 1_555 1_555
O6 C12 1_555 1_555
O7 In2 1_555 1_555
O8 In2 1_555 1_555
O9 Mn2 1_555 1_555
C1 O2 1_555 1_555
C2 C3 1_555 1_555
C3 C1 1_555 1_555
C4 C3 1_555 1_555
C5 C4 1_555 1_555
C6 C5 1_555 1_555
C7 O4 1_555 1_555
C8 C9 1_555 1_555
C9 C7 1_555 1_555
C10 C9 1_555 1_555
C11 C10 1_555 1_555
C12 C11 1_555 1_555
C13 O8 1_555 1_555
C14 C13 1_555 1_555
C15 C14 1_555 1_555
O10 In2 1_555 1_555
O11 Mn2 1_555 1_555
O12 Mn2 1_555 1_555
O13 Mn2 1_555 1_555
In1ZC O1JD 1_555 1_555
In1VC O1VC 1_555 1_555
In1WD O4KE 1_555 1_555
In1XE O4XE 1_555 1_555
In1OE O4ZE 1_555 1_555
In1CC O4CC 1_555 1_555
In1RC O1ED 1_555 1_555
In1D O1D 1_555 1_555
In2DA O7 1_555 1_555
In2M O6M 1_555 1_555
In2CC O7 1_555 1_555
In2XB O8XB 1_555 1_555
In2WA O8YF 1_555 1_555
In2DB O8DB 1_555 1_555
In2E O8KF 1_555 1_555
In2LB O6XE 1_555 1_555
Mn2H O9 1_555 1_555
Mn2M O3M 1_555 1_555
Mn2D O9 1_555 1_555
Mn2W O3VC 1_555 1_555
O1JD C1JD 1_555 1_555
O1M In1 1_555 1_555
O1VC C1VC 1_555 1_555
O1ED C1ED 1_555 1_555
O1D C1D 1_555 1_555
O1ZC In1ZC 1_555 1_555
O1OD In1VC 1_555 1_555
O2JD In1ZC 1_555 1_555
O2M In1 1_555 1_555
O2VC In1VC 1_555 1_555
O2ED In1RC 1_555 1_555
O2D In1D 1_555 1_555
O2ZC In1ZC 1_555 1_555
O2OD In1VC 1_555 1_555
O3JD C6 1_555 1_555
O3M C6M 1_555 1_555
O3VC C6M 1_555 1_555
O3ED Mn2 1_555 1_555
O3D Mn2D 1_555 1_555
O3H Mn2H 1_555 1_555
O3RC Mn2M 1_555 1_555
O4KE C7KE 1_555 1_555
O4M In1 1_555 1_555
O4XE C7XE 1_555 1_555
O4ZE C7ZE 1_555 1_555
O4CC C7CC 1_555 1_555
O4JD In1ZC 1_555 1_555
O4ZC In1ZC 1_555 1_555
O4VC In1VC 1_555 1_555
O4OD In1VC 1_555 1_555
O5KE In1WD 1_555 1_555
O5M In1 1_555 1_555
O5XE In1XE 1_555 1_555
O5ZE In1OE 1_555 1_555
O5CC In1CC 1_555 1_555
O5JD In1ZC 1_555 1_555
O5ZC In1ZC 1_555 1_555
O5VC In1VC 1_555 1_555
O5OD In1VC 1_555 1_555
O6KE C12 1_555 1_555
O6M C12M 1_555 1_555
O6XE C12M 1_555 1_555
O6ZE In2 1_555 1_555
O6CC In2CC 1_555 1_555
O6DA In2DA 1_555 1_555
O6QD In2M 1_555 1_555
O7M In2M 1_555 1_555
O8JD C13 1_555 1_555
O8XB C13XB 1_555 1_555
O8YF C13XB 1_555 1_555
O8DB C13DB 1_555 1_555
O8KF C13DB 1_555 1_555
O8ZE In2 1_555 1_555
O8KE In2DA 1_555 1_555
O8DA In2DA 1_555 1_555
O8M In2M 1_555 1_555
O8QD In2M 1_555 1_555
O9M Mn2M 1_555 1_555
C1JD O2JD 1_555 1_555
C1M O1M 1_555 1_555
C1VC O2VC 1_555 1_555
C1ED O2ED 1_555 1_555
C1D O2D 1_555 1_555
C2M C3M 1_555 1_555
C2D C3ED 1_555 1_555
C3JD C2 1_555 1_555
C3M C1M 1_555 1_555
C3VC C1VC 1_555 1_555
C3ED C1ED 1_555 1_555
C3D C1D 1_555 1_555
C4JD C5 1_555 1_555
C4M C3M 1_555 1_555
C4VC C3VC 1_555 1_555
C4ED C3ED 1_555 1_555
C4D C3D 1_555 1_555
C5M C4M 1_555 1_555
C5D C4ED 1_555 1_555
C6M C5M 1_555 1_555
C6D O3ED 1_555 1_555
C7KE O5KE 1_555 1_555
C7M O4M 1_555 1_555
C7XE O5XE 1_555 1_555
C7ZE O5ZE 1_555 1_555
C7CC O5CC 1_555 1_555
C8M C9M 1_555 1_555
C8CC C9ZE 1_555 1_555
C9KE C8 1_555 1_555
C9M C7M 1_555 1_555
C9XE C7XE 1_555 1_555
C9ZE C7ZE 1_555 1_555
C9CC C7CC 1_555 1_555
C10KE C11 1_555 1_555
C10M C9M 1_555 1_555
C10XE C9XE 1_555 1_555
C10ZE C9ZE 1_555 1_555
C10CC C9CC 1_555 1_555
C11M C10M 1_555 1_555
C11CC C10ZE 1_555 1_555
C12M C11M 1_555 1_555
C12CC O6ZE 1_555 1_555
C13XB C14XB 1_555 1_555
C13DB C14DB 1_555 1_555
C14XB C15 1_555 1_555
C14DB C15XB 1_555 1_555
C15XB C14XB 1_555 1_555
C15DB C14 1_555 1_555
O10DA In2DA 1_555 1_555
O10M In2M 1_555 1_555
O11H Mn2H 1_555 1_555
O11M Mn2M 1_555 1_555
O12H Mn2H 1_555 1_555
O12M Mn2M 1_555 1_555
O13H Mn2H 1_555 1_555
O13M Mn2M 1_555 1_555
O5 C7 1_555 1_555
In2DA O6KE 1_555 1_555
In2CC O8JD 1_555 1_555
In2LB O7M 1_555 1_555
Mn2H O3JD 1_555 1_555
Mn2W O9M 1_555 1_555
O2M C1M 1_555 1_555
O3D C6D 1_555 1_555
O5M C7M 1_555 1_555
O6CC C12CC 1_555 1_555
C1JD C3JD 1_555 1_555
C2M C3VC 1_555 1_555
C2D C3D 1_555 1_555
C3JD C4JD 1_555 1_555
C4VC C5M 1_555 1_555
C4D C5D 1_555 1_555
C5D C6D 1_555 1_555
C7KE C9KE 1_555 1_555
C8M C9XE 1_555 1_555
C8CC C9CC 1_555 1_555
C9KE C10KE 1_555 1_555
C10XE C11M 1_555 1_555
C10CC C11CC 1_555 1_555
C11CC C12CC 1_555 1_555
C14DB C15DB 1_555 1_555

#END
