
#######################################################################
#
#                 Cambridge Crystallographic Data Centre
#                                CCDC 
#
#######################################################################
#
# If this CIF has been generated from an entry in the Cambridge 
# Structural Database, then it will include bibliographic, chemical, 
# crystal, experimental, refinement or atomic coordinate data resulting 
# from the CCDC's data processing and validation procedures.
#
#######################################################################

data_CUDPUO
_chemical_formula_moiety         '(C17 H10 N11 O6 Zn3 1-)n,C2 H8 N1 1+'
_chemical_name_systematic        
'catena-[dimethylammonium tris(\m~3~-4-carboxylato-1H-pyrazol-1-yl)-(\m~3~-6-amino-7H-purin-7-yl)-tri-zinc(ii) unknown solvate]'
_symmetry_cell_setting           monoclinic
_symmetry_space_group_name_H-M   'C 2/c'
_symmetry_Int_Tables_number      15
_space_group_name_Hall           '-C 2yc'
loop_
_symmetry_equiv_pos_site_id
_symmetry_equiv_pos_as_xyz
1 x,y,z
2 -x,y,1/2-z
3 1/2+x,1/2+y,z
4 1/2-x,1/2+y,1/2-z
5 -x,-y,-z
6 x,-y,1/2+z
7 1/2-x,1/2-y,-z
8 1/2+x,1/2-y,1/2+z
_cell_length_a                   18.5604(10)
_cell_length_b                   13.0176(5)
_cell_length_c                   32.7297(14)
_cell_angle_alpha                90
_cell_angle_beta                 95.844(4)
_cell_angle_gamma                90
_cell_volume                     7866.79
_exptl_crystal_colour            colorless
_exptl_crystal_description       block
_cell_formula_units_Z            8
loop_
_atom_site_label
_atom_site_type_symbol
_atom_site_fract_x
_atom_site_fract_y
_atom_site_fract_z
_atom_site_U_iso_or_equiv
_atom_site_thermal_displace_type
Zn1 Zn 0.25216(2) 0.09542(3) 0.105570(12) 0.0411 Uani
Zn2 Zn 0.53900(2) 0.08089(3) 0.042240(12) 0.0420 Uani
Zn3 Zn 0.28597(3) -0.04166(3) 0.190339(12) 0.0434 Uani
N1 N 0.20860(18) -0.0444(2) 0.10609(8) 0.0498 Uani
N2 N 0.2473(2) 0.0986(2) 0.19591(8) 0.0514 Uani
N3 N 0.35917(15) 0.0627(2) 0.10872(8) 0.0439 Uani
O1 O 0.2149(2) 0.3385(2) 0.27569(8) 0.0686 Uani
C1 C 0.40235(19) 0.0871(3) 0.07970(9) 0.0458 Uani
H1 H 0.3844 0.1174 0.0550 0.0550 Uiso
N4 N 0.38796(17) -0.0182(2) 0.17543(8) 0.0484 Uani
N5 N 0.57874(16) -0.0550(2) 0.02813(8) 0.0466 Uani
O2 O 0.2076(2) 0.4389(2) 0.22136(9) 0.0676 Uani
N6 N 0.2335(2) -0.1026(2) 0.13923(9) 0.0531 Uani
N7 N 0.53520(16) -0.12098(19) 0.00508(8) 0.0420 Uani
N8 N 0.2370(2) 0.1551(2) 0.16047(8) 0.0533 Uani
C2 C 0.4750(2) 0.0227(3) 0.12760(9) 0.0466 Uani
N9 N 0.47252(16) 0.0654(2) 0.08839(8) 0.0483 Uani
O3 O 0.0869(2) -0.2809(3) 0.04526(10) 0.0810 Uani
C3 C 0.2248(2) 0.2609(3) 0.21320(10) 0.0523 Uani
O4 O 0.7279(2) -0.2818(3) 0.07245(10) 0.0816 Uani
C4 C 0.40597(18) 0.0208(2) 0.13920(9) 0.0423 Uani
O5 O 0.1468(2) -0.3815(2) 0.09039(11) 0.0816 Uani
N10 N 0.5141(2) -0.0531(3) 0.19199(10) 0.0644 Uani
C5 C 0.5654(3) -0.2145(3) 0.00865(11) 0.0589 Uani
H2 H 0.5464 -0.2735 -0.0043 0.0710 Uiso
C6 C 0.2239(2) 0.2522(3) 0.17043(11) 0.0532 Uani
H3 H 0.2155 0.3060 0.1518 0.0640 Uiso
C7 C 0.2400(2) 0.1609(3) 0.22738(10) 0.0542 Uani
H4 H 0.2443 0.1411 0.2548 0.0650 Uiso
C8 C 0.2150(2) 0.3532(3) 0.23727(10) 0.0510 Uani
C9 C 0.1705(2) -0.1044(3) 0.07949(12) 0.0572 Uani
H5 H 0.1470 -0.0829 0.0545 0.0690 Uiso
C10 C 0.1708(2) -0.2043(3) 0.09427(11) 0.0587 Uani
C11 C 0.4456(2) -0.0530(3) 0.19953(11) 0.0619 Uani
H6 H 0.4361 -0.0804 0.2247 0.0740 Uiso
C12 C 0.6284(3) -0.2103(3) 0.03421(11) 0.0617 Uani
C13 C 0.5322(2) -0.0136(3) 0.15610(11) 0.0563 Uani
C14 C 0.2108(2) -0.1983(3) 0.13225(11) 0.0581 Uani
H7 H 0.2204 -0.2531 0.1502 0.0700 Uiso
N11 N 0.60212(19) -0.0121(3) 0.15056(11) 0.0725 Uani
H8 H 0.6336 -0.0355 0.1693 0.0870 Uiso
H9 H 0.6159 0.0123 0.1282 0.0870 Uiso
C15 C 0.6739(3) -0.3014(4) 0.04833(15) 0.0793 Uani
C16 C 0.1332(3) -0.2943(3) 0.07612(13) 0.0679 Uani
O6 O 0.6569(4) -0.3872(3) 0.0366(2) 0.1605 Uani
C17 C 0.6346(2) -0.1079(3) 0.04559(11) 0.0602 Uani
H10 H 0.6725 -0.0803 0.0630 0.0720 Uiso
Zn1B Zn 0.75216(2) -0.40458(3) 0.105570(12) 0.0411 Uani
Zn2B Zn 0.03900(2) -0.41911(3) 0.042240(12) 0.0420 Uani
Zn2D Zn 0.46100(2) -0.08089(3) -0.042240(12) 0.0420 Uani
Zn3C Zn 0.21403(3) 0.45834(3) 0.309661(12) 0.0434 Uani
O1C O 0.2851(2) -0.1615(2) 0.22431(8) 0.0686 Uani
N7D N 0.46480(16) 0.12098(19) -0.00508(8) 0.0420 Uani
O3B O 0.5869(2) 0.2191(3) 0.04526(10) 0.0810 Uani
O4B O 0.2279(2) 0.2182(3) 0.07245(10) 0.0816 Uani
O5B O 0.6468(2) 0.1185(2) 0.09039(11) 0.0816 Uani
loop_
_atom_site_aniso_label
_atom_site_aniso_U_11
_atom_site_aniso_U_22
_atom_site_aniso_U_33
_atom_site_aniso_U_23
_atom_site_aniso_U_13
_atom_site_aniso_U_12
Zn1 0.0510(2) 0.03539(19) 0.0352(2) 0.00124(14) -0.00361(16) 0.00596(16)
Zn2 0.0456(2) 0.0411(2) 0.0367(2) -0.00178(15) -0.00800(16) -0.00008(16)
Zn3 0.0610(3) 0.03335(19) 0.0347(2) 0.00150(14) -0.00068(17) -0.00098(17)
N1 0.0598(17) 0.0435(13) 0.0424(14) 0.0003(11) -0.0125(12) -0.0049(12)
N2 0.075(2) 0.0392(13) 0.0400(13) -0.0003(10) 0.0065(13) 0.0107(13)
N3 0.0454(14) 0.0428(12) 0.0415(13) 0.0037(10) -0.0057(10) 0.0079(11)
O1 0.115(3) 0.0442(12) 0.0458(13) -0.0116(10) 0.0047(14) 0.0082(15)
C1 0.0488(17) 0.0546(17) 0.0331(14) 0.0104(12) 0.0001(12) 0.0080(14)
N4 0.0531(15) 0.0530(14) 0.0377(12) 0.0109(11) -0.0022(11) 0.0009(13)
N5 0.0482(14) 0.0481(13) 0.0401(13) -0.0019(11) -0.0120(11) 0.0076(12)
O2 0.096(2) 0.0450(12) 0.0572(15) -0.0069(11) -0.0144(15) 0.0149(14)
N6 0.074(2) 0.0422(13) 0.0407(13) 0.0004(11) -0.0064(13) -0.0075(13)
N7 0.0499(14) 0.0367(11) 0.0372(12) 0.0039(10) -0.0064(10) 0.0053(11)
N8 0.081(2) 0.0416(13) 0.0374(13) -0.0014(11) 0.0068(13) 0.0097(14)
C2 0.0545(18) 0.0485(15) 0.0351(14) 0.0048(12) -0.0041(12) 0.0049(14)
N9 0.0507(15) 0.0529(14) 0.0384(13) 0.0079(11) -0.0098(11) 0.0050(12)
O3 0.079(2) 0.0767(19) 0.082(2) -0.0186(17) -0.0173(17) -0.0266(17)
C3 0.071(2) 0.0424(16) 0.0416(16) -0.0038(13) -0.0035(15) 0.0107(15)
O4 0.088(2) 0.090(2) 0.0647(17) 0.0163(16) -0.0025(16) 0.0330(19)
C4 0.0524(17) 0.0371(13) 0.0357(13) 0.0043(11) -0.0044(12) 0.0042(12)
O5 0.110(3) 0.0568(16) 0.079(2) -0.0159(15) 0.0146(19) -0.0243(18)
N10 0.0599(19) 0.086(2) 0.0448(15) 0.0201(16) -0.0074(14) 0.0128(17)
C5 0.083(3) 0.0389(15) 0.0539(19) 0.0071(14) 0.0027(18) 0.0160(17)
C6 0.074(2) 0.0376(14) 0.0460(17) -0.0044(13) -0.0031(16) 0.0062(15)
C7 0.079(3) 0.0438(16) 0.0394(15) -0.0032(13) 0.0040(15) 0.0050(16)
C8 0.057(2) 0.0477(17) 0.0460(17) -0.0068(14) -0.0060(14) 0.0059(15)
C9 0.059(2) 0.0577(19) 0.0518(18) -0.0043(16) -0.0090(16) -0.0111(17)
C10 0.073(2) 0.0531(19) 0.0485(18) -0.0078(15) -0.0010(17) -0.0122(18)
C11 0.066(2) 0.076(2) 0.0413(17) 0.0175(17) -0.0069(16) 0.006(2)
C12 0.074(3) 0.063(2) 0.0470(18) 0.0091(16) 0.0002(17) 0.019(2)
C13 0.056(2) 0.065(2) 0.0447(17) 0.0080(16) -0.0106(15) 0.0087(17)
C14 0.081(3) 0.0437(16) 0.0484(18) 0.0001(14) 0.0004(17) -0.0135(17)
N11 0.0546(18) 0.103(3) 0.0573(18) 0.0275(19) -0.0066(15) 0.0161(19)
C15 0.087(3) 0.083(3) 0.065(2) 0.004(2) -0.006(2) 0.016(3)
C16 0.076(3) 0.065(2) 0.063(2) -0.0176(19) 0.009(2) -0.025(2)
O6 0.167(6) 0.053(2) 0.246(7) 0.025(3) -0.054(5) 0.026(3)
C17 0.055(2) 0.080(2) 0.0414(17) -0.0006(16) -0.0152(15) 0.0213(19)
Zn1B 0.051 0.03539 0.0352 0.00124 -0.00361 0.00596
Zn2B 0.0456 0.0411 0.0367 -0.00178 -0.008 -8e-05
Zn2D 0.0456 0.0411 0.0367 -0.00178 -0.008 -8e-05
Zn3C 0.061 0.03335 0.0347 -0.0015 -0.00068 0.00098
O1C 0.115 0.0442 0.0458 0.0116 0.0047 -0.0082
N7D 0.0499 0.0367 0.0372 0.0039 -0.0064 0.0053
O3B 0.079 0.0767 0.082 -0.0186 -0.0173 -0.0266
O4B 0.088 0.09 0.0647 0.0163 -0.0025 0.033
O5B 0.11 0.0568 0.079 -0.0159 0.0146 -0.0243
loop_
_geom_bond_atom_site_label_1
_geom_bond_atom_site_label_2
_geom_bond_site_symmetry_1
_geom_bond_site_symmetry_2
Zn1 N1 1_555 1_555
Zn2 N5 1_555 1_555
Zn3 N2 1_555 1_555
N1 N6 1_555 1_555
N2 N8 1_555 1_555
N3 Zn1 1_555 1_555
O1 C8 1_555 1_555
C1 N3 1_555 1_555
H1 C1 1_555 1_555
N4 Zn3 1_555 1_555
N5 N7 1_555 1_555
O2 C8 1_555 1_555
N6 Zn3 1_555 1_555
N7 C5 1_555 1_555
N8 Zn1 1_555 1_555
C2 N9 1_555 1_555
N9 Zn2 1_555 1_555
O3 C16 1_555 1_555
C3 C6 1_555 1_555
O4 C15 1_555 1_555
C4 N3 1_555 1_555
O5 C16 1_555 1_555
N10 C11 1_555 1_555
C5 H2 1_555 1_555
C6 N8 1_555 1_555
H3 C6 1_555 1_555
C7 N2 1_555 1_555
H4 C7 1_555 1_555
C8 C3 1_555 1_555
C9 N1 1_555 1_555
H5 C9 1_555 1_555
C10 C9 1_555 1_555
C11 N4 1_555 1_555
H6 C11 1_555 1_555
C12 C5 1_555 1_555
C13 C2 1_555 1_555
C14 N6 1_555 1_555
H7 C14 1_555 1_555
N11 C13 1_555 1_555
H8 N11 1_555 1_555
H9 N11 1_555 1_555
C15 C12 1_555 1_555
C16 C10 1_555 1_555
O6 C15 1_555 1_555
C17 N5 1_555 1_555
H10 C17 1_555 1_555
Zn1B O4 1_555 1_555
Zn2B O3 1_555 1_555
Zn2D N7 1_555 1_555
Zn3C O1 1_555 1_555
O1C Zn3 1_555 1_555
N7D Zn2 1_555 1_555
O3B Zn2 1_555 1_555
O4B Zn1 1_555 1_555
O5B Zn2 1_555 1_555
C1 N9 1_555 1_555
N4 C4 1_555 1_555
C2 C4 1_555 1_555
C3 C7 1_555 1_555
O5 Zn2B 1_555 1_555
N10 C13 1_555 1_555
C10 C14 1_555 1_555
C12 C17 1_555 1_555

#END
