
#######################################################################
#
#                 Cambridge Crystallographic Data Centre
#                                CCDC 
#
#######################################################################
#
# If this CIF has been generated from an entry in the Cambridge 
# Structural Database, then it will include bibliographic, chemical, 
# crystal, experimental, refinement or atomic coordinate data resulting 
# from the CCDC's data processing and validation procedures.
#
#######################################################################

data_CUDPOI
_chemical_formula_moiety         
'(C17 H10 N11 O6 Zn3 1-)n,C2 H8 N1 1+,10(C3 H7 N1 O1),8(H2 O1)'
_chemical_name_systematic        
'catena-[dimethylammonium tris(\m~3~-4-carboxylato-1H-pyrazol-1-yl)-(\m~3~-6-amino-7H-purin-7-yl)-tri-zinc(ii) N,N-dimethylformamide solvate octahydrate]'
_symmetry_cell_setting           monoclinic
_symmetry_space_group_name_H-M   'C 2/c'
_symmetry_Int_Tables_number      15
_space_group_name_Hall           '-C 2yc'
loop_
_symmetry_equiv_pos_site_id
_symmetry_equiv_pos_as_xyz
1 x,y,z
2 -x,y,1/2-z
3 1/2+x,1/2+y,z
4 1/2-x,1/2+y,1/2-z
5 -x,-y,-z
6 x,-y,1/2+z
7 1/2-x,1/2-y,-z
8 1/2+x,1/2-y,1/2+z
_cell_length_a                   18.9549(6)
_cell_length_b                   12.8976(4)
_cell_length_c                   32.3865(10)
_cell_angle_alpha                90
_cell_angle_beta                 95.872(3)
_cell_angle_gamma                90
_cell_volume                     7876.07
_exptl_crystal_colour            colorless
_exptl_crystal_description       block
_cell_formula_units_Z            8
loop_
_atom_site_label
_atom_site_type_symbol
_atom_site_fract_x
_atom_site_fract_y
_atom_site_fract_z
_atom_site_U_iso_or_equiv
_atom_site_thermal_displace_type
Zn1 Zn 0.040184(19) 0.08194(3) 0.041535(10) 0.0295 Uani
N1 N -0.02554(13) 0.0678(2) 0.08799(7) 0.0328 Uani
O1 O 0.08962(14) 0.2183(2) 0.04542(9) 0.0625 Uani
O2 O 0.14991(16) 0.1137(2) 0.08973(9) 0.0609 Uani
N2 N 0.07751(12) -0.0562(2) 0.02811(7) 0.0308 Uani
N3 N -0.03221(13) 0.12404(19) -0.00579(7) 0.0326 Uani
C1 C -0.09360(15) 0.0894(2) 0.07895(8) 0.0313 Uani
C2 C -0.02313(15) 0.0235(2) 0.12726(8) 0.0317 Uani
C3 C 0.13268(15) -0.1096(3) 0.04517(8) 0.0346 Uani
H1 H -0.1108 0.1195 0.0538 0.0380 Uiso
N4 N -0.13630(12) 0.06555(18) 0.10789(7) 0.0298 Uani
C4 C -0.09149(15) 0.0224(2) 0.13905(8) 0.0294 Uani
C5 C 0.03240(16) -0.0134(3) 0.15635(8) 0.0391 Uani
C6 C 0.06135(18) -0.2179(3) 0.00960(11) 0.0449 Uani
C7 C 0.12614(19) -0.2137(3) 0.03426(10) 0.0427 Uani
H2 H 0.1705 -0.0814 0.0621 0.0410 Uiso
Zn2 Zn -0.24254(2) 0.09456(3) 0.103121(12) 0.0334 Uani
N5 N -0.10902(13) -0.01813(19) 0.17559(7) 0.0344 Uani
N6 N 0.01456(15) -0.0538(2) 0.19269(8) 0.0443 Uani
N7 N 0.10083(14) -0.0126(3) 0.15073(8) 0.0497 Uani
H3 H 0.0413 -0.2778 -0.0025 0.0540 Uiso
C8 C 0.1729(2) -0.3016(3) 0.04723(14) 0.0570 Uani
O3 O -0.27152(12) 0.21811(17) 0.07040(6) 0.0382 Uani
N8 N -0.25811(14) 0.15394(19) 0.15929(7) 0.0351 Uani
N9 N -0.28416(13) -0.0467(2) 0.10440(7) 0.0355 Uani
Zn3 Zn -0.20894(2) -0.04391(3) 0.189424(10) 0.0305 Uani
C9 C -0.05327(17) -0.0536(3) 0.19982(9) 0.0398 Uani
H4 H 0.1316 -0.0369 0.1696 0.0600 Uiso
H5 H 0.1144 0.0122 0.1282 0.0600 Uiso
O4 O 0.1581(3) -0.3912(3) 0.0350(2) 0.1464 Uani
N10 N -0.25005(14) 0.09570(19) 0.19512(7) 0.0350 Uani
C10 C -0.27353(16) 0.2512(2) 0.16937(9) 0.0352 Uani
N11 N -0.25854(15) -0.1065(2) 0.13786(7) 0.0384 Uani
C11 C -0.32421(17) -0.1075(3) 0.07836(10) 0.0423 Uani
O5 O -0.20956(14) -0.16497(16) 0.22412(6) 0.0429 Uani
H6 H -0.0631 -0.0820 0.2250 0.0480 Uiso
C12 C -0.26037(17) 0.1572(2) 0.22688(9) 0.0358 Uani
H7 H -0.2817 0.3057 0.1507 0.0420 Uiso
C13 C -0.27555(16) 0.2585(2) 0.21234(9) 0.0344 Uani
C14 C -0.28135(18) -0.2030(3) 0.13102(10) 0.0411 Uani
C15 C -0.32349(19) -0.2071(3) 0.09320(10) 0.0458 Uani
H8 H -0.3491 -0.0855 0.0537 0.0510 Uiso
H9 H -0.2579 0.1366 0.2545 0.0430 Uiso
C16 C -0.28809(16) 0.3506(2) 0.23681(9) 0.0349 Uani
H10 H -0.2708 -0.2590 0.1487 0.0490 Uiso
C17 C -0.3623(2) -0.2976(3) 0.07566(11) 0.0527 Uani
O6 O -0.29474(12) 0.43800(17) 0.22097(7) 0.0407 Uani
N3D N 0.03221(13) -0.12404(19) 0.00579(7) 0.0326 Uani
Zn1D Zn -0.040184(19) -0.08194(3) -0.041535(10) 0.0295 Uani
O3B O 0.22848(12) -0.28189(17) 0.07040(6) 0.0382 Uani
Zn2B Zn 0.25746(2) -0.40544(3) 0.103121(12) 0.0334 Uani
O5C O -0.29044(14) 0.33503(16) 0.27588(6) 0.0429 Uani
O1B O -0.41038(14) -0.2817(2) 0.04542(9) 0.0625 Uani
O2B O -0.35009(16) -0.3863(2) 0.08973(9) 0.0609 Uani
Zn3C Zn -0.29106(2) 0.45609(3) 0.310576(10) 0.0305 Uani
Zn1B Zn -0.459816(19) -0.41806(3) 0.041535(10) 0.0295 Uani
loop_
_atom_site_aniso_label
_atom_site_aniso_U_11
_atom_site_aniso_U_22
_atom_site_aniso_U_33
_atom_site_aniso_U_23
_atom_site_aniso_U_13
_atom_site_aniso_U_12
Zn1 0.02745(19) 0.0331(2) 0.02610(17) -0.00339(13) -0.00684(13) -0.00037(14)
N1 0.0328(12) 0.0395(13) 0.0243(10) 0.0004(9) -0.0057(9) 0.0027(10)
O1 0.0480(14) 0.0641(17) 0.0740(17) -0.0279(14) -0.0008(13) -0.0212(13)
O2 0.0714(19) 0.0512(15) 0.0626(15) -0.0216(13) 0.0195(13) -0.0249(14)
N2 0.0288 0.0372 0.0245 -0.0028 -0.0068 -0.001
N3 0.0361 0.0318 0.0279 0 -0.007 -0.0037
C1 0.0295(13) 0.0357(14) 0.0274(12) 0.0029(10) -0.0033(10) 0.0033(11)
C2 0.0363(14) 0.0334(14) 0.0244(11) 0.0007(10) -0.0014(10) 0.0042(11)
C3 0.0301(14) 0.0459(16) 0.0259(12) -0.0018(11) -0.0062(10) 0.0031(12)
N4 0.0291(11) 0.0316(11) 0.0273(10) -0.0006(9) -0.0043(8) 0.0045(9)
C4 0.0318(13) 0.0281(13) 0.0267(11) -0.0016(10) -0.0050(10) 0.0026(10)
C5 0.0380(15) 0.0462(17) 0.0315(13) 0.0011(12) -0.0043(11) 0.0093(13)
C6 0.0458(18) 0.0325(15) 0.0523(17) 0.0068(13) -0.0141(14) -0.0017(13)
C7 0.0481(18) 0.0366(16) 0.0402(14) 0.0060(13) -0.0104(13) -0.0028(14)
Zn2 0.0289(2) 0.0321(2) 0.0380(2) 0.00713(15) -0.00284(15) 0.00294(14)
N5 0.0395(13) 0.0337(12) 0.0292(10) 0.0040(9) 0.0001(9) -0.0007(10)
N6 0.0444(15) 0.0544(16) 0.0322(12) 0.0112(12) -0.0052(11) 0.0097(13)
N7 0.0364(14) 0.076(2) 0.0351(12) 0.0117(14) -0.0035(10) 0.0186(14)
C8 0.0430(18) 0.0423(19) 0.080(2) 0.0118(18) -0.0209(18) 0.0002(15)
O3 0.0406(11) 0.0390(11) 0.0337(9) 0.0045(9) -0.0020(8) 0.0073(9)
N8 0.0449(14) 0.0292(12) 0.0307(11) 0.0009(9) 0.0017(10) 0.0061(10)
N9 0.0331 0.0408 0.0311 -0.0057 -0.0035 -0.0022
Zn3 0.0388(2) 0.02425(18) 0.02733(17) -0.00055(13) -0.00191(14) -0.00079(14)
C9 0.0419(16) 0.0446(17) 0.0316(13) 0.0081(12) -0.0032(12) 0.0045(13)
O4 0.136(4) 0.0370(17) 0.238(6) 0.006(3) -0.117(4) 0.000(2)
N10 0.0428(14) 0.0298(12) 0.0317(11) 0.0002(9) 0.0008(10) 0.0037(10)
C10 0.0403(15) 0.0269(13) 0.0363(13) -0.0001(11) -0.0058(11) 0.0045(11)
N11 0.0464 0.0351 0.0321 0.0006 -0.003 -0.0104
C11 0.0359(16) 0.0518(19) 0.0373(14) -0.0077(14) -0.0051(12) -0.0078(14)
O5 0.066 0.0285 0.0337 0.0018 0.0021 -0.0034
C12 0.0453(16) 0.0292(14) 0.0319(12) -0.0008(11) -0.0004(11) 0.0018(12)
C13 0.0364(15) 0.0296(13) 0.0357(13) 0.0012(11) -0.0029(11) 0.0039(11)
C14 0.0468(17) 0.0363(16) 0.0405(14) -0.0059(13) 0.0053(13) -0.0149(13)
C15 0.0448(18) 0.0492(19) 0.0435(15) -0.0132(15) 0.0049(13) -0.0118(15)
C16 0.0338(14) 0.0326(14) 0.0362(13) -0.0009(12) -0.0061(11) 0.0032(11)
C17 0.0459(19) 0.060(2) 0.0539(18) -0.0234(18) 0.0130(15) -0.0196(17)
O6 0.0472(12) 0.0314(10) 0.0406(10) -0.0001(9) -0.0101(9) 0.0078(9)
N3D 0.0361(12) 0.0318(12) 0.0279(10) 0.0000(9) -0.0070(9) -0.0037(10)
Zn1D 0.02745 0.0331 0.0261 -0.00339 -0.00684 -0.00037
O3B 0.0406(11) 0.0390(11) 0.0337(9) 0.0045(9) -0.0020(8) 0.0073(9)
Zn2B 0.0289(2) 0.0321(2) 0.0380(2) 0.00713(15) -0.00284(15) 0.00294(14)
O5C 0.0660(15) 0.0285(10) 0.0337(10) -0.0018(8) 0.0021(10) 0.0034(10)
O1B 0.0480(14) 0.0641(17) 0.0740(17) -0.0279(14) -0.0008(13) -0.0212(13)
O2B 0.0714(19) 0.0512(15) 0.0626(15) -0.0216(13) 0.0195(13) -0.0249(14)
Zn3C 0.0388 0.02425 0.02733 0.00055 -0.00191 0.00079
Zn1B 0.02745(19) 0.0331(2) 0.02610(17) -0.00339(13) -0.00684(13) -0.00037(14)
loop_
_geom_bond_atom_site_label_1
_geom_bond_atom_site_label_2
_geom_bond_site_symmetry_1
_geom_bond_site_symmetry_2
Zn1 N1 1_555 1_555
N1 C1 1_555 1_555
O1 Zn1 1_555 1_555
O2 Zn1 1_555 1_555
N2 Zn1 1_555 1_555
N3 Zn1 1_555 1_555
C1 H1 1_555 1_555
C2 N1 1_555 1_555
C3 N2 1_555 1_555
N4 C1 1_555 1_555
C4 C2 1_555 1_555
C5 C2 1_555 1_555
C6 C7 1_555 1_555
C7 C3 1_555 1_555
H2 C3 1_555 1_555
Zn2 N4 1_555 1_555
N5 C4 1_555 1_555
N6 C5 1_555 1_555
N7 C5 1_555 1_555
H3 C6 1_555 1_555
C8 C7 1_555 1_555
O3 Zn2 1_555 1_555
N8 Zn2 1_555 1_555
N9 Zn2 1_555 1_555
Zn3 N5 1_555 1_555
C9 N5 1_555 1_555
H4 N7 1_555 1_555
H5 N7 1_555 1_555
O4 C8 1_555 1_555
N10 N8 1_555 1_555
C10 N8 1_555 1_555
N11 N9 1_555 1_555
C11 N9 1_555 1_555
O5 Zn3 1_555 1_555
H6 C9 1_555 1_555
C12 N10 1_555 1_555
H7 C10 1_555 1_555
C13 C10 1_555 1_555
C14 N11 1_555 1_555
C15 C11 1_555 1_555
H8 C11 1_555 1_555
H9 C12 1_555 1_555
C16 C13 1_555 1_555
H10 C14 1_555 1_555
C17 C15 1_555 1_555
O6 C16 1_555 1_555
N3D N2 1_555 1_555
Zn1D N3D 1_555 1_555
O3B C8 1_555 1_555
Zn2B O3B 1_555 1_555
O5C C16 1_555 1_555
O1B C17 1_555 1_555
O2B C17 1_555 1_555
Zn3C O5C 1_555 1_555
Zn1B O1B 1_555 1_555
N4 C4 1_555 1_555
C6 N3D 1_555 1_555
N6 C9 1_555 1_555
Zn3 N10 1_555 1_555
Zn3 N11 1_555 1_555
C12 C13 1_555 1_555
C14 C15 1_555 1_555
O2B Zn1B 1_555 1_555

#END
