
#######################################################################
#
#                 Cambridge Crystallographic Data Centre
#                                CCDC 
#
#######################################################################
#
# If this CIF has been generated from an entry in the Cambridge 
# Structural Database, then it will include bibliographic, chemical, 
# crystal, experimental, refinement or atomic coordinate data resulting 
# from the CCDC's data processing and validation procedures.
#
#######################################################################

data_CUDQEZ
_chemical_formula_moiety         '(C17 H10 N11 O6 Zn3 1-)n,C2 H8 N1 1+'
_chemical_name_systematic        
'catena-[dimethylammonium tris(\m~3~-4-carboxylato-1H-pyrazol-1-yl)-(\m~3~-6-amino-7H-purin-7-yl)-tri-zinc(ii) unknown solvate]'
_symmetry_cell_setting           monoclinic
_symmetry_space_group_name_H-M   'C 2/c'
_symmetry_Int_Tables_number      15
_space_group_name_Hall           '-C 2yc'
loop_
_symmetry_equiv_pos_site_id
_symmetry_equiv_pos_as_xyz
1 x,y,z
2 -x,y,1/2-z
3 1/2+x,1/2+y,z
4 1/2-x,1/2+y,1/2-z
5 -x,-y,-z
6 x,-y,1/2+z
7 1/2-x,1/2-y,-z
8 1/2+x,1/2-y,1/2+z
_cell_length_a                   17.7098(6)
_cell_length_b                   13.6266(4)
_cell_length_c                   31.9688(8)
_cell_angle_alpha                90
_cell_angle_beta                 95.170(3)
_cell_angle_gamma                90
_cell_volume                     7683.46
_exptl_crystal_colour            colorless
_exptl_crystal_description       block
_cell_formula_units_Z            8
loop_
_atom_site_label
_atom_site_type_symbol
_atom_site_fract_x
_atom_site_fract_y
_atom_site_fract_z
_atom_site_U_iso_or_equiv
_atom_site_thermal_displace_type
Zn1 Zn 0.03727(2) 0.91091(2) 0.038955(10) 0.0464 Uani
Zn2 Zn -0.26240(2) 0.90551(2) 0.105526(10) 0.0463 Uani
Zn3 Zn -0.22687(2) 1.03644(3) 0.191775(10) 0.0524 Uani
N1 N -0.28476(17) 1.09309(18) 0.14009(8) 0.0609 Uani
N2 N 0.08688(13) 1.03730(16) 0.02673(7) 0.0489 Uani
N3 N -0.26460(17) 0.89902(19) 0.19744(7) 0.0598 Uani
N4 N -0.30906(16) 1.03772(18) 0.10596(8) 0.0599 Uani
N5 N 0.04279(14) 1.11206(16) 0.00972(6) 0.0485 Uani
O1 O -0.42417(18) 1.2710(2) 0.04093(8) 0.0846 Uani
O2 O 0.18635(16) 1.33542(17) 0.05838(7) 0.0744 Uani
O3 O -0.28764(19) 0.5672(2) 0.21913(9) 0.0877 Uani
C1 C 0.2066(2) 1.2456(3) 0.05921(10) 0.0629 Uani
C2 C -0.10562(16) 0.9097(2) 0.07841(8) 0.0520 Uani
H1 H -0.1246 0.8803 0.0534 0.0620 Uiso
O4 O -0.35834(18) 1.36289(18) 0.08662(9) 0.0842 Uani
C3 C -0.10131(17) 0.9761(2) 0.13883(8) 0.0508 Uani
N6 N -0.11939(16) 1.0159(2) 0.17552(7) 0.0587 Uani
N7 N -0.15060(14) 0.93483(18) 0.10814(7) 0.0518 Uani
N8 N -0.03210(14) 0.92922(19) 0.08664(7) 0.0535 Uani
N9 N -0.27812(18) 0.84621(19) 0.16115(7) 0.0617 Uani
C4 C -0.3043(2) 1.1858(2) 0.13191(10) 0.0625 Uani
H2 H -0.2931 1.2386 0.1498 0.0750 Uiso
O5 O -0.2728(2) 0.6558(2) 0.27667(8) 0.0958 Uani
N10 N 0.01265(18) 1.0461(3) 0.19133(9) 0.0803 Uani
C5 C 0.08037(19) 1.1954(2) 0.01806(8) 0.0556 Uani
H3 H 0.0629 1.2576 0.0101 0.0670 Uiso
O6 O 0.26795(16) 1.2168(2) 0.07661(10) 0.0914 Uani
C6 C -0.3454(2) 1.0964(2) 0.07783(10) 0.0653 Uani
H4 H -0.3685 1.0766 0.0519 0.0780 Uiso
C7 C -0.2880(2) 0.7527(2) 0.17122(10) 0.0667 Uani
H5 H -0.2993 0.7024 0.1520 0.0800 Uiso
C8 C -0.3435(2) 1.1914(2) 0.09283(10) 0.0646 Uani
C9 C -0.02859(17) 0.9709(2) 0.12624(8) 0.0524 Uani
C10 C 0.14989(18) 1.1755(2) 0.04055(8) 0.0541 Uani
C11 C 0.03174(19) 1.0062(3) 0.15459(9) 0.0625 Uani
C12 C 0.15062(17) 1.0755(2) 0.04498(9) 0.0577 Uani
H6 H 0.1900 1.0395 0.0588 0.0690 Uiso
C13 C -0.2791(2) 0.7412(2) 0.21421(9) 0.0622 Uani
C14 C -0.2643(2) 0.8357(3) 0.22913(10) 0.0681 Uani
H7 H -0.2555 0.8524 0.2574 0.0820 Uiso
C15 C -0.2801(2) 0.6460(3) 0.23741(10) 0.0685 Uani
N11 N 0.10412(17) 1.0017(3) 0.14892(9) 0.0814 Uani
H8 H 0.1373 1.0235 0.1680 0.0980 Uiso
H9 H 0.1184 0.9771 0.1261 0.0980 Uiso
C16 C -0.0592(2) 1.0496(3) 0.19914(10) 0.0744 Uani
H10 H -0.0690 1.0793 0.2243 0.0890 Uiso
C17 C -0.3763(2) 1.2809(3) 0.07213(11) 0.0722 Uani
Zn1B Zn -0.46273(2) 1.41091(2) 0.038955(10) 0.0464 Uani
Zn1D Zn -0.03727(2) 1.08909(2) -0.038955(10) 0.0464 Uani
Zn2B Zn 0.23760(2) 1.40551(2) 0.105526(10) 0.0463 Uani
Zn3C Zn -0.27313(2) 0.53644(3) 0.308225(10) 0.0524 Uani
N5D N -0.04279(14) 0.88794(16) -0.00972(6) 0.0485 Uani
O1B O 0.07583(18) 0.7710(2) 0.04093(8) 0.0846 Uani
O2B O -0.31365(16) 0.83542(17) 0.05838(7) 0.0744 Uani
O4B O 0.14166(18) 0.86289(18) 0.08662(9) 0.0842 Uani
O5C O -0.2272(2) 1.1558(2) 0.22333(8) 0.0958 Uani
loop_
_atom_site_aniso_label
_atom_site_aniso_U_11
_atom_site_aniso_U_22
_atom_site_aniso_U_33
_atom_site_aniso_U_23
_atom_site_aniso_U_13
_atom_site_aniso_U_12
Zn1 0.05599(19) 0.03672(17) 0.04364(17) 0.00219(13) -0.01121(14) -0.00083(14)
Zn2 0.0604(2) 0.03483(17) 0.04146(16) -0.00121(13) -0.00680(14) -0.00418(14)
Zn3 0.0777(2) 0.03942(19) 0.03835(16) -0.00171(13) -0.00381(15) 0.00626(17)
N1 0.0891(18) 0.0421(12) 0.0481(11) -0.0021(10) -0.0132(12) 0.0143(12)
N2 0.0545(11) 0.0407(11) 0.0482(10) 0.0032(9) -0.0134(9) -0.0053(9)
N3 0.0847(17) 0.0496(13) 0.0439(11) 0.0048(10) 0.0000(11) -0.0039(12)
N4 0.0801(16) 0.0432(12) 0.0527(12) -0.0022(10) -0.0151(11) 0.0073(12)
N5 0.0648(13) 0.0385(10) 0.0394(9) -0.0016(8) -0.0105(9) -0.0061(10)
O1 0.112(2) 0.0663(15) 0.0703(14) 0.0064(12) -0.0210(14) 0.0317(15)
O2 0.0986(18) 0.0538(12) 0.0656(12) -0.0042(11) -0.0207(12) -0.0155(12)
O3 0.120(2) 0.0556(14) 0.0813(16) 0.0092(13) -0.0248(16) -0.0132(15)
C1 0.0733(19) 0.0590(18) 0.0542(14) -0.0035(13) -0.0057(13) -0.0173(15)
C2 0.0604(15) 0.0534(15) 0.0407(11) -0.0117(11) -0.0042(10) -0.0100(12)
O4 0.112(2) 0.0478(13) 0.0918(17) 0.0150(12) 0.0040(15) 0.0188(13)
C3 0.0637(15) 0.0457(14) 0.0407(11) -0.0048(10) -0.0087(11) -0.0050(12)
N6 0.0727(15) 0.0578(14) 0.0435(10) -0.0110(10) -0.0064(10) -0.0054(12)
N7 0.0613(13) 0.0489(12) 0.0429(10) -0.0078(9) -0.0082(9) -0.0059(10)
N8 0.0568(12) 0.0583(14) 0.0431(10) -0.0070(10) -0.0074(9) -0.0076(11)
N9 0.0939(19) 0.0440(12) 0.0461(11) 0.0064(10) 0.0004(11) -0.0041(13)
C4 0.086(2) 0.0400(14) 0.0590(15) -0.0042(12) -0.0079(15) 0.0122(14)
O5 0.157(3) 0.0693(16) 0.0580(13) 0.0186(12) -0.0070(15) -0.0210(18)
N10 0.0722(17) 0.112(3) 0.0534(14) -0.0276(16) -0.0133(12) -0.0061(18)
C5 0.0797(19) 0.0371(13) 0.0479(13) -0.0058(10) -0.0054(12) -0.0089(13)
O6 0.0806(16) 0.0829(18) 0.1024(19) -0.0018(16) -0.0375(15) -0.0183(15)
C6 0.079(2) 0.0557(17) 0.0565(15) -0.0004(13) -0.0192(14) 0.0140(15)
C7 0.091(2) 0.0505(16) 0.0568(16) 0.0097(13) -0.0037(15) -0.0097(16)
C8 0.082(2) 0.0472(15) 0.0610(16) 0.0059(13) -0.0132(15) 0.0143(15)
C9 0.0612(15) 0.0512(15) 0.0423(12) -0.0029(11) -0.0096(11) -0.0047(13)
C10 0.0664(16) 0.0503(15) 0.0432(12) -0.0050(11) -0.0083(11) -0.0126(13)
C11 0.0671(17) 0.0694(19) 0.0477(13) -0.0108(14) -0.0134(12) -0.0087(15)
C12 0.0586(15) 0.0535(16) 0.0570(15) 0.0048(13) -0.0160(12) -0.0090(13)
C13 0.080(2) 0.0527(16) 0.0519(14) 0.0117(13) -0.0049(14) -0.0063(15)
C14 0.091(2) 0.0626(19) 0.0491(14) 0.0124(14) -0.0023(14) -0.0064(17)
C15 0.074(2) 0.067(2) 0.0606(16) 0.0108(16) -0.0148(15) -0.0134(16)
N11 0.0637(16) 0.116(3) 0.0613(15) -0.0274(17) -0.0121(12) -0.0115(17)
C16 0.076(2) 0.094(3) 0.0499(15) -0.0253(17) -0.0121(14) -0.0040(19)
C17 0.088(2) 0.064(2) 0.0644(17) 0.0176(16) 0.0055(16) 0.0236(18)
Zn1B 0.05599 0.03672 0.04364 0.00219 -0.01121 -0.00083
Zn1D 0.05599 0.03672 0.04364 0.00219 -0.01121 -0.00083
Zn2B 0.0604 0.03483 0.04146 -0.00121 -0.0068 -0.00418
Zn3C 0.0777 0.03942 0.03835 0.00171 -0.00381 -0.00626
N5D 0.0648 0.0385 0.0394 -0.0016 -0.0105 -0.0061
O1B 0.112 0.0663 0.0703 0.0064 -0.021 0.0317
O2B 0.0986 0.0538 0.0656 -0.0042 -0.0207 -0.0155
O4B 0.112 0.0478 0.0918 0.015 0.004 0.0188
O5C 0.157 0.0693 0.058 -0.0186 -0.007 0.021
loop_
_geom_bond_atom_site_label_1
_geom_bond_atom_site_label_2
_geom_bond_site_symmetry_1
_geom_bond_site_symmetry_2
Zn1 N2 1_555 1_555
Zn2 N4 1_555 1_555
Zn3 N1 1_555 1_555
N1 N4 1_555 1_555
N2 N5 1_555 1_555
N3 Zn3 1_555 1_555
N4 C6 1_555 1_555
N5 C5 1_555 1_555
O1 C17 1_555 1_555
O2 C1 1_555 1_555
O3 C15 1_555 1_555
C1 O6 1_555 1_555
C2 H1 1_555 1_555
O4 C17 1_555 1_555
C3 N6 1_555 1_555
N6 Zn3 1_555 1_555
N7 Zn2 1_555 1_555
N8 Zn1 1_555 1_555
N9 Zn2 1_555 1_555
C4 N1 1_555 1_555
H2 C4 1_555 1_555
O5 C15 1_555 1_555
N10 C11 1_555 1_555
C5 H3 1_555 1_555
C6 H4 1_555 1_555
C7 N9 1_555 1_555
H5 C7 1_555 1_555
C8 C4 1_555 1_555
C9 C3 1_555 1_555
C10 C1 1_555 1_555
C11 C9 1_555 1_555
C12 N2 1_555 1_555
H6 C12 1_555 1_555
C13 C7 1_555 1_555
C14 N3 1_555 1_555
H7 C14 1_555 1_555
C15 C13 1_555 1_555
N11 C11 1_555 1_555
H8 N11 1_555 1_555
H9 N11 1_555 1_555
C16 N6 1_555 1_555
H10 C16 1_555 1_555
C17 C8 1_555 1_555
Zn1B O1 1_555 1_555
Zn1D N5 1_555 1_555
Zn2B O2 1_555 1_555
Zn3C O5 1_555 1_555
N5D Zn1 1_555 1_555
O1B Zn1 1_555 1_555
O2B Zn2 1_555 1_555
O4B Zn1 1_555 1_555
O5C Zn3 1_555 1_555
N3 N9 1_555 1_555
C2 N7 1_555 1_555
C2 N8 1_555 1_555
O4 Zn1B 1_555 1_555
C3 N7 1_555 1_555
N8 C9 1_555 1_555
N10 C16 1_555 1_555
C5 C10 1_555 1_555
C6 C8 1_555 1_555
C10 C12 1_555 1_555
C13 C14 1_555 1_555

#END
