
#######################################################################
#
#                 Cambridge Crystallographic Data Centre
#                                CCDC 
#
#######################################################################
#
# If this CIF has been generated from an entry in the Cambridge 
# Structural Database, then it will include bibliographic, chemical, 
# crystal, experimental, refinement or atomic coordinate data resulting 
# from the CCDC's data processing and validation procedures.
#
#######################################################################

data_CUDQAV
_chemical_formula_moiety         '(C17 H10 N11 O6 Zn3 1-)n,C2 H8 N1 1+'
_chemical_name_systematic        
'catena-[dimethylammonium tris(\m~3~-4-carboxylato-1H-pyrazol-1-yl)-(\m~3~-6-amino-7H-purin-7-yl)-tri-zinc(ii) unknown solvate]'
_symmetry_cell_setting           monoclinic
_symmetry_space_group_name_H-M   'C 2/c'
_symmetry_Int_Tables_number      15
_space_group_name_Hall           '-C 2yc'
loop_
_symmetry_equiv_pos_site_id
_symmetry_equiv_pos_as_xyz
1 x,y,z
2 -x,y,1/2-z
3 1/2+x,1/2+y,z
4 1/2-x,1/2+y,1/2-z
5 -x,-y,-z
6 x,-y,1/2+z
7 1/2-x,1/2-y,-z
8 1/2+x,1/2-y,1/2+z
_cell_length_a                   17.6547(5)
_cell_length_b                   13.6660(3)
_cell_length_c                   31.9413(6)
_cell_angle_alpha                90
_cell_angle_beta                 94.871(2)
_cell_angle_gamma                90
_cell_volume                     7678.62
_exptl_crystal_colour            colorless
_exptl_crystal_description       block
_cell_formula_units_Z            8
loop_
_atom_site_label
_atom_site_type_symbol
_atom_site_fract_x
_atom_site_fract_y
_atom_site_fract_z
_atom_site_U_iso_or_equiv
_atom_site_thermal_displace_type
Zn1 Zn 0.037258(19) 0.08903(2) 0.038882(9) 0.0405 Uani
Zn2 Zn -0.264079(19) 0.09425(2) 0.105158(9) 0.0403 Uani
Zn3 Zn -0.22921(2) -0.03544(2) 0.191811(9) 0.0458 Uani
N1 N -0.28645(15) -0.09241(15) 0.14006(6) 0.0534 Uani
N2 N 0.08701(12) -0.03683(13) 0.02663(6) 0.0427 Uani
N3 N -0.26592(14) 0.10215(15) 0.19730(6) 0.0506 Uani
O1 O -0.42432(14) -0.27195(16) 0.04086(7) 0.0719 Uani
N4 N -0.31051(14) -0.03783(15) 0.10557(7) 0.0518 Uani
N5 N 0.04296(12) -0.11137(13) 0.00972(6) 0.0410 Uani
O2 O 0.18544(13) -0.33598(13) 0.05820(6) 0.0622 Uani
O3 O -0.28875(15) 0.43316(15) 0.21883(7) 0.0741 Uani
N6 N -0.12148(14) -0.01589(16) 0.17556(6) 0.0520 Uani
N7 N -0.15187(13) 0.06530(15) 0.10815(6) 0.0461 Uani
C1 C -0.10607(16) 0.09047(18) 0.07831(7) 0.0477 Uani
O4 O -0.35841(16) -0.36343(15) 0.08729(7) 0.0761 Uani
C2 C -0.34566(18) -0.09746(19) 0.07746(9) 0.0564 Uani
C3 C 0.20618(18) -0.2463(2) 0.05885(8) 0.0549 Uani
C4 C -0.10245(15) 0.02411(17) 0.13881(7) 0.0455 Uani
C5 C -0.30598(18) -0.18535(18) 0.13227(8) 0.0551 Uani
N8 N 0.01151(16) -0.0475(2) 0.19101(8) 0.0710 Uani
C6 C 0.08052(17) -0.19490(17) 0.01816(7) 0.0477 Uani
N9 N -0.03272(13) 0.07054(16) 0.08660(6) 0.0472 Uani
O5 O -0.26970(17) 0.34553(16) 0.27644(6) 0.0792 Uani
N10 N -0.28000(15) 0.15331(15) 0.16086(6) 0.0535 Uani
O6 O 0.26784(14) -0.21876(18) 0.07596(8) 0.0797 Uani
C7 C -0.28902(18) 0.24784(19) 0.17069(8) 0.0555 Uani
H1 H -0.3000 0.2978 0.1514 0.0670 Uiso
C8 C -0.27952(17) 0.2599(2) 0.21381(8) 0.0530 Uani
C9 C 0.14976(15) -0.17547(18) 0.04007(7) 0.0464 Uani
C10 C -0.27976(17) 0.3543(2) 0.23676(8) 0.0557 Uani
C11 C 0.03109(17) -0.0069(2) 0.15474(8) 0.0567 Uani
C12 C -0.02925(15) 0.02840(18) 0.12609(7) 0.0467 Uani
C13 C -0.34409(18) -0.19196(19) 0.09294(8) 0.0560 Uani
C14 C -0.26481(18) 0.1656(2) 0.22897(8) 0.0557 Uani
C15 C 0.15090(16) -0.07568(19) 0.04475(8) 0.0491 Uani
C16 C -0.06122(19) -0.0498(2) 0.19934(9) 0.0663 Uani
H2 H -0.0712 -0.0783 0.2247 0.0790 Uiso
N11 N 0.10350(16) -0.0034(3) 0.14846(8) 0.0714 Uani
C17 C -0.37642(19) -0.2812(2) 0.07257(9) 0.0599 Uani
H3 H 0.0656(18) -0.246(2) 0.0069(10) 0.0620 Uiso
H4 H -0.1270(17) 0.125(2) 0.0524(9) 0.0520 Uiso
H5 H -0.3724(17) -0.070(2) 0.0516(9) 0.0560 Uiso
H6 H -0.2868(18) -0.243(2) 0.1550(10) 0.0650 Uiso
H7 H 0.180(2) -0.034(3) 0.0589(11) 0.0720 Uiso
H8 H 0.135(2) -0.027(3) 0.1752(12) 0.0910 Uiso
H9 H -0.2580(17) 0.137(2) 0.2584(10) 0.0590 Uiso
H10 H 0.116(2) 0.027(3) 0.1259(13) 0.0870 Uiso
Zn1B Zn -0.462742(19) -0.41097(2) 0.038882(9) 0.0405 Uani
Zn1D Zn -0.037258(19) -0.08903(2) -0.038882(9) 0.0405 Uani
Zn2B Zn 0.235921(19) -0.40575(2) 0.105158(9) 0.0403 Uani
Zn3C Zn -0.27079(2) 0.46456(2) 0.308189(9) 0.0458 Uani
O1B O 0.07568(14) 0.22805(16) 0.04086(7) 0.0719 Uani
N5D N -0.04296(12) 0.11137(13) -0.00972(6) 0.0410 Uani
O2B O -0.31456(13) 0.16402(13) 0.05820(6) 0.0622 Uani
O4B O 0.14159(16) 0.13657(15) 0.08729(7) 0.0761 Uani
O5C O -0.23030(17) -0.15447(16) 0.22356(6) 0.0792 Uani
loop_
_atom_site_aniso_label
_atom_site_aniso_U_11
_atom_site_aniso_U_22
_atom_site_aniso_U_33
_atom_site_aniso_U_23
_atom_site_aniso_U_13
_atom_site_aniso_U_12
Zn1 0.04931(18) 0.03026(14) 0.03930(15) -0.00157(10) -0.01075(12) 0.00055(12)
Zn2 0.05375(19) 0.02960(14) 0.03561(14) 0.00065(10) -0.00705(12) 0.00285(12)
Zn3 0.0687(2) 0.03294(15) 0.03410(14) 0.00132(11) -0.00463(13) -0.00544(14)
N1 0.0789(16) 0.0356(10) 0.0425(10) 0.0029(8) -0.0131(10) -0.0135(10)
N2 0.0494(11) 0.0331(9) 0.0431(9) -0.0027(7) -0.0111(8) 0.0022(8)
N3 0.0727(15) 0.0407(10) 0.0378(9) -0.0048(8) 0.0005(9) 0.0064(10)
O1 0.0929(16) 0.0558(12) 0.0627(11) -0.0063(9) -0.0177(11) -0.0274(11)
N4 0.0712(15) 0.0366(10) 0.0446(10) 0.0019(8) -0.0134(9) -0.0078(10)
N5 0.0535(11) 0.0318(9) 0.0353(8) -0.0001(7) -0.0111(8) 0.0025(8)
O2 0.0830(14) 0.0422(9) 0.0569(10) 0.0071(8) -0.0211(10) 0.0141(9)
O3 0.1039(18) 0.0440(10) 0.0689(13) -0.0066(9) -0.0241(12) 0.0123(11)
N6 0.0643(14) 0.0502(12) 0.0396(9) 0.0110(8) -0.0067(9) 0.0028(10)
N7 0.0544(12) 0.0436(10) 0.0385(9) 0.0065(8) -0.0073(8) 0.0079(9)
C1 0.0586(15) 0.0463(13) 0.0365(11) 0.0093(9) -0.0062(10) 0.0082(11)
O4 0.1068(19) 0.0392(10) 0.0806(14) -0.0092(10) -0.0013(13) -0.0173(11)
C2 0.0727(18) 0.0418(13) 0.0512(13) -0.0007(10) -0.0160(12) -0.0101(12)
C3 0.0703(18) 0.0465(13) 0.0459(12) 0.0034(10) -0.0063(11) 0.0164(12)
C4 0.0567(14) 0.0415(11) 0.0359(10) 0.0061(9) -0.0100(9) 0.0031(10)
C5 0.0788(19) 0.0327(11) 0.0515(13) 0.0025(10) -0.0078(12) -0.0123(11)
N8 0.0621(16) 0.099(2) 0.0494(12) 0.0270(13) -0.0091(11) 0.0097(14)
C6 0.0679(17) 0.0316(11) 0.0414(11) 0.0038(9) -0.0076(11) 0.0074(10)
N9 0.0526(12) 0.0480(11) 0.0390(9) 0.0074(8) -0.0076(8) 0.0055(9)
O5 0.135(2) 0.0519(11) 0.0474(10) -0.0143(9) -0.0111(12) 0.0152(13)
N10 0.0829(17) 0.0369(10) 0.0395(9) -0.0048(8) -0.0019(10) 0.0052(10)
O6 0.0700(14) 0.0707(14) 0.0917(16) 0.0020(12) -0.0324(12) 0.0159(12)
C7 0.0780(19) 0.0406(12) 0.0460(13) -0.0076(10) -0.0051(12) 0.0095(12)
C8 0.0652(17) 0.0482(13) 0.0443(12) -0.0095(10) -0.0037(11) 0.0063(12)
C9 0.0577(15) 0.0405(11) 0.0386(10) 0.0033(9) -0.0108(10) 0.0067(10)
C10 0.0616(17) 0.0498(14) 0.0533(13) -0.0117(11) -0.0086(12) 0.0116(12)
C11 0.0611(17) 0.0629(16) 0.0431(12) 0.0100(11) -0.0130(11) 0.0067(13)
C12 0.0547(14) 0.0441(12) 0.0390(11) 0.0049(9) -0.0093(10) 0.0059(10)
C13 0.0721(18) 0.0403(12) 0.0529(13) -0.0032(10) -0.0107(12) -0.0148(12)
C14 0.0754(19) 0.0486(14) 0.0419(12) -0.0103(10) -0.0022(11) 0.0054(13)
C15 0.0492(14) 0.0409(12) 0.0542(13) -0.0030(10) -0.0131(11) 0.0064(10)
C16 0.073(2) 0.079(2) 0.0444(13) 0.0232(13) -0.0100(12) 0.0029(16)
N11 0.0542(15) 0.102(2) 0.0557(13) 0.0259(14) -0.0096(11) 0.0107(14)
C17 0.0723(19) 0.0514(15) 0.0557(14) -0.0127(12) 0.0045(13) -0.0185(14)
Zn1B 0.04931 0.03026 0.0393 -0.00157 -0.01075 0.00055
Zn1D 0.04931 0.03026 0.0393 -0.00157 -0.01075 0.00055
Zn2B 0.05375 0.0296 0.03561 0.00065 -0.00705 0.00285
Zn3C 0.0687 0.03294 0.0341 -0.00132 -0.00463 0.00544
O1B 0.0929 0.0558 0.0627 -0.0063 -0.0177 -0.0274
N5D 0.0535 0.0318 0.0353 -0.0001 -0.0111 0.0025
O2B 0.083 0.0422 0.0569 0.0071 -0.0211 0.0141
O4B 0.1068 0.0392 0.0806 -0.0092 -0.0013 -0.0173
O5C 0.135 0.0519 0.0474 0.0143 -0.0111 -0.0152
loop_
_geom_bond_atom_site_label_1
_geom_bond_atom_site_label_2
_geom_bond_site_symmetry_1
_geom_bond_site_symmetry_2
Zn1 N2 1_555 1_555
Zn2 N4 1_555 1_555
Zn3 N1 1_555 1_555
N1 N4 1_555 1_555
N2 N5 1_555 1_555
N3 Zn3 1_555 1_555
O1 C17 1_555 1_555
N4 C2 1_555 1_555
N5 C6 1_555 1_555
O2 C3 1_555 1_555
O3 C10 1_555 1_555
N6 Zn3 1_555 1_555
N7 Zn2 1_555 1_555
C1 N7 1_555 1_555
O4 C17 1_555 1_555
C2 C13 1_555 1_555
C3 O6 1_555 1_555
C4 N6 1_555 1_555
C5 N1 1_555 1_555
N8 C11 1_555 1_555
C6 C9 1_555 1_555
N9 Zn1 1_555 1_555
O5 C10 1_555 1_555
N10 Zn2 1_555 1_555
C7 N10 1_555 1_555
H1 C7 1_555 1_555
C8 C7 1_555 1_555
C9 C3 1_555 1_555
C10 C8 1_555 1_555
C11 C12 1_555 1_555
C12 C4 1_555 1_555
C13 C5 1_555 1_555
C14 N3 1_555 1_555
C15 N2 1_555 1_555
C16 N6 1_555 1_555
H2 C16 1_555 1_555
N11 C11 1_555 1_555
C17 C13 1_555 1_555
H3 C6 1_555 1_555
H4 C1 1_555 1_555
H5 C2 1_555 1_555
H6 C5 1_555 1_555
H7 C15 1_555 1_555
H8 N11 1_555 1_555
H9 C14 1_555 1_555
H10 N11 1_555 1_555
Zn1B O1 1_555 1_555
Zn1D N5 1_555 1_555
Zn2B O2 1_555 1_555
Zn3C O5 1_555 1_555
O1B Zn1 1_555 1_555
N5D Zn1 1_555 1_555
O2B Zn2 1_555 1_555
O4B Zn1 1_555 1_555
O5C Zn3 1_555 1_555
N3 N10 1_555 1_555
N7 C4 1_555 1_555
C1 N9 1_555 1_555
O4 Zn1B 1_555 1_555
N8 C16 1_555 1_555
N9 C12 1_555 1_555
C8 C14 1_555 1_555
C9 C15 1_555 1_555

#END
