
#######################################################################
#
#                 Cambridge Crystallographic Data Centre
#                                CCDC 
#
#######################################################################
#
# If this CIF has been generated from an entry in the Cambridge 
# Structural Database, then it will include bibliographic, chemical, 
# crystal, experimental, refinement or atomic coordinate data resulting 
# from the CCDC's data processing and validation procedures.
#
#######################################################################

data_EQETAX
_chemical_formula_moiety         '(C17 H11 Cu1 N3 O5)n,2n(C3 H7 N1 O1),n(H2 O1)'
_chemical_name_systematic        
'catena-((\m-3,5-bis(pyridin-4-yl)benzoato)-(nitrato)-copper dimethylformamide solvate monohydrate)'
_symmetry_cell_setting           orthorhombic
_symmetry_space_group_name_H-M   'P c c n'
_symmetry_Int_Tables_number      56
_space_group_name_Hall           '-P 2ab 2ac'
loop_
_symmetry_equiv_pos_site_id
_symmetry_equiv_pos_as_xyz
1 x,y,z
2 1/2-x,1/2-y,z
3 -x,1/2+y,1/2-z
4 1/2+x,-y,1/2-z
5 -x,-y,-z
6 1/2+x,1/2+y,-z
7 x,1/2-y,1/2+z
8 1/2-x,y,1/2+z
_cell_length_a                   16.269(2)
_cell_length_b                   20.730(3)
_cell_length_c                   14.9828(19)
_cell_angle_alpha                90
_cell_angle_beta                 90
_cell_angle_gamma                90
_cell_volume                     5053.04
_exptl_crystal_colour            blue
_exptl_crystal_description       block
_cell_formula_units_Z            8
loop_
_atom_site_label
_atom_site_type_symbol
_atom_site_fract_x
_atom_site_fract_y
_atom_site_fract_z
_atom_site_U_iso_or_equiv
_atom_site_thermal_displace_type
C1 C 0.21676(17) 0.43159(13) 0.85965(18) 0.0212 Uani
C2 C 0.01301(18) 0.25237(14) 0.82923(18) 0.0231 Uani
C3 C 0.00873(16) 0.43887(13) 0.61480(17) 0.0166 Uani
Cu1 Cu 0.106188(19) 0.566301(15) 0.53314(2) 0.0153 Uani
O1 O 0.19429(11) 0.55828(9) 0.62815(12) 0.0209 Uani
C4 C 0.11238(17) 0.43109(13) 0.73708(18) 0.0203 Uani
H1 H 0.1332 0.4716 0.7177 0.0240 Uiso
N1 N 0.33118(13) 0.50331(11) 0.95802(14) 0.0182 Uani
O2 O 0.02698(11) 0.49602(9) 0.60255(12) 0.0217 Uani
O3 O 0.26310(14) 0.61874(11) 0.53551(15) 0.0395 Uani
O4 O -0.04069(10) 0.40514(9) 0.56823(12) 0.0176 Uani
N2 N -0.05753(14) 0.14097(11) 0.90019(15) 0.0209 Uani
C5 C 0.11790(17) 0.34013(13) 0.83717(19) 0.0235 Uani
H2 H 0.1436 0.3176 0.8849 0.0280 Uiso
C6 C 0.04588(16) 0.40358(13) 0.69346(17) 0.0178 Uani
O5 O 0.32303(14) 0.58043(14) 0.65321(18) 0.0587 Uani
N3 N 0.26223(15) 0.58654(13) 0.60546(17) 0.0292 Uani
C7 C 0.26342(16) 0.47995(14) 0.81973(19) 0.0239 Uani
H3 H 0.2579 0.4886 0.7578 0.0290 Uiso
C8 C -0.10347(19) 0.18997(16) 0.8723(2) 0.0385 Uani
H4 H -0.1615 0.1865 0.8773 0.0460 Uiso
C9 C 0.28958(18) 0.45400(14) 0.99439(19) 0.0228 Uani
H5 H 0.3003 0.4433 1.0549 0.0270 Uiso
C10 C 0.23233(18) 0.41806(14) 0.94887(19) 0.0238 Uani
H6 H 0.2036 0.3842 0.9782 0.0290 Uiso
C11 C 0.06093(17) 0.20081(14) 0.85807(18) 0.0238 Uani
H7 H 0.1191 0.2031 0.8542 0.0290 Uiso
C12 C 0.14918(17) 0.39956(13) 0.80973(18) 0.0202 Uani
C13 C 0.31767(17) 0.51508(14) 0.87108(18) 0.0240 Uani
H8 H 0.3470 0.5494 0.8436 0.0290 Uiso
C14 C -0.07090(19) 0.24571(16) 0.8365(2) 0.0402 Uani
H9 H -0.1062 0.2793 0.8170 0.0480 Uiso
C15 C 0.02392(18) 0.14682(14) 0.89202(19) 0.0243 Uani
H10 H 0.0577 0.1119 0.9106 0.0290 Uiso
C16 C 0.04894(17) 0.31327(14) 0.79505(19) 0.0237 Uani
C17 C 0.01383(17) 0.34546(13) 0.72235(18) 0.0228 Uani
H11 H -0.0323 0.3273 0.6927 0.0270 Uiso
Cu1B Cu -0.106188(19) 0.066301(15) 0.96686(2) 0.0153 Uani
Cu1D Cu -0.106188(19) 0.433699(15) 0.46686(2) 0.0153 Uani
Cu1G Cu 0.393812(19) 0.566301(15) 1.03314(2) 0.0153 Uani
N1G N 0.16882(13) 0.50331(11) 0.45802(14) 0.0182 Uani
O4D O 0.04069(10) 0.59486(9) 0.43177(12) 0.0176 Uani
N2B N 0.05753(14) 0.64097(11) 0.59981(15) 0.0209 Uani
loop_
_atom_site_aniso_label
_atom_site_aniso_U_11
_atom_site_aniso_U_22
_atom_site_aniso_U_33
_atom_site_aniso_U_23
_atom_site_aniso_U_13
_atom_site_aniso_U_12
C1 0.0247(14) 0.0176(14) 0.0212(14) 0.0031(11) -0.0049(11) -0.0035(12)
C2 0.0323(16) 0.0199(15) 0.0172(14) 0.0034(11) -0.0098(12) -0.0094(12)
C3 0.0201(13) 0.0172(14) 0.0125(13) 0.0005(11) 0.0027(10) 0.0041(11)
Cu1 0.01843(17) 0.01345(17) 0.01400(17) -0.00078(13) -0.00119(14) 0.00356(14)
O1 0.0208(10) 0.0233(11) 0.0186(10) 0.0020(8) 0.0003(8) -0.0015(8)
C4 0.0263(14) 0.0149(13) 0.0197(14) 0.0018(11) 0.0013(12) -0.0058(12)
N1 0.0201(11) 0.0204(12) 0.0141(11) 0.0010(9) -0.0040(9) -0.0027(9)
O2 0.0256(10) 0.0184(11) 0.0212(10) 0.0032(8) -0.0018(8) -0.0037(8)
O3 0.0436(13) 0.0386(14) 0.0364(13) 0.0101(11) 0.0080(11) -0.0079(11)
O4 0.0200(10) 0.0155(10) 0.0172(9) -0.0007(7) -0.0076(8) 0.0013(8)
N2 0.0236(12) 0.0214(13) 0.0178(12) 0.0044(10) -0.0039(10) -0.0074(10)
C5 0.0310(16) 0.0198(15) 0.0197(15) 0.0038(11) -0.0064(12) -0.0069(12)
C6 0.0230(14) 0.0187(14) 0.0117(13) 0.0023(10) -0.0013(11) -0.0008(12)
O5 0.0270(13) 0.090(2) 0.0592(18) 0.0201(15) -0.0168(12) -0.0143(13)
N3 0.0243(13) 0.0312(15) 0.0321(15) 0.0051(11) -0.0010(12) -0.0031(11)
C7 0.0247(15) 0.0301(16) 0.0170(14) 0.0048(12) -0.0047(12) -0.0082(13)
C8 0.0248(16) 0.0298(19) 0.061(2) 0.0211(16) -0.0119(16) -0.0078(15)
C9 0.0306(16) 0.0215(15) 0.0163(14) 0.0035(11) -0.0045(12) -0.0024(13)
C10 0.0235(15) 0.0192(15) 0.0288(16) 0.0044(11) -0.0057(12) -0.0092(12)
C11 0.0223(15) 0.0245(16) 0.0246(15) 0.0045(12) -0.0001(12) -0.0037(12)
C12 0.0216(14) 0.0201(15) 0.0190(15) 0.0018(11) -0.0039(11) -0.0062(12)
C13 0.0229(15) 0.0260(16) 0.0231(15) 0.0037(12) -0.0022(12) -0.0095(13)
C14 0.0288(18) 0.0299(19) 0.062(2) 0.0270(17) -0.0169(17) -0.0078(15)
C15 0.0249(15) 0.0209(15) 0.0272(16) 0.0060(12) 0.0029(13) 0.0018(12)
C16 0.0300(15) 0.0188(15) 0.0223(15) 0.0057(11) -0.0050(12) -0.0054(12)
C17 0.0263(15) 0.0213(15) 0.0208(15) 0.0018(11) -0.0050(12) -0.0073(12)
Cu1B 0.01843 0.01345 0.014 0.00078 -0.00119 -0.00356
Cu1D 0.01843 0.01345 0.014 -0.00078 -0.00119 0.00356
Cu1G 0.01843 0.01345 0.014 -0.00078 0.00119 -0.00356
N1G 0.0201 0.0204 0.0141 0.001 0.004 0.0027
O4D 0.02 0.0155 0.0172 -0.0007 -0.0076 0.0013
N2B 0.0236 0.0214 0.0178 -0.0044 -0.0039 0.0074
loop_
_geom_bond_atom_site_label_1
_geom_bond_atom_site_label_2
_geom_bond_site_symmetry_1
_geom_bond_site_symmetry_2
C1 C7 1_555 1_555
C2 C11 1_555 1_555
C3 O2 1_555 1_555
Cu1 O1 1_555 1_555
O1 N3 1_555 1_555
C4 H1 1_555 1_555
N1 C9 1_555 1_555
O2 Cu1 1_555 1_555
O3 Cu1 1_555 1_555
O4 C3 1_555 1_555
N2 C8 1_555 1_555
C5 H2 1_555 1_555
C6 C3 1_555 1_555
O5 N3 1_555 1_555
N3 O3 1_555 1_555
C7 H3 1_555 1_555
C8 H4 1_555 1_555
C9 H5 1_555 1_555
C10 C1 1_555 1_555
H6 C10 1_555 1_555
C11 H7 1_555 1_555
C12 C1 1_555 1_555
C13 N1 1_555 1_555
H8 C13 1_555 1_555
C14 C2 1_555 1_555
H9 C14 1_555 1_555
C15 N2 1_555 1_555
H10 C15 1_555 1_555
C16 C2 1_555 1_555
C17 C6 1_555 1_555
H11 C17 1_555 1_555
Cu1B N2 1_555 1_555
Cu1D O4 1_555 1_555
Cu1G N1 1_555 1_555
N1G Cu1 1_555 1_555
O4D Cu1 1_555 1_555
N2B Cu1 1_555 1_555
C4 C6 1_555 1_555
C4 C12 1_555 1_555
C5 C12 1_555 1_555
C5 C16 1_555 1_555
C7 C13 1_555 1_555
C8 C14 1_555 1_555
C9 C10 1_555 1_555
C11 C15 1_555 1_555
C16 C17 1_555 1_555

#END
