
#######################################################################
#
#                 Cambridge Crystallographic Data Centre
#                                CCDC 
#
#######################################################################
#
# If this CIF has been generated from an entry in the Cambridge 
# Structural Database, then it will include bibliographic, chemical, 
# crystal, experimental, refinement or atomic coordinate data resulting 
# from the CCDC's data processing and validation procedures.
#
#######################################################################

data_IXURID
_chemical_formula_moiety         
'(C26 H18 N4 O8 Zn2)n,n(C4 H9 N1 O1),1.5n(H2 O1)'
_chemical_name_systematic        
'catena-(bis(\m~4~-benzene-1,4-dicarboxylato)-(\m~2~-1,2-bis(4-pyridyl)hydrazine)-di-zinc N,N-dimethylacetamide solvate sesquihydrate)'
_symmetry_cell_setting           triclinic
_symmetry_space_group_name_H-M   'P -1'
_symmetry_Int_Tables_number      2
_space_group_name_Hall           '-P 1'
loop_
_symmetry_equiv_pos_site_id
_symmetry_equiv_pos_as_xyz
1 x,y,z
2 -x,-y,-z
_cell_length_a                   10.9028(13)
_cell_length_b                   10.9453(13)
_cell_length_c                   15.8533(18)
_cell_angle_alpha                88.159(2)
_cell_angle_beta                 80.542(2)
_cell_angle_gamma                85.314(2)
_cell_volume                     1859.55
_exptl_crystal_colour            'light yellow'
_exptl_crystal_description       block
_cell_formula_units_Z            2
loop_
_atom_site_label
_atom_site_type_symbol
_atom_site_fract_x
_atom_site_fract_y
_atom_site_fract_z
Zn1 Zn 0.28242(3) 0.15772(3) 0.40630(2)
Zn2 Zn 0.32970(3) 0.16287(3) 1.21524(2)
C1 C 0.3031(3) 0.3954(3) 0.3064(2)
C2 C 0.3053(3) 0.5333(3) 0.3055(2)
C3 C 0.2854(4) 0.5952(3) 0.3806(2)
H1 H 0.2700 0.5518 0.4321
C4 C 0.2877(4) 0.7211(3) 0.3810(2)
H2 H 0.2739 0.7612 0.4330
C5 C 0.3098(3) 0.7875(3) 0.3071(2)
C6 C 0.3307(4) 0.7256(3) 0.2314(2)
H3 H 0.3474 0.7689 0.1799
C7 C 0.3270(4) 0.6007(3) 0.2312(2)
H4 H 0.3396 0.5608 0.1792
C8 C 0.3120(3) 0.9246(3) 0.3079(2)
C9 C -0.4581(3) 0.1529(3) 0.3094(2)
C10 C -0.3207(3) 0.1564(3) 0.3116(2)
C11 C -0.2382(3) 0.1729(4) 0.2366(2)
H5 H -0.2673 0.1811 0.1846
C12 C -0.1126(3) 0.1772(4) 0.2391(2)
H6 H -0.0578 0.1896 0.1887
C13 C -0.0671(3) 0.1632(3) 0.3161(2)
C14 C -0.1514(3) 0.1479(3) 0.3911(2)
H7 H -0.1229 0.1407 0.4433
C15 C -0.2753(3) 0.1435(3) 0.3888(2)
H8 H -0.3302 0.1317 0.4393
C16 C 0.0692(3) 0.1661(3) 0.3175(2)
C17 C 0.2330(5) 0.1664(5) 0.7112(3)
C18 C 0.3490(4) 0.1668(4) 0.6636(3)
H9 H 0.4197 0.1697 0.6890
C19 C 0.3568(4) 0.1625(3) 0.5770(2)
H10 H 0.4360 0.1595 0.5443
C20 C 0.1474(4) 0.1631(3) 0.5835(2)
H11 H 0.0782 0.1610 0.5565
C21 C 0.1283(4) 0.1667(4) 0.6714(2)
H12 H 0.0484 0.1693 0.7031
C22 C 0.2556(9) 0.2174(9) 1.0486(5)
H13 H 0.1945 0.2689 1.0806
C23 C 0.2441(14) 0.202(2) 0.9625(9)
H14 H 0.1796 0.2436 0.9387
C24 C 0.3325(14) 0.1238(19) 0.9147(8)
C25 C 0.4135(11) 0.0585(13) 0.9577(6)
C26 C 0.4218(10) 0.0822(10) 1.0397(5)
H16 H 0.4838 0.0394 1.0651
N1 N 0.3407(3) 0.1681(3) 1.08718(17)
N2 N 0.2595(3) 0.1624(2) 0.53515(16)
H17 H 0.1331 0.1946 0.8314
N3 N 0.2234(14) 0.1319(10) 0.8001(7)
N4 N 0.3275(9) 0.0931(10) 0.8338(5)
H18 H 0.3882 0.0503 0.8043
O1 O 0.1402(2) 0.1740(3) 0.24778(16)
O2 O 0.1026(2) 0.1605(2) 0.38969(15)
O3 O -0.4912(2) 0.1482(2) 0.23736(16)
O4 O -0.5304(2) 0.1554(3) 0.37947(16)
O5 O 0.3270(3) 0.3449(2) 0.23506(16)
O6 O 0.2781(3) 0.3420(2) 0.37625(15)
O7 O 0.3259(3) 0.9793(2) 0.23655(17)
O8 O 0.2995(2) 0.9738(2) 0.37872(16)
Zn1_2 Zn -0.71758(3) 0.15772(3) 0.40630(2)
Zn1_3 Zn 0.28242(3) 1.15772(3) 0.40630(2)
Zn2_2 Zn 0.32970(3) 0.16287(3) 0.21524(2)
Zn2_3 Zn -0.67030(3) 0.16287(3) 0.21524(2)
Zn2_4 Zn 0.32970(3) 1.16287(3) 0.21524(2)
O1_2 O 0.1402(2) 0.1740(3) 1.24778(16)
O3_2 O 0.5088(2) 0.1482(2) 1.23736(16)
O4_2 O 0.4696(2) 0.1554(3) 0.37947(16)
O5_2 O 0.3270(3) 0.3449(2) 1.23506(16)
O7_2 O 0.3259(3) -0.0207(2) 1.23655(17)
O8_2 O 0.2995(2) -0.0262(2) 0.37872(16)
H15? H 0.4654 -0.0048 -0.0699
C27? C 0.3863(9) 0.2727(8) 0.0423(5)
C28? C 0.3755(11) 0.3009(9) -0.0403(5)
C29? C 0.3121(17) 0.2278(14) -0.0829(8)
C30? C 0.268(2) 0.1239(18) -0.0412(11)
C31? C 0.2808(9) 0.1083(9) 0.0445(5)
H19? H 0.4263 0.3259 0.0712
H20? H 0.4109 0.3693 -0.0673
H21? H 0.1515 0.1357 -0.1678
H22? H 0.2312 0.0668 -0.0691
H23? H 0.3486 0.3051 -0.1949
H24? H 0.2393 0.0448 0.0737
N5? N 0.2047(15) 0.2041(10) -0.1991(8)
N6? N 0.3001(10) 0.2566(10) -0.1647(5)
loop_
_geom_bond_atom_site_label_1
_geom_bond_atom_site_label_2
_geom_bond_site_symmetry_1
_geom_bond_site_symmetry_2
Zn1 N2 1_555 1_555
Zn2 N1 1_555 1_555
C1 C2 1_555 1_555
C2 C3 1_555 1_555
C3 H1 1_555 1_555
C4 C3 1_555 1_555
H2 C4 1_555 1_555
C5 C4 1_555 1_555
C6 C5 1_555 1_555
H3 C6 1_555 1_555
C7 C2 1_555 1_555
H4 C7 1_555 1_555
C8 C5 1_555 1_555
C9 C10 1_555 1_555
C10 C11 1_555 1_555
C11 H5 1_555 1_555
C12 C11 1_555 1_555
H6 C12 1_555 1_555
C13 C12 1_555 1_555
C14 C13 1_555 1_555
H7 C14 1_555 1_555
C15 C10 1_555 1_555
H8 C15 1_555 1_555
C16 C13 1_555 1_555
C17 C18 1_555 1_555
C18 H9 1_555 1_555
C19 C18 1_555 1_555
H10 C19 1_555 1_555
C20 H11 1_555 1_555
C21 C17 1_555 1_555
H12 C21 1_555 1_555
C22 H13 1_555 1_555
C23 C22 1_555 1_555
H14 C23 1_555 1_555
C24 C23 1_555 1_555
C25 C24 1_555 1_555
C26 C25 1_555 1_555
H16 C26 1_555 1_555
N1 C22 1_555 1_555
N2 C19 1_555 1_555
H17 N3 1_555 1_555
N3 C17 1_555 1_555
N4 C24 1_555 1_555
H18 N4 1_555 1_555
O1 C16 1_555 1_555
O2 Zn1 1_555 1_555
O3 C9 1_555 1_555
O4 C9 1_555 1_555
O5 C1 1_555 1_555
O6 Zn1 1_555 1_555
O7 C8 1_555 1_555
O8 C8 1_555 1_555
Zn1_2 O4 1_555 1_555
Zn1_3 O8 1_555 1_555
Zn2_2 O1 1_555 1_555
Zn2_3 O3 1_555 1_555
Zn2_4 O7 1_555 1_555
O1_2 Zn2 1_555 1_555
O3_2 Zn2 1_555 1_555
O4_2 Zn1 1_555 1_555
O5_2 Zn2 1_555 1_555
O7_2 Zn2 1_555 1_555
O8_2 Zn1 1_555 1_555
C1 O6 1_555 1_555
C6 C7 1_555 1_555
C14 C15 1_555 1_555
C16 O2 1_555 1_555
C20 C21 1_555 1_555
C20 N2 1_555 1_555
C26 N1 1_555 1_555
N3 N4 1_555 1_555
O5 Zn2_2 1_555 1_555

#END
