
#######################################################################
#
#                 Cambridge Crystallographic Data Centre
#                                CCDC 
#
#######################################################################
#
# If this CIF has been generated from an entry in the Cambridge 
# Structural Database, then it will include bibliographic, chemical, 
# crystal, experimental, refinement or atomic coordinate data resulting 
# from the CCDC's data processing and validation procedures.
#
#######################################################################

data_OVUVIL
_chemical_name_common            UTSA-25
_chemical_formula_moiety         
'(C22 H20 N2 O10 Zn2)n,4n(C3 H7 N1 O1),n(H2 O1)'
_chemical_name_systematic        
'catena-(bis(\m~4~-2-hydroxybenzene-1,4-dicarboxylato)-(\m~2~-1,4-diazabicyclo[2.2.2]octane)-di-zinc N,N-dimethylformamide solvate monohydrate)'
_symmetry_cell_setting           tetragonal
_symmetry_space_group_name_H-M   'I 4/m c m'
_symmetry_Int_Tables_number      140
_space_group_name_Hall           '-I 4 2c'
loop_
_symmetry_equiv_pos_site_id
_symmetry_equiv_pos_as_xyz
1 x,y,z
2 -x,-y,z
3 x,-y,1/2-z
4 -x,y,1/2-z
5 -y,-x,1/2-z
6 y,x,1/2-z
7 y,-x,z
8 -y,x,z
9 1/2+x,1/2+y,1/2+z
10 1/2-x,1/2-y,1/2+z
11 1/2+x,1/2-y,-z
12 1/2-x,1/2+y,-z
13 1/2-y,1/2-x,-z
14 1/2+y,1/2+x,-z
15 1/2+y,1/2-x,1/2+z
16 1/2-y,1/2+x,1/2+z
17 -x,-y,-z
18 x,y,-z
19 -x,y,1/2+z
20 x,-y,1/2+z
21 y,x,1/2+z
22 -y,-x,1/2+z
23 -y,x,-z
24 y,-x,-z
25 1/2-x,1/2-y,1/2-z
26 1/2+x,1/2+y,1/2-z
27 1/2-x,1/2+y,z
28 1/2+x,1/2-y,z
29 1/2+y,1/2+x,z
30 1/2-y,1/2-x,z
31 1/2-y,1/2+x,1/2-z
32 1/2+y,1/2-x,1/2-z
_cell_length_a                   15.035(3)
_cell_length_b                   15.035(3)
_cell_length_c                   19.294(4)
_cell_angle_alpha                90
_cell_angle_beta                 90
_cell_angle_gamma                90
_cell_volume                     4361.43
_exptl_crystal_colour            colorless
_exptl_crystal_description       cubic
_cell_formula_units_Z            4
loop_
_atom_site_label
_atom_site_type_symbol
_atom_site_fract_x
_atom_site_fract_y
_atom_site_fract_z
C6 C 0.0693(9) 0.3160(9) 0.1198(13)
H2 H 0.0259 0.2885 0.1510
H3 H 0.0392 0.3591 0.0898
H4 H 0.0973 0.2700 0.0913
C7 C 0.1697(12) 0.3303(12) 0.2192(10)
N2 N 0.1381(6) 0.3619(6) 0.1611(8)
O3 O 0.109(3) 0.2604(18) 0.2410(13)
C6CA C 0.1840(9) 0.4307(9) 0.1198(13)
H2CA H 0.2115 0.4741 0.1510
H3CA H 0.1409 0.4608 0.0898
H4CA H 0.2300 0.4027 0.0913
O3CA O 0.2396(18) 0.391(3) 0.2410(13)
O4 O 0.0000 0.5000 0.0000
Zn1 Zn 1.0000 0.0000 0.07719(6)
O1 O 1.0523(3) -0.1221(3) 0.0573(2)
C1 C 1.0767(5) -0.1520(5) 0.0000
C2 C 1.1375(5) -0.2301(5) 0.0000
C3 C 1.1690(4) -0.2658(4) 0.0623(2)
O2 O 1.1416(12) -0.2428(11) 0.1216(7)
H1 H 1.1067 -0.1995 0.1177
N1 N 1.0000 0.0000 0.1840(5)
C4 C 1.023(3) -0.0907(12) 0.2092(7)
Zn1P Zn 1.0000 0.0000 -0.07719(6)
Zn1Z Zn 1.5000 -0.5000 0.07719(6)
Zn1J Zn 1.5000 -0.5000 -0.07719(6)
Zn1B Zn 1.0000 0.0000 0.42281(6)
Zn1Z_2 Zn 0.5000 0.5000 0.07719(6)
Zn1J_2 Zn 0.5000 0.5000 -0.07719(6)
O1Q O 1.0523(3) -0.1221(3) -0.0573(2)
O1BA O 1.3779(3) -0.4477(3) 0.0573(2)
O1M O 1.3779(3) -0.4477(3) -0.0573(2)
O1A O 0.9477(3) 0.1221(3) 0.0573(2)
O1P O 0.9477(3) 0.1221(3) -0.0573(2)
O1CA O 0.6221(3) 0.4477(3) 0.0573(2)
O1L O 0.6221(3) 0.4477(3) -0.0573(2)
O1F O 0.8779(3) -0.0523(3) 0.0573(2)
O1G O 1.1221(3) 0.0523(3) 0.0573(2)
O1W O 0.8779(3) -0.0523(3) -0.0573(2)
O1V O 1.1221(3) 0.0523(3) -0.0573(2)
C1M C 1.3480(5) -0.4233(5) 0.0000
C1A C 0.9233(5) 0.1520(5) 0.0000
C1L C 0.6520(5) 0.4233(5) 0.0000
C2M C 1.2699(5) -0.3625(5) 0.0000
C2A C 0.8625(5) 0.2301(5) 0.0000
C2L C 0.7301(5) 0.3625(5) 0.0000
C3BA C 1.2342(4) -0.3310(4) 0.0623(2)
C3M C 1.2342(4) -0.3310(4) -0.0623(2)
C3Q C 1.1690(4) -0.2658(4) -0.0623(2)
C3A C 0.8310(4) 0.2658(4) 0.0623(2)
C3CA C 0.7658(4) 0.3310(4) 0.0623(2)
C3L C 0.7658(4) 0.3310(4) -0.0623(2)
C3P C 0.8310(4) 0.2658(4) -0.0623(2)
O2Q O 1.1416(12) -0.2428(11) -0.1216(7)
O2M O 1.2572(11) -0.3584(12) -0.1216(7)
O2BA O 1.2572(11) -0.3584(12) 0.1216(7)
O2A O 0.8584(12) 0.2428(11) 0.1216(7)
O2P O 0.8584(12) 0.2428(11) -0.1216(7)
O2L O 0.7428(11) 0.3584(12) -0.1216(7)
O2CA O 0.7428(11) 0.3584(12) 0.1216(7)
H1Q H 1.1067 -0.1995 -0.1177
H1M H 1.3005 -0.3933 -0.1177
H1BA H 1.3005 -0.3933 0.1177
H1A H 0.8933 0.1995 0.1177
H1P H 0.8933 0.1995 -0.1177
H1L H 0.6995 0.3933 -0.1177
H1CA H 0.6995 0.3933 0.1177
N1B N 1.0000 0.0000 0.3160(5)
N1P N 1.0000 0.0000 -0.1840(5)
C4C C 0.977(3) -0.0907(12) 0.2908(7)
C4B C 1.023(3) 0.0907(12) 0.2908(7)
C4A C 0.977(3) 0.0907(12) 0.2092(7)
C4F C 0.9093(12) -0.023(3) 0.2092(7)
C4E C 0.9093(12) 0.023(3) 0.2908(7)
C4D C 1.0907(12) -0.023(3) 0.2908(7)
C4G C 1.0907(12) 0.023(3) 0.2092(7)
C5? C 0.923(2) 0.051(3) 0.2083(14)
loop_
_geom_bond_atom_site_label_1
_geom_bond_atom_site_label_2
_geom_bond_site_symmetry_1
_geom_bond_site_symmetry_2
Zn1 O1 1_555 1_555
O1 C1 1_555 1_555
C1 C2 1_555 1_555
C2 C3 1_555 1_555
C3 O2 1_555 1_555
O2 H1 1_555 1_555
N1 Zn1 1_555 1_555
C4 N1 1_555 1_555
C6 H2 1_555 1_555
H3 C6 1_555 1_555
H4 C6 1_555 1_555
C7 N2 1_555 1_555
N2 C6 1_555 1_555
O3 C7 1_555 1_555
Zn1P O1Q 1_555 1_555
Zn1Z O1BA 1_555 1_555
Zn1J O1M 1_555 1_555
Zn1B N1B 1_555 1_555
Zn1Z_2 O1CA 1_555 1_555
Zn1J_2 O1L 1_555 1_555
O1Q C1 1_555 1_555
O1BA C1M 1_555 1_555
O1M C1M 1_555 1_555
O1A Zn1 1_555 1_555
O1P Zn1P 1_555 1_555
O1CA C1L 1_555 1_555
O1L C1L 1_555 1_555
O1F Zn1 1_555 1_555
O1G Zn1 1_555 1_555
O1W Zn1P 1_555 1_555
O1V Zn1P 1_555 1_555
C1M C2M 1_555 1_555
C1A O1A 1_555 1_555
C1L C2L 1_555 1_555
C2M C3BA 1_555 1_555
C2A C1A 1_555 1_555
C2L C3CA 1_555 1_555
C3BA C3 1_555 1_555
C3M C2M 1_555 1_555
C3Q C2 1_555 1_555
C3A C2A 1_555 1_555
C3CA C3A 1_555 1_555
C3L C2L 1_555 1_555
C3P C2A 1_555 1_555
O2Q C3Q 1_555 1_555
O2M C3M 1_555 1_555
O2BA C3BA 1_555 1_555
O2A C3A 1_555 1_555
O2P C3P 1_555 1_555
O2L C3L 1_555 1_555
O2CA C3CA 1_555 1_555
H1Q O2Q 1_555 1_555
H1M O2M 1_555 1_555
H1BA O2BA 1_555 1_555
H1A O2A 1_555 1_555
H1P O2P 1_555 1_555
H1L O2L 1_555 1_555
H1CA O2CA 1_555 1_555
N1B C4C 1_555 1_555
N1P Zn1P 1_555 1_555
C4C C4 1_555 1_555
C4B N1B 1_555 1_555
C4A N1 1_555 1_555
C4F N1 1_555 1_555
C4E N1B 1_555 1_555
C4D N1B 1_555 1_555
C4G N1 1_555 1_555
C6CA N2 1_555 1_555
H2CA C6CA 1_555 1_555
H3CA C6CA 1_555 1_555
H4CA C6CA 1_555 1_555
O3CA C7 1_555 1_555
O1P C1A 1_555 1_555
C3M C3Q 1_555 1_555
C3L C3P 1_555 1_555
C4B C4A 1_555 1_555
C4F C4E 1_555 1_555
C4D C4G 1_555 1_555

#END
