
#######################################################################
#
#                 Cambridge Crystallographic Data Centre
#                                CCDC 
#
#######################################################################
#
# If this CIF has been generated from an entry in the Cambridge 
# Structural Database, then it will include bibliographic, chemical, 
# crystal, experimental, refinement or atomic coordinate data resulting 
# from the CCDC's data processing and validation procedures.
#
#######################################################################

data_HAFVUH
_chemical_formula_moiety         '(C16 H10 Mg2 O10)n'
_chemical_name_systematic        
catena-((\m~8~-biphenyl-3,3',5,5'-tetracarboxylato)-bis(\m~2~-aqua)-di-magnesium)
_symmetry_cell_setting           tetragonal
_symmetry_space_group_name_H-M   'I 41 2 2'
_symmetry_Int_Tables_number      98
_space_group_name_Hall           'I 4bw 2bw'
loop_
_symmetry_equiv_pos_site_id
_symmetry_equiv_pos_as_xyz
1 x,y,z
2 1/2-x,1/2-y,1/2+z
3 -y,1/2+x,1/4+z
4 1/2+y,-x,3/4+z
5 1/2-x,y,3/4-z
6 x,1/2-y,1/4-z
7 1/2+y,1/2+x,1/2-z
8 -y,-x,-z
9 1/2+x,1/2+y,1/2+z
10 -x,-y,z
11 1/2-y,x,3/4+z
12 y,1/2-x,1/4+z
13 -x,1/2+y,1/4-z
14 1/2+x,-y,3/4-z
15 y,x,-z
16 1/2-y,1/2-x,1/2-z
_cell_length_a                   15.2927(11)
_cell_length_b                   15.2927(11)
_cell_length_c                   12.3010(18)
_cell_angle_alpha                90
_cell_angle_beta                 90
_cell_angle_gamma                90
_cell_volume                     2876.79
_exptl_crystal_colour            colorless
_exptl_crystal_description       needle
_cell_formula_units_Z            4
loop_
_atom_site_label
_atom_site_type_symbol
_atom_site_fract_x
_atom_site_fract_y
_atom_site_fract_z
Mg1 Mg 0.68480(8) 0.31520(8) 0.0000
O1 O 0.7554(3) 0.2500 0.1250
O2 O 0.6203(2) 0.3845(2) -0.1146(2)
O3 O 0.71117(19) 0.40306(17) -0.2544(2)
C1 C 0.5000 0.5000 -0.4390(4)
C2 C 0.5000 0.5000 -0.2117(5)
H1 H 0.5000 0.5000 -0.1361
C3 C 0.5692(3) 0.4633(3) -0.3808(4)
H2 H 0.6170 0.4408 -0.4184
C4 C 0.5684(3) 0.4596(3) -0.2678(3)
C5 C 0.6398(3) 0.4123(3) -0.2082(3)
Mg1C Mg 0.81520(8) 0.31520(8) -0.2500
Mg1_2 Mg 0.68480(8) 0.31520(8) -1.0000
Mg1A Mg 0.81520(8) 0.18480(8) -0.5000
Mg1B Mg 0.68480(8) 0.18480(8) -0.7500
Mg1B_2 Mg 0.68480(8) 0.18480(8) 0.2500
Mg1I Mg 0.31520(8) 0.68480(8) -1.0000
Mg1I_2 Mg 0.31520(8) 0.68480(8) 0.0000
Mg1J Mg 0.18480(8) 0.68480(8) -0.2500
Mg1K Mg 0.31520(8) 0.81520(8) -0.7500
O1A O 0.7446(3) 0.2500 -0.3750
O1C O 0.7500 0.2446(3) -0.1250
O2G O 0.6155(2) 0.3797(2) -0.8854(2)
O2I O 0.3797(2) 0.6155(2) -0.1146(2)
O2N O 0.3845(2) 0.6203(2) -0.8854(2)
O2C O 0.8845(2) 0.3797(2) -0.3646(2)
O2G_2 O 0.6155(2) 0.3797(2) 0.1146(2)
O2D O 0.8797(2) 0.3845(2) -0.1354(2)
O3G O 0.59694(17) 0.28883(19) -0.7456(2)
O3I O 0.28883(19) 0.59694(17) -0.2544(2)
O3N O 0.40306(17) 0.71117(19) -0.7456(2)
O3B O 0.59694(17) 0.21117(19) -0.0044(2)
O3F O 0.90306(17) 0.21117(19) -0.2456(2)
O3D O 0.78883(19) 0.40306(17) 0.0044(2)
C1G C 0.5000 0.5000 -0.5610(4)
C2G C 0.5000 0.5000 -0.7883(5)
H1G H 0.5000 0.5000 -0.8639
C3G C 0.5367(3) 0.4308(3) -0.6192(4)
C3I C 0.4308(3) 0.5367(3) -0.3808(4)
C3N C 0.4633(3) 0.5692(3) -0.6192(4)
H2G H 0.5592 0.3830 -0.5816
H2I H 0.3830 0.5592 -0.4184
H2N H 0.4408 0.6170 -0.5816
C4G C 0.5404(3) 0.4316(3) -0.7322(3)
C4I C 0.4316(3) 0.5404(3) -0.2678(3)
C4N C 0.4596(3) 0.5684(3) -0.7322(3)
C5G C 0.5877(3) 0.3602(3) -0.7918(3)
C5I C 0.3602(3) 0.5877(3) -0.2082(3)
C5N C 0.4123(3) 0.6398(3) -0.7918(3)
loop_
_geom_bond_atom_site_label_1
_geom_bond_atom_site_label_2
_geom_bond_site_symmetry_1
_geom_bond_site_symmetry_2
Mg1 O1 1_555 1_555
O1 Mg1B_2 1_555 1_555
O2 Mg1 1_555 1_555
O3 C5 1_555 1_555
C1 C3 1_555 1_555
C2 H1 1_555 1_555
C3 H2 1_555 1_555
C4 C2 1_555 1_555
C5 O2 1_555 1_555
Mg1C O3 1_555 1_555
Mg1_2 O2G 1_555 1_555
Mg1A O1A 1_555 1_555
Mg1B O3G 1_555 1_555
Mg1I O2N 1_555 1_555
Mg1I_2 O2I 1_555 1_555
Mg1J O3I 1_555 1_555
Mg1K O3N 1_555 1_555
O1A Mg1C 1_555 1_555
O1C Mg1 1_555 1_555
O2G C5G 1_555 1_555
O2I C5I 1_555 1_555
O2N C5N 1_555 1_555
O2C Mg1C 1_555 1_555
O2G_2 Mg1 1_555 1_555
O2D Mg1C 1_555 1_555
O3G C5G 1_555 1_555
O3I C5I 1_555 1_555
O3N C5N 1_555 1_555
O3B Mg1 1_555 1_555
O3F Mg1C 1_555 1_555
O3D Mg1 1_555 1_555
C1G C1 1_555 1_555
C2G H1G 1_555 1_555
C3G C1G 1_555 1_555
C3I C1 1_555 1_555
C3N C1G 1_555 1_555
H2G C3G 1_555 1_555
H2I C3I 1_555 1_555
H2N C3N 1_555 1_555
C4G C2G 1_555 1_555
C4I C2 1_555 1_555
C4N C2G 1_555 1_555
C5G C4G 1_555 1_555
C5I C4I 1_555 1_555
C5N C4N 1_555 1_555
C3 C4 1_555 1_555
C4 C5 1_555 1_555
Mg1C O1C 1_555 1_555
C3G C4G 1_555 1_555
C3I C4I 1_555 1_555
C3N C4N 1_555 1_555

#END
