
#######################################################################
#
#                 Cambridge Crystallographic Data Centre
#                                CCDC 
#
#######################################################################
#
# If this CIF has been generated from an entry in the Cambridge 
# Structural Database, then it will include bibliographic, chemical, 
# crystal, experimental, refinement or atomic coordinate data resulting 
# from the CCDC's data processing and validation procedures.
#
#######################################################################

data_HAFWAO
_chemical_formula_moiety         
'(C32 H12 O16 Zn2 4-)n,7n(H2 O1),4n(C2 H8 N1 1+)'
_chemical_name_systematic        
"catena-(bis(\m~4~-biphenyl-3,3',5,5'-tetracarboxylato)-di-zinc tetrakis(dimethylammonium) heptahydrate)"
_symmetry_cell_setting           tetragonal
_symmetry_space_group_name_H-M   'I -4 2 d'
_symmetry_Int_Tables_number      122
_space_group_name_Hall           'I -4 2bw'
loop_
_symmetry_equiv_pos_site_id
_symmetry_equiv_pos_as_xyz
1 x,y,z
2 -x,-y,z
3 y,-x,-z
4 -y,x,-z
5 1/2-x,y,3/4-z
6 1/2+x,-y,3/4-z
7 1/2-y,-x,3/4+z
8 1/2+y,x,3/4+z
9 1/2+x,1/2+y,1/2+z
10 1/2-x,1/2-y,1/2+z
11 1/2+y,1/2-x,1/2-z
12 1/2-y,1/2+x,1/2-z
13 -x,1/2+y,1/4-z
14 x,1/2-y,1/4-z
15 -y,1/2-x,1/4+z
16 y,1/2+x,1/4+z
_cell_length_a                   22.467(2)
_cell_length_b                   22.467(2)
_cell_length_c                   29.858(3)
_cell_angle_alpha                90
_cell_angle_beta                 90
_cell_angle_gamma                90
_cell_volume                     15071.3
_exptl_crystal_colour            colorless
_exptl_crystal_description       block
_cell_formula_units_Z            8
loop_
_atom_site_label
_atom_site_type_symbol
_atom_site_fract_x
_atom_site_fract_y
_atom_site_fract_z
_atom_site_U_iso_or_equiv
_atom_site_thermal_displace_type
Zn1 Zn 0.69055(5) 0.22981(5) -0.00393(3) 0.0320 Uani
C1 C 0.7107(5) 0.1191(5) -0.0467(3) 0.0403 Uani
C2 C 0.7323(6) 0.0841(5) -0.0872(3) 0.0417 Uani
C3 C 0.7308(5) 0.0237(4) -0.0876(3) 0.0337 Uani
H1 H 0.7167 0.0033 -0.0626 0.0400 Uiso
C4 C 0.7500 -0.0082(6) -0.1250 0.0373 Uani
C5 C 0.7500 -0.0738(7) -0.1250 0.0490 Uani
C6 C 0.7615(6) -0.1072(5) -0.0857(3) 0.0487 Uani
H2 H 0.7706 -0.0871 -0.0593 0.0590 Uiso
C7 C 0.7597(5) -0.1675(5) -0.0854(3) 0.0403 Uani
C8 C 0.7710(6) -0.2020(5) -0.0428(3) 0.0387 Uani
C9 C 0.7500 0.1160(6) -0.1250 0.0350 Uani
H3 H 0.7500 0.1574 -0.1250 0.0420 Uiso
C10 C 0.7500 -0.1990(7) -0.1250 0.0420 Uani
H4 H 0.7500 -0.2404 -0.1250 0.0500 Uiso
C11 C 0.5116(5) 0.2422(6) 0.0287(3) 0.0447 Uani
C12 C 0.4606(4) 0.2599(5) 0.0070(3) 0.0367 Uani
H5 H 0.4608 0.2645 -0.0239 0.0440 Uiso
C13 C 0.4093(4) 0.2710(6) 0.0306(3) 0.0417 Uani
C14 C 0.4108(5) 0.2682(5) 0.0774(3) 0.0380 Uani
H6 H 0.3765 0.2773 0.0935 0.0460 Uiso
C15 C 0.4602(4) 0.2529(5) 0.0997(3) 0.0410 Uani
C16 C 0.5106(5) 0.2399(5) 0.0757(3) 0.0417 Uani
H7 H 0.5451 0.2292 0.0909 0.0500 Uiso
C17 C 0.5698(5) 0.2325(5) 0.0041(3) 0.0437 Uani
C18 C 0.3543(4) 0.2890(7) 0.0067(4) 0.0557 Uani
O1 O 0.7050(3) 0.1754(3) -0.0530(2) 0.0433 Uani
O2 O 0.7020(4) 0.0924(3) -0.0109(2) 0.0540 Uani
O3 O 0.7658(6) -0.1762(3) -0.0062(2) 0.0767 Uani
O4 O 0.7827(3) -0.2559(3) -0.0469(2) 0.0430 Uani
O5 O 0.6148(3) 0.2179(4) 0.0271(2) 0.0437 Uani
O6 O 0.5715(4) 0.2416(5) -0.0370(2) 0.0660 Uani
O7 O 0.3089(3) 0.2971(3) 0.0304(2) 0.0430 Uani
O8 O 0.3542(4) 0.2910(7) -0.0356(3) 0.1090 Uani
Zn1D Zn 0.80945(5) 0.22981(5) -0.24607(3) 0.0320 Uani
Zn1C Zn 0.77019(5) -0.30945(5) 0.00393(3) 0.0320 Uani
Zn1B Zn 0.22981(5) 0.30945(5) 0.00393(3) 0.0320 Uani
Zn1G Zn 0.72981(5) -0.30945(5) -0.25393(3) 0.0320 Uani
Zn1M Zn 0.69055(5) 0.27019(5) 0.25393(3) 0.0320 Uani
Zn1O Zn 0.22981(5) 0.19055(5) 0.24607(3) 0.0320 Uani
C1D C 0.7893(5) 0.1191(5) -0.2033(3) 0.0403 Uani
C2D C 0.7677(6) 0.0841(5) -0.1628(3) 0.0417 Uani
C3D C 0.7692(5) 0.0237(4) -0.1624(3) 0.0337 Uani
H1D H 0.7833 0.0033 -0.1874 0.0400 Uiso
C6D C 0.7385(6) -0.1072(5) -0.1643(3) 0.0487 Uani
H2D H 0.7294 -0.0871 -0.1907 0.0590 Uiso
C7D C 0.7403(5) -0.1675(5) -0.1646(3) 0.0403 Uani
C8D C 0.7290(6) -0.2020(5) -0.2072(3) 0.0387 Uani
C11M C 0.5116(5) 0.2578(6) 0.2213(3) 0.0447 Uani
C12M C 0.4606(4) 0.2401(5) 0.2430(3) 0.0367 Uani
H5M H 0.4608 0.2355 0.2739 0.0440 Uiso
C13M C 0.4093(4) 0.2290(6) 0.2194(3) 0.0417 Uani
C14M C 0.4108(5) 0.2318(5) 0.1726(3) 0.0380 Uani
H6M H 0.3765 0.2227 0.1565 0.0460 Uiso
C15M C 0.4602(4) 0.2471(5) 0.1503(3) 0.0410 Uani
C16M C 0.5106(5) 0.2601(5) 0.1743(3) 0.0417 Uani
H7M H 0.5451 0.2708 0.1591 0.0500 Uiso
C17M C 0.5698(5) 0.2675(5) 0.2459(3) 0.0437 Uani
C18M C 0.3543(4) 0.2110(7) 0.2433(4) 0.0557 Uani
O1D O 0.7950(3) 0.1754(3) -0.1970(2) 0.0433 Uani
O2D O 0.7980(4) 0.0924(3) -0.2391(2) 0.0540 Uani
O3D O 0.7342(6) -0.1762(3) -0.2438(2) 0.0767 Uani
O4D O 0.7173(3) -0.2559(3) -0.2031(2) 0.0430 Uani
O4B O 0.7441(3) 0.2173(3) 0.0469(2) 0.0430 Uani
O4F O 0.7559(3) 0.2173(3) -0.2969(2) 0.0430 Uani
O5M O 0.6148(3) 0.2821(4) 0.2229(2) 0.0437 Uani
O5D O 0.8852(3) 0.2179(4) -0.2771(2) 0.0437 Uani
O6M O 0.5715(4) 0.2584(5) 0.2870(2) 0.0660 Uani
O7M O 0.3089(3) 0.2029(3) 0.2196(2) 0.0430 Uani
O7C O 0.7029(3) 0.3089(3) -0.0304(2) 0.0430 Uani
O7G O 0.7971(3) 0.3089(3) -0.2196(2) 0.0430 Uani
O8M O 0.3542(4) 0.2090(7) 0.2856(3) 0.1090 Uani
O9 O 0.6444(4) 0.3077(4) 0.1034(3) 0.0633 Uani
O10 O 0.7504(7) -0.0146(6) 0.0223(3) 0.1233 Uani
O11 O 0.5486(7) 0.3127(9) -0.1087(5) 0.0620 Uani
N1 N 0.6767(5) 0.1139(5) 0.0798(3) 0.0647 Uani
H8 H 0.6663 0.1496 0.0911 0.0780 Uiso
H9 H 0.6865 0.1192 0.0508 0.0780 Uiso
C19 C 0.7310(7) 0.0907(7) 0.1051(4) 0.0760 Uani
H12 H 0.7634 0.1183 0.1018 0.1140 Uiso
H13 H 0.7424 0.0527 0.0933 0.1140 Uiso
H14 H 0.7214 0.0867 0.1363 0.1140 Uiso
C20 C 0.6244(7) 0.0728(8) 0.0825(5) 0.0827 Uani
H15 H 0.5916 0.0895 0.0661 0.1240 Uiso
H16 H 0.6132 0.0676 0.1132 0.1240 Uiso
H17 H 0.6349 0.0350 0.0698 0.1240 Uiso
N2 N 0.4820(14) 0.0965(12) -0.0367(11) 0.1443 Uani
H10 H 0.4749 0.1355 -0.0411 0.1720 Uiso
H11 H 0.4590 0.0756 -0.0558 0.1720 Uiso
C21 C 0.4667(17) 0.0794(14) 0.0120(12) 0.1353 Uani
H18 H 0.4254 0.0871 0.0175 0.2010 Uiso
H19 H 0.4906 0.1025 0.0322 0.2010 Uiso
H20 H 0.4747 0.0378 0.0165 0.2010 Uiso
C22 C 0.5485(16) 0.0826(14) -0.0456(14) 0.1377 Uani
H21 H 0.5581 0.0923 -0.0760 0.2090 Uiso
H22 H 0.5558 0.0411 -0.0404 0.2090 Uiso
H23 H 0.5727 0.1059 -0.0257 0.2090 Uiso
O12 O 0.8892(14) -0.1123(15) -0.0010(12) 0.0573 Uani
O13 O 0.5000 0.0000 0.1066(11) 0.1133 Uani
O14 O 0.8684(11) 0.0046(10) 0.0389(6) 0.0907 Uani
C23? C 0.8210(8) 0.2729(13) -0.0961(7) 0.0363 Uani
C24? C 0.8885(12) 0.1898(10) -0.0998(8) 0.0467 Uani
H24? H 0.8141 0.3124 -0.0849 0.0540 Uiso
H25? H 0.7913 0.2464 -0.0844 0.0540 Uiso
H26? H 0.8189 0.2732 -0.1282 0.0540 Uiso
H27? H 0.9269 0.1744 -0.0916 0.0700 Uiso
H28? H 0.8851 0.1905 -0.1318 0.0700 Uiso
H29? H 0.8580 0.1648 -0.0875 0.0700 Uiso
H30? H 0.8846 0.2523 -0.0516 0.0350 Uiso
H31? H 0.9101 0.2762 -0.0929 0.0350 Uiso
N3? N 0.8817(7) 0.2522(8) -0.0816(6) 0.0297 Uani
loop_
_atom_site_aniso_label
_atom_site_aniso_U_11
_atom_site_aniso_U_22
_atom_site_aniso_U_33
_atom_site_aniso_U_23
_atom_site_aniso_U_13
_atom_site_aniso_U_12
Zn1 0.0378(7) 0.0364(7) 0.0217(5) -0.0016(5) 0.0017(5) 0.0016(6)
C1 0.053(8) 0.047(7) 0.021(5) -0.008(5) -0.003(4) -0.009(6)
C2 0.070(8) 0.037(6) 0.018(4) -0.001(4) 0.009(5) 0.010(6)
C3 0.050(7) 0.024(6) 0.027(5) 0.002(4) 0.001(5) -0.001(6)
C4 0.054(11) 0.028(8) 0.030(7) 0.000 0.003(6) 0.000
C5 0.080(14) 0.031(9) 0.036(8) 0.000 0.014(8) 0.000
C6 0.079(9) 0.044(7) 0.023(5) -0.005(5) 0.011(5) -0.019(7)
C7 0.049(7) 0.038(7) 0.034(5) 0.003(4) -0.003(5) -0.009(5)
C8 0.055(7) 0.032(7) 0.029(5) -0.006(4) -0.003(5) -0.016(7)
C9 0.051(10) 0.023(8) 0.031(7) 0.000 -0.003(6) 0.000
C10 0.067(12) 0.022(8) 0.037(8) 0.000 0.006(7) 0.000
C11 0.029(6) 0.082(9) 0.023(5) -0.009(5) 0.004(4) -0.003(6)
C12 0.029(5) 0.058(7) 0.023(5) 0.005(5) -0.003(4) -0.001(5)
C13 0.030(6) 0.070(8) 0.025(5) -0.002(5) -0.002(4) -0.001(6)
C14 0.049(7) 0.037(6) 0.028(5) 0.005(5) 0.003(5) 0.008(6)
C15 0.025(6) 0.062(8) 0.036(6) -0.002(5) -0.002(4) 0.000(5)
C16 0.030(6) 0.061(8) 0.034(5) 0.002(5) -0.002(4) -0.009(6)
C17 0.040(6) 0.058(7) 0.033(5) -0.012(6) 0.004(5) 0.008(6)
C18 0.019(6) 0.118(12) 0.030(5) 0.008(6) -0.001(4) 0.000(6)
O1 0.066(5) 0.032(4) 0.032(4) -0.004(3) 0.004(3) 0.009(4)
O2 0.083(6) 0.050(5) 0.029(4) 0.010(3) 0.011(4) 0.001(4)
O3 0.155(9) 0.044(5) 0.031(4) 0.005(4) 0.001(5) 0.010(6)
O4 0.059(5) 0.041(5) 0.029(4) 0.006(3) 0.002(3) 0.003(4)
O5 0.035(4) 0.069(6) 0.027(3) 0.004(3) 0.001(3) 0.007(4)
O6 0.046(5) 0.129(9) 0.023(4) 0.003(4) 0.003(3) 0.007(5)
O7 0.037(4) 0.061(5) 0.031(3) 0.000(3) 0.001(3) 0.001(4)
O8 0.049(6) 0.251(16) 0.027(4) 0.035(7) 0.007(4) 0.028(8)
Zn1D 0.0378 0.0364 0.0217 0.0016 0.0017 -0.0016
Zn1C 0.0364 0.0378 0.0217 -0.0017 -0.0016 -0.0016
Zn1B 0.0364 0.0378 0.0217 0.0017 0.0016 -0.0016
Zn1G 0.0364 0.0378 0.0217 0.0017 -0.0016 0.0016
Zn1M 0.0378 0.0364 0.0217 -0.0016 -0.0017 -0.0016
Zn1O 0.0364 0.0378 0.0217 0.0017 -0.0016 0.0016
C1D 0.053 0.047 0.021 0.008 -0.003 0.009
C2D 0.07 0.037 0.018 0.001 0.009 -0.01
C3D 0.05 0.024 0.027 -0.002 0.001 0.001
C6D 0.079 0.044 0.023 0.005 0.011 0.019
C7D 0.049 0.038 0.034 -0.003 -0.003 0.009
C8D 0.055 0.032 0.029 0.006 -0.003 0.016
C11M 0.029 0.082 0.023 -0.009 -0.004 0.003
C12M 0.029 0.058 0.023 0.005 0.003 0.001
C13M 0.03 0.07 0.025 -0.002 0.002 0.001
C14M 0.049 0.037 0.028 0.005 -0.003 -0.008
C15M 0.025 0.062 0.036 -0.002 0.002 0
C16M 0.03 0.061 0.034 0.002 0.002 0.009
C17M 0.04 0.058 0.033 -0.012 -0.004 -0.008
C18M 0.019 0.118 0.03 0.008 0.001 0
O1D 0.066 0.032 0.032 0.004 0.004 -0.009
O2D 0.083 0.05 0.029 -0.01 0.011 -0.001
O3D 0.155 0.044 0.031 -0.005 0.001 -0.01
O4D 0.059 0.041 0.029 -0.006 0.002 -0.003
O4B 0.041 0.059 0.029 0.002 -0.006 -0.003
O4F 0.041 0.059 0.029 -0.002 -0.006 0.003
O5M 0.035 0.069 0.027 0.004 -0.001 -0.007
O5D 0.035 0.069 0.027 -0.004 0.001 -0.007
O6M 0.046 0.129 0.023 0.003 -0.003 -0.007
O7M 0.037 0.061 0.031 0 -0.001 -0.001
O7C 0.061 0.037 0.031 -0.001 0 -0.001
O7G 0.061 0.037 0.031 0.001 0 0.001
O8M 0.049 0.251 0.027 0.035 -0.007 -0.028
O9 0.066(6) 0.066(6) 0.058(5) -0.006(5) 0.001(4) -0.014(5)
O10 0.208(16) 0.106(9) 0.056(6) 0.005(6) -0.002(8) 0.044(10)
O11 0.046(10) 0.085(13) 0.055(9) 0.020(9) 0.001(7) 0.000(10)
N1 0.085(7) 0.075(7) 0.034(5) 0.006(5) 0.005(5) -0.002(6)
C19 0.090(9) 0.078(9) 0.060(7) -0.008(7) -0.006(7) 0.008(8)
C20 0.081(9) 0.097(11) 0.070(8) 0.011(8) 0.001(7) -0.016(8)
N2 0.17(2) 0.063(13) 0.20(2) -0.025(14) 0.00(2) -0.060(16)
C21 0.15(2) 0.066(16) 0.19(2) -0.055(16) 0.02(2) -0.067(16)
C22 0.18(2) 0.063(16) 0.17(2) -0.005(17) 0.03(2) -0.045(18)
O12 0.045(11) 0.062(11) 0.065(11) -0.004(9) -0.010(9) -0.011(9)
O13 0.08(2) 0.14(3) 0.12(3) 0.000 0.000 -0.05(2)
O14 0.115(18) 0.091(15) 0.066(12) 0.034(11) -0.017(11) 0.022(13)
C23? 0.013(10) 0.061(13) 0.035(10) 0.008(10) 0.006(8) 0.005(9)
C24? 0.042(13) 0.059(13) 0.039(11) -0.025(11) -0.022(10) 0.009(11)
N3? 0.029(9) 0.038(10) 0.022(8) 0.013(7) -0.003(7) 0.012(8)
loop_
_geom_bond_atom_site_label_1
_geom_bond_atom_site_label_2
_geom_bond_site_symmetry_1
_geom_bond_site_symmetry_2
Zn1 O1 1_555 1_555
C1 C2 1_555 1_555
C2 C3 1_555 1_555
C3 H1 1_555 1_555
C4 C3 1_555 1_555
C5 C4 1_555 1_555
C6 C5 1_555 1_555
H2 C6 1_555 1_555
C7 C6 1_555 1_555
C8 C7 1_555 1_555
C9 C2 1_555 1_555
H3 C9 1_555 1_555
C10 C7 1_555 1_555
H4 C10 1_555 1_555
C11 C12 1_555 1_555
C12 H5 1_555 1_555
C13 C12 1_555 1_555
C14 C13 1_555 1_555
H6 C14 1_555 1_555
C15 C14 1_555 1_555
C16 C11 1_555 1_555
H7 C16 1_555 1_555
C17 C11 1_555 1_555
C18 C13 1_555 1_555
O1 C1 1_555 1_555
O2 C1 1_555 1_555
O3 C8 1_555 1_555
O4 C8 1_555 1_555
O5 Zn1 1_555 1_555
O6 C17 1_555 1_555
O7 C18 1_555 1_555
O8 C18 1_555 1_555
N1 H8 1_555 1_555
H9 N1 1_555 1_555
N2 H10 1_555 1_555
H11 N2 1_555 1_555
C19 N1 1_555 1_555
H12 C19 1_555 1_555
H13 C19 1_555 1_555
H14 C19 1_555 1_555
C20 N1 1_555 1_555
H15 C20 1_555 1_555
H16 C20 1_555 1_555
H17 C20 1_555 1_555
C21 N2 1_555 1_555
H18 C21 1_555 1_555
H19 C21 1_555 1_555
H20 C21 1_555 1_555
C22 N2 1_555 1_555
H21 C22 1_555 1_555
H22 C22 1_555 1_555
H23 C22 1_555 1_555
Zn1D O1D 1_555 1_555
Zn1C O4 1_555 1_555
Zn1B O7 1_555 1_555
Zn1G O4D 1_555 1_555
Zn1M O5M 1_555 1_555
Zn1O O7M 1_555 1_555
C1D C2D 1_555 1_555
C2D C9 1_555 1_555
C3D C4 1_555 1_555
H1D C3D 1_555 1_555
C6D C5 1_555 1_555
H2D C6D 1_555 1_555
C7D C10 1_555 1_555
C8D C7D 1_555 1_555
C11M C12M 1_555 1_555
C12M H5M 1_555 1_555
C13M C12M 1_555 1_555
C14M C13M 1_555 1_555
H6M C14M 1_555 1_555
C15M C15 1_555 1_555
C16M C11M 1_555 1_555
H7M C16M 1_555 1_555
C17M C11M 1_555 1_555
C18M C13M 1_555 1_555
O1D C1D 1_555 1_555
O2D C1D 1_555 1_555
O3D C8D 1_555 1_555
O4D C8D 1_555 1_555
O4B Zn1 1_555 1_555
O4F Zn1D 1_555 1_555
O5M C17M 1_555 1_555
O5D Zn1D 1_555 1_555
O6M C17M 1_555 1_555
O7M C18M 1_555 1_555
O7C Zn1 1_555 1_555
O7G Zn1D 1_555 1_555
O8M C18M 1_555 1_555
C15 C16 1_555 1_555
C17 O5 1_555 1_555
C2D C3D 1_555 1_555
C6D C7D 1_555 1_555
C14M C15M 1_555 1_555
C15M C16M 1_555 1_555

#END
