
#######################################################################
#
#                 Cambridge Crystallographic Data Centre
#                                CCDC 
#
#######################################################################
#
# If this CIF has been generated from an entry in the Cambridge 
# Structural Database, then it will include bibliographic, chemical, 
# crystal, experimental, refinement or atomic coordinate data resulting 
# from the CCDC's data processing and validation procedures.
#
#######################################################################

data_WOPROK
_chemical_formula_moiety         '(C32 H29 Cu1 La2 N4 O14)n,9n(H2 O1)'
_chemical_name_systematic        
"catena-(bis(\m~4~-6,6'-Dimethyl-5,5'-dicarboxylato-2,2'-bipyridine)-(\m~3~-hydroxo)-bis(\m~2~-acetato)-aqua-copper-di-lanthanum nonahydrate)"
_symmetry_cell_setting           triclinic
_symmetry_space_group_name_H-M   'P -1'
_symmetry_Int_Tables_number      2
_space_group_name_Hall           '-P 1'
loop_
_symmetry_equiv_pos_site_id
_symmetry_equiv_pos_as_xyz
1 x,y,z
2 -x,-y,-z
_cell_length_a                   12.643(5)
_cell_length_b                   13.944(4)
_cell_length_c                   15.443(5)
_cell_angle_alpha                59.647(7)
_cell_angle_beta                 83.262(10)
_cell_angle_gamma                86.876(9)
_cell_volume                     2333.07
_exptl_crystal_colour            red
_exptl_crystal_description       platelet
_cell_formula_units_Z            2
_exptl_crystal_recrystallization_method 'Water/methanol/ethyl acetate'
loop_
_atom_site_label
_atom_site_type_symbol
_atom_site_fract_x
_atom_site_fract_y
_atom_site_fract_z
La1 La 0.068313(19) 0.093284(19) 0.251080(18)
La2 La 0.067659(18) -0.153659(18) 0.533374(17)
Cu1 Cu 0.45225(4) 0.58724(5) 0.22545(4)
O1 O 0.1910(4) 0.9558(4) 0.2115(3)
O2 O 0.1882(3) 0.9185(3) 0.3680(3)
O3 O 0.8599(3) 0.3220(3) 0.4863(3)
O4 O 0.8358(3) 0.3295(3) 0.3445(3)
O5 O 0.8056(3) 0.7833(4) -0.0885(3)
O6 O 0.7312(3) 0.8499(3) -0.2301(3)
O7 O 0.0800(3) 0.3014(3) 0.3789(3)
O8 O 0.0588(3) 0.2716(3) 0.2541(3)
O9 O 0.0821(3) 0.0570(3) 0.4254(3)
O10 O -0.0334(3) -0.1034(3) 0.3889(3)
O11 O -0.0565(4) -0.0327(4) 0.2296(3)
O12 O 0.2513(3) -0.1007(4) 0.5658(4)
O13 O 0.1146(3) -0.1189(3) 0.6747(3)
O14 O -0.0375(3) 0.2271(4) 0.1032(3)
N1 N 0.4105(4) 0.6822(4) 0.2910(4)
N2 N 0.5647(3) 0.5332(3) 0.3249(3)
N3 N 0.5014(4) 0.6525(4) 0.0748(3)
N4 N 0.3466(3) 0.5078(3) 0.1926(3)
C1 C 0.3277(4) 0.7521(5) 0.2718(5)
C2 C 0.3112(4) 0.8176(4) 0.3171(4)
C3 C 0.3795(5) 0.8046(5) 0.3857(5)
C4 C 0.4643(5) 0.7327(5) 0.4052(5)
C5 C 0.4787(4) 0.6730(4) 0.3550(4)
C6 C 0.5677(4) 0.5945(4) 0.3701(4)
C7 C 0.6501(4) 0.5839(5) 0.4268(4)
C8 C 0.7293(4) 0.5071(4) 0.4378(4)
C9 C 0.7267(4) 0.4441(4) 0.3915(4)
C10 C 0.6418(4) 0.4580(4) 0.3354(4)
C11 C 0.2530(7) 0.7484(9) 0.2062(9)
C12 C 0.2244(4) 0.9016(4) 0.2966(4)
C13 C 0.6266(5) 0.3925(6) 0.2856(6)
C14 C 0.8134(4) 0.3605(4) 0.4083(4)
C15 C 0.5918(4) 0.7111(4) 0.0237(4)
C16 C 0.6226(4) 0.7378(4) -0.0768(4)
C17 C 0.5534(4) 0.7105(5) -0.1254(4)
C18 C 0.4608(4) 0.6526(5) -0.0739(4)
C19 C 0.4380(4) 0.6226(4) 0.0281(4)
C20 C 0.3456(4) 0.5517(4) 0.0917(4)
C21 C 0.2639(4) 0.5276(4) 0.0527(4)
C22 C 0.1853(4) 0.4533(4) 0.1190(4)
C23 C 0.1879(4) 0.4040(4) 0.2230(4)
C24 C 0.2708(4) 0.4346(4) 0.2580(4)
C25 C 0.6534(5) 0.7434(6) 0.0830(5)
C26 C 0.7259(4) 0.7946(4) -0.1349(4)
C27 C 0.2827(5) 0.3882(6) 0.3666(4)
C28 C 0.1035(4) 0.3202(4) 0.2909(4)
C29 C -0.1512(9) -0.2001(8) 0.3500(7)
C30 C -0.0756(5) -0.1079(5) 0.3203(4)
C31 C 0.2140(4) -0.1050(5) 0.6465(4)
C32 C 0.2853(6) -0.0985(9) 0.7145(7)
H1 H 0.3680 0.8456 0.4198
H2 H 0.5119 0.7241 0.4519
H3 H 0.6519 0.6283 0.4572
H4 H 0.7856 0.4975 0.4771
H5 H 0.2763 0.8016 0.1354
H6 H 0.1812 0.7678 0.2239
H7 H 0.2520 0.6734 0.2158
H8 H 0.5851 0.3253 0.3331
H9 H 0.6962 0.3716 0.2651
H10 H 0.5885 0.4376 0.2261
H11 H 0.5705 0.7321 -0.1945
H12 H 0.4135 0.6334 -0.1062
H13 H 0.2622 0.5614 -0.0182
H14 H 0.1291 0.4357 0.0936
H15 H 0.6288 0.8158 0.0731
H16 H 0.7294 0.7480 0.0596
H17 H 0.6421 0.6873 0.1548
H18 H 0.3255 0.3204 0.3910
H19 H 0.2122 0.3705 0.4052
H20 H 0.3182 0.4430 0.3754
H21 H -0.1119 -0.2635 0.3518
H22 H -0.2035 -0.1749 0.3009
H23 H -0.1880 -0.2225 0.4170
H24 H 0.3074 -0.1735 0.7633
H25 H 0.2467 -0.0641 0.7507
H26 H 0.3484 -0.0536 0.6741
La1_2 La 0.068313(19) 1.093284(19) 0.251080(18)
La1A La -0.068313(19) -0.093284(19) 0.748920(18)
La1A_2 La 0.931687(19) 0.906716(19) -0.251080(18)
La2_2 La 0.067659(18) 0.846341(18) 0.533374(17)
La2A La -0.067659(18) 0.153659(18) 0.466626(17)
La2A_2 La 0.932341(18) 0.153659(18) 0.466626(17)
O1_2 O 0.1910(4) -0.0442(4) 0.2115(3)
O2_2 O 0.1882(3) -0.0815(3) 0.3680(3)
O3A O 0.1401(3) -0.3220(3) 0.5137(3)
O4A O 0.1642(3) -0.3295(3) 0.6555(3)
O5A O 0.1944(3) 0.2167(4) 0.0885(3)
O6A O 0.2688(3) 0.1501(3) 0.2301(3)
O7A O -0.0800(3) -0.3014(3) 0.6211(3)
O9A O -0.0821(3) -0.0570(3) 0.5746(3)
O13A O -0.1146(3) 0.1189(3) 0.3253(3)
O15 O -0.0469(16) -0.0941(10) 0.0878(7)
O16 O 0.3506(14) 0.0860(13) 0.4050(7)
O17 O 0.0234(10) 0.6924(10) 0.1599(8)
O18 O 0.8113(7) 0.1947(8) 0.0175(7)
O19 O 0.9111(4) 0.6173(5) 0.0640(4)
O20 O 0.8605(4) 0.3982(4) 0.1428(3)
O21 O 0.7958(14) -0.0036(11) -0.0026(11)
O22 O 0.0488(12) 0.5228(13) 0.3664(11)
O24 O 0.5009(19) 0.145(2) 0.4733(18)
O23? O 0.0315(13) 0.4420(14) 0.4916(13)
loop_
_geom_bond_atom_site_label_1
_geom_bond_atom_site_label_2
_geom_bond_site_symmetry_1
_geom_bond_site_symmetry_2
La1 O8 1_555 1_555
La2 O9 1_555 1_555
Cu1 N1 1_555 1_555
O1 C12 1_555 1_555
O2 C12 1_555 1_555
O3 C14 1_555 1_555
O4 C14 1_555 1_555
O5 C26 1_555 1_555
O6 C26 1_555 1_555
O7 C28 1_555 1_555
O8 C28 1_555 1_555
O9 La1 1_555 1_555
O10 La1 1_555 1_555
O11 La1 1_555 1_555
O12 La2 1_555 1_555
O13 La2 1_555 1_555
O14 La1 1_555 1_555
N1 C1 1_555 1_555
N2 Cu1 1_555 1_555
N3 Cu1 1_555 1_555
N4 Cu1 1_555 1_555
C1 C2 1_555 1_555
C2 C3 1_555 1_555
C3 C4 1_555 1_555
C4 C5 1_555 1_555
C5 N1 1_555 1_555
C6 N2 1_555 1_555
C7 C6 1_555 1_555
C8 C7 1_555 1_555
C9 C8 1_555 1_555
C10 N2 1_555 1_555
C11 C1 1_555 1_555
C12 C2 1_555 1_555
C13 C10 1_555 1_555
C14 C9 1_555 1_555
C15 N3 1_555 1_555
C16 C15 1_555 1_555
C17 C16 1_555 1_555
C18 C17 1_555 1_555
C19 N3 1_555 1_555
C20 N4 1_555 1_555
C21 C20 1_555 1_555
C22 C21 1_555 1_555
C23 C22 1_555 1_555
C24 N4 1_555 1_555
C25 C15 1_555 1_555
C26 C16 1_555 1_555
C27 C24 1_555 1_555
C28 C23 1_555 1_555
C29 C30 1_555 1_555
C30 O10 1_555 1_555
C31 O12 1_555 1_555
C32 C31 1_555 1_555
H1 C3 1_555 1_555
H2 C4 1_555 1_555
H3 C7 1_555 1_555
H4 C8 1_555 1_555
H5 C11 1_555 1_555
H6 C11 1_555 1_555
H7 C11 1_555 1_555
H8 C13 1_555 1_555
H9 C13 1_555 1_555
H10 C13 1_555 1_555
H11 C17 1_555 1_555
H12 C18 1_555 1_555
H13 C21 1_555 1_555
H14 C22 1_555 1_555
H15 C25 1_555 1_555
H16 C25 1_555 1_555
H17 C25 1_555 1_555
H18 C27 1_555 1_555
H19 C27 1_555 1_555
H20 C27 1_555 1_555
H21 C29 1_555 1_555
H22 C29 1_555 1_555
H23 C29 1_555 1_555
H24 C32 1_555 1_555
H25 C32 1_555 1_555
H26 C32 1_555 1_555
La1_2 O1 1_555 1_555
La1A O13 1_555 1_555
La1A_2 O5 1_555 1_555
La2_2 O2 1_555 1_555
La2A O7 1_555 1_555
La2A_2 O3 1_555 1_555
O1_2 La1 1_555 1_555
O2_2 La1 1_555 1_555
O3A La2 1_555 1_555
O4A La2 1_555 1_555
O5A La1 1_555 1_555
O6A La1 1_555 1_555
O7A La2 1_555 1_555
O9A La2 1_555 1_555
O13A La1 1_555 1_555
La2 O10 1_555 1_555
La2 O2_2 1_555 1_555
O2 La1_2 1_555 1_555
O4 La2A_2 1_555 1_555
O6 La1A_2 1_555 1_555
O9 La2A 1_555 1_555
O11 C30 1_555 1_555
O13 C31 1_555 1_555
C5 C6 1_555 1_555
C9 C10 1_555 1_555
C18 C19 1_555 1_555
C19 C20 1_555 1_555
C23 C24 1_555 1_555
La1A O9A 1_555 1_555
La2A O9A 1_555 1_555
La2A O13A 1_555 1_555

#END
