
#######################################################################
#
#                 Cambridge Crystallographic Data Centre
#                                CCDC 
#
#######################################################################
#
# If this CIF has been generated from an entry in the Cambridge 
# Structural Database, then it will include bibliographic, chemical, 
# crystal, experimental, refinement or atomic coordinate data resulting 
# from the CCDC's data processing and validation procedures.
#
#######################################################################

data_ZOJWAY
_chemical_name_common            UTSA-80
_chemical_formula_moiety         '(C32 H18 Cu2 O10)n,4(C3 H7 N1 O1),3(H2 O1)'
_chemical_name_systematic        
'catena-[(\m-5-([10-(3,5-dicarboxylatophenyl)anthracen-9-yl]ethynyl)benzene-1,3-dicarboxylato)-diaqua-di-copper N,N-dimethylformamide solvate trihydrate]'
_symmetry_cell_setting           rhombohedral
_symmetry_space_group_name_H-M   'R -3 m'
_symmetry_Int_Tables_number      166
_space_group_name_Hall           '-R 3 2"'
loop_
_symmetry_equiv_pos_site_id
_symmetry_equiv_pos_as_xyz
1 x,y,z
2 -y,x-y,z
3 -x+y,-x,z
4 x-y,-y,-z
5 -x,-x+y,-z
6 y,x,-z
7 2/3+x,1/3+y,1/3+z
8 2/3-y,1/3+x-y,1/3+z
9 2/3-x+y,1/3-x,1/3+z
10 2/3+x-y,1/3-y,1/3-z
11 2/3-x,1/3-x+y,1/3-z
12 2/3+y,1/3+x,1/3-z
13 1/3+x,2/3+y,2/3+z
14 1/3-y,2/3+x-y,2/3+z
15 1/3-x+y,2/3-x,2/3+z
16 1/3+x-y,2/3-y,2/3-z
17 1/3-x,2/3-x+y,2/3-z
18 1/3+y,2/3+x,2/3-z
19 -x,-y,-z
20 y,-x+y,-z
21 x-y,x,-z
22 -x+y,y,z
23 x,x-y,z
24 -y,-x,z
25 1/3-x,2/3-y,2/3-z
26 1/3+y,2/3-x+y,2/3-z
27 1/3+x-y,2/3+x,2/3-z
28 1/3-x+y,2/3+y,2/3+z
29 1/3+x,2/3+x-y,2/3+z
30 1/3-y,2/3-x,2/3+z
31 2/3-x,1/3-y,1/3-z
32 2/3+y,1/3-x+y,1/3-z
33 2/3+x-y,1/3+x,1/3-z
34 2/3-x+y,1/3+y,1/3+z
35 2/3+x,1/3+x-y,1/3+z
36 2/3-y,1/3-x,1/3+z
_cell_length_a                   18.4951(7)
_cell_length_b                   18.4951(7)
_cell_length_c                   46.337(3)
_cell_angle_alpha                90
_cell_angle_beta                 90
_cell_angle_gamma                120
_cell_volume                     13726.9
_exptl_crystal_colour            green
_exptl_crystal_description       block
_cell_formula_units_Z            6
loop_
_atom_site_label
_atom_site_type_symbol
_atom_site_fract_x
_atom_site_fract_y
_atom_site_fract_z
_atom_site_U_iso_or_equiv
_atom_site_thermal_displace_type
Cu1 Cu 0.71464(5) 0.85732(2) 0.35700(2) 0.1018 Uani
O1 O 0.6356(14) 0.7429(15) 0.3674(4) 0.1410 Uani
O2 O 0.5573(11) 0.7049(12) 0.3278(4) 0.1284 Uani
O3 O 0.3650(8) 0.2514(10) 0.6278(4) 0.1123 Uani
O4 O 0.4461(7) 0.2932(8) 0.6682(3) 0.1166 Uani
O5 O 0.7806(5) 0.8903(2) 0.39711(14) 0.1801 Uani
H1 H 0.8124 0.9431 0.3962 0.2700 Uiso
C1 C 0.5708(11) 0.6907(10) 0.3533(4) 0.1409 Uani
C2 C 0.4451(14) 0.5549(14) 0.3573(7) 0.1421 Uani
H2 H 0.4446 0.5554 0.3373 0.1700 Uiso
C3 C 0.5155(10) 0.6168(10) 0.3713(4) 0.1512 Uani
C4 C 0.5288(10) 0.6054(9) 0.4000(4) 0.1726 Uani
H3 H 0.5725 0.6476 0.4105 0.2070 Uiso
C5 C 0.4821(6) 0.5179(6) 0.4440(3) 0.1990 Uani
C6 C 0.5238(5) 0.4762(5) 0.4530(3) 0.1930 Uani
C7 C 0.5332(5) 0.4668(5) 0.4821(4) 0.1990 Uani
C8 C 0.5010(7) 0.4990(7) 0.5024(3) 0.1996 Uani
C9 C 0.4594(5) 0.5406(5) 0.4935(3) 0.2023 Uani
C10 C 0.4505(5) 0.5495(5) 0.4643(4) 0.2040 Uani
C11 C 0.4689(7) 0.5311(7) 0.4130(4) 0.1849 Uani
C12 C 0.4097(6) 0.5903(6) 0.4549(4) 0.2081 Uani
H4 H 0.4019 0.5981 0.4355 0.2490 Uiso
C13 C 0.3774(6) 0.6226(6) 0.4746(5) 0.2257 Uani
H5 H 0.3499 0.6501 0.4692 0.2700 Uiso
C14 C 0.3865(6) 0.6135(6) 0.5037(5) 0.2151 Uani
H6 H 0.3659 0.6341 0.5178 0.2580 Uiso
C15 C 0.4270(7) 0.5730(7) 0.5134(4) 0.2116 Uani
H7 H 0.4340 0.5660 0.5328 0.2540 Uiso
C16 C 0.5555(6) 0.4445(6) 0.4326(4) 0.2034 Uani
H8 H 0.5483 0.4517 0.4131 0.2440 Uiso
C17 C 0.5970(6) 0.4030(6) 0.4412(4) 0.2174 Uani
H9 H 0.6178 0.3822 0.4272 0.2620 Uiso
C18 C 0.6063(6) 0.3937(6) 0.4702(5) 0.2130 Uani
H10 H 0.6342 0.3658 0.4758 0.2560 Uiso
C19 C 0.5748(6) 0.4252(6) 0.4905(4) 0.2100 Uani
H11 H 0.5816 0.4184 0.5100 0.2520 Uiso
C20 C 0.5105(10) 0.4895(10) 0.5340(3) 0.1854 Uani
C21 C 0.5172(6) 0.4828(6) 0.5573(5) 0.1737 Uani
C22 C 0.5260(8) 0.4740(8) 0.5883(4) 0.1371 Uani
C23 C 0.4690(8) 0.4022(8) 0.6030(3) 0.1332 Uani
H12 H 0.4205 0.3638 0.5935 0.1590 Uiso
C24 C 0.4834(7) 0.3857(8) 0.6309(3) 0.1173 Uani
C25 C 0.5567(11) 0.4433(11) 0.6450(5) 0.1046 Uani
H13 H 0.5697 0.4303 0.6630 0.1260 Uiso
C26 C 0.4267(4) 0.3009(6) 0.64378(19) 0.0927 Uani
O1E O 0.7429(15) 0.6356(14) 0.6326(4) 0.1410 Uani
O2E O 0.7049(12) 0.5573(11) 0.6722(4) 0.1284 Uani
O3E O 0.2514(10) 0.3650(8) 0.3722(4) 0.1123 Uani
O4E O 0.2932(8) 0.4461(7) 0.3318(3) 0.1166 Uani
C1E C 0.6907(10) 0.5708(11) 0.6467(4) 0.1409 Uani
C2E C 0.5549(14) 0.4451(14) 0.6427(7) 0.1421 Uani
H2E H 0.5554 0.4446 0.6627 0.1700 Uiso
C3E C 0.6168(10) 0.5155(10) 0.6287(4) 0.1512 Uani
C4E C 0.6054(9) 0.5288(10) 0.6000(4) 0.1726 Uani
H3E H 0.6476 0.5725 0.5895 0.2070 Uiso
C5E C 0.5179(6) 0.4821(6) 0.5560(3) 0.1990 Uani
C6E C 0.4762(5) 0.5238(5) 0.5470(3) 0.1930 Uani
C7E C 0.4668(5) 0.5332(5) 0.5179(4) 0.1990 Uani
C8E C 0.4990(7) 0.5010(7) 0.4976(3) 0.1996 Uani
C9E C 0.5406(5) 0.4594(5) 0.5065(3) 0.2023 Uani
C10E C 0.5495(5) 0.4505(5) 0.5357(4) 0.2040 Uani
C11E C 0.5311(7) 0.4689(7) 0.5870(4) 0.1849 Uani
C12E C 0.5903(6) 0.4097(6) 0.5451(4) 0.2081 Uani
H4E H 0.5981 0.4019 0.5645 0.2490 Uiso
C13E C 0.6226(6) 0.3774(6) 0.5254(5) 0.2257 Uani
H5E H 0.6501 0.3499 0.5308 0.2700 Uiso
C14E C 0.6135(6) 0.3865(6) 0.4963(5) 0.2151 Uani
H6E H 0.6341 0.3659 0.4822 0.2580 Uiso
C15E C 0.5730(7) 0.4270(7) 0.4866(4) 0.2116 Uani
H7E H 0.5660 0.4340 0.4672 0.2540 Uiso
C16E C 0.4445(6) 0.5555(6) 0.5674(4) 0.2034 Uani
H8E H 0.4517 0.5483 0.5869 0.2440 Uiso
C17E C 0.4030(6) 0.5970(6) 0.5588(4) 0.2174 Uani
H9E H 0.3822 0.6178 0.5728 0.2620 Uiso
C18E C 0.3937(6) 0.6063(6) 0.5298(5) 0.2130 Uani
H10E H 0.3658 0.6342 0.5242 0.2560 Uiso
C19E C 0.4252(6) 0.5748(6) 0.5095(4) 0.2100 Uani
H11E H 0.4184 0.5816 0.4900 0.2520 Uiso
C20E C 0.4895(10) 0.5105(10) 0.4660(3) 0.1854 Uani
C21E C 0.4828(6) 0.5172(6) 0.4427(5) 0.1737 Uani
C22E C 0.4740(8) 0.5260(8) 0.4117(4) 0.1371 Uani
C23E C 0.4022(8) 0.4690(8) 0.3970(3) 0.1332 Uani
H12E H 0.3638 0.4205 0.4065 0.1590 Uiso
C24E C 0.3857(8) 0.4834(7) 0.3691(3) 0.1173 Uani
C25E C 0.4433(11) 0.5567(11) 0.3550(5) 0.1046 Uani
H13E H 0.4303 0.5697 0.3370 0.1260 Uiso
C26E C 0.3009(6) 0.4267(4) 0.35622(19) 0.0927 Uani
O1R O 0.3644(14) 0.2571(15) 0.6326(4) 0.1410 Uani
O2R O 0.4427(11) 0.2951(12) 0.6722(4) 0.1284 Uani
O3R O 0.6350(8) 0.7486(10) 0.3722(4) 0.1123 Uani
O4R O 0.5539(7) 0.7068(8) 0.3318(3) 0.1166 Uani
C1R C 0.4292(11) 0.3093(10) 0.6467(4) 0.1409 Uani
C3R C 0.4845(10) 0.3832(10) 0.6287(4) 0.1512 Uani
C4R C 0.4712(10) 0.3946(9) 0.6000(4) 0.1726 Uani
H3R H 0.4275 0.3524 0.5895 0.2070 Uiso
C23R C 0.5310(8) 0.5978(8) 0.3970(3) 0.1332 Uani
H12R H 0.5795 0.6362 0.4065 0.1590 Uiso
C24R C 0.5166(7) 0.6143(8) 0.3691(3) 0.1173 Uani
C26R C 0.5733(4) 0.6991(6) 0.35622(19) 0.0927 Uani
O1W O 0.2571(15) 0.3644(14) 0.3674(4) 0.1410 Uani
O2W O 0.2951(12) 0.4427(11) 0.3278(4) 0.1284 Uani
O3W O 0.7486(10) 0.6350(8) 0.6278(4) 0.1123 Uani
O4W O 0.7068(8) 0.5539(7) 0.6682(3) 0.1166 Uani
C1W C 0.3093(10) 0.4292(11) 0.3533(4) 0.1409 Uani
C3W C 0.3832(10) 0.4845(10) 0.3713(4) 0.1512 Uani
C4W C 0.3946(9) 0.4712(10) 0.4000(4) 0.1726 Uani
H3W H 0.3524 0.4275 0.4105 0.2070 Uiso
C23W C 0.5978(8) 0.5310(8) 0.6030(3) 0.1332 Uani
H12W H 0.6362 0.5795 0.5935 0.1590 Uiso
C24W C 0.6143(8) 0.5166(7) 0.6309(3) 0.1173 Uani
C26W C 0.6991(6) 0.5733(4) 0.64378(19) 0.0927 Uani
H1V H 0.8124 0.8693 0.3962 0.2700 Uiso
Cu1P Cu 0.61869(5) 0.80935(5) 0.30967(2) 0.1018 Uani
O5P O 0.5527(5) 0.7764(5) 0.26956(14) 0.1801 Uani
H1P H 0.5209 0.7974 0.2705 0.2700 Uiso
H1X H 0.5209 0.7236 0.2705 0.2700 Uiso
Cu1B Cu 0.14268(5) 0.28536(5) 0.35700(2) 0.1018 Uani
Cu1D Cu 0.28536(5) 0.14268(5) 0.64300(2) 0.1018 Uani
Cu1E Cu 0.85732(2) 0.71464(5) 0.64300(2) 0.1018 Uani
Cu1F Cu 0.38131(5) 0.19065(2) 0.69033(2) 0.1018 Uani
Cu1H Cu 0.80935(5) 0.61869(5) 0.69033(2) 0.1018 Uani
Cu1Q Cu 0.19065(2) 0.38131(5) 0.30967(2) 0.1018 Uani
O1P O 0.6977(14) 0.7740(21) 0.2993(4) 0.1410 Uani
O1V O 0.6356(14) 0.8927(21) 0.3674(4) 0.1410 Uani
O1X O 0.6977(14) 0.9238(15) 0.2993(4) 0.1410 Uani
O2P O 0.7760(11) 0.8143(16) 0.3389(4) 0.1284 Uani
O2V O 0.5573(11) 0.8524(16) 0.3278(4) 0.1284 Uani
O2X O 0.7760(11) 0.9618(12) 0.3389(4) 0.1284 Uani
O3D O 0.6350(8) 0.8864(13) 0.3722(4) 0.1123 Uani
O3L O 0.6983(8) 0.9181(10) 0.2945(4) 0.1123 Uani
O3BA O 0.6983(8) 0.7803(13) 0.2945(4) 0.1123 Uani
O4D O 0.5539(7) 0.8471(11) 0.3318(3) 0.1166 Uani
O4L O 0.7794(7) 0.9599(8) 0.3349(3) 0.1166 Uani
O4BA O 0.7794(7) 0.8196(11) 0.3349(3) 0.1166 Uani
loop_
_atom_site_aniso_label
_atom_site_aniso_U_11
_atom_site_aniso_U_22
_atom_site_aniso_U_33
_atom_site_aniso_U_23
_atom_site_aniso_U_13
_atom_site_aniso_U_12
Cu1 0.0646(5) 0.1359(8) 0.0810(6) -0.00435(17) -0.0087(3) 0.0323(3)
O1 0.132(7) 0.181(8) 0.095(6) 0.013(6) -0.020(5) 0.067(6)
O2 0.126(6) 0.166(7) 0.100(6) -0.009(5) 0.000(5) 0.078(5)
O3 0.073(4) 0.118(5) 0.093(6) 0.008(4) -0.003(4) 0.008(4)
O4 0.070(4) 0.117(5) 0.083(5) 0.024(4) -0.019(4) -0.013(4)
O5 0.167(6) 0.226(6) 0.127(4) -0.037(2) -0.073(4) 0.083(3)
C1 0.132(7) 0.172(8) 0.116(8) 0.000(7) 0.001(7) 0.074(7)
C2 0.159(6) 0.159(6) 0.117(8) 0.007(5) -0.007(5) 0.086(8)
C3 0.150(8) 0.176(8) 0.115(8) 0.007(7) -0.006(7) 0.072(7)
C4 0.174(7) 0.191(7) 0.127(7) 0.012(6) -0.010(6) 0.072(6)
C5 0.202(5) 0.202(5) 0.145(6) 0.024(4) -0.024(4) 0.065(6)
C6 0.201(5) 0.201(5) 0.143(7) 0.026(4) -0.026(4) 0.075(6)
C7 0.205(5) 0.205(5) 0.145(7) 0.034(4) -0.034(4) 0.071(7)
C8 0.203(5) 0.203(5) 0.148(6) 0.027(4) -0.027(4) 0.068(6)
C9 0.207(5) 0.207(5) 0.147(7) 0.018(4) -0.018(4) 0.069(6)
C10 0.207(5) 0.207(5) 0.152(7) 0.022(4) -0.022(4) 0.069(7)
C11 0.192(5) 0.192(5) 0.136(7) 0.020(5) -0.020(5) 0.070(7)
C12 0.211(5) 0.211(5) 0.155(7) 0.018(5) -0.018(5) 0.070(7)
C13 0.220(6) 0.220(6) 0.173(9) 0.014(6) -0.014(6) 0.062(9)
C14 0.216(6) 0.216(6) 0.172(9) 0.020(6) -0.020(6) 0.077(9)
C15 0.216(5) 0.216(5) 0.156(7) 0.020(5) -0.020(5) 0.073(7)
C16 0.210(5) 0.210(5) 0.153(7) 0.030(5) -0.030(5) 0.077(7)
C17 0.218(6) 0.218(6) 0.167(9) 0.026(6) -0.026(6) 0.072(9)
C18 0.216(6) 0.216(6) 0.163(9) 0.021(6) -0.021(6) 0.075(9)
C19 0.215(5) 0.215(5) 0.158(7) 0.026(5) -0.026(5) 0.076(7)
C20 0.187(5) 0.187(5) 0.127(6) 0.029(4) -0.029(4) 0.052(7)
C21 0.170(5) 0.170(5) 0.117(6) 0.033(4) -0.033(4) 0.037(7)
C22 0.128(5) 0.128(5) 0.094(6) 0.034(4) -0.034(4) 0.018(6)
C23 0.097(5) 0.137(6) 0.097(5) 0.018(5) -0.029(4) 0.007(5)
C24 0.083(5) 0.120(6) 0.092(5) 0.020(5) -0.019(5) 0.008(5)
C25 0.090(4) 0.090(4) 0.087(6) 0.015(4) -0.015(4) 0.010(6)
C26 0.038(3) 0.112(5) 0.062(4) 0.002(4) -0.022(3) -0.012(4)
O1E 0.181 0.132 0.095 0.02 -0.013 0.067
O2E 0.166 0.126 0.1 0 0.009 0.078
O3E 0.118 0.073 0.093 0.003 -0.008 0.008
O4E 0.117 0.07 0.083 0.019 -0.024 -0.013
C1E 0.172 0.132 0.116 -0.001 0 0.074
C2E 0.159 0.159 0.117 0.007 -0.007 0.086
C3E 0.176 0.15 0.115 0.006 -0.007 0.072
C4E 0.191 0.174 0.127 0.01 -0.012 0.072
C5E 0.202 0.202 0.145 0.024 -0.024 0.065
C6E 0.201 0.201 0.143 0.026 -0.026 0.075
C7E 0.205 0.205 0.145 0.034 -0.034 0.071
C8E 0.203 0.203 0.148 0.027 -0.027 0.068
C9E 0.207 0.207 0.147 0.018 -0.018 0.069
C10E 0.207 0.207 0.152 0.022 -0.022 0.069
C11E 0.192 0.192 0.136 0.02 -0.02 0.07
C12E 0.211 0.211 0.155 0.018 -0.018 0.07
C13E 0.22 0.22 0.173 0.014 -0.014 0.062
C14E 0.216 0.216 0.172 0.02 -0.02 0.077
C15E 0.216 0.216 0.156 0.02 -0.02 0.073
C16E 0.21 0.21 0.153 0.03 -0.03 0.077
C17E 0.218 0.218 0.167 0.026 -0.026 0.072
C18E 0.216 0.216 0.163 0.021 -0.021 0.075
C19E 0.215 0.215 0.158 0.026 -0.026 0.076
C20E 0.187 0.187 0.127 0.029 -0.029 0.052
C21E 0.17 0.17 0.117 0.033 -0.033 0.037
C22E 0.128 0.128 0.094 0.034 -0.034 0.018
C23E 0.137 0.097 0.097 0.029 -0.018 0.007
C24E 0.12 0.083 0.092 0.019 -0.02 0.008
C25E 0.09 0.09 0.087 0.015 -0.015 0.01
C26E 0.112 0.038 0.062 0.022 -0.002 -0.012
O1R 0.132 0.181 0.095 0.013 -0.02 0.067
O2R 0.126 0.166 0.1 -0.009 0 0.078
O3R 0.073 0.118 0.093 0.008 -0.003 0.008
O4R 0.07 0.117 0.083 0.024 -0.019 -0.013
C1R 0.132 0.172 0.116 0 0.001 0.074
C3R 0.15 0.176 0.115 0.007 -0.006 0.072
C4R 0.174 0.191 0.127 0.012 -0.01 0.072
C23R 0.097 0.137 0.097 0.018 -0.029 0.007
C24R 0.083 0.12 0.092 0.02 -0.019 0.008
C26R 0.038 0.112 0.062 0.002 -0.022 -0.012
O1W 0.181 0.132 0.095 0.02 -0.013 0.067
O2W 0.166 0.126 0.1 0 0.009 0.078
O3W 0.118 0.073 0.093 0.003 -0.008 0.008
O4W 0.117 0.07 0.083 0.019 -0.024 -0.013
C1W 0.172 0.132 0.116 -0.001 0 0.074
C3W 0.176 0.15 0.115 0.006 -0.007 0.072
C4W 0.191 0.174 0.127 0.01 -0.012 0.072
C23W 0.137 0.097 0.097 0.029 -0.018 0.007
C24W 0.12 0.083 0.092 0.019 -0.02 0.008
C26W 0.112 0.038 0.062 0.022 -0.002 -0.012
Cu1P 0.0646 0.1359 0.081 -0.00435 -0.0087 0.0323
O5P 0.167 0.227 0.127 -0.036 -0.073 0.084
Cu1B 0.1359 0.0646 0.081 0.0087 0.00435 0.0323
Cu1D 0.0646 0.1359 0.081 -0.00435 -0.0087 0.0323
Cu1E 0.1359 0.0646 0.081 0.0087 0.00435 0.0323
Cu1F 0.0646 0.1359 0.081 -0.00435 -0.0087 0.0323
Cu1H 0.1359 0.0646 0.081 0.0087 0.00435 0.0323
Cu1Q 0.1359 0.0646 0.081 0.0087 0.00435 0.0323
O1P 0.132 0.179 0.095 -0.033 -0.02 0.065
O1V 0.132 0.179 0.095 -0.033 -0.02 0.065
O1X 0.132 0.181 0.095 0.013 -0.02 0.067
O2P 0.126 0.136 0.1 0.009 0 0.048
O2V 0.126 0.136 0.1 0.009 0 0.048
O2X 0.126 0.166 0.1 -0.009 0 0.078
O3D 0.073 0.175 0.093 -0.011 -0.003 0.065
O3L 0.073 0.118 0.093 0.008 -0.003 0.008
O3BA 0.073 0.175 0.093 -0.011 -0.003 0.065
O4D 0.07 0.213 0.083 -0.043 -0.019 0.083
O4L 0.07 0.117 0.083 0.024 -0.019 -0.013
O4BA 0.07 0.213 0.083 -0.043 -0.019 0.083
loop_
_geom_bond_atom_site_label_1
_geom_bond_atom_site_label_2
_geom_bond_site_symmetry_1
_geom_bond_site_symmetry_2
Cu1 O1 1_555 1_555
O1 C1 1_555 1_555
O2 C1 1_555 1_555
O3 C26 1_555 1_555
O4 C26 1_555 1_555
O5 Cu1 1_555 1_555
H1 O5 1_555 1_555
C1 C3 1_555 1_555
C2 H2 1_555 1_555
H2 C25E 1_555 1_555
C3 C2 1_555 1_555
C4 C3 1_555 1_555
H3 C4 1_555 1_555
C5 C6 1_555 1_555
C6 C7 1_555 1_555
C7 C8 1_555 1_555
C8 C9 1_555 1_555
C9 C10 1_555 1_555
C10 C5 1_555 1_555
C11 C4 1_555 1_555
C12 C10 1_555 1_555
H4 C12 1_555 1_555
C13 C12 1_555 1_555
H5 C13 1_555 1_555
C14 C13 1_555 1_555
H6 C14 1_555 1_555
C15 C9 1_555 1_555
H7 C15 1_555 1_555
C16 C6 1_555 1_555
H8 C16 1_555 1_555
C17 C16 1_555 1_555
H9 C17 1_555 1_555
C18 C17 1_555 1_555
H10 C18 1_555 1_555
C19 C7 1_555 1_555
H11 C19 1_555 1_555
C20 C8 1_555 1_555
C21 C20 1_555 1_555
C22 C21 1_555 1_555
C23 C22 1_555 1_555
H12 C23 1_555 1_555
C24 C23 1_555 1_555
C25 C24 1_555 1_555
H13 C25 1_555 1_555
C26 C24 1_555 1_555
O1E C1E 1_555 1_555
O2E C1E 1_555 1_555
O3E C26E 1_555 1_555
O4E C26E 1_555 1_555
C1E C3E 1_555 1_555
C2E C24 1_555 1_555
H2E C25 1_555 1_555
C3E C25 1_555 1_555
C4E C22 1_555 1_555
H3E C4E 1_555 1_555
C5E C20 1_555 1_555
C6E C20 1_555 1_555
C7E C8 1_555 1_555
C8E C7 1_555 1_555
C9E C7 1_555 1_555
C10E C20 1_555 1_555
C11E C21 1_555 1_555
C12E C10E 1_555 1_555
H4E C12E 1_555 1_555
C13E C12E 1_555 1_555
H5E C13E 1_555 1_555
C14E C18 1_555 1_555
H6E C18 1_555 1_555
C15E C7 1_555 1_555
H7E C7 1_555 1_555
C16E C6E 1_555 1_555
H8E C16E 1_555 1_555
C17E C16E 1_555 1_555
H9E C17E 1_555 1_555
C18E C14 1_555 1_555
H10E C14 1_555 1_555
C19E C9 1_555 1_555
H11E C9 1_555 1_555
C20E C5 1_555 1_555
C21E C6 1_555 1_555
C22E C4 1_555 1_555
C23E C11 1_555 1_555
H12E C23E 1_555 1_555
C24E C2 1_555 1_555
C25E C3 1_555 1_555
H13E C2 1_555 1_555
C26E C24E 1_555 1_555
O1R C26 1_555 1_555
O2R C26 1_555 1_555
O3R Cu1 1_555 1_555
O4R C1 1_555 1_555
C1R O3 1_555 1_555
C3R C23 1_555 1_555
C4R C22 1_555 1_555
H3R C23 1_555 1_555
C23R C3 1_555 1_555
H12R C4 1_555 1_555
C24R C1 1_555 1_555
C26R O1 1_555 1_555
O1W C26E 1_555 1_555
O2W C26E 1_555 1_555
O3W C1E 1_555 1_555
O4W C1E 1_555 1_555
C1W O3E 1_555 1_555
C3W C2 1_555 1_555
C4W C11 1_555 1_555
H3W C23E 1_555 1_555
C23W C22 1_555 1_555
H12W C4E 1_555 1_555
C24W C25 1_555 1_555
C26W O1E 1_555 1_555
H1V O5 1_555 1_555
Cu1P O2 1_555 1_555
O5P Cu1P 1_555 1_555
H1P O5P 1_555 1_555
H1X O5P 1_555 1_555
Cu1B O3E 1_555 1_555
Cu1D O3 1_555 1_555
Cu1E O1E 1_555 1_555
Cu1F O4 1_555 1_555
Cu1H O2E 1_555 1_555
Cu1Q O4E 1_555 1_555
O1P Cu1P 1_555 1_555
O1V Cu1 1_555 1_555
O1X Cu1P 1_555 1_555
O2P Cu1 1_555 1_555
O2V Cu1P 1_555 1_555
O2X Cu1 1_555 1_555
O3D Cu1 1_555 1_555
O3L Cu1P 1_555 1_555
O3BA Cu1P 1_555 1_555
O4D Cu1P 1_555 1_555
O4L Cu1 1_555 1_555
O4BA Cu1 1_555 1_555
O2 C26R 1_555 1_555
O4 C1R 1_555 1_555
C1 O3R 1_555 1_555
C2 C24R 1_555 1_555
C3 C26R 1_555 1_555
C4 C24R 1_555 1_555
H3 C23R 1_555 1_555
C5 C11 1_555 1_555
C5 C22E 1_555 1_555
C6 C20E 1_555 1_555
C7 C20E 1_555 1_555
C8 C9E 1_555 1_555
C8 C20E 1_555 1_555
C9 C7E 1_555 1_555
C9 C8E 1_555 1_555
C9 C20E 1_555 1_555
C10 C20E 1_555 1_555
C10 C21E 1_555 1_555
C11 C21E 1_555 1_555
C11 C23R 1_555 1_555
C14 C15 1_555 1_555
C14 C19E 1_555 1_555
C14 H11E 1_555 1_555
H6 C18E 1_555 1_555
C15 C7E 1_555 1_555
C15 C18E 1_555 1_555
C15 H11E 1_555 1_555
H7 C7E 1_555 1_555
H7 C18E 1_555 1_555
H7 C19E 1_555 1_555
C18 C19 1_555 1_555
C18 C15E 1_555 1_555
C18 H7E 1_555 1_555
H10 C14E 1_555 1_555
C19 C9E 1_555 1_555
C19 C14E 1_555 1_555
C19 H7E 1_555 1_555
H11 C9E 1_555 1_555
H11 C14E 1_555 1_555
H11 C15E 1_555 1_555
C20 C7E 1_555 1_555
C20 C8E 1_555 1_555
C20 C9E 1_555 1_555
C21 C6E 1_555 1_555
C21 C10E 1_555 1_555
C22 C5E 1_555 1_555
C23 C11E 1_555 1_555
H12 C4R 1_555 1_555
C24 C1R 1_555 1_555
C24 C4R 1_555 1_555
C25 C3R 1_555 1_555
H13 C2E 1_555 1_555
C26 C3R 1_555 1_555
O2E C26W 1_555 1_555
O4E C1W 1_555 1_555
C1E C24W 1_555 1_555
C2E H2E 1_555 1_555
C2E C3E 1_555 1_555
C2E C3R 1_555 1_555
C2E C24W 1_555 1_555
C3E C4E 1_555 1_555
C3E C23W 1_555 1_555
C3E C26W 1_555 1_555
C4E C11E 1_555 1_555
C4E C24W 1_555 1_555
H3E C23W 1_555 1_555
C5E C6E 1_555 1_555
C5E C10E 1_555 1_555
C5E C11E 1_555 1_555
C6E C7E 1_555 1_555
C7E C8E 1_555 1_555
C7E C19E 1_555 1_555
C8E C9E 1_555 1_555
C8E C20E 1_555 1_555
C9E C10E 1_555 1_555
C9E C15E 1_555 1_555
C11E C4R 1_555 1_555
C11E C23W 1_555 1_555
C13E C14E 1_555 1_555
C14E H6E 1_555 1_555
C14E C15E 1_555 1_555
C15E H7E 1_555 1_555
C17E C18E 1_555 1_555
C18E H10E 1_555 1_555
C18E C19E 1_555 1_555
C19E H11E 1_555 1_555
C20E C21E 1_555 1_555
C21E C22E 1_555 1_555
C22E C23E 1_555 1_555
C22E C23R 1_555 1_555
C22E C4W 1_555 1_555
C23E C24E 1_555 1_555
C23E C3W 1_555 1_555
H12E C4W 1_555 1_555
C24E C25E 1_555 1_555
C24E C1W 1_555 1_555
C24E C4W 1_555 1_555
C25E H13E 1_555 1_555
C25E C24R 1_555 1_555
C25E C3W 1_555 1_555
C26E C3W 1_555 1_555
O1R C1R 1_555 1_555
O1R Cu1D 1_555 1_555
O2R C1R 1_555 1_555
O2R Cu1F 1_555 1_555
O3R C26R 1_555 1_555
O4R C26R 1_555 1_555
O4R Cu1P 1_555 1_555
C1R C3R 1_555 1_555
C3R C4R 1_555 1_555
C4R H3R 1_555 1_555
C23R H12R 1_555 1_555
C23R C24R 1_555 1_555
C24R C26R 1_555 1_555
O1W C1W 1_555 1_555
O1W Cu1B 1_555 1_555
O2W C1W 1_555 1_555
O2W Cu1Q 1_555 1_555
O3W C26W 1_555 1_555
O3W Cu1E 1_555 1_555
O4W C26W 1_555 1_555
O4W Cu1H 1_555 1_555
C1W C3W 1_555 1_555
C3W C4W 1_555 1_555
C4W H3W 1_555 1_555
C23W H12W 1_555 1_555
C23W C24W 1_555 1_555
C24W C26W 1_555 1_555

#END
