
#######################################################################
#
#                 Cambridge Crystallographic Data Centre
#                                CCDC 
#
#######################################################################
#
# If this CIF has been generated from an entry in the Cambridge 
# Structural Database, then it will include bibliographic, chemical, 
# crystal, experimental, refinement or atomic coordinate data resulting 
# from the CCDC's data processing and validation procedures.
#
#######################################################################

data_WONJUG
_chemical_name_common            gea-MOF-1
_chemical_formula_moiety         '(C2 H8 N1 1+)2n,n(C162 H101 O47 Y9 2-)'
_chemical_name_systematic        
'catena-[bis(Dimethylammonium) hexakis(\m~6~-1,3,5-tris(4-carboxylatophenyl)benzene)-octakis(\m~3~-hydroxo)-tris(\m~2~-hydroxo)-nona-yttrium(iii) unknown solvate]'
_symmetry_cell_setting           hexagonal
_symmetry_space_group_name_H-M   'P 63/m m c'
_symmetry_Int_Tables_number      194
_space_group_name_Hall           '-P 6c 2c'
loop_
_symmetry_equiv_pos_site_id
_symmetry_equiv_pos_as_xyz
1 x,y,z
2 -y,x-y,z
3 -x+y,-x,z
4 -x,-y,1/2+z
5 y,-x+y,1/2+z
6 x-y,x,1/2+z
7 y,x,-z
8 x-y,-y,-z
9 -x,-x+y,-z
10 -y,-x,1/2-z
11 -x+y,y,1/2-z
12 x,x-y,1/2-z
13 -x,-y,-z
14 y,-x+y,-z
15 x-y,x,-z
16 x,y,1/2-z
17 -y,x-y,1/2-z
18 -x+y,-x,1/2-z
19 -y,-x,z
20 -x+y,y,z
21 x,x-y,z
22 y,x,1/2+z
23 x-y,-y,1/2+z
24 -x,-x+y,1/2+z
_cell_length_a                   22.2055(11)
_cell_length_b                   22.2055(11)
_cell_length_c                   33.1729(17)
_cell_angle_alpha                90
_cell_angle_beta                 90
_cell_angle_gamma                120
_cell_volume                     14165.6
_exptl_crystal_colour            colorless
_exptl_crystal_description       'hexagonal rod'
_cell_formula_units_Z            2
loop_
_atom_site_label
_atom_site_type_symbol
_atom_site_fract_x
_atom_site_fract_y
_atom_site_fract_z
Y1 Y 0.609190(19) 0.390810(19) 0.315395(18)
O1 O 0.59994(17) 0.40006(17) 0.2500
O2 O 0.72255(11) 0.4451(2) 0.29076(12)
O3 O 0.4531(2) 0.7762(2) 0.63026(10)
C1 C 0.4821(4) 0.7411(2) 0.5699(3)
C2 C 0.4577(6) 0.7288(3) 0.6126(4)
C3 C 0.5758(9) 0.5782(9) 0.3580(5)
H1 H 0.5445 0.5303 0.3630
C4 C 0.6334(8) 0.6004(7) 0.3334(5)
C5 C 0.6191(11) 0.8095(5) 0.3709(5)
H2 H 0.6428 0.8214 0.3458
C6 C 0.6004(8) 0.7483(6) 0.3908(3)
C7 C 0.6153(8) 0.6991(7) 0.3694(4)
C8 C 0.5532(7) 0.7766(4) 0.4486(5)
C9 C 0.5293(7) 0.7646(3) 0.4910(5)
C10 C 0.5726(8) 0.7333(7) 0.4296(3)
H3 H 0.5670 0.6931 0.4432
C11 C 0.6791(9) 0.6691(7) 0.3245(4)
H4 H 0.7160 0.6809 0.3060
O4 O 0.6667 0.3333 0.3294(2)
C12 C 0.6712(8) 0.7214(7) 0.3426(4)
H5 H 0.7020 0.7692 0.3371
C13 C 0.5664(11) 0.6299(9) 0.3748(5)
H6 H 0.5259 0.6176 0.3902
Y2 Y 0.7591(10) 0.53721(8) 0.2500
C14 C 0.5149(6) 0.7044(6) 0.5106(4)
H7 H 0.5203 0.6699 0.4967
C15 C 0.4928(5) 0.6932(7) 0.5500(4)
H8 H 0.4849 0.6521 0.5634
O5 O 0.5914(6) 0.4811(6) 0.3186(3)
C16 C 0.6363(9) 0.5413(7) 0.3132(5)
O6 O 0.6900(7) 0.5546(8) 0.2955(4)
O3T O 0.4531(2) 0.6769(3) 0.63026(10)
C3T C 0.5758(9) 0.9976(13) 0.3580(5)
H1T H 0.5445 1.0142 0.3630
C4T C 0.6334(8) 1.0330(11) 0.3334(5)
C6T C 0.6004(8) 0.8521(10) 0.3908(3)
C7T C 0.6153(8) 0.9162(11) 0.3694(4)
C10T C 0.5726(8) 0.8393(11) 0.4296(3)
H3T H 0.5670 0.8739 0.4432
C11T C 0.6791(9) 1.0100(11) 0.3245(4)
H4T H 0.7160 1.0351 0.3060
C12T C 0.6712(8) 0.9498(11) 0.3426(4)
H5T H 0.7020 0.9328 0.3371
C13T C 0.5664(11) 0.9365(14) 0.3748(5)
H6T H 0.5259 0.9083 0.3902
C14T C 0.5149(6) 0.8105(8) 0.5106(4)
H7T H 0.5203 0.8504 0.4967
C15T C 0.4928(5) 0.7996(9) 0.5500(4)
H8T H 0.4849 0.8328 0.5634
O5T O 0.5914(6) 1.1103(8) 0.3186(3)
C16T C 0.6363(9) 1.0950(11) 0.3132(5)
O6T O 0.6900(7) 1.1354(11) 0.2955(4)
Y1A Y 0.609190(19) 0.218380(27) 0.315395(18)
O1A O 0.59994(17) 0.19988(24) 0.2500
O2A O 0.5549(2) 0.27745(23) 0.29076(12)
O3A O 0.2238(2) -0.3231(3) 0.63026(10)
C1A C 0.2589(2) -0.2590(4) 0.5699(3)
C2A C 0.2712(3) -0.2711(7) 0.6126(4)
C3A C 0.4218(9) -0.0024(13) 0.3580(5)
H1A H 0.4697 0.0142 0.3630
C4A C 0.3996(7) 0.0330(11) 0.3334(5)
C5A C 0.1905(5) -0.1904(12) 0.3709(5)
H2A H 0.1786 -0.1786 0.3458
C6A C 0.2517(6) -0.1479(10) 0.3908(3)
C7A C 0.3009(7) -0.0838(11) 0.3694(4)
C8A C 0.2234(4) -0.2234(8) 0.4486(5)
C9A C 0.2354(3) -0.2353(8) 0.4910(5)
C10A C 0.2667(7) -0.1607(11) 0.4296(3)
H3A H 0.3069 -0.1261 0.4432
C11A C 0.3309(7) 0.0100(11) 0.3245(4)
H4A H 0.3191 0.0351 0.3060
C12A C 0.2786(7) -0.0502(11) 0.3426(4)
H5A H 0.2308 -0.0672 0.3371
C13A C 0.3701(9) -0.0635(14) 0.3748(5)
H6A H 0.3824 -0.0917 0.3902
Y2A Y 0.46279(8) 0.2219(10) 0.2500
C14A C 0.2956(6) -0.1895(8) 0.5106(4)
H7A H 0.3301 -0.1496 0.4967
C15A C 0.3068(7) -0.2004(9) 0.5500(4)
H8A H 0.3479 -0.1672 0.5634
O5A O 0.5189(6) 0.1103(8) 0.3186(3)
C16A C 0.4587(7) 0.0950(11) 0.3132(5)
O6A O 0.4454(8) 0.1354(11) 0.2955(4)
O3S O 0.3231(3) -0.2238(2) 0.63026(10)
C3S C 0.0024(13) -0.4218(9) 0.3580(5)
H1S H -0.0142 -0.4697 0.3630
C4S C -0.0330(11) -0.3996(7) 0.3334(5)
C6S C 0.1479(10) -0.2517(6) 0.3908(3)
C7S C 0.0838(11) -0.3009(7) 0.3694(4)
C10S C 0.1607(11) -0.2667(7) 0.4296(3)
H3S H 0.1261 -0.3069 0.4432
C11S C -0.0100(11) -0.3309(7) 0.3245(4)
H4S H -0.0351 -0.3191 0.3060
C12S C 0.0502(11) -0.2786(7) 0.3426(4)
H5S H 0.0672 -0.2308 0.3371
C13S C 0.0635(14) -0.3701(9) 0.3748(5)
H6S H 0.0917 -0.3824 0.3902
C14S C 0.1895(8) -0.2956(6) 0.5106(4)
H7S H 0.1496 -0.3301 0.4967
C15S C 0.2004(9) -0.3068(7) 0.5500(4)
H8S H 0.1672 -0.3479 0.5634
O5S O -0.1103(8) -0.5189(6) 0.3186(3)
C16S C -0.0950(11) -0.4587(7) 0.3132(5)
O6S O -0.1354(11) -0.4454(8) 0.2955(4)
Y1A_2 Y 0.609190(19) 1.218380(27) 0.315395(18)
O1A_2 O 0.59994(17) 1.19988(24) 0.2500
O3A_2 O 0.2238(2) 0.6769(3) 0.63026(10)
C1A_2 C 0.2589(2) 0.7410(4) 0.5699(3)
C2A_2 C 0.2712(3) 0.7289(7) 0.6126(4)
C3A_2 C 0.4218(9) 0.9976(13) 0.3580(5)
H1A_2 H 0.4697 1.0142 0.3630
C4A_2 C 0.3996(7) 1.0330(11) 0.3334(5)
C5A_2 C 0.1905(5) 0.8096(12) 0.3709(5)
H2A_2 H 0.1786 0.8214 0.3458
C6A_2 C 0.2517(6) 0.8521(10) 0.3908(3)
C7A_2 C 0.3009(7) 0.9162(11) 0.3694(4)
C8A_2 C 0.2234(4) 0.7766(8) 0.4486(5)
C9A_2 C 0.2354(3) 0.7647(8) 0.4910(5)
C10A_2 C 0.2667(7) 0.8393(11) 0.4296(3)
H3A_2 H 0.3069 0.8739 0.4432
C11A_2 C 0.3309(7) 1.0100(11) 0.3245(4)
H4A_2 H 0.3191 1.0351 0.3060
C12A_2 C 0.2786(7) 0.9498(11) 0.3426(4)
H5A_2 H 0.2308 0.9328 0.3371
C13A_2 C 0.3701(9) 0.9365(14) 0.3748(5)
H6A_2 H 0.3824 0.9083 0.3902
Y2A_2 Y 0.46279(8) 1.2219(10) 0.2500
C14A_2 C 0.2956(6) 0.8105(8) 0.5106(4)
H7A_2 H 0.3301 0.8504 0.4967
C15A_2 C 0.3068(7) 0.7996(9) 0.5500(4)
H8A_2 H 0.3479 0.8328 0.5634
O5A_2 O 0.5189(6) 1.1103(8) 0.3186(3)
C16A_2 C 0.4587(7) 1.0950(11) 0.3132(5)
O6A_2 O 0.4454(8) 1.1354(11) 0.2955(4)
O3S_2 O 0.3231(3) 0.7762(2) 0.63026(10)
C3S_2 C 0.0024(13) 0.5782(9) 0.3580(5)
H1S_2 H -0.0142 0.5303 0.3630
C4S_2 C -0.0330(11) 0.6004(7) 0.3334(5)
C6S_2 C 0.1479(10) 0.7483(6) 0.3908(3)
C7S_2 C 0.0838(11) 0.6991(7) 0.3694(4)
C10S_2 C 0.1607(11) 0.7333(7) 0.4296(3)
H3S_2 H 0.1261 0.6931 0.4432
C11S_2 C -0.0100(11) 0.6691(7) 0.3245(4)
H4S_2 H -0.0351 0.6809 0.3060
C12S_2 C 0.0502(11) 0.7214(7) 0.3426(4)
H5S_2 H 0.0672 0.7692 0.3371
C13S_2 C 0.0635(14) 0.6299(9) 0.3748(5)
H6S_2 H 0.0917 0.6176 0.3902
C14S_2 C 0.1895(8) 0.7044(6) 0.5106(4)
H7S_2 H 0.1496 0.6699 0.4967
C15S_2 C 0.2004(9) 0.6932(7) 0.5500(4)
H8S_2 H 0.1672 0.6521 0.5634
O5S_2 O -0.1103(8) 0.4811(6) 0.3186(3)
C16S_2 C -0.0950(11) 0.5413(7) 0.3132(5)
O6S_2 O -0.1354(11) 0.5546(8) 0.2955(4)
O2A_2 O 1.5549(2) 1.27745(23) 0.29076(12)
O3A_3 O 1.2238(2) 0.6769(3) 0.63026(10)
C1A_3 C 1.2589(2) 0.7410(4) 0.5699(3)
C2A_3 C 1.2712(3) 0.7289(7) 0.6126(4)
C3A_3 C 1.4218(9) 0.9976(13) 0.3580(5)
H1A_3 H 1.4697 1.0142 0.3630
C4A_3 C 1.3996(7) 1.0330(11) 0.3334(5)
C5A_3 C 1.1905(5) 0.8096(12) 0.3709(5)
H2A_3 H 1.1786 0.8214 0.3458
C6A_3 C 1.2517(6) 0.8521(10) 0.3908(3)
C7A_3 C 1.3009(7) 0.9162(11) 0.3694(4)
C8A_3 C 1.2234(4) 0.7766(8) 0.4486(5)
C9A_3 C 1.2354(3) 0.7647(8) 0.4910(5)
C10A_3 C 1.2667(7) 0.8393(11) 0.4296(3)
H3A_3 H 1.3069 0.8739 0.4432
C11A_3 C 1.3309(7) 1.0100(11) 0.3245(4)
H4A_3 H 1.3191 1.0351 0.3060
C12A_3 C 1.2786(7) 0.9498(11) 0.3426(4)
H5A_3 H 1.2308 0.9328 0.3371
C13A_3 C 1.3701(9) 0.9365(14) 0.3748(5)
H6A_3 H 1.3824 0.9083 0.3902
Y2A_3 Y 1.46279(8) 1.2219(10) 0.2500
C14A_3 C 1.2956(6) 0.8105(8) 0.5106(4)
H7A_3 H 1.3301 0.8504 0.4967
C15A_3 C 1.3068(7) 0.7996(9) 0.5500(4)
H8A_3 H 1.3479 0.8328 0.5634
O5A_3 O 1.5189(6) 1.1103(8) 0.3186(3)
C16A_3 C 1.4587(7) 1.0950(11) 0.3132(5)
O6A_3 O 1.4454(8) 1.1354(11) 0.2955(4)
O3S_3 O 1.3231(3) 0.7762(2) 0.63026(10)
C3S_3 C 1.0024(13) 0.5782(9) 0.3580(5)
H1S_3 H 0.9858 0.5303 0.3630
C4S_3 C 0.9670(11) 0.6004(7) 0.3334(5)
C6S_3 C 1.1479(10) 0.7483(6) 0.3908(3)
C7S_3 C 1.0838(11) 0.6991(7) 0.3694(4)
C10S_3 C 1.1607(11) 0.7333(7) 0.4296(3)
H3S_3 H 1.1261 0.6931 0.4432
C11S_3 C 0.9900(11) 0.6691(7) 0.3245(4)
H4S_3 H 0.9649 0.6809 0.3060
C12S_3 C 1.0502(11) 0.7214(7) 0.3426(4)
H5S_3 H 1.0672 0.7692 0.3371
C13S_3 C 1.0635(14) 0.6299(9) 0.3748(5)
H6S_3 H 1.0917 0.6176 0.3902
C14S_3 C 1.1895(8) 0.7044(6) 0.5106(4)
H7S_3 H 1.1496 0.6699 0.4967
C15S_3 C 1.2004(9) 0.6932(7) 0.5500(4)
H8S_3 H 1.1672 0.6521 0.5634
O5S_3 O 0.8897(8) 0.4811(6) 0.3186(3)
C16S_3 C 0.9050(11) 0.5413(7) 0.3132(5)
O6S_3 O 0.8646(11) 0.5546(8) 0.2955(4)
Y1B Y -0.218380(27) 0.390810(19) 0.315395(18)
O3B O 0.3231(3) 0.5469(2) 0.63026(10)
C1B C 0.2590(4) 0.5179(4) 0.5699(3)
C2B C 0.2711(7) 0.5423(6) 0.6126(4)
C3B C 0.0024(13) 0.4242(9) 0.3580(5)
H1B H -0.0142 0.4555 0.3630
C4B C -0.0330(11) 0.3666(8) 0.3334(5)
C5B C 0.1904(12) 0.3809(11) 0.3709(5)
H2B H 0.1786 0.3572 0.3458
C6B C 0.1479(10) 0.3996(8) 0.3908(3)
C7B C 0.0838(11) 0.3847(8) 0.3694(4)
C8B C 0.2234(8) 0.4468(7) 0.4486(5)
C9B C 0.2353(8) 0.4707(7) 0.4910(5)
C10B C 0.1607(11) 0.4274(8) 0.4296(3)
H3B H 0.1261 0.4330 0.4432
C11B C -0.0100(11) 0.3209(9) 0.3245(4)
H4B H -0.0351 0.2840 0.3060
C12B C 0.0502(11) 0.3288(8) 0.3426(4)
H5B H 0.0672 0.2980 0.3371
C13B C 0.0635(14) 0.4336(11) 0.3748(5)
H6B H 0.0917 0.4741 0.3902
Y2B Y -0.2219(10) 0.2409(10) 0.2500
C14B C 0.1895(8) 0.4851(6) 0.5106(4)
H7B H 0.1496 0.4797 0.4967
C15B C 0.2004(9) 0.5072(5) 0.5500(4)
H8B H 0.1672 0.5151 0.5634
O5B O -0.1103(8) 0.4086(6) 0.3186(3)
C16B C -0.0950(11) 0.3637(9) 0.3132(5)
O6B O -0.1354(11) 0.3100(7) 0.2955(4)
O3R O 0.2238(2) 0.5469(2) 0.63026(10)
C3R C 0.4218(9) 0.4242(9) 0.3580(5)
H1R H 0.4697 0.4555 0.3630
C4R C 0.3996(7) 0.3666(8) 0.3334(5)
C6R C 0.2517(6) 0.3996(8) 0.3908(3)
C7R C 0.3009(7) 0.3847(8) 0.3694(4)
C10R C 0.2667(7) 0.4274(8) 0.4296(3)
H3R H 0.3069 0.4330 0.4432
C11R C 0.3309(7) 0.3209(9) 0.3245(4)
H4R H 0.3191 0.2840 0.3060
C12R C 0.2786(7) 0.3288(8) 0.3426(4)
H5R H 0.2308 0.2980 0.3371
C13R C 0.3701(9) 0.4336(11) 0.3748(5)
H6R H 0.3824 0.4741 0.3902
C14R C 0.2956(6) 0.4851(6) 0.5106(4)
H7R H 0.3301 0.4797 0.4967
C15R C 0.3068(7) 0.5072(5) 0.5500(4)
H8R H 0.3479 0.5151 0.5634
O5R O 0.5189(6) 0.4086(6) 0.3186(3)
C16R C 0.4587(7) 0.3637(9) 0.3132(5)
O6R O 0.4454(8) 0.3100(7) 0.2955(4)
O3B_2 O 0.3231(3) 1.5469(2) 0.63026(10)
C1B_2 C 0.2590(4) 1.5179(4) 0.5699(3)
C2B_2 C 0.2711(7) 1.5423(6) 0.6126(4)
C3B_2 C 0.0024(13) 1.4242(9) 0.3580(5)
H1B_2 H -0.0142 1.4555 0.3630
C4B_2 C -0.0330(11) 1.3666(8) 0.3334(5)
C5B_2 C 0.1904(12) 1.3809(11) 0.3709(5)
H2B_2 H 0.1786 1.3572 0.3458
C6B_2 C 0.1479(10) 1.3996(8) 0.3908(3)
C7B_2 C 0.0838(11) 1.3847(8) 0.3694(4)
C8B_2 C 0.2234(8) 1.4468(7) 0.4486(5)
C9B_2 C 0.2353(8) 1.4707(7) 0.4910(5)
C10B_2 C 0.1607(11) 1.4274(8) 0.4296(3)
H3B_2 H 0.1261 1.4330 0.4432
C11B_2 C -0.0100(11) 1.3209(9) 0.3245(4)
H4B_2 H -0.0351 1.2840 0.3060
C12B_2 C 0.0502(11) 1.3288(8) 0.3426(4)
H5B_2 H 0.0672 1.2980 0.3371
C13B_2 C 0.0635(14) 1.4336(11) 0.3748(5)
H6B_2 H 0.0917 1.4741 0.3902
Y2B_2 Y -0.2219(10) 1.2409(10) 0.2500
C14B_2 C 0.1895(8) 1.4851(6) 0.5106(4)
H7B_2 H 0.1496 1.4797 0.4967
C15B_2 C 0.2004(9) 1.5072(5) 0.5500(4)
H8B_2 H 0.1672 1.5151 0.5634
O5B_2 O -0.1103(8) 1.4086(6) 0.3186(3)
C16B_2 C -0.0950(11) 1.3637(9) 0.3132(5)
O6B_2 O -0.1354(11) 1.3100(7) 0.2955(4)
O3R_2 O 0.2238(2) 1.5469(2) 0.63026(10)
C3R_2 C 0.4218(9) 1.4242(9) 0.3580(5)
H1R_2 H 0.4697 1.4555 0.3630
C4R_2 C 0.3996(7) 1.3666(8) 0.3334(5)
C6R_2 C 0.2517(6) 1.3996(8) 0.3908(3)
C7R_2 C 0.3009(7) 1.3847(8) 0.3694(4)
C10R_2 C 0.2667(7) 1.4274(8) 0.4296(3)
H3R_2 H 0.3069 1.4330 0.4432
C11R_2 C 0.3309(7) 1.3209(9) 0.3245(4)
H4R_2 H 0.3191 1.2840 0.3060
C12R_2 C 0.2786(7) 1.3288(8) 0.3426(4)
H5R_2 H 0.2308 1.2980 0.3371
C13R_2 C 0.3701(9) 1.4336(11) 0.3748(5)
H6R_2 H 0.3824 1.4741 0.3902
C14R_2 C 0.2956(6) 1.4851(6) 0.5106(4)
H7R_2 H 0.3301 1.4797 0.4967
C15R_2 C 0.3068(7) 1.5072(5) 0.5500(4)
H8R_2 H 0.3479 1.5151 0.5634
O5R_2 O 0.5189(6) 1.4086(6) 0.3186(3)
C16R_2 C 0.4587(7) 1.3637(9) 0.3132(5)
O6R_2 O 0.4454(8) 1.3100(7) 0.2955(4)
Y1B_2 Y 0.781620(27) 0.390810(19) 0.315395(18)
O2B O 0.72255(23) 0.27745(11) 0.29076(12)
O2B_2 O 0.72255(23) 1.27745(11) 0.29076(12)
Y1F Y 0.390810(19) 0.609190(19) 0.684605(18)
O2F O 0.4451(2) 0.72255(11) 0.70924(12)
O4_2 O 0.6667 1.3333 0.3294(2)
Y1_2 Y 0.609190(19) 1.390810(19) 0.315395(18)
Y1_3 Y 1.609190(19) 1.390810(19) 0.315395(18)
Y1A_3 Y 1.609190(19) 1.218380(27) 0.315395(18)
Y1B_3 Y -0.218380(27) -0.609190(19) 0.315395(18)
Y1B_4 Y -0.218380(27) 1.390810(19) 0.315395(18)
Y1B_5 Y 0.781620(27) 1.390810(19) 0.315395(18)
Y1F_2 Y 0.390810(19) 1.609190(19) 0.684605(18)
Y1G Y 0.218380(27) -0.390810(19) 0.684605(18)
Y1G_2 Y 0.218380(27) 0.609190(19) 0.684605(18)
Y1G_3 Y 0.218380(27) 1.609190(19) 0.684605(18)
Y1G_4 Y 1.218380(27) 0.609190(19) 0.684605(18)
Y1H Y 0.390810(19) -0.218380(27) 0.684605(18)
Y1H_2 Y 0.390810(19) 0.781620(27) 0.684605(18)
Y1H_3 Y 1.390810(19) 0.781620(27) 0.684605(18)
Y1I Y 0.609190(19) 0.390810(19) 0.184605(18)
Y1K Y 0.609190(19) 0.218380(27) 0.184605(18)
Y1K_2 Y 0.609190(19) 1.218380(27) 0.184605(18)
O1B O -0.19988(24) 0.40006(17) 0.2500
O1B_2 O 0.80012(24) 0.40006(17) 0.2500
O1C O 0.40006(17) 0.59994(17) 0.7500
O2_2 O -0.27745(11) 0.4451(2) 0.29076(12)
O2A_3 O 0.5549(2) 1.27745(23) 0.29076(12)
O2B_3 O -0.27745(23) 0.27745(11) 0.29076(12)
O2B_4 O -0.27745(23) 1.27745(11) 0.29076(12)
O2G O 0.27745(23) 0.5549(2) 0.70924(12)
O2I O 0.5549(2) 0.27745(11) 0.20924(12)
O2I_2 O 0.5549(2) 1.27745(11) 0.20924(12)
O2I_3 O 1.5549(2) 1.27745(11) 0.20924(12)
O2J O 0.72255(23) 0.4451(2) 0.20924(12)
O2K O -0.27745(11) 0.27745(23) 0.20924(12)
O2K_2 O -0.27745(11) 1.27745(23) 0.20924(12)
O3F O -0.2238(2) 0.4531(2) 0.36974(10)
O3F_2 O 0.7762(2) 0.4531(2) 0.36974(10)
O3G O 0.6769(3) 0.2238(2) 0.36974(10)
O3G_2 O 0.6769(3) 1.2238(2) 0.36974(10)
O3H O 0.5469(2) 0.3231(3) 0.36974(10)
O3L O 0.5469(2) 0.2238(2) 0.36974(10)
O3L_2 O 0.5469(2) 1.2238(2) 0.36974(10)
O3M O -0.2238(2) 0.3231(3) 0.36974(10)
O3M_2 O 0.7762(2) 0.3231(3) 0.36974(10)
O3N O 0.6769(3) 0.4531(2) 0.36974(10)
O4_3 O -0.3333 0.3333 0.3294(2)
O4F O 0.3333 0.6667 0.6706(2)
Y2_2 Y -0.2409(10) -0.46279(8) 0.2500
Y2_3 Y -0.2409(10) 0.53721(8) 0.2500
Y2B_3 Y 0.7781(10) 0.2409(10) 0.2500
Y2B_4 Y 0.7781(10) 1.2409(10) 0.2500
Y2D Y 0.53721(8) 0.7781(10) 0.7500
Y2F Y 0.53721(8) 0.7591(10) 0.7500
Y2I Y 0.46279(8) 0.2409(10) 0.2500
Y2I_2 Y 0.46279(8) 1.2409(10) 0.2500
Y2I_3 Y 1.46279(8) 1.2409(10) 0.2500
Y2J Y -0.2219(10) -0.46279(8) 0.2500
Y2J_2 Y -0.2219(10) 0.53721(8) 0.2500
Y2J_3 Y 0.7781(10) 0.53721(8) 0.2500
Y2K Y -0.2409(10) 0.2219(10) 0.2500
Y2K_2 Y -0.2409(10) 1.2219(10) 0.2500
Y2K_3 Y 0.7591(10) 0.2219(10) 0.2500
Y2K_4 Y 0.7591(10) 1.2219(10) 0.2500
O5B_3 O 0.8897(8) 0.4086(6) 0.3186(3)
O5F O 0.4811(6) 0.5914(6) 0.6814(3)
O5L O 0.4086(6) 0.5189(6) 0.6814(3)
O5T_2 O 0.5914(6) 0.1103(8) 0.3186(3)
O6I O 0.4454(8) 0.3100(7) 0.2045(4)
O6I_2 O 0.4454(8) 1.3100(7) 0.2045(4)
O6I_3 O 1.4454(8) 1.3100(7) 0.2045(4)
O6J O 0.8646(11) 0.5546(8) 0.2045(4)
O6K O -0.3100(7) 0.1354(11) 0.2045(4)
O6K_2 O -0.3100(7) 1.1354(11) 0.2045(4)
O6O O 0.6900(7) 0.5546(8) 0.2045(4)
O6P O 0.4454(8) 0.1354(11) 0.2045(4)
O6P_2 O 0.4454(8) 1.1354(11) 0.2045(4)
O6P_3 O 1.4454(8) 1.1354(11) 0.2045(4)
O6Q O -0.1354(11) 0.3100(7) 0.2045(4)
O6Q_2 O -0.1354(11) 1.3100(7) 0.2045(4)
O6R_3 O 1.4454(8) 1.3100(7) 0.2955(4)
O6T_2 O -0.3100(7) 0.1354(11) 0.2955(4)
O6T_3 O -0.3100(7) 1.1354(11) 0.2955(4)
C17? C 0.5215(5) 0.8129(4) 0.5561(4)
H9? H 0.5116 0.8455 0.5686
C18? C 0.5521(6) 0.8284(7) 0.5183(4)
H10? H 0.5636 0.8716 0.5062
O7? O 0.6417(6) 0.5080(5) 0.3035(3)
C19? C 0.6865(8) 0.5677(7) 0.3082(6)
O8? O 0.7480(6) 0.5884(7) 0.2982(4)
C20? C 0.6762(7) 0.6175(5) 0.3338(4)
C21? C 0.6209(8) 0.5913(8) 0.3599(4)
H11? H 0.5925 0.5425 0.3635
C22? C 0.6072(7) 0.6365(6) 0.3808(4)
H12? H 0.5677 0.6179 0.3980
C23? C 0.7073(7) 0.7335(8) 0.3525(4)
H13? H 0.7384 0.7821 0.3501
C24? C 0.7198(7) 0.6881(6) 0.3312(4)
H14? H 0.7595 0.7057 0.3142
C25? C 0.6493(6) 0.7092(6) 0.3777(3)
C26? C 0.6348(7) 0.7623(6) 0.3977(4)
C27? C 0.6082(6) 0.7493(6) 0.4366(4)
H15? H 0.5989 0.7077 0.4499
C28? C 0.5950(6) 0.7975(3) 0.4561(4)
C29? C 0.5664(7) 0.7832(3) 0.4978(4)
C30? C 0.6493(11) 0.8246(6) 0.3792(6)
H16? H 0.6696 0.8348 0.3531
C31? C 0.5046(4) 0.7523(2) 0.5764(3)
C32? C 0.4728(6) 0.7364(3) 0.6169(3)
loop_
_geom_bond_atom_site_label_1
_geom_bond_atom_site_label_2
_geom_bond_site_symmetry_1
_geom_bond_site_symmetry_2
Y1 O1 1_555 1_555
O1 Y1I 1_555 1_555
O2 Y1 1_555 1_555
O3 C2 1_555 1_555
C1 C2 1_555 1_555
C2 O3T 1_555 1_555
C3 H1 1_555 1_555
C4 C3 1_555 1_555
C5 H2 1_555 1_555
C6 C5 1_555 1_555
C7 C6 1_555 1_555
C8 C9 1_555 1_555
C9 C14 1_555 1_555
C10 C6 1_555 1_555
H3 C10 1_555 1_555
C11 C4 1_555 1_555
H4 C11 1_555 1_555
O4 Y1 1_555 1_555
C12 C7 1_555 1_555
H5 C12 1_555 1_555
C13 C3 1_555 1_555
H6 C13 1_555 1_555
Y2 O2 1_555 1_555
C14 H7 1_555 1_555
C15 C1 1_555 1_555
H8 C15 1_555 1_555
O5 Y1 1_555 1_555
C16 C4 1_555 1_555
O6 Y2 1_555 1_555
O3T Y1F 1_555 1_555
C3T H1T 1_555 1_555
C4T C3T 1_555 1_555
C6T C5 1_555 1_555
C7T C6T 1_555 1_555
C10T C8 1_555 1_555
H3T C10T 1_555 1_555
C11T C4T 1_555 1_555
H4T C11T 1_555 1_555
C12T C7T 1_555 1_555
H5T C12T 1_555 1_555
C13T C3T 1_555 1_555
H6T C13T 1_555 1_555
C14T C9 1_555 1_555
H7T C14T 1_555 1_555
C15T C1 1_555 1_555
H8T C15T 1_555 1_555
O5T C16T 1_555 1_555
C16T C4T 1_555 1_555
O6T C16T 1_555 1_555
Y1A O4 1_555 1_555
O1A Y1A 1_555 1_555
O2A Y1 1_555 1_555
O3A C2A 1_555 1_555
C1A C2A 1_555 1_555
C2A O3S 1_555 1_555
C3A H1A 1_555 1_555
C4A C3A 1_555 1_555
C5A H2A 1_555 1_555
C6A C5A 1_555 1_555
C7A C6A 1_555 1_555
C8A C9A 1_555 1_555
C9A C14A 1_555 1_555
C10A C6A 1_555 1_555
H3A C10A 1_555 1_555
C11A C4A 1_555 1_555
H4A C11A 1_555 1_555
C12A C7A 1_555 1_555
H5A C12A 1_555 1_555
C13A C3A 1_555 1_555
H6A C13A 1_555 1_555
Y2A O2A 1_555 1_555
C14A H7A 1_555 1_555
C15A C1A 1_555 1_555
H8A C15A 1_555 1_555
O5A Y1A 1_555 1_555
C16A C4A 1_555 1_555
O6A Y2A 1_555 1_555
O3S Y1H 1_555 1_555
C3S H1S 1_555 1_555
C4S C3S 1_555 1_555
C6S C5A 1_555 1_555
C7S C6S 1_555 1_555
C10S C8A 1_555 1_555
H3S C10S 1_555 1_555
C11S C4S 1_555 1_555
H4S C11S 1_555 1_555
C12S C7S 1_555 1_555
H5S C12S 1_555 1_555
C13S C3S 1_555 1_555
H6S C13S 1_555 1_555
C14S C9A 1_555 1_555
H7S C14S 1_555 1_555
C15S C1A 1_555 1_555
H8S C15S 1_555 1_555
O5S C16S 1_555 1_555
C16S C4S 1_555 1_555
O6S C16S 1_555 1_555
Y1A_2 O5T 1_555 1_555
O1A_2 Y1A_2 1_555 1_555
O3A_2 C2A_2 1_555 1_555
C1A_2 C2A_2 1_555 1_555
C2A_2 O3S_2 1_555 1_555
C3A_2 H1A_2 1_555 1_555
C4A_2 C3A_2 1_555 1_555
C5A_2 H2A_2 1_555 1_555
C6A_2 C5A_2 1_555 1_555
C7A_2 C6A_2 1_555 1_555
C8A_2 C9A_2 1_555 1_555
C9A_2 C14A_2 1_555 1_555
C10A_2 C6A_2 1_555 1_555
H3A_2 C10A_2 1_555 1_555
C11A_2 C4A_2 1_555 1_555
H4A_2 C11A_2 1_555 1_555
C12A_2 C7A_2 1_555 1_555
H5A_2 C12A_2 1_555 1_555
C13A_2 C3A_2 1_555 1_555
H6A_2 C13A_2 1_555 1_555
Y2A_2 O6A_2 1_555 1_555
C14A_2 H7A_2 1_555 1_555
C15A_2 C1A_2 1_555 1_555
H8A_2 C15A_2 1_555 1_555
O5A_2 Y1A_2 1_555 1_555
C16A_2 C4A_2 1_555 1_555
O6A_2 C16A_2 1_555 1_555
O3S_2 Y1H_2 1_555 1_555
C3S_2 H1S_2 1_555 1_555
C4S_2 C3S_2 1_555 1_555
C6S_2 C5A_2 1_555 1_555
C7S_2 C6S_2 1_555 1_555
C10S_2 C8A_2 1_555 1_555
H3S_2 C10S_2 1_555 1_555
C11S_2 C4S_2 1_555 1_555
H4S_2 C11S_2 1_555 1_555
C12S_2 C7S_2 1_555 1_555
H5S_2 C12S_2 1_555 1_555
C13S_2 C3S_2 1_555 1_555
H6S_2 C13S_2 1_555 1_555
C14S_2 C9A_2 1_555 1_555
H7S_2 C14S_2 1_555 1_555
C15S_2 C1A_2 1_555 1_555
H8S_2 C15S_2 1_555 1_555
O5S_2 C16S_2 1_555 1_555
C16S_2 C4S_2 1_555 1_555
O6S_2 C16S_2 1_555 1_555
O2A_2 Y2A_3 1_555 1_555
O3A_3 C2A_3 1_555 1_555
C1A_3 C2A_3 1_555 1_555
C2A_3 O3S_3 1_555 1_555
C3A_3 H1A_3 1_555 1_555
C4A_3 C3A_3 1_555 1_555
C5A_3 H2A_3 1_555 1_555
C6A_3 C5A_3 1_555 1_555
C7A_3 C6A_3 1_555 1_555
C8A_3 C9A_3 1_555 1_555
C9A_3 C14A_3 1_555 1_555
C10A_3 C6A_3 1_555 1_555
H3A_3 C10A_3 1_555 1_555
C11A_3 C4A_3 1_555 1_555
H4A_3 C11A_3 1_555 1_555
C12A_3 C7A_3 1_555 1_555
H5A_3 C12A_3 1_555 1_555
C13A_3 C3A_3 1_555 1_555
H6A_3 C13A_3 1_555 1_555
Y2A_3 O6A_3 1_555 1_555
C14A_3 H7A_3 1_555 1_555
C15A_3 C1A_3 1_555 1_555
H8A_3 C15A_3 1_555 1_555
O5A_3 C16A_3 1_555 1_555
C16A_3 C4A_3 1_555 1_555
O6A_3 C16A_3 1_555 1_555
O3S_3 Y1H_3 1_555 1_555
C3S_3 H1S_3 1_555 1_555
C4S_3 C3S_3 1_555 1_555
C6S_3 C5A_3 1_555 1_555
C7S_3 C6S_3 1_555 1_555
C10S_3 C8A_3 1_555 1_555
H3S_3 C10S_3 1_555 1_555
C11S_3 C4S_3 1_555 1_555
H4S_3 C11S_3 1_555 1_555
C12S_3 C7S_3 1_555 1_555
H5S_3 C12S_3 1_555 1_555
C13S_3 C3S_3 1_555 1_555
H6S_3 C13S_3 1_555 1_555
C14S_3 C9A_3 1_555 1_555
H7S_3 C14S_3 1_555 1_555
C15S_3 C1A_3 1_555 1_555
H8S_3 C15S_3 1_555 1_555
O5S_3 C16S_3 1_555 1_555
C16S_3 C4S_3 1_555 1_555
O6S_3 Y2 1_555 1_555
Y1B O5S_2 1_555 1_555
O3B C2B 1_555 1_555
C1B C2B 1_555 1_555
C2B O3R 1_555 1_555
C3B H1B 1_555 1_555
C4B C3B 1_555 1_555
C5B H2B 1_555 1_555
C6B C5B 1_555 1_555
C7B C6B 1_555 1_555
C8B C9B 1_555 1_555
C9B C14B 1_555 1_555
C10B C6B 1_555 1_555
H3B C10B 1_555 1_555
C11B C4B 1_555 1_555
H4B C11B 1_555 1_555
C12B C7B 1_555 1_555
H5B C12B 1_555 1_555
C13B C3B 1_555 1_555
H6B C13B 1_555 1_555
Y2B O6B 1_555 1_555
C14B H7B 1_555 1_555
C15B C1B 1_555 1_555
H8B C15B 1_555 1_555
O5B Y1B 1_555 1_555
C16B C4B 1_555 1_555
O6B C16B 1_555 1_555
O3R Y1G_2 1_555 1_555
C3R H1R 1_555 1_555
C4R C3R 1_555 1_555
C6R C5B 1_555 1_555
C7R C6R 1_555 1_555
C10R C8B 1_555 1_555
H3R C10R 1_555 1_555
C11R C4R 1_555 1_555
H4R C11R 1_555 1_555
C12R C7R 1_555 1_555
H5R C12R 1_555 1_555
C13R C3R 1_555 1_555
H6R C13R 1_555 1_555
C14R C9B 1_555 1_555
H7R C14R 1_555 1_555
C15R C1B 1_555 1_555
H8R C15R 1_555 1_555
O5R Y1 1_555 1_555
C16R C4R 1_555 1_555
O6R Y2A 1_555 1_555
O3B_2 C2B_2 1_555 1_555
C1B_2 C2B_2 1_555 1_555
C2B_2 O3R_2 1_555 1_555
C3B_2 H1B_2 1_555 1_555
C4B_2 C3B_2 1_555 1_555
C5B_2 H2B_2 1_555 1_555
C6B_2 C5B_2 1_555 1_555
C7B_2 C6B_2 1_555 1_555
C8B_2 C9B_2 1_555 1_555
C9B_2 C14B_2 1_555 1_555
C10B_2 C6B_2 1_555 1_555
H3B_2 C10B_2 1_555 1_555
C11B_2 C4B_2 1_555 1_555
H4B_2 C11B_2 1_555 1_555
C12B_2 C7B_2 1_555 1_555
H5B_2 C12B_2 1_555 1_555
C13B_2 C3B_2 1_555 1_555
H6B_2 C13B_2 1_555 1_555
Y2B_2 O6B_2 1_555 1_555
C14B_2 H7B_2 1_555 1_555
C15B_2 C1B_2 1_555 1_555
H8B_2 C15B_2 1_555 1_555
O5B_2 C16B_2 1_555 1_555
C16B_2 C4B_2 1_555 1_555
O6B_2 C16B_2 1_555 1_555
O3R_2 Y1G_3 1_555 1_555
C3R_2 H1R_2 1_555 1_555
C4R_2 C3R_2 1_555 1_555
C6R_2 C5B_2 1_555 1_555
C7R_2 C6R_2 1_555 1_555
C10R_2 C8B_2 1_555 1_555
H3R_2 C10R_2 1_555 1_555
C11R_2 C4R_2 1_555 1_555
H4R_2 C11R_2 1_555 1_555
C12R_2 C7R_2 1_555 1_555
H5R_2 C12R_2 1_555 1_555
C13R_2 C3R_2 1_555 1_555
H6R_2 C13R_2 1_555 1_555
C14R_2 C9B_2 1_555 1_555
H7R_2 C14R_2 1_555 1_555
C15R_2 C1B_2 1_555 1_555
H8R_2 C15R_2 1_555 1_555
O5R_2 C16R_2 1_555 1_555
C16R_2 C4R_2 1_555 1_555
O6R_2 Y2A_2 1_555 1_555
Y1B_2 O2 1_555 1_555
O2B Y1A 1_555 1_555
O2B_2 Y1A_2 1_555 1_555
Y1F O3B 1_555 1_555
O2F Y1F 1_555 1_555
O4_2 Y1A_2 1_555 1_555
Y1_2 O5R_2 1_555 1_555
Y1_3 O2A_2 1_555 1_555
Y1A_3 O2A_2 1_555 1_555
Y1B_3 O5S 1_555 1_555
Y1B_4 O5B_2 1_555 1_555
Y1B_5 O2B_2 1_555 1_555
Y1F_2 O3B_2 1_555 1_555
Y1G O3A 1_555 1_555
Y1G_2 O3A_2 1_555 1_555
Y1G_4 O3A_3 1_555 1_555
Y1H_2 O3 1_555 1_555
Y1I O2I 1_555 1_555
Y1K O1A 1_555 1_555
Y1K_2 O1A_2 1_555 1_555
O1B Y1B 1_555 1_555
O1B_2 Y1B_2 1_555 1_555
O1C Y1F 1_555 1_555
O2_2 Y1B 1_555 1_555
O2A_3 Y1A_2 1_555 1_555
O2B_3 Y1B 1_555 1_555
O2B_4 Y2B_2 1_555 1_555
O2G Y1F 1_555 1_555
O2I Y2A 1_555 1_555
O2I_2 Y2A_2 1_555 1_555
O2I_3 Y2A_3 1_555 1_555
O2J Y2 1_555 1_555
O2K Y2B 1_555 1_555
O2K_2 Y2B_2 1_555 1_555
O3F Y1B 1_555 1_555
O3F_2 Y1B_2 1_555 1_555
O3G Y1A 1_555 1_555
O3G_2 Y1A_2 1_555 1_555
O3H Y1 1_555 1_555
O3L Y1A 1_555 1_555
O3L_2 Y1A_2 1_555 1_555
O3M Y1B 1_555 1_555
O3M_2 Y1B_2 1_555 1_555
O3N Y1 1_555 1_555
O4_3 Y1B 1_555 1_555
O4F Y1F 1_555 1_555
Y2_2 O6S 1_555 1_555
Y2_3 O6S_2 1_555 1_555
Y2B_3 O2B 1_555 1_555
Y2B_4 O6T 1_555 1_555
Y2D O2F 1_555 1_555
Y2F O2F 1_555 1_555
Y2I O2A 1_555 1_555
Y2I_2 O6A_2 1_555 1_555
Y2I_3 O2A_2 1_555 1_555
Y2J O6S 1_555 1_555
Y2J_2 O6S_2 1_555 1_555
Y2J_3 O2 1_555 1_555
Y2K O6B 1_555 1_555
Y2K_2 O6B_2 1_555 1_555
Y2K_3 O2B 1_555 1_555
Y2K_4 O6T 1_555 1_555
O5B_3 Y1B_2 1_555 1_555
O5F Y1F 1_555 1_555
O5L Y1F 1_555 1_555
O5T_2 Y1A 1_555 1_555
O6I Y2A 1_555 1_555
O6I_2 Y2A_2 1_555 1_555
O6I_3 Y2A_3 1_555 1_555
O6J Y2 1_555 1_555
O6K Y2B 1_555 1_555
O6K_2 Y2B_2 1_555 1_555
O6O Y2 1_555 1_555
O6P Y2A 1_555 1_555
O6P_2 Y2A_2 1_555 1_555
O6P_3 Y2A_3 1_555 1_555
O6Q Y2B 1_555 1_555
O6Q_2 Y2B_2 1_555 1_555
O6R_3 Y2A_3 1_555 1_555
O6T_2 Y2B 1_555 1_555
O6T_3 Y2B_2 1_555 1_555
C7 C13 1_555 1_555
C8 C10 1_555 1_555
C11 C12 1_555 1_555
O4 Y1B_2 1_555 1_555
C14 C15 1_555 1_555
O5 C16 1_555 1_555
C16 O6 1_555 1_555
O6 Y2J_3 1_555 1_555
C6T C10T 1_555 1_555
C7T C13T 1_555 1_555
C11T C12T 1_555 1_555
C14T C15T 1_555 1_555
Y1A O2A 1_555 1_555
C7A C13A 1_555 1_555
C8A C10A 1_555 1_555
C11A C12A 1_555 1_555
C14A C15A 1_555 1_555
O5A C16A 1_555 1_555
C16A O6A 1_555 1_555
O6A Y2I 1_555 1_555
C6S C10S 1_555 1_555
C7S C13S 1_555 1_555
C11S C12S 1_555 1_555
C14S C15S 1_555 1_555
C7A_2 C13A_2 1_555 1_555
C8A_2 C10A_2 1_555 1_555
C11A_2 C12A_2 1_555 1_555
Y2A_2 O2A_3 1_555 1_555
C14A_2 C15A_2 1_555 1_555
O5A_2 C16A_2 1_555 1_555
C6S_2 C10S_2 1_555 1_555
C7S_2 C13S_2 1_555 1_555
C11S_2 C12S_2 1_555 1_555
C14S_2 C15S_2 1_555 1_555
C7A_3 C13A_3 1_555 1_555
C8A_3 C10A_3 1_555 1_555
C11A_3 C12A_3 1_555 1_555
C14A_3 C15A_3 1_555 1_555
O5A_3 Y1A_3 1_555 1_555
O6A_3 Y2I_3 1_555 1_555
C6S_3 C10S_3 1_555 1_555
C7S_3 C13S_3 1_555 1_555
C11S_3 C12S_3 1_555 1_555
C14S_3 C15S_3 1_555 1_555
O5S_3 Y1B_2 1_555 1_555
C16S_3 O6S_3 1_555 1_555
O6S_3 Y2J_3 1_555 1_555
C7B C13B 1_555 1_555
C8B C10B 1_555 1_555
C11B C12B 1_555 1_555
Y2B O2B_3 1_555 1_555
C14B C15B 1_555 1_555
O5B C16B 1_555 1_555
C6R C10R 1_555 1_555
C7R C13R 1_555 1_555
C11R C12R 1_555 1_555
C14R C15R 1_555 1_555
O5R C16R 1_555 1_555
C16R O6R 1_555 1_555
O6R Y2I 1_555 1_555
C7B_2 C13B_2 1_555 1_555
C8B_2 C10B_2 1_555 1_555
C11B_2 C12B_2 1_555 1_555
C14B_2 C15B_2 1_555 1_555
C6R_2 C10R_2 1_555 1_555
C7R_2 C13R_2 1_555 1_555
C11R_2 C12R_2 1_555 1_555
C14R_2 C15R_2 1_555 1_555
C16R_2 O6R_2 1_555 1_555
O6R_2 Y2I_2 1_555 1_555
Y1B_2 O2B 1_555 1_555
O2B_2 Y2B_4 1_555 1_555
O2B_2 Y2K_4 1_555 1_555
O2F Y1H_2 1_555 1_555
O4_2 Y1_2 1_555 1_555
O4_2 Y1B_5 1_555 1_555
Y1_2 O2A_3 1_555 1_555
Y1B_4 O2B_4 1_555 1_555
Y1G_2 O2G 1_555 1_555
Y1G_2 O4F 1_555 1_555
Y1H_2 O4F 1_555 1_555
Y1I O2J 1_555 1_555
Y1K O2I 1_555 1_555
Y1K_2 O2I_2 1_555 1_555
O2_2 Y2_3 1_555 1_555
O2_2 Y2J_2 1_555 1_555
O2A_3 Y2I_2 1_555 1_555
O2B_3 Y2K 1_555 1_555
O2B_4 Y2K_2 1_555 1_555
O2I Y2I 1_555 1_555
O2I_2 Y2I_2 1_555 1_555
O2I_3 Y2I_3 1_555 1_555
O2J Y2J_3 1_555 1_555
O2K Y2K 1_555 1_555
O2K_2 Y2K_2 1_555 1_555
Y2I O6I 1_555 1_555
Y2I O6P 1_555 1_555
Y2I_2 O6I_2 1_555 1_555
Y2I_2 O6P_2 1_555 1_555
Y2I_3 O6I_3 1_555 1_555
Y2I_3 O6P_3 1_555 1_555
Y2I_3 O6R_3 1_555 1_555
Y2J_3 O6J 1_555 1_555
Y2J_3 O6O 1_555 1_555
Y2K O6K 1_555 1_555
Y2K O6Q 1_555 1_555
Y2K O6T_2 1_555 1_555
Y2K_2 O6K_2 1_555 1_555
Y2K_2 O6Q_2 1_555 1_555
Y2K_2 O6T_3 1_555 1_555

#END
