
#######################################################################
#
#                 Cambridge Crystallographic Data Centre
#                                CCDC 
#
#######################################################################
#
# If this CIF has been generated from an entry in the Cambridge 
# Structural Database, then it will include bibliographic, chemical, 
# crystal, experimental, refinement or atomic coordinate data resulting 
# from the CCDC's data processing and validation procedures.
#
#######################################################################

data_LUYSEF
_chemical_formula_moiety         '(C28 H36 Eu2 N6 O18)n'
_chemical_name_systematic        
catena-[bis(\m-terephthalato)-tetrakis(N,N-dimethylformamide)-dinitrato-di-europium]
_symmetry_cell_setting           monoclinic
_symmetry_space_group_name_H-M   'P 21/c'
_symmetry_Int_Tables_number      14
_space_group_name_Hall           '-P 2ybc'
loop_
_symmetry_equiv_pos_site_id
_symmetry_equiv_pos_as_xyz
1 x,y,z
2 -x,1/2+y,1/2-z
3 -x,-y,-z
4 x,1/2-y,1/2+z
_cell_length_a                   17.6726(15)
_cell_length_b                   20.0232(17)
_cell_length_c                   10.5553(9)
_cell_angle_alpha                90
_cell_angle_beta                 91.129(4)
_cell_angle_gamma                90
_cell_volume                     3734.39
_exptl_crystal_colour            white
_exptl_crystal_description       block
_cell_formula_units_Z            4
loop_
_atom_site_label
_atom_site_type_symbol
_atom_site_fract_x
_atom_site_fract_y
_atom_site_fract_z
Eu1 Eu 0.49184(2) 0.48190(2) 0.75354(4)
Eu2 Eu 1.00007(2) 0.26563(2) 0.32222(3)
O1 O 0.4082(3) 0.4720(3) 0.9160(5)
O2 O 0.3998(3) 0.4975(3) 1.1203(5)
O3 O 0.1004(2) 0.2580(2) 0.9669(5)
O4 O 0.0800(3) 0.2975(3) 1.1612(5)
O5 O 0.5633(3) 0.4522(3) 0.5841(5)
O6 O 0.5967(3) 0.4657(3) 0.3847(5)
O7 O 0.9202(3) 0.2756(3) 0.4897(5)
O8 O 0.9064(3) 0.2887(3) 0.6977(5)
O9 O 0.4796(4) 0.5990(3) 0.8359(6)
O10 O 0.5531(3) 0.5877(3) 0.6784(6)
O11 O 0.5444(6) 0.6837(3) 0.7706(8)
O12 O 0.9846(3) 0.1455(3) 0.3965(5)
O13 O 1.0594(3) 0.1615(3) 0.2406(5)
O14 O 1.0309(4) 0.0602(3) 0.2975(7)
O15 O 0.4076(3) 0.3931(2) 0.6777(5)
O16 O 0.5386(3) 0.3773(3) 0.8338(5)
O17 O 1.0456(3) 0.3744(2) 0.3906(5)
O18 O 0.9204(3) 0.3479(3) 0.2245(5)
N1 N 0.5257(5) 0.6250(4) 0.7612(9)
N2 N 1.0248(4) 0.1206(3) 0.3118(7)
N3 N 0.3301(3) 0.3322(3) 0.5513(6)
N4 N 0.5575(4) 0.2836(3) 0.9471(7)
N5 N 1.1168(4) 0.4521(3) 0.4952(7)
N6 N 0.8707(4) 0.4195(3) 0.0810(6)
C1 C 0.1146(4) 0.2961(3) 1.0595(7)
C2 C 0.1796(3) 0.3438(3) 1.0466(7)
C3 C 0.2170(4) 0.3508(3) 0.9329(7)
H1 H 0.1996 0.3267 0.8606
C4 C 0.2784(4) 0.3918(3) 0.9231(7)
H2 H 0.3029 0.3964 0.8443
C5 C 0.3051(4) 0.4270(3) 1.0291(7)
C6 C 0.2676(4) 0.4213(3) 1.1416(7)
H3 H 0.2850 0.4456 1.2137
C7 C 0.2049(4) 0.3807(3) 1.1504(7)
H4 H 0.1788 0.3780 1.2281
C8 C 0.3757(4) 0.4691(3) 1.0210(7)
C9 C 0.6075(4) 0.4435(3) 0.4941(7)
C10 C 0.6778(4) 0.4024(3) 0.5182(7)
C11 C 0.7191(4) 0.3801(4) 0.4174(7)
H5 H 0.7026 0.3897 0.3332
C12 C 0.7847(4) 0.3435(4) 0.4386(7)
H6 H 0.8126 0.3274 0.3689
C13 C 0.8096(3) 0.3305(3) 0.5609(7)
C14 C 0.7683(4) 0.3522(4) 0.6605(7)
H7 H 0.7851 0.3422 0.7444
C15 C 0.7026(4) 0.3882(4) 0.6419(7)
H8 H 0.6745 0.4032 0.7123
C16 C 0.8846(4) 0.2953(3) 0.5852(8)
C17 C 0.3738(4) 0.3835(4) 0.5781(8)
H9 H 0.3795 0.4162 0.5137
C18 C 0.3192(6) 0.2796(4) 0.6394(9)
H10 H 0.3524 0.2864 0.7137
H11 H 0.3313 0.2368 0.5996
H12 H 0.2663 0.2792 0.6658
C19 C 0.2920(6) 0.3244(5) 0.4297(8)
H13 H 0.3168 0.2891 0.3815
H14 H 0.2944 0.3665 0.3827
H15 H 0.2390 0.3123 0.4426
C20 C 0.5167(5) 0.3290(4) 0.8891(9)
H16 H 0.4635 0.3229 0.8909
C21 C 0.5266(6) 0.2249(5) 1.0073(11)
H17 H 0.5440 0.2232 1.0959
H18 H 0.5437 0.1848 0.9630
H19 H 0.4712 0.2270 1.0036
C22 C 1.0897(5) 0.3906(4) 0.4755(8)
H20 H 1.1062 0.3567 0.5325
C23 C 1.1705(6) 0.4659(5) 0.6017(10)
H21 H 1.1841 0.4238 0.6439
H22 H 1.1466 0.4958 0.6626
H23 H 1.2162 0.4871 0.5692
C24 C 1.0943(7) 0.5053(5) 0.4139(12)
H24 H 1.1385 0.5224 0.3695
H25 H 1.0721 0.5412 0.4642
H26 H 1.0567 0.4890 0.3518
C25 C 0.9256(4) 0.3970(4) 0.1513(8)
H27 H 0.9730 0.4191 0.1473
C26 C 0.7982(5) 0.3853(6) 0.0756(10)
H28 H 0.7926 0.3620 -0.0057
H29 H 0.7573 0.4179 0.0840
H30 H 0.7959 0.3528 0.1449
C27 C 0.8816(5) 0.4744(4) -0.0080(8)
H31 H 0.9327 0.4927 0.0037
H32 H 0.8443 0.5095 0.0076
H33 H 0.8752 0.4578 -0.0949
C28 C 0.6337(8) 0.2991(8) 0.9829(18)
H34 H 0.6682 0.2696 0.9377
H35 H 0.6408 0.2927 1.0744
H36 H 0.6445 0.3457 0.9612
Eu1B Eu 0.50816(2) 0.51810(2) 0.24646(4)
Eu1B_2 Eu 0.50816(2) 0.51810(2) 1.24646(4)
Eu2_2 Eu 0.00007(2) 0.26563(2) 1.32222(3)
Eu2C Eu 0.00007(2) 0.23437(2) 0.82222(3)
Eu2C_2 Eu 1.00007(2) 0.23437(2) 0.82222(3)
O2B O 0.6002(3) 0.5025(3) 0.8797(5)
O3C O 1.1004(2) 0.2420(2) 0.4669(5)
O4_2 O 1.0800(3) 0.2975(3) 0.1612(5)
O6B O 0.4033(3) 0.5343(3) 0.6153(5)
O8C O 0.9064(3) 0.2113(3) 0.1977(5)
C29? C 0.6282(18) 0.2705(17) 0.877(4)
H37? H 0.6193 0.2347 0.8156
H38? H 0.6683 0.2569 0.9376
H39? H 0.6437 0.3111 0.8333
loop_
_geom_bond_atom_site_label_1
_geom_bond_atom_site_label_2
_geom_bond_site_symmetry_1
_geom_bond_site_symmetry_2
Eu1 O1 1_555 1_555
Eu2 O7 1_555 1_555
O1 C8 1_555 1_555
O2 C8 1_555 1_555
O3 C1 1_555 1_555
O4 C1 1_555 1_555
O5 Eu1 1_555 1_555
O6 C9 1_555 1_555
O7 C16 1_555 1_555
O8 C16 1_555 1_555
O9 Eu1 1_555 1_555
O10 Eu1 1_555 1_555
O11 N1 1_555 1_555
O12 Eu2 1_555 1_555
O13 Eu2 1_555 1_555
O14 N2 1_555 1_555
O15 Eu1 1_555 1_555
O16 Eu1 1_555 1_555
O17 Eu2 1_555 1_555
O18 Eu2 1_555 1_555
N1 O9 1_555 1_555
N2 O12 1_555 1_555
N3 C17 1_555 1_555
N4 C20 1_555 1_555
N5 C22 1_555 1_555
N6 C25 1_555 1_555
C1 C2 1_555 1_555
C2 C3 1_555 1_555
C3 H1 1_555 1_555
C4 C3 1_555 1_555
H2 C4 1_555 1_555
C5 C4 1_555 1_555
C6 C5 1_555 1_555
H3 C6 1_555 1_555
C7 C2 1_555 1_555
H4 C7 1_555 1_555
C8 C5 1_555 1_555
C9 O5 1_555 1_555
C10 C9 1_555 1_555
C11 C10 1_555 1_555
H5 C11 1_555 1_555
C12 C11 1_555 1_555
H6 C12 1_555 1_555
C13 C12 1_555 1_555
C14 C13 1_555 1_555
H7 C14 1_555 1_555
C15 C10 1_555 1_555
H8 C15 1_555 1_555
C16 C13 1_555 1_555
C17 O15 1_555 1_555
H9 C17 1_555 1_555
C18 N3 1_555 1_555
H10 C18 1_555 1_555
H11 C18 1_555 1_555
H12 C18 1_555 1_555
C19 N3 1_555 1_555
H13 C19 1_555 1_555
H14 C19 1_555 1_555
H15 C19 1_555 1_555
C20 O16 1_555 1_555
H16 C20 1_555 1_555
C21 N4 1_555 1_555
H17 C21 1_555 1_555
H18 C21 1_555 1_555
H19 C21 1_555 1_555
C22 O17 1_555 1_555
H20 C22 1_555 1_555
C23 N5 1_555 1_555
H21 C23 1_555 1_555
H22 C23 1_555 1_555
H23 C23 1_555 1_555
C24 N5 1_555 1_555
H24 C24 1_555 1_555
H25 C24 1_555 1_555
H26 C24 1_555 1_555
C25 O18 1_555 1_555
H27 C25 1_555 1_555
C26 N6 1_555 1_555
H28 C26 1_555 1_555
H29 C26 1_555 1_555
H30 C26 1_555 1_555
C27 N6 1_555 1_555
H31 C27 1_555 1_555
H32 C27 1_555 1_555
H33 C27 1_555 1_555
C28 N4 1_555 1_555
H34 C28 1_555 1_555
H35 C28 1_555 1_555
H36 C28 1_555 1_555
Eu1B O6 1_555 1_555
Eu1B_2 O2 1_555 1_555
Eu2_2 O4 1_555 1_555
Eu2C O3 1_555 1_555
Eu2C_2 O8 1_555 1_555
O2B Eu1 1_555 1_555
O3C Eu2 1_555 1_555
O4_2 Eu2 1_555 1_555
O6B Eu1 1_555 1_555
O8C Eu2 1_555 1_555
O10 N1 1_555 1_555
O13 N2 1_555 1_555
C6 C7 1_555 1_555
C14 C15 1_555 1_555

#END
