
#######################################################################
#
#                 Cambridge Crystallographic Data Centre
#                                CCDC 
#
#######################################################################
#
# If this CIF has been generated from an entry in the Cambridge 
# Structural Database, then it will include bibliographic, chemical, 
# crystal, experimental, refinement or atomic coordinate data resulting 
# from the CCDC's data processing and validation procedures.
#
#######################################################################

data_CUWHUZ
_chemical_formula_moiety         
'(C195 H99 N24 O54 Tb6 9-)n,6(C3 H7 N1 O1),12(C2 H8 N1 1+),24(H2 O1),3(C1 O2 1-)'
_chemical_name_systematic        
"catena-[dodecakis(dimethylammonium) octakis(\m~3~-4,4',4''-(1,3,5-triazine-2,4,6-triyl)tribenzoato)-tris(\m~2~-formato)-hexa-terbium tris(formate) N,N-dimethylformamide solvate tetracosahydrate]"
_symmetry_cell_setting           cubic
_symmetry_space_group_name_H-M   'I m -3'
_symmetry_Int_Tables_number      204
_space_group_name_Hall           '-I 2 2 3'
loop_
_symmetry_equiv_pos_site_id
_symmetry_equiv_pos_as_xyz
1 x,y,z
2 -x,-y,z
3 -x,y,-z
4 x,-y,-z
5 z,x,y
6 z,-x,-y
7 -z,-x,y
8 -z,x,-y
9 y,z,x
10 -y,z,-x
11 y,-z,-x
12 -y,-z,x
13 1/2+x,1/2+y,1/2+z
14 1/2-x,1/2-y,1/2+z
15 1/2-x,1/2+y,1/2-z
16 1/2+x,1/2-y,1/2-z
17 1/2+z,1/2+x,1/2+y
18 1/2+z,1/2-x,1/2-y
19 1/2-z,1/2-x,1/2+y
20 1/2-z,1/2+x,1/2-y
21 1/2+y,1/2+z,1/2+x
22 1/2-y,1/2+z,1/2-x
23 1/2+y,1/2-z,1/2-x
24 1/2-y,1/2-z,1/2+x
25 -x,-y,-z
26 x,y,-z
27 x,-y,z
28 -x,y,z
29 -z,-x,-y
30 -z,x,y
31 z,x,-y
32 z,-x,y
33 -y,-z,-x
34 y,-z,x
35 -y,z,x
36 y,z,-x
37 1/2-x,1/2-y,1/2-z
38 1/2+x,1/2+y,1/2-z
39 1/2+x,1/2-y,1/2+z
40 1/2-x,1/2+y,1/2+z
41 1/2-z,1/2-x,1/2-y
42 1/2-z,1/2+x,1/2+y
43 1/2+z,1/2+x,1/2-y
44 1/2+z,1/2-x,1/2+y
45 1/2-y,1/2-z,1/2-x
46 1/2+y,1/2-z,1/2+x
47 1/2-y,1/2+z,1/2+x
48 1/2+y,1/2+z,1/2-x
_cell_length_a                   26.7264(13)
_cell_length_b                   26.7264(13)
_cell_length_c                   26.7264(13)
_cell_angle_alpha                90
_cell_angle_beta                 90
_cell_angle_gamma                90
_cell_volume                     19090.7
_exptl_crystal_colour            colorless
_exptl_crystal_description       Prism
_cell_formula_units_Z            2
loop_
_atom_site_label
_atom_site_type_symbol
_atom_site_fract_x
_atom_site_fract_y
_atom_site_fract_z
N2 N 0.0000 0.3275(5) 0.5000
C10 C 0.0392(14) 0.3677(9) 0.5000
C10B C -0.0392(14) 0.3677(9) 0.5000
O4 O 0.3726(2) 0.3726(2) 0.3726(2)
O5 O 0.2549(16) 0.5000 0.3669(15)
N3 N 0.1612(11) 0.5000 0.5000
C11 C 0.1285(14) 0.4507(16) 0.5000
C11C C 0.1285(14) 0.5493(16) 0.5000
O6 O 0.1625(10) 0.3197(11) 0.5000
N4 N 0.1916(10) 0.2394(10) 0.5000
C12 C 0.1541(12) 0.2731(10) 0.5000
C13 C 0.1912(15) 0.1862(10) 0.5000
C14 C 0.2393(13) 0.2629(16) 0.5000
Tb1 Tb 0.0000 0.5000 0.372971(15)
O1 O 0.0573(5) 0.4281(5) 0.3938(3)
O2 O 0.0369(3) 0.4318(3) 0.3202(3)
O3 O 0.0000 0.5000 0.4577(2)
C1 C 0.0741(2) 0.4303(2) 0.3505(2)
C2 C 0.0175(7) 0.5000 0.5000
C3 C 0.1190(2) 0.3984(2) 0.3383(2)
C4 C 0.1378(3) 0.3994(3) 0.2905(3)
C5 C 0.1420(2) 0.3689(3) 0.3728(2)
H1 H 0.1218 0.4182 0.2660
C6 C 0.1802(3) 0.3725(3) 0.2785(3)
C7 C 0.1839(3) 0.3404(3) 0.3611(2)
H2 H 0.1292 0.3677 0.4052
H3 H 0.1932 0.3745 0.2463
C8 C 0.2032(2) 0.3431(3) 0.3128(2)
H4 H 0.1987 0.3199 0.3850
C9 C 0.2471(2) 0.3131(3) 0.2989(2)
N1 N 0.2734(2) 0.3279(2) 0.2588(2)
O1Z O 0.0573(5) 0.5719(5) 0.3938(3)
O2Z O 0.0369(3) 0.5682(3) 0.3202(3)
O1A O -0.0573(5) 0.5719(5) 0.3938(3)
O2A O -0.0369(3) 0.5682(3) 0.3202(3)
O1AA O -0.0573(5) 0.4281(5) 0.3938(3)
O2AA O -0.0369(3) 0.4318(3) 0.3202(3)
C2A C -0.0175(7) 0.5000 0.5000
C1Z C 0.0741(2) 0.5697(2) 0.3505(2)
C1A C -0.0741(2) 0.5697(2) 0.3505(2)
O3B O 0.0000 0.5000 0.5423(2)
C3Z C 0.1190(2) 0.6016(2) 0.3383(2)
C3A C -0.1190(2) 0.6016(2) 0.3383(2)
Tb1B Tb 0.0000 0.5000 0.627029(15)
C4Z C 0.1378(3) 0.6006(3) 0.2905(3)
C5Z C 0.1420(2) 0.6311(3) 0.3728(2)
C4A C -0.1378(3) 0.6006(3) 0.2905(3)
C5A C -0.1420(2) 0.6311(3) 0.3728(2)
O1C O 0.0573(5) 0.5719(5) 0.6062(3)
O2C O 0.0369(3) 0.5682(3) 0.6798(3)
O1X O -0.0573(5) 0.5719(5) 0.6062(3)
O2X O -0.0369(3) 0.5682(3) 0.6798(3)
O1Y O 0.0573(5) 0.4281(5) 0.6062(3)
O2Y O 0.0369(3) 0.4318(3) 0.6798(3)
O1B O -0.0573(5) 0.4281(5) 0.6062(3)
O2B O -0.0369(3) 0.4318(3) 0.6798(3)
H1Z H 0.1218 0.5818 0.2660
C6Z C 0.1802(3) 0.6275(3) 0.2785(3)
C7Z C 0.1839(3) 0.6596(3) 0.3611(2)
H2Z H 0.1292 0.6323 0.4052
H1A H -0.1218 0.5818 0.2660
C6A C -0.1802(3) 0.6275(3) 0.2785(3)
C7A C -0.1839(3) 0.6596(3) 0.3611(2)
H2A H -0.1292 0.6323 0.4052
C1C C 0.0741(2) 0.5697(2) 0.6495(2)
C1X C -0.0741(2) 0.5697(2) 0.6495(2)
C1Y C 0.0741(2) 0.4303(2) 0.6495(2)
H3Z H 0.1932 0.6255 0.2463
C8Z C 0.2032(2) 0.6569(3) 0.3128(2)
H4Z H 0.1987 0.6801 0.3850
H3A H -0.1932 0.6255 0.2463
C8A C -0.2032(2) 0.6569(3) 0.3128(2)
H4A H -0.1987 0.6801 0.3850
C3C C 0.1190(2) 0.6016(2) 0.6617(2)
C3X C -0.1190(2) 0.6016(2) 0.6617(2)
C3Y C 0.1190(2) 0.3984(2) 0.6617(2)
C9Z C 0.2471(2) 0.6869(3) 0.2989(2)
C9A C -0.2471(2) 0.6869(3) 0.2989(2)
N1D N 0.2588(2) 0.2734(2) 0.3279(2)
C4C C 0.1378(3) 0.6006(3) 0.7095(3)
C5C C 0.1420(2) 0.6311(3) 0.6272(2)
C4X C -0.1378(3) 0.6006(3) 0.7095(3)
C5X C -0.1420(2) 0.6311(3) 0.6272(2)
C4Y C 0.1378(3) 0.3994(3) 0.7095(3)
C5Y C 0.1420(2) 0.3689(3) 0.6272(2)
N1Z N 0.2734(2) 0.6721(2) 0.2588(2)
N1EA N 0.2588(2) 0.7266(2) 0.3279(2)
N1A N -0.2734(2) 0.6721(2) 0.2588(2)
N1F N -0.2588(2) 0.7266(2) 0.3279(2)
C9H C 0.3131(3) 0.2989(2) 0.2471(2)
C9D C 0.2989(2) 0.2471(2) 0.3131(3)
H1C H 0.1218 0.5818 0.7340
C6C C 0.1802(3) 0.6275(3) 0.7215(3)
C7C C 0.1839(3) 0.6596(3) 0.6389(2)
H2C H 0.1292 0.6323 0.5948
H1X H -0.1218 0.5818 0.7340
C6X C -0.1802(3) 0.6275(3) 0.7215(3)
C7X C -0.1839(3) 0.6596(3) 0.6389(2)
H2X H -0.1292 0.6323 0.5948
H1Y H 0.1218 0.4182 0.7340
C6Y C 0.1802(3) 0.3725(3) 0.7215(3)
C7Y C 0.1839(3) 0.3404(3) 0.6389(2)
H2Y H 0.1292 0.3677 0.5948
C9GA C 0.3131(3) 0.7011(2) 0.2471(2)
C9EA C 0.2989(2) 0.7529(2) 0.3131(3)
C9K C -0.3131(3) 0.7011(2) 0.2471(2)
C9F C -0.2989(2) 0.7529(2) 0.3131(3)
N1H N 0.3279(2) 0.2588(2) 0.2734(2)
C8H C 0.3431(3) 0.3128(2) 0.2032(2)
C8D C 0.3128(2) 0.2032(2) 0.3431(3)
H3C H 0.1932 0.6255 0.7537
C8C C 0.2032(2) 0.6569(3) 0.6872(2)
H4C H 0.1987 0.6801 0.6150
H3X H -0.1932 0.6255 0.7537
C8X C -0.2032(2) 0.6569(3) 0.6872(2)
H4X H -0.1987 0.6801 0.6150
H3Y H 0.1932 0.3745 0.7537
C8Y C 0.2032(2) 0.3431(3) 0.6872(2)
H4Y H 0.1987 0.3199 0.6150
N1GA N 0.3279(2) 0.7412(2) 0.2734(2)
C8GA C 0.3431(3) 0.6872(2) 0.2032(2)
C8EA C 0.3128(2) 0.7968(2) 0.3431(3)
N1K N -0.3279(2) 0.7412(2) 0.2734(2)
C8K C -0.3431(3) 0.6872(2) 0.2032(2)
C8F C -0.3128(2) 0.7968(2) 0.3431(3)
C6H C 0.3725(3) 0.2785(3) 0.1802(3)
C7H C 0.3404(3) 0.3611(2) 0.1839(3)
C6D C 0.2785(3) 0.1802(3) 0.3725(3)
C7D C 0.3611(2) 0.1839(3) 0.3404(3)
C9C C 0.2471(2) 0.6869(3) 0.7011(2)
C9X C -0.2471(2) 0.6869(3) 0.7011(2)
C9Y C 0.2471(2) 0.3131(3) 0.7011(2)
C6GA C 0.3725(3) 0.7215(3) 0.1802(3)
C7GA C 0.3404(3) 0.6389(2) 0.1839(3)
C6EA C 0.2785(3) 0.8198(3) 0.3725(3)
C7EA C 0.3611(2) 0.8161(3) 0.3404(3)
C6K C -0.3725(3) 0.7215(3) 0.1802(3)
C7K C -0.3404(3) 0.6389(2) 0.1839(3)
C6F C -0.2785(3) 0.8198(3) 0.3725(3)
C7F C -0.3611(2) 0.8161(3) 0.3404(3)
C4H C 0.3994(3) 0.2905(3) 0.1378(3)
H3H H 0.3745 0.2463 0.1932
H4H H 0.3199 0.3850 0.1987
C5H C 0.3689(3) 0.3728(2) 0.1420(2)
C4D C 0.2905(3) 0.1378(3) 0.3994(3)
H3D H 0.2463 0.1932 0.3745
H4D H 0.3850 0.1987 0.3199
C5D C 0.3728(2) 0.1420(2) 0.3689(3)
N1C N 0.2734(2) 0.6721(2) 0.7412(2)
N1E N 0.2588(2) 0.7266(2) 0.6721(2)
N1X N -0.2734(2) 0.6721(2) 0.7412(2)
N1BA N -0.2588(2) 0.7266(2) 0.6721(2)
N1Y N 0.2734(2) 0.3279(2) 0.7412(2)
N1DA N 0.2588(2) 0.2734(2) 0.6721(2)
C4GA C 0.3994(3) 0.7095(3) 0.1378(3)
H3GA H 0.3745 0.7537 0.1932
H4GA H 0.3199 0.6150 0.1987
C5GA C 0.3689(3) 0.6272(2) 0.1420(2)
C4EA C 0.2905(3) 0.8622(3) 0.3994(3)
H3EA H 0.2463 0.8068 0.3745
H4EA H 0.3850 0.8013 0.3199
C5EA C 0.3728(2) 0.8580(2) 0.3689(3)
C4K C -0.3994(3) 0.7095(3) 0.1378(3)
H3K H -0.3745 0.7537 0.1932
H4K H -0.3199 0.6150 0.1987
C5K C -0.3689(3) 0.6272(2) 0.1420(2)
C4F C -0.2905(3) 0.8622(3) 0.3994(3)
H3F H -0.2463 0.8068 0.3745
H4F H -0.3850 0.8013 0.3199
C5F C -0.3728(2) 0.8580(2) 0.3689(3)
C3H C 0.3984(2) 0.3383(2) 0.1190(2)
H1H H 0.4182 0.2660 0.1218
H2H H 0.3677 0.4052 0.1292
C3D C 0.3383(2) 0.1190(2) 0.3984(2)
H1D H 0.2660 0.1218 0.4182
H2D H 0.4052 0.1292 0.3677
C9J C 0.3131(3) 0.7011(2) 0.7529(2)
C9E C 0.2989(2) 0.7529(2) 0.6869(3)
C9FA C -0.3131(3) 0.7011(2) 0.7529(2)
C9BA C -0.2989(2) 0.7529(2) 0.6869(3)
C9IA C 0.3131(3) 0.2989(2) 0.7529(2)
C9DA C 0.2989(2) 0.2471(2) 0.6869(3)
C3GA C 0.3984(2) 0.6617(2) 0.1190(2)
H1GA H 0.4182 0.7340 0.1218
H2GA H 0.3677 0.5948 0.1292
C3EA C 0.3383(2) 0.8810(2) 0.3984(2)
H1EA H 0.2660 0.8782 0.4182
H2EA H 0.4052 0.8708 0.3677
C3K C -0.3984(2) 0.6617(2) 0.1190(2)
H1K H -0.4182 0.7340 0.1218
H2K H -0.3677 0.5948 0.1292
C3F C -0.3383(2) 0.8810(2) 0.3984(2)
H1F H -0.2660 0.8782 0.4182
H2F H -0.4052 0.8708 0.3677
C1H C 0.4303(2) 0.3505(2) 0.0741(2)
C1D C 0.3505(2) 0.0741(2) 0.4303(2)
N1J N 0.3279(2) 0.7412(2) 0.7266(2)
C8J C 0.3431(3) 0.6872(2) 0.7968(2)
C8E C 0.3128(2) 0.7968(2) 0.6569(3)
N1FA N -0.3279(2) 0.7412(2) 0.7266(2)
C8FA C -0.3431(3) 0.6872(2) 0.7968(2)
C8BA C -0.3128(2) 0.7968(2) 0.6569(3)
N1IA N 0.3279(2) 0.2588(2) 0.7266(2)
C8IA C 0.3431(3) 0.3128(2) 0.7968(2)
C8DA C 0.3128(2) 0.2032(2) 0.6569(3)
C1GA C 0.4303(2) 0.6495(2) 0.0741(2)
C1EA C 0.3505(2) 0.9259(2) 0.4303(2)
C1K C -0.4303(2) 0.6495(2) 0.0741(2)
C1F C -0.3505(2) 0.9259(2) 0.4303(2)
O1H O 0.4281(5) 0.3938(3) 0.0573(5)
O2H O 0.4318(3) 0.3202(3) 0.0369(3)
O1D O 0.3938(3) 0.0573(5) 0.4281(5)
O2D O 0.3202(3) 0.0369(3) 0.4318(3)
C6J C 0.3725(3) 0.7215(3) 0.8198(3)
C7J C 0.3404(3) 0.6389(2) 0.8161(3)
C6E C 0.2785(3) 0.8198(3) 0.6275(3)
C7E C 0.3611(2) 0.8161(3) 0.6596(3)
C6FA C -0.3725(3) 0.7215(3) 0.8198(3)
C7FA C -0.3404(3) 0.6389(2) 0.8161(3)
C6BA C -0.2785(3) 0.8198(3) 0.6275(3)
C7BA C -0.3611(2) 0.8161(3) 0.6596(3)
C6IA C 0.3725(3) 0.2785(3) 0.8198(3)
C7IA C 0.3404(3) 0.3611(2) 0.8161(3)
C6DA C 0.2785(3) 0.1802(3) 0.6275(3)
C7DA C 0.3611(2) 0.1839(3) 0.6596(3)
O1GA O 0.4281(5) 0.6062(3) 0.0573(5)
O2GA O 0.4318(3) 0.6798(3) 0.0369(3)
O1EA O 0.3938(3) 0.9427(5) 0.4281(5)
O2EA O 0.3202(3) 0.9631(3) 0.4318(3)
O1K O -0.4281(5) 0.6062(3) 0.0573(5)
O2K O -0.4318(3) 0.6798(3) 0.0369(3)
O1F O -0.3938(3) 0.9427(5) 0.4281(5)
O2F O -0.3202(3) 0.9631(3) 0.4318(3)
Tb1H Tb 0.5000 0.372971(15) 0.0000
Tb1D Tb 0.372971(15) 0.0000 0.5000
C4J C 0.3994(3) 0.7095(3) 0.8622(3)
H3J H 0.3745 0.7537 0.8068
H4J H 0.3199 0.6150 0.8013
C5J C 0.3689(3) 0.6272(2) 0.8580(2)
C4E C 0.2905(3) 0.8622(3) 0.6006(3)
H3E H 0.2463 0.8068 0.6255
H4E H 0.3850 0.8013 0.6801
C5E C 0.3728(2) 0.8580(2) 0.6311(3)
C4FA C -0.3994(3) 0.7095(3) 0.8622(3)
H3FA H -0.3745 0.7537 0.8068
H4FA H -0.3199 0.6150 0.8013
C5FA C -0.3689(3) 0.6272(2) 0.8580(2)
C4BA C -0.2905(3) 0.8622(3) 0.6006(3)
H3BA H -0.2463 0.8068 0.6255
H4BA H -0.3850 0.8013 0.6801
C5BA C -0.3728(2) 0.8580(2) 0.6311(3)
C4IA C 0.3994(3) 0.2905(3) 0.8622(3)
H3IA H 0.3745 0.2463 0.8068
H4IA H 0.3199 0.3850 0.8013
C5IA C 0.3689(3) 0.3728(2) 0.8580(2)
C4DA C 0.2905(3) 0.1378(3) 0.6006(3)
H3DA H 0.2463 0.1932 0.6255
H4DA H 0.3850 0.1987 0.6801
C5DA C 0.3728(2) 0.1420(2) 0.6311(3)
Tb1J Tb 0.5000 0.627029(15) 0.0000
Tb1D_2 Tb 0.372971(15) 1.0000 0.5000
Tb1J_2 Tb -0.5000 0.627029(15) 0.0000
Tb1F Tb -0.372971(15) 1.0000 0.5000
O3D O 0.4577(2) 0.0000 0.5000
O1DA O 0.3938(3) 0.0573(5) 0.5719(5)
O2DA O 0.3202(3) 0.0369(3) 0.5682(3)
O1EA_2 O 0.3938(3) -0.0573(5) 0.4281(5)
O2EA_2 O 0.3202(3) -0.0369(3) 0.4318(3)
O1E O 0.3938(3) -0.0573(5) 0.5719(5)
O2E O 0.3202(3) -0.0369(3) 0.5682(3)
C3J C 0.3984(2) 0.6617(2) 0.8810(2)
H1J H 0.4182 0.7340 0.8782
H2J H 0.3677 0.5948 0.8708
C3E C 0.3383(2) 0.8810(2) 0.6016(2)
H1E H 0.2660 0.8782 0.5818
H2E H 0.4052 0.8708 0.6323
C3FA C -0.3984(2) 0.6617(2) 0.8810(2)
H1FA H -0.4182 0.7340 0.8782
H2FA H -0.3677 0.5948 0.8708
C3BA C -0.3383(2) 0.8810(2) 0.6016(2)
H1BA H -0.2660 0.8782 0.5818
H2BA H -0.4052 0.8708 0.6323
C3IA C 0.3984(2) 0.3383(2) 0.8810(2)
H1IA H 0.4182 0.2660 0.8782
H2IA H 0.3677 0.4052 0.8708
C3DA C 0.3383(2) 0.1190(2) 0.6016(2)
H1DA H 0.2660 0.1218 0.5818
H2DA H 0.4052 0.1292 0.6323
O1J O 0.4281(5) 0.6062(3) -0.0573(5)
O1K_2 O 0.5719(5) 0.6062(3) 0.0573(5)
O1FA O 0.5719(5) 0.6062(3) -0.0573(5)
O2J O 0.4318(3) 0.6798(3) -0.0369(3)
O2K_2 O 0.5682(3) 0.6798(3) 0.0369(3)
O2FA O 0.5682(3) 0.6798(3) -0.0369(3)
O3J O 0.5000 0.5423(2) 0.0000
O1E_2 O 0.3938(3) 0.9427(5) 0.5719(5)
O2E_2 O 0.3202(3) 0.9631(3) 0.5682(3)
O3D_2 O 0.4577(2) 1.0000 0.5000
O1D_2 O 0.3938(3) 1.0573(5) 0.4281(5)
O1DA_2 O 0.3938(3) 1.0573(5) 0.5719(5)
O2D_2 O 0.3202(3) 1.0369(3) 0.4318(3)
O2DA_2 O 0.3202(3) 1.0369(3) 0.5682(3)
O1BA O -0.3938(3) 0.9427(5) 0.5719(5)
O2BA O -0.3202(3) 0.9631(3) 0.5682(3)
C2D C 0.5000 0.0175(7) 0.5000
C2E C 0.5000 -0.0175(7) 0.5000
C1DA C 0.3505(2) 0.0741(2) 0.5697(2)
C1EA_2 C 0.3505(2) -0.0741(2) 0.4303(2)
C1J C 0.4303(2) 0.6495(2) 0.9259(2)
C1E C 0.3505(2) 0.9259(2) 0.5697(2)
C1FA C -0.4303(2) 0.6495(2) 0.9259(2)
C1BA C -0.3505(2) 0.9259(2) 0.5697(2)
C1IA C 0.4303(2) 0.3505(2) 0.9259(2)
C2E_2 C 0.5000 0.9825(7) 0.5000
C2D_2 C 0.5000 1.0175(7) 0.5000
O3F O 0.5423(2) 0.0000 0.5000
C3EA_2 C 0.3383(2) -0.1190(2) 0.3984(2)
O1J_2 O 0.4281(5) 0.6062(3) 0.9427(5)
O2J_2 O 0.4318(3) 0.6798(3) 0.9631(3)
O1FA_2 O -0.4281(5) 0.6062(3) 0.9427(5)
O2FA_2 O -0.4318(3) 0.6798(3) 0.9631(3)
O1IA O 0.4281(5) 0.3938(3) 0.9427(5)
O2IA O 0.4318(3) 0.3202(3) 0.9631(3)
O3F_2 O 0.5423(2) 1.0000 0.5000
Tb1F_2 Tb 0.627029(15) 0.0000 0.5000
C4EA_2 C 0.2905(3) -0.1378(3) 0.3994(3)
C5EA_2 C 0.3728(2) -0.1420(2) 0.3689(3)
Tb1J_3 Tb 0.5000 0.627029(15) 1.0000
Tb1J_4 Tb -0.5000 0.627029(15) 1.0000
Tb1H_2 Tb 0.5000 0.372971(15) 1.0000
Tb1F_3 Tb 0.627029(15) 1.0000 0.5000
O1G O 0.6062(3) 0.0573(5) 0.5719(5)
O2G O 0.6798(3) 0.0369(3) 0.5682(3)
O1F_2 O 0.6062(3) -0.0573(5) 0.4281(5)
O1BA_2 O 0.6062(3) -0.0573(5) 0.5719(5)
O1CA O 0.6062(3) 0.0573(5) 0.4281(5)
O2F_2 O 0.6798(3) -0.0369(3) 0.4318(3)
O2BA_2 O 0.6798(3) -0.0369(3) 0.5682(3)
O2CA O 0.6798(3) 0.0369(3) 0.4318(3)
H1EA_2 H 0.2660 -0.1218 0.4182
C6EA_2 C 0.2785(3) -0.1802(3) 0.3725(3)
C7EA_2 C 0.3611(2) -0.1839(3) 0.3404(3)
H2EA_2 H 0.4052 -0.1292 0.3677
O1I O 0.5719(5) 0.3938(3) 0.9427(5)
O2I O 0.5682(3) 0.3202(3) 0.9631(3)
C1G C 0.6495(2) 0.0741(2) 0.5697(2)
H3EA_2 H 0.2463 -0.1932 0.3745
C8EA_2 C 0.3128(2) -0.2032(2) 0.3431(3)
H4EA_2 H 0.3850 -0.1987 0.3199
C1I C 0.5697(2) 0.3505(2) 0.9259(2)
C3G C 0.6617(2) 0.1190(2) 0.6016(2)
C9EA_2 C 0.2989(2) -0.2471(2) 0.3131(3)
C3I C 0.6016(2) 0.3383(2) 0.8810(2)
C4G C 0.7095(3) 0.1378(3) 0.6006(3)
C5G C 0.6272(2) 0.1420(2) 0.6311(3)
N1EA_2 N 0.2588(2) -0.2734(2) 0.3279(2)
N1GA_2 N 0.3279(2) -0.2588(2) 0.2734(2)
C4I C 0.6006(3) 0.2905(3) 0.8622(3)
C5I C 0.6311(3) 0.3728(2) 0.8580(2)
H1G H 0.7340 0.1218 0.5818
C6G C 0.7215(3) 0.1802(3) 0.6275(3)
C7G C 0.6389(2) 0.1839(3) 0.6596(3)
H2G H 0.5948 0.1292 0.6323
C9Z_2 C 0.2471(2) -0.3131(3) 0.2989(2)
C9GA_2 C 0.3131(3) -0.2989(2) 0.2471(2)
H1I H 0.5818 0.2660 0.8782
C6I C 0.6275(3) 0.2785(3) 0.8198(3)
C7I C 0.6596(3) 0.3611(2) 0.8161(3)
H2I H 0.6323 0.4052 0.8708
H3G H 0.7537 0.1932 0.6255
C8G C 0.6872(2) 0.2032(2) 0.6569(3)
H4G H 0.6150 0.1987 0.6801
N1Z_2 N 0.2734(2) -0.3279(2) 0.2588(2)
C8Z_2 C 0.2032(2) -0.3431(3) 0.3128(2)
C8GA_2 C 0.3431(3) -0.3128(2) 0.2032(2)
H3I H 0.6255 0.2463 0.8068
C8I C 0.6569(3) 0.3128(2) 0.7968(2)
H4I H 0.6801 0.3850 0.8013
C9G C 0.7011(2) 0.2471(2) 0.6869(3)
C6Z_2 C 0.1802(3) -0.3725(3) 0.2785(3)
C7Z_2 C 0.1839(3) -0.3404(3) 0.3611(2)
C6GA_2 C 0.3725(3) -0.2785(3) 0.1802(3)
C7GA_2 C 0.3404(3) -0.3611(2) 0.1839(3)
C9I C 0.6869(3) 0.2989(2) 0.7529(2)
N1G N 0.7412(2) 0.2734(2) 0.6721(2)
N1I N 0.6721(2) 0.2588(2) 0.7266(2)
C4Z_2 C 0.1378(3) -0.3994(3) 0.2905(3)
H3Z_2 H 0.1932 -0.3745 0.2463
H4Z_2 H 0.1987 -0.3199 0.3850
C5Z_2 C 0.1420(2) -0.3689(3) 0.3728(2)
C4GA_2 C 0.3994(3) -0.2905(3) 0.1378(3)
H3GA_2 H 0.3745 -0.2463 0.1932
H4GA_2 H 0.3199 -0.3850 0.1987
C5GA_2 C 0.3689(3) -0.3728(2) 0.1420(2)
N1B N 0.7266(2) 0.3279(2) 0.7412(2)
C9B C 0.7529(2) 0.3131(3) 0.7011(2)
C3Z_2 C 0.1190(2) -0.3984(2) 0.3383(2)
H1Z_2 H 0.1218 -0.4182 0.2660
H2Z_2 H 0.1292 -0.3677 0.4052
C3GA_2 C 0.3984(2) -0.3383(2) 0.1190(2)
H1GA_2 H 0.4182 -0.2660 0.1218
H2GA_2 H 0.3677 -0.4052 0.1292
C8B C 0.7968(2) 0.3431(3) 0.6872(2)
C1Z_2 C 0.0741(2) -0.4303(2) 0.3505(2)
C1GA_2 C 0.4303(2) -0.3505(2) 0.0741(2)
C6B C 0.8198(3) 0.3725(3) 0.7215(3)
C7B C 0.8161(3) 0.3404(3) 0.6389(2)
O1Z_2 O 0.0573(5) -0.4281(5) 0.3938(3)
O2Z_2 O 0.0369(3) -0.4318(3) 0.3202(3)
O1GA_2 O 0.4281(5) -0.3938(3) 0.0573(5)
O2GA_2 O 0.4318(3) -0.3202(3) 0.0369(3)
C4B C 0.8622(3) 0.3994(3) 0.7095(3)
H3B H 0.8068 0.3745 0.7537
H4B H 0.8013 0.3199 0.6150
C5B C 0.8580(2) 0.3689(3) 0.6272(2)
Tb1_2 Tb 0.0000 -0.5000 0.372971(15)
Tb1J_5 Tb 0.5000 -0.372971(15) 0.0000
C3B C 0.8810(2) 0.3984(2) 0.6617(2)
H1B H 0.8782 0.4182 0.7340
H2B H 0.8708 0.3677 0.5948
C1B C 0.9259(2) 0.4303(2) 0.6495(2)
O1B_2 O 0.9427(5) 0.4281(5) 0.6062(3)
O2B_2 O 0.9631(3) 0.4318(3) 0.6798(3)
Tb1B_2 Tb 1.0000 0.5000 0.627029(15)
O7? O 0.0679(6) 0.4453(4) 0.3940(2)
O8? O 0.0668(3) 0.4674(3) 0.3205(3)
C15? C 0.0000 0.2997(11) 0.4538(11)
C16? C 0.186(2) 0.5000 0.449(2)
loop_
_geom_bond_atom_site_label_1
_geom_bond_atom_site_label_2
_geom_bond_site_symmetry_1
_geom_bond_site_symmetry_2
Tb1 O1 1_555 1_555
O1 C1 1_555 1_555
O2 Tb1 1_555 1_555
O3 Tb1 1_555 1_555
C1 O2 1_555 1_555
C2 O3 1_555 1_555
C3 C1 1_555 1_555
C4 C3 1_555 1_555
C5 C3 1_555 1_555
H1 C4 1_555 1_555
C6 C4 1_555 1_555
C7 C5 1_555 1_555
H2 C5 1_555 1_555
H3 C6 1_555 1_555
C8 C6 1_555 1_555
H4 C7 1_555 1_555
C9 C8 1_555 1_555
N1 C9 1_555 1_555
N2 C10 1_555 1_555
N3 C11 1_555 1_555
O6 C12 1_555 1_555
N4 C12 1_555 1_555
C13 N4 1_555 1_555
C14 N4 1_555 1_555
O1Z Tb1 1_555 1_555
O2Z Tb1 1_555 1_555
O1A Tb1 1_555 1_555
O2A Tb1 1_555 1_555
O1AA Tb1 1_555 1_555
O2AA Tb1 1_555 1_555
C2A O3 1_555 1_555
C1Z O1Z 1_555 1_555
C1A O1A 1_555 1_555
O3B C2 1_555 1_555
C3Z C1Z 1_555 1_555
C3A C1A 1_555 1_555
Tb1B O3B 1_555 1_555
C4Z C3Z 1_555 1_555
C5Z C3Z 1_555 1_555
C4A C3A 1_555 1_555
C5A C3A 1_555 1_555
O1C Tb1B 1_555 1_555
O2C Tb1B 1_555 1_555
O1X Tb1B 1_555 1_555
O2X Tb1B 1_555 1_555
O1Y Tb1B 1_555 1_555
O2Y Tb1B 1_555 1_555
O1B Tb1B 1_555 1_555
O2B Tb1B 1_555 1_555
H1Z C4Z 1_555 1_555
C6Z C4Z 1_555 1_555
C7Z C5Z 1_555 1_555
H2Z C5Z 1_555 1_555
H1A C4A 1_555 1_555
C6A C4A 1_555 1_555
C7A C5A 1_555 1_555
H2A C5A 1_555 1_555
C1C O1C 1_555 1_555
C1X O1X 1_555 1_555
C1Y O1Y 1_555 1_555
H3Z C6Z 1_555 1_555
C8Z C6Z 1_555 1_555
H4Z C7Z 1_555 1_555
H3A C6A 1_555 1_555
C8A C6A 1_555 1_555
H4A C7A 1_555 1_555
C3C C1C 1_555 1_555
C3X C1X 1_555 1_555
C3Y C1Y 1_555 1_555
C9Z C8Z 1_555 1_555
C9A C8A 1_555 1_555
N1D C9 1_555 1_555
C4C C3C 1_555 1_555
C5C C3C 1_555 1_555
C4X C3X 1_555 1_555
C5X C3X 1_555 1_555
C4Y C3Y 1_555 1_555
C5Y C3Y 1_555 1_555
N1Z C9Z 1_555 1_555
N1EA C9Z 1_555 1_555
N1A C9A 1_555 1_555
N1F C9A 1_555 1_555
C9H N1 1_555 1_555
C9D N1D 1_555 1_555
H1C C4C 1_555 1_555
C6C C4C 1_555 1_555
C7C C5C 1_555 1_555
H2C C5C 1_555 1_555
H1X C4X 1_555 1_555
C6X C4X 1_555 1_555
C7X C5X 1_555 1_555
H2X C5X 1_555 1_555
H1Y C4Y 1_555 1_555
C6Y C4Y 1_555 1_555
C7Y C5Y 1_555 1_555
H2Y C5Y 1_555 1_555
C9GA N1Z 1_555 1_555
C9EA N1EA 1_555 1_555
C9K N1A 1_555 1_555
C9F N1F 1_555 1_555
N1H C9H 1_555 1_555
C8H C9H 1_555 1_555
C8D C9D 1_555 1_555
H3C C6C 1_555 1_555
C8C C6C 1_555 1_555
H4C C7C 1_555 1_555
H3X C6X 1_555 1_555
C8X C6X 1_555 1_555
H4X C7X 1_555 1_555
H3Y C6Y 1_555 1_555
C8Y C6Y 1_555 1_555
H4Y C7Y 1_555 1_555
N1GA C9GA 1_555 1_555
C8GA C9GA 1_555 1_555
C8EA C9EA 1_555 1_555
N1K C9K 1_555 1_555
C8K C9K 1_555 1_555
C8F C9F 1_555 1_555
C6H C8H 1_555 1_555
C7H C8H 1_555 1_555
C6D C8D 1_555 1_555
C7D C8D 1_555 1_555
C9C C8C 1_555 1_555
C9X C8X 1_555 1_555
C9Y C8Y 1_555 1_555
C6GA C8GA 1_555 1_555
C7GA C8GA 1_555 1_555
C6EA C8EA 1_555 1_555
C7EA C8EA 1_555 1_555
C6K C8K 1_555 1_555
C7K C8K 1_555 1_555
C6F C8F 1_555 1_555
C7F C8F 1_555 1_555
C4H C6H 1_555 1_555
H3H C6H 1_555 1_555
H4H C7H 1_555 1_555
C5H C7H 1_555 1_555
C4D C6D 1_555 1_555
H3D C6D 1_555 1_555
H4D C7D 1_555 1_555
C5D C7D 1_555 1_555
N1C C9C 1_555 1_555
N1E C9C 1_555 1_555
N1X C9X 1_555 1_555
N1BA C9X 1_555 1_555
N1Y C9Y 1_555 1_555
N1DA C9Y 1_555 1_555
C4GA C6GA 1_555 1_555
H3GA C6GA 1_555 1_555
H4GA C7GA 1_555 1_555
C5GA C7GA 1_555 1_555
C4EA C6EA 1_555 1_555
H3EA C6EA 1_555 1_555
H4EA C7EA 1_555 1_555
C5EA C7EA 1_555 1_555
C4K C6K 1_555 1_555
H3K C6K 1_555 1_555
H4K C7K 1_555 1_555
C5K C7K 1_555 1_555
C4F C6F 1_555 1_555
H3F C6F 1_555 1_555
H4F C7F 1_555 1_555
C5F C7F 1_555 1_555
C3H C4H 1_555 1_555
H1H C4H 1_555 1_555
H2H C5H 1_555 1_555
C3D C4D 1_555 1_555
H1D C4D 1_555 1_555
H2D C5D 1_555 1_555
C9J N1C 1_555 1_555
C9E N1E 1_555 1_555
C9FA N1X 1_555 1_555
C9BA N1BA 1_555 1_555
C9IA N1Y 1_555 1_555
C9DA N1DA 1_555 1_555
C3GA C4GA 1_555 1_555
H1GA C4GA 1_555 1_555
H2GA C5GA 1_555 1_555
C3EA C4EA 1_555 1_555
H1EA C4EA 1_555 1_555
H2EA C5EA 1_555 1_555
C3K C4K 1_555 1_555
H1K C4K 1_555 1_555
H2K C5K 1_555 1_555
C3F C4F 1_555 1_555
H1F C4F 1_555 1_555
H2F C5F 1_555 1_555
C1H C3H 1_555 1_555
C1D C3D 1_555 1_555
N1J C9J 1_555 1_555
C8J C9J 1_555 1_555
C8E C9E 1_555 1_555
N1FA C9FA 1_555 1_555
C8FA C9FA 1_555 1_555
C8BA C9BA 1_555 1_555
N1IA C9IA 1_555 1_555
C8IA C9IA 1_555 1_555
C8DA C9DA 1_555 1_555
C1GA C3GA 1_555 1_555
C1EA C3EA 1_555 1_555
C1K C3K 1_555 1_555
C1F C3F 1_555 1_555
O1H C1H 1_555 1_555
O2H C1H 1_555 1_555
O1D C1D 1_555 1_555
O2D C1D 1_555 1_555
C6J C8J 1_555 1_555
C7J C8J 1_555 1_555
C6E C8E 1_555 1_555
C7E C8E 1_555 1_555
C6FA C8FA 1_555 1_555
C7FA C8FA 1_555 1_555
C6BA C8BA 1_555 1_555
C7BA C8BA 1_555 1_555
C6IA C8IA 1_555 1_555
C7IA C8IA 1_555 1_555
C6DA C8DA 1_555 1_555
C7DA C8DA 1_555 1_555
O1GA C1GA 1_555 1_555
O2GA C1GA 1_555 1_555
O1EA C1EA 1_555 1_555
O2EA C1EA 1_555 1_555
O1K C1K 1_555 1_555
O2K C1K 1_555 1_555
O1F C1F 1_555 1_555
O2F C1F 1_555 1_555
Tb1H O1H 1_555 1_555
Tb1D O1D 1_555 1_555
C4J C6J 1_555 1_555
H3J C6J 1_555 1_555
H4J C7J 1_555 1_555
C5J C7J 1_555 1_555
C4E C6E 1_555 1_555
H3E C6E 1_555 1_555
H4E C7E 1_555 1_555
C5E C7E 1_555 1_555
C4FA C6FA 1_555 1_555
H3FA C6FA 1_555 1_555
H4FA C7FA 1_555 1_555
C5FA C7FA 1_555 1_555
C4BA C6BA 1_555 1_555
H3BA C6BA 1_555 1_555
H4BA C7BA 1_555 1_555
C5BA C7BA 1_555 1_555
C4IA C6IA 1_555 1_555
H3IA C6IA 1_555 1_555
H4IA C7IA 1_555 1_555
C5IA C7IA 1_555 1_555
C4DA C6DA 1_555 1_555
H3DA C6DA 1_555 1_555
H4DA C7DA 1_555 1_555
C5DA C7DA 1_555 1_555
Tb1J O1GA 1_555 1_555
Tb1D_2 O1EA 1_555 1_555
Tb1J_2 O1K 1_555 1_555
Tb1F O1F 1_555 1_555
O3D Tb1D 1_555 1_555
O1DA Tb1D 1_555 1_555
O2DA Tb1D 1_555 1_555
O1EA_2 Tb1D 1_555 1_555
O2EA_2 Tb1D 1_555 1_555
O1E Tb1D 1_555 1_555
O2E Tb1D 1_555 1_555
C3J C4J 1_555 1_555
H1J C4J 1_555 1_555
H2J C5J 1_555 1_555
C3E C4E 1_555 1_555
H1E C4E 1_555 1_555
H2E C5E 1_555 1_555
C3FA C4FA 1_555 1_555
H1FA C4FA 1_555 1_555
H2FA C5FA 1_555 1_555
C3BA C4BA 1_555 1_555
H1BA C4BA 1_555 1_555
H2BA C5BA 1_555 1_555
C3IA C4IA 1_555 1_555
H1IA C4IA 1_555 1_555
H2IA C5IA 1_555 1_555
C3DA C4DA 1_555 1_555
H1DA C4DA 1_555 1_555
H2DA C5DA 1_555 1_555
O1J Tb1J 1_555 1_555
O1K_2 Tb1J 1_555 1_555
O1FA Tb1J 1_555 1_555
O2J Tb1J 1_555 1_555
O2K_2 Tb1J 1_555 1_555
O2FA Tb1J 1_555 1_555
O3J Tb1J 1_555 1_555
O1E_2 Tb1D_2 1_555 1_555
O2E_2 Tb1D_2 1_555 1_555
O3D_2 Tb1D_2 1_555 1_555
O1D_2 Tb1D_2 1_555 1_555
O1DA_2 Tb1D_2 1_555 1_555
O2D_2 Tb1D_2 1_555 1_555
O2DA_2 Tb1D_2 1_555 1_555
O1BA Tb1F 1_555 1_555
O2BA Tb1F 1_555 1_555
C2D O3D 1_555 1_555
C2E O3D 1_555 1_555
C1DA O1DA 1_555 1_555
C1EA_2 O1EA_2 1_555 1_555
C1J C3J 1_555 1_555
C1E C3E 1_555 1_555
C1FA C3FA 1_555 1_555
C1BA C3BA 1_555 1_555
C1IA C3IA 1_555 1_555
C2E_2 O3D_2 1_555 1_555
C2D_2 O3D_2 1_555 1_555
O3F C2D 1_555 1_555
C3EA_2 C1EA_2 1_555 1_555
O1J_2 C1J 1_555 1_555
O2J_2 C1J 1_555 1_555
O1FA_2 C1FA 1_555 1_555
O2FA_2 C1FA 1_555 1_555
O1IA C1IA 1_555 1_555
O2IA C1IA 1_555 1_555
O3F_2 C2E_2 1_555 1_555
Tb1F_2 O3F 1_555 1_555
C4EA_2 C3EA_2 1_555 1_555
C5EA_2 C3EA_2 1_555 1_555
Tb1J_3 O1J_2 1_555 1_555
Tb1J_4 O1FA_2 1_555 1_555
Tb1H_2 O1IA 1_555 1_555
Tb1F_3 O3F_2 1_555 1_555
O1G Tb1F_2 1_555 1_555
O2G Tb1F_2 1_555 1_555
O1F_2 Tb1F_2 1_555 1_555
O1BA_2 Tb1F_2 1_555 1_555
O1CA Tb1F_2 1_555 1_555
O2F_2 Tb1F_2 1_555 1_555
O2BA_2 Tb1F_2 1_555 1_555
O2CA Tb1F_2 1_555 1_555
H1EA_2 C4EA_2 1_555 1_555
C6EA_2 C4EA_2 1_555 1_555
C7EA_2 C5EA_2 1_555 1_555
H2EA_2 C5EA_2 1_555 1_555
O1I Tb1H_2 1_555 1_555
O2I Tb1H_2 1_555 1_555
C1G O1G 1_555 1_555
H3EA_2 C6EA_2 1_555 1_555
C8EA_2 C6EA_2 1_555 1_555
H4EA_2 C7EA_2 1_555 1_555
C1I O1I 1_555 1_555
C3G C1G 1_555 1_555
C9EA_2 C8EA_2 1_555 1_555
C3I C1I 1_555 1_555
C4G C3G 1_555 1_555
C5G C3G 1_555 1_555
N1EA_2 C9EA_2 1_555 1_555
N1GA_2 C9EA_2 1_555 1_555
C4I C3I 1_555 1_555
C5I C3I 1_555 1_555
H1G C4G 1_555 1_555
C6G C4G 1_555 1_555
C7G C5G 1_555 1_555
H2G C5G 1_555 1_555
C9Z_2 N1EA_2 1_555 1_555
C9GA_2 N1GA_2 1_555 1_555
H1I C4I 1_555 1_555
C6I C4I 1_555 1_555
C7I C5I 1_555 1_555
H2I C5I 1_555 1_555
H3G C6G 1_555 1_555
C8G C6G 1_555 1_555
H4G C7G 1_555 1_555
N1Z_2 C9Z_2 1_555 1_555
C8Z_2 C9Z_2 1_555 1_555
C8GA_2 C9GA_2 1_555 1_555
H3I C6I 1_555 1_555
C8I C6I 1_555 1_555
H4I C7I 1_555 1_555
C9G C8G 1_555 1_555
C6Z_2 C8Z_2 1_555 1_555
C7Z_2 C8Z_2 1_555 1_555
C6GA_2 C8GA_2 1_555 1_555
C7GA_2 C8GA_2 1_555 1_555
C9I C8I 1_555 1_555
N1G C9G 1_555 1_555
N1I C9G 1_555 1_555
C4Z_2 C6Z_2 1_555 1_555
H3Z_2 C6Z_2 1_555 1_555
H4Z_2 C7Z_2 1_555 1_555
C5Z_2 C7Z_2 1_555 1_555
C4GA_2 C6GA_2 1_555 1_555
H3GA_2 C6GA_2 1_555 1_555
H4GA_2 C7GA_2 1_555 1_555
C5GA_2 C7GA_2 1_555 1_555
N1B C9I 1_555 1_555
C9B N1G 1_555 1_555
C3Z_2 C4Z_2 1_555 1_555
H1Z_2 C4Z_2 1_555 1_555
H2Z_2 C5Z_2 1_555 1_555
C3GA_2 C4GA_2 1_555 1_555
H1GA_2 C4GA_2 1_555 1_555
H2GA_2 C5GA_2 1_555 1_555
C8B C9B 1_555 1_555
C1Z_2 C3Z_2 1_555 1_555
C1GA_2 C3GA_2 1_555 1_555
C6B C8B 1_555 1_555
C7B C8B 1_555 1_555
O1Z_2 C1Z_2 1_555 1_555
O2Z_2 C1Z_2 1_555 1_555
O1GA_2 C1GA_2 1_555 1_555
O2GA_2 C1GA_2 1_555 1_555
C4B C6B 1_555 1_555
H3B C6B 1_555 1_555
H4B C7B 1_555 1_555
C5B C7B 1_555 1_555
Tb1_2 O1Z_2 1_555 1_555
Tb1J_5 O1GA_2 1_555 1_555
C3B C4B 1_555 1_555
H1B C4B 1_555 1_555
H2B C5B 1_555 1_555
C1B C3B 1_555 1_555
O1B_2 C1B 1_555 1_555
O2B_2 C1B 1_555 1_555
Tb1B_2 O1B_2 1_555 1_555
C10B N2 1_555 1_555
C11C N3 1_555 1_555
C2 C2A 1_555 1_555
C7 C8 1_555 1_555
O2Z C1Z 1_555 1_555
O2A C1A 1_555 1_555
C2A O3B 1_555 1_555
O2C C1C 1_555 1_555
O2X C1X 1_555 1_555
O2Y C1Y 1_555 1_555
C7Z C8Z 1_555 1_555
C7A C8A 1_555 1_555
C9D N1H 1_555 1_555
C7C C8C 1_555 1_555
C7X C8X 1_555 1_555
C7Y C8Y 1_555 1_555
C9EA N1GA 1_555 1_555
C9F N1K 1_555 1_555
C5H C3H 1_555 1_555
C5D C3D 1_555 1_555
C5GA C3GA 1_555 1_555
C5EA C3EA 1_555 1_555
C5K C3K 1_555 1_555
C5F C3F 1_555 1_555
C9E N1J 1_555 1_555
C9BA N1FA 1_555 1_555
C9DA N1IA 1_555 1_555
O2H Tb1H 1_555 1_555
O2D Tb1D 1_555 1_555
O2GA Tb1J 1_555 1_555
O2EA Tb1D_2 1_555 1_555
O2K Tb1J_2 1_555 1_555
O2F Tb1F 1_555 1_555
C5J C3J 1_555 1_555
C5E C3E 1_555 1_555
C5FA C3FA 1_555 1_555
C5BA C3BA 1_555 1_555
C5IA C3IA 1_555 1_555
C5DA C3DA 1_555 1_555
O2DA C1DA 1_555 1_555
O2EA_2 C1EA_2 1_555 1_555
C3DA C1DA 1_555 1_555
O1E_2 C1E 1_555 1_555
O2E_2 C1E 1_555 1_555
O1BA C1BA 1_555 1_555
O2BA C1BA 1_555 1_555
C2D C2E 1_555 1_555
C2E O3F 1_555 1_555
C2E_2 C2D_2 1_555 1_555
C2D_2 O3F_2 1_555 1_555
O2J_2 Tb1J_3 1_555 1_555
O2FA_2 Tb1J_4 1_555 1_555
O2IA Tb1H_2 1_555 1_555
O2G C1G 1_555 1_555
C7EA_2 C8EA_2 1_555 1_555
O2I C1I 1_555 1_555
C7G C8G 1_555 1_555
C9GA_2 N1Z_2 1_555 1_555
C7I C8I 1_555 1_555
C9I N1I 1_555 1_555
C5Z_2 C3Z_2 1_555 1_555
C5GA_2 C3GA_2 1_555 1_555
N1B C9B 1_555 1_555
O2Z_2 Tb1_2 1_555 1_555
O2GA_2 Tb1J_5 1_555 1_555
C5B C3B 1_555 1_555
O2B_2 Tb1B_2 1_555 1_555

#END
