
#######################################################################
#
#                 Cambridge Crystallographic Data Centre
#                                CCDC 
#
#######################################################################
#
# If this CIF has been generated from an entry in the Cambridge 
# Structural Database, then it will include bibliographic, chemical, 
# crystal, experimental, refinement or atomic coordinate data resulting 
# from the CCDC's data processing and validation procedures.
#
#######################################################################

data_IFESAP
_chemical_formula_moiety         '(C42 H31 F3 O19 Tb3 1-)n,n(C2 H8 N1 1+)'
_chemical_name_systematic        
"catena-(Dimethylammonium tris(\m~4~-3-fluorobiphenyl-4,4'-dicarboxylato)-tetrakis(\m~3~-hydroxo)-triaqua-tri-terbium unknown solvate)"
_symmetry_cell_setting           cubic
_symmetry_space_group_name_H-M   'F m -3 m'
_symmetry_Int_Tables_number      225
_space_group_name_Hall           '-F 4 2 3'
loop_
_symmetry_equiv_pos_site_id
_symmetry_equiv_pos_as_xyz
1 x,y,z
2 -x,-y,z
3 -x,y,-z
4 x,-y,-z
5 z,x,y
6 z,-x,-y
7 -z,-x,y
8 -z,x,-y
9 y,z,x
10 -y,z,-x
11 y,-z,-x
12 -y,-z,x
13 y,x,-z
14 -y,-x,-z
15 y,-x,z
16 -y,x,z
17 x,z,-y
18 -x,z,y
19 -x,-z,-y
20 x,-z,y
21 z,y,-x
22 z,-y,x
23 -z,y,x
24 -z,-y,-x
25 x,1/2+y,1/2+z
26 -x,1/2-y,1/2+z
27 -x,1/2+y,1/2-z
28 x,1/2-y,1/2-z
29 z,1/2+x,1/2+y
30 z,1/2-x,1/2-y
31 -z,1/2-x,1/2+y
32 -z,1/2+x,1/2-y
33 y,1/2+z,1/2+x
34 -y,1/2+z,1/2-x
35 y,1/2-z,1/2-x
36 -y,1/2-z,1/2+x
37 y,1/2+x,1/2-z
38 -y,1/2-x,1/2-z
39 y,1/2-x,1/2+z
40 -y,1/2+x,1/2+z
41 x,1/2+z,1/2-y
42 -x,1/2+z,1/2+y
43 -x,1/2-z,1/2-y
44 x,1/2-z,1/2+y
45 z,1/2+y,1/2-x
46 z,1/2-y,1/2+x
47 -z,1/2+y,1/2+x
48 -z,1/2-y,1/2-x
49 1/2+x,y,1/2+z
50 1/2-x,-y,1/2+z
51 1/2-x,y,1/2-z
52 1/2+x,-y,1/2-z
53 1/2+z,x,1/2+y
54 1/2+z,-x,1/2-y
55 1/2-z,-x,1/2+y
56 1/2-z,x,1/2-y
57 1/2+y,z,1/2+x
58 1/2-y,z,1/2-x
59 1/2+y,-z,1/2-x
60 1/2-y,-z,1/2+x
61 1/2+y,x,1/2-z
62 1/2-y,-x,1/2-z
63 1/2+y,-x,1/2+z
64 1/2-y,x,1/2+z
65 1/2+x,z,1/2-y
66 1/2-x,z,1/2+y
67 1/2-x,-z,1/2-y
68 1/2+x,-z,1/2+y
69 1/2+z,y,1/2-x
70 1/2+z,-y,1/2+x
71 1/2-z,y,1/2+x
72 1/2-z,-y,1/2-x
73 1/2+x,1/2+y,z
74 1/2-x,1/2-y,z
75 1/2-x,1/2+y,-z
76 1/2+x,1/2-y,-z
77 1/2+z,1/2+x,y
78 1/2+z,1/2-x,-y
79 1/2-z,1/2-x,y
80 1/2-z,1/2+x,-y
81 1/2+y,1/2+z,x
82 1/2-y,1/2+z,-x
83 1/2+y,1/2-z,-x
84 1/2-y,1/2-z,x
85 1/2+y,1/2+x,-z
86 1/2-y,1/2-x,-z
87 1/2+y,1/2-x,z
88 1/2-y,1/2+x,z
89 1/2+x,1/2+z,-y
90 1/2-x,1/2+z,y
91 1/2-x,1/2-z,-y
92 1/2+x,1/2-z,y
93 1/2+z,1/2+y,-x
94 1/2+z,1/2-y,x
95 1/2-z,1/2+y,x
96 1/2-z,1/2-y,-x
97 -x,-y,-z
98 x,y,-z
99 x,-y,z
100 -x,y,z
101 -z,-x,-y
102 -z,x,y
103 z,x,-y
104 z,-x,y
105 -y,-z,-x
106 y,-z,x
107 -y,z,x
108 y,z,-x
109 -y,-x,z
110 y,x,z
111 -y,x,-z
112 y,-x,-z
113 -x,-z,y
114 x,-z,-y
115 x,z,y
116 -x,z,-y
117 -z,-y,x
118 -z,y,-x
119 z,-y,-x
120 z,y,x
121 -x,1/2-y,1/2-z
122 x,1/2+y,1/2-z
123 x,1/2-y,1/2+z
124 -x,1/2+y,1/2+z
125 -z,1/2-x,1/2-y
126 -z,1/2+x,1/2+y
127 z,1/2+x,1/2-y
128 z,1/2-x,1/2+y
129 -y,1/2-z,1/2-x
130 y,1/2-z,1/2+x
131 -y,1/2+z,1/2+x
132 y,1/2+z,1/2-x
133 -y,1/2-x,1/2+z
134 y,1/2+x,1/2+z
135 -y,1/2+x,1/2-z
136 y,1/2-x,1/2-z
137 -x,1/2-z,1/2+y
138 x,1/2-z,1/2-y
139 x,1/2+z,1/2+y
140 -x,1/2+z,1/2-y
141 -z,1/2-y,1/2+x
142 -z,1/2+y,1/2-x
143 z,1/2-y,1/2-x
144 z,1/2+y,1/2+x
145 1/2-x,-y,1/2-z
146 1/2+x,y,1/2-z
147 1/2+x,-y,1/2+z
148 1/2-x,y,1/2+z
149 1/2-z,-x,1/2-y
150 1/2-z,x,1/2+y
151 1/2+z,x,1/2-y
152 1/2+z,-x,1/2+y
153 1/2-y,-z,1/2-x
154 1/2+y,-z,1/2+x
155 1/2-y,z,1/2+x
156 1/2+y,z,1/2-x
157 1/2-y,-x,1/2+z
158 1/2+y,x,1/2+z
159 1/2-y,x,1/2-z
160 1/2+y,-x,1/2-z
161 1/2-x,-z,1/2+y
162 1/2+x,-z,1/2-y
163 1/2+x,z,1/2+y
164 1/2-x,z,1/2-y
165 1/2-z,-y,1/2+x
166 1/2-z,y,1/2-x
167 1/2+z,-y,1/2-x
168 1/2+z,y,1/2+x
169 1/2-x,1/2-y,-z
170 1/2+x,1/2+y,-z
171 1/2+x,1/2-y,z
172 1/2-x,1/2+y,z
173 1/2-z,1/2-x,-y
174 1/2-z,1/2+x,y
175 1/2+z,1/2+x,-y
176 1/2+z,1/2-x,y
177 1/2-y,1/2-z,-x
178 1/2+y,1/2-z,x
179 1/2-y,1/2+z,x
180 1/2+y,1/2+z,-x
181 1/2-y,1/2-x,z
182 1/2+y,1/2+x,z
183 1/2-y,1/2+x,-z
184 1/2+y,1/2-x,-z
185 1/2-x,1/2-z,y
186 1/2+x,1/2-z,-y
187 1/2+x,1/2+z,y
188 1/2-x,1/2+z,-y
189 1/2-z,1/2-y,x
190 1/2-z,1/2+y,-x
191 1/2+z,1/2-y,-x
192 1/2+z,1/2+y,x
_cell_length_a                   27.5127(12)
_cell_length_b                   27.5127(12)
_cell_length_c                   27.5127(12)
_cell_angle_alpha                90
_cell_angle_beta                 90
_cell_angle_gamma                90
_cell_volume                     20825.7
_exptl_crystal_colour            colorless
_exptl_crystal_description       polyhedron
_cell_formula_units_Z            8
loop_
_atom_site_label
_atom_site_type_symbol
_atom_site_fract_x
_atom_site_fract_y
_atom_site_fract_z
Tb1 Tb 0.100405(19) 1.0000 0.0000
C1 C 0.1203(2) 0.8797(2) 0.0000
C2 C 0.1583(3) 0.8420(3) 0.0116(5)
C3 C 0.2078(3) 0.8532(4) 0.0126(3)
H1 H 0.2170 0.8865 0.0121
F1 F 0.2230(9) 0.9002(6) 0.0121(5)
C4 C 0.2449(4) 0.8180(3) 0.0142(4)
H2 H 0.2782 0.8270 0.0149
C5 C 0.23079(16) 0.76928(16) 0.0147(6)
O1 O 0.04628(9) 1.04628(9) 0.04628(9)
O2 O 0.1978(7) 1.0000 0.0000
O3 O 0.13637(17) 0.92325(18) 0.0000
C2M C 0.1580(3) 0.8417(3) -0.0116(5)
C3M C 0.1468(4) 0.7922(3) -0.0126(3)
H1M H 0.1135 0.7830 -0.0121
F1M F 0.0998(6) 0.7770(9) -0.0121(5)
C4M C 0.1820(3) 0.7551(4) -0.0142(4)
H2M H 0.1730 0.7218 -0.0149
C5M C 0.23072(16) 0.76921(16) -0.0147(6)
O3M O 0.07675(18) 0.86363(17) 0.0000
C1UB C 0.3797(2) 0.6203(2) 0.0000
C2UB C 0.3417(3) 0.6580(3) 0.0116(5)
C3UB C 0.2922(3) 0.6468(4) 0.0126(3)
H1UB H 0.2830 0.6135 0.0121
F1UB F 0.2770(9) 0.5998(6) 0.0121(5)
C4UB C 0.2551(4) 0.6820(3) 0.0142(4)
H2UB H 0.2218 0.6730 0.0149
C5UB C 0.26921(16) 0.73072(16) 0.0147(6)
O3UB O 0.36363(17) 0.57675(18) 0.0000
C2FC C 0.3420(3) 0.6583(3) -0.0116(5)
C3FC C 0.3532(4) 0.7078(3) -0.0126(3)
H1FC H 0.3865 0.7170 -0.0121
F1FC F 0.4002(6) 0.7230(9) -0.0121(5)
C4FC C 0.3180(3) 0.7449(4) -0.0142(4)
H2FC H 0.3270 0.7782 -0.0149
C5FC C 0.26928(16) 0.73079(16) -0.0147(6)
O3FC O 0.42325(18) 0.63637(17) 0.0000
C3SC C 0.2078(3) 0.8532(4) -0.0126(3)
H1SC H 0.2170 0.8865 -0.0121
F1SC F 0.2230(9) 0.9002(6) -0.0121(5)
C4SC C 0.2449(4) 0.8180(3) -0.0142(4)
H2SC H 0.2782 0.8270 -0.0149
C3DD C 0.1468(4) 0.7922(3) 0.0126(3)
H1DD H 0.1135 0.7830 0.0121
F1DD F 0.0998(6) 0.7770(9) 0.0121(5)
C4DD C 0.1820(3) 0.7551(4) 0.0142(4)
H2DD H 0.1730 0.7218 0.0149
C3LF C 0.2922(3) 0.6468(4) -0.0126(3)
H1LF H 0.2830 0.6135 -0.0121
F1LF F 0.2770(9) 0.5998(6) -0.0121(5)
C4LF C 0.2551(4) 0.6820(3) -0.0142(4)
H2LF H 0.2218 0.6730 -0.0149
C3YF C 0.3532(4) 0.7078(3) 0.0126(3)
H1YF H 0.3865 0.7170 0.0121
F1YF F 0.4002(6) 0.7230(9) 0.0121(5)
C4YF C 0.3180(3) 0.7449(4) 0.0142(4)
H2YF H 0.3270 0.7782 0.0149
C1C C 0.1203(2) 1.1203(2) 0.0000
C2C C 0.1583(3) 1.1580(3) -0.0116(5)
C3C C 0.2078(3) 1.1468(4) -0.0126(3)
H1C H 0.2170 1.1135 -0.0121
F1C F 0.2230(9) 1.0998(6) -0.0121(5)
C4C C 0.2449(4) 1.1820(3) -0.0142(4)
H2C H 0.2782 1.1730 -0.0149
C5C C 0.23079(16) 1.23072(16) -0.0147(6)
O1C O 0.04628(9) 0.95372(9) -0.04628(9)
O3C O 0.13637(17) 1.07675(18) 0.0000
C2O C 0.1580(3) 1.1583(3) 0.0116(5)
C3O C 0.1468(4) 1.2078(3) 0.0126(3)
H1O H 0.1135 1.2170 0.0121
F1O F 0.0998(6) 1.2230(9) 0.0121(5)
C4O C 0.1820(3) 1.2449(4) 0.0142(4)
H2O H 0.1730 1.2782 0.0149
C5O C 0.23072(16) 1.23079(16) 0.0147(6)
O3O O 0.07675(18) 1.13637(17) 0.0000
C1VB C 0.3797(2) 1.3797(2) 0.0000
C2VB C 0.3417(3) 1.3420(3) -0.0116(5)
C3VB C 0.2922(3) 1.3532(4) -0.0126(3)
H1VB H 0.2830 1.3865 -0.0121
F1VB F 0.2770(9) 1.4002(6) -0.0121(5)
C4VB C 0.2551(4) 1.3180(3) -0.0142(4)
H2VB H 0.2218 1.3270 -0.0149
C5VB C 0.26921(16) 1.26928(16) -0.0147(6)
O3VB O 0.36363(17) 1.42325(18) 0.0000
C2HC C 0.3420(3) 1.3417(3) 0.0116(5)
C3HC C 0.3532(4) 1.2922(3) 0.0126(3)
H1HC H 0.3865 1.2830 0.0121
F1HC F 0.4002(6) 1.2770(9) 0.0121(5)
C4HC C 0.3180(3) 1.2551(4) 0.0142(4)
H2HC H 0.3270 1.2218 0.0149
C5HC C 0.26928(16) 1.26921(16) 0.0147(6)
O3HC O 0.42325(18) 1.36363(17) 0.0000
C3TC C 0.2078(3) 1.1468(4) 0.0126(3)
H1TC H 0.2170 1.1135 0.0121
F1TC F 0.2230(9) 1.0998(6) 0.0121(5)
C4TC C 0.2449(4) 1.1820(3) 0.0142(4)
H2TC H 0.2782 1.1730 0.0149
C3FD C 0.1468(4) 1.2078(3) -0.0126(3)
H1FD H 0.1135 1.2170 -0.0121
F1FD F 0.0998(6) 1.2230(9) -0.0121(5)
C4FD C 0.1820(3) 1.2449(4) -0.0142(4)
H2FD H 0.1730 1.2782 -0.0149
C3OF C 0.2922(3) 1.3532(4) 0.0126(3)
H1OF H 0.2830 1.3865 0.0121
F1OF F 0.2770(9) 1.4002(6) 0.0121(5)
C4OF C 0.2551(4) 1.3180(3) 0.0142(4)
H2OF H 0.2218 1.3270 0.0149
C3AG C 0.3532(4) 1.2922(3) -0.0126(3)
H1AG H 0.3865 1.2830 -0.0121
F1AG F 0.4002(6) 1.2770(9) -0.0121(5)
C4AG C 0.3180(3) 1.2551(4) -0.0142(4)
H2AG H 0.3270 1.2218 -0.0149
Tb1D Tb 0.0000 1.100405(19) 0.0000
C1D C 0.0000 1.1203(2) -0.1203(2)
C2D C 0.0116(5) 1.1583(3) -0.1580(3)
C3D C 0.0126(3) 1.2078(3) -0.1468(4)
H1D H 0.0121 1.2170 -0.1135
F1D F 0.0121(5) 1.2230(9) -0.0998(6)
C4D C 0.0142(4) 1.2449(4) -0.1820(3)
H2D H 0.0149 1.2782 -0.1730
C5D C 0.0147(6) 1.23079(16) -0.23072(16)
O2D O 0.0000 1.1978(7) 0.0000
O3D O 0.0000 1.13637(17) -0.07675(18)
C2W C -0.0116(5) 1.1580(3) -0.1583(3)
C3W C -0.0126(3) 1.1468(4) -0.2078(3)
H1W H -0.0121 1.1135 -0.2170
F1W F -0.0121(5) 1.0998(6) -0.2230(9)
C4W C -0.0142(4) 1.1820(3) -0.2449(4)
H2W H -0.0149 1.1730 -0.2782
C5W C -0.0147(6) 1.23072(16) -0.23079(16)
O3W O 0.0000 1.07675(18) -0.13637(17)
C1CA C 0.0000 1.3797(2) -0.3797(2)
C2CA C 0.0116(5) 1.3417(3) -0.3420(3)
C3CA C 0.0126(3) 1.2922(3) -0.3532(4)
H1CA H 0.0121 1.2830 -0.3865
F1CA F 0.0121(5) 1.2770(9) -0.4002(6)
C4CA C 0.0142(4) 1.2551(4) -0.3180(3)
H2CA H 0.0149 1.2218 -0.3270
C5CA C 0.0147(6) 1.26921(16) -0.26928(16)
O3CA O 0.0000 1.36363(17) -0.42325(18)
C2TA C -0.0116(5) 1.3420(3) -0.3417(3)
C3TA C -0.0126(3) 1.3532(4) -0.2922(3)
H1TA H -0.0121 1.3865 -0.2830
F1TA F -0.0121(5) 1.4002(6) -0.2770(9)
C4TA C -0.0142(4) 1.3180(3) -0.2551(4)
H2TA H -0.0149 1.3270 -0.2218
C5TA C -0.0147(6) 1.26928(16) -0.26921(16)
O3TA O 0.0000 1.42325(18) -0.36363(17)
C3WC C -0.0126(3) 1.2078(3) -0.1468(4)
H1WC H -0.0121 1.2170 -0.1135
F1WC F -0.0121(5) 1.2230(9) -0.0998(6)
C4WC C -0.0142(4) 1.2449(4) -0.1820(3)
H2WC H -0.0149 1.2782 -0.1730
C3ND C 0.0126(3) 1.1468(4) -0.2078(3)
H1ND H 0.0121 1.1135 -0.2170
F1ND F 0.0121(5) 1.0998(6) -0.2230(9)
C4ND C 0.0142(4) 1.1820(3) -0.2449(4)
H2ND H 0.0149 1.1730 -0.2782
C3TD C -0.0126(3) 1.2922(3) -0.3532(4)
H1TD H -0.0121 1.2830 -0.3865
F1TD F -0.0121(5) 1.2770(9) -0.4002(6)
C4TD C -0.0142(4) 1.2551(4) -0.3180(3)
H2TD H -0.0149 1.2218 -0.3270
C3ME C 0.0126(3) 1.3532(4) -0.2922(3)
H1ME H 0.0121 1.3865 -0.2830
F1ME F 0.0121(5) 1.4002(6) -0.2770(9)
C4ME C 0.0142(4) 1.3180(3) -0.2551(4)
H2ME H 0.0149 1.3270 -0.2218
Tb1E Tb 0.0000 0.899595(19) 0.0000
O2E O 0.0000 0.8022(7) 0.0000
O1A O -0.04628(9) 0.95372(9) 0.04628(9)
O1B O -0.04628(9) 1.04628(9) -0.04628(9)
Tb1A Tb -0.100405(19) 1.0000 0.0000
Tb1H Tb 0.0000 1.0000 0.100405(19)
Tb1I Tb 0.0000 1.0000 -0.100405(19)
Tb1CA Tb 0.0000 1.399595(19) -0.5000
Tb1FA Tb 0.0000 1.5000 -0.399595(19)
Tb1UB Tb 0.399595(19) 0.5000 0.0000
Tb1UB_2 Tb 0.399595(19) 1.5000 0.0000
Tb1XB Tb 0.5000 0.600405(19) 0.0000
Tb1YB Tb 0.5000 1.399595(19) 0.0000
O1L O 0.04628(9) 1.04628(9) -0.04628(9)
O1M O -0.04628(9) 0.95372(9) -0.04628(9)
O1N O 0.04628(9) 0.95372(9) 0.04628(9)
O1O O -0.04628(9) 1.04628(9) 0.04628(9)
O3E O 0.0000 0.86363(17) 0.07675(18)
O3F O 0.0000 0.86363(17) -0.07675(18)
O3G O 0.0000 1.13637(17) 0.07675(18)
O3L O -0.07675(18) 1.13637(17) 0.0000
O3N O -0.07675(18) 0.86363(17) 0.0000
O3P O 0.13637(17) 1.0000 0.07675(18)
O3S O 0.13637(17) 1.0000 -0.07675(18)
loop_
_geom_bond_atom_site_label_1
_geom_bond_atom_site_label_2
_geom_bond_site_symmetry_1
_geom_bond_site_symmetry_2
Tb1 O1 1_555 1_555
C1 C2 1_555 1_555
C2 C3 1_555 1_555
C3 H1 1_555 1_555
H1 C3SC 1_555 1_555
F1 C3 1_555 1_555
C4 C3 1_555 1_555
H2 C4 1_555 1_555
C5 C4 1_555 1_555
O1 Tb1D 1_555 1_555
O2 Tb1 1_555 1_555
O3 Tb1 1_555 1_555
C2M C1 1_555 1_555
C3M C2 1_555 1_555
H1M C3M 1_555 1_555
F1M C3M 1_555 1_555
C4M C5 1_555 1_555
H2M C4M 1_555 1_555
C5M C4 1_555 1_555
O3M C1 1_555 1_555
C1UB C2UB 1_555 1_555
C2UB C3UB 1_555 1_555
C3UB H1UB 1_555 1_555
H1UB C3LF 1_555 1_555
F1UB C3UB 1_555 1_555
C4UB C3UB 1_555 1_555
H2UB C4UB 1_555 1_555
C5UB C5 1_555 1_555
O3UB C1UB 1_555 1_555
C2FC C1UB 1_555 1_555
C3FC C2UB 1_555 1_555
H1FC C3FC 1_555 1_555
F1FC C3FC 1_555 1_555
C4FC C5UB 1_555 1_555
H2FC C4FC 1_555 1_555
C5FC C5 1_555 1_555
O3FC C1UB 1_555 1_555
C3SC C2 1_555 1_555
H1SC C3 1_555 1_555
F1SC C3 1_555 1_555
C4SC C3 1_555 1_555
H2SC C4 1_555 1_555
C3DD C2 1_555 1_555
H1DD C3M 1_555 1_555
F1DD C3M 1_555 1_555
C4DD C5 1_555 1_555
H2DD C4M 1_555 1_555
C3LF C2UB 1_555 1_555
H1LF C3UB 1_555 1_555
F1LF C3UB 1_555 1_555
C4LF C3UB 1_555 1_555
H2LF C4UB 1_555 1_555
C3YF C2UB 1_555 1_555
H1YF C3FC 1_555 1_555
F1YF C3FC 1_555 1_555
C4YF C5UB 1_555 1_555
H2YF C4FC 1_555 1_555
C1C C2C 1_555 1_555
C2C C3C 1_555 1_555
C3C H1C 1_555 1_555
H1C C3TC 1_555 1_555
F1C C3C 1_555 1_555
C4C C3C 1_555 1_555
H2C C4C 1_555 1_555
C5C C4C 1_555 1_555
O1C Tb1 1_555 1_555
O3C Tb1 1_555 1_555
C2O C1C 1_555 1_555
C3O C2C 1_555 1_555
H1O C3O 1_555 1_555
F1O C3O 1_555 1_555
C4O C5C 1_555 1_555
H2O C4O 1_555 1_555
C5O C4C 1_555 1_555
O3O C1C 1_555 1_555
C1VB C2VB 1_555 1_555
C2VB C3VB 1_555 1_555
C3VB H1VB 1_555 1_555
H1VB C3OF 1_555 1_555
F1VB C3VB 1_555 1_555
C4VB C3VB 1_555 1_555
H2VB C4VB 1_555 1_555
C5VB C5C 1_555 1_555
O3VB C1VB 1_555 1_555
C2HC C1VB 1_555 1_555
C3HC C2VB 1_555 1_555
H1HC C3HC 1_555 1_555
F1HC C3HC 1_555 1_555
C4HC C5VB 1_555 1_555
H2HC C4HC 1_555 1_555
C5HC C5C 1_555 1_555
O3HC C1VB 1_555 1_555
C3TC C2C 1_555 1_555
H1TC C3C 1_555 1_555
F1TC C3C 1_555 1_555
C4TC C3C 1_555 1_555
H2TC C4C 1_555 1_555
C3FD C2C 1_555 1_555
H1FD C3O 1_555 1_555
F1FD C3O 1_555 1_555
C4FD C5C 1_555 1_555
H2FD C4O 1_555 1_555
C3OF C2VB 1_555 1_555
H1OF C3VB 1_555 1_555
F1OF C3VB 1_555 1_555
C4OF C3VB 1_555 1_555
H2OF C4VB 1_555 1_555
C3AG C2VB 1_555 1_555
H1AG C3HC 1_555 1_555
F1AG C3HC 1_555 1_555
C4AG C5VB 1_555 1_555
H2AG C4HC 1_555 1_555
Tb1D O3O 1_555 1_555
C1D C2D 1_555 1_555
C2D C3D 1_555 1_555
C3D H1D 1_555 1_555
H1D C3WC 1_555 1_555
F1D C3D 1_555 1_555
C4D C3D 1_555 1_555
H2D C4D 1_555 1_555
C5D C4D 1_555 1_555
O2D Tb1D 1_555 1_555
O3D Tb1D 1_555 1_555
C2W C1D 1_555 1_555
C3W C2D 1_555 1_555
H1W C3W 1_555 1_555
F1W C3W 1_555 1_555
C4W C5D 1_555 1_555
H2W C4W 1_555 1_555
C5W C4D 1_555 1_555
O3W C1D 1_555 1_555
C1CA C2CA 1_555 1_555
C2CA C3CA 1_555 1_555
C3CA H1CA 1_555 1_555
H1CA C3TD 1_555 1_555
F1CA C3CA 1_555 1_555
C4CA C3CA 1_555 1_555
H2CA C4CA 1_555 1_555
C5CA C5D 1_555 1_555
O3CA C1CA 1_555 1_555
C2TA C1CA 1_555 1_555
C3TA C2CA 1_555 1_555
H1TA C3TA 1_555 1_555
F1TA C3TA 1_555 1_555
C4TA C5CA 1_555 1_555
H2TA C4TA 1_555 1_555
C5TA C5D 1_555 1_555
O3TA C1CA 1_555 1_555
C3WC C2D 1_555 1_555
H1WC C3D 1_555 1_555
F1WC C3D 1_555 1_555
C4WC C3D 1_555 1_555
H2WC C4D 1_555 1_555
C3ND C2D 1_555 1_555
H1ND C3W 1_555 1_555
F1ND C3W 1_555 1_555
C4ND C5D 1_555 1_555
H2ND C4W 1_555 1_555
C3TD C2CA 1_555 1_555
H1TD C3CA 1_555 1_555
F1TD C3CA 1_555 1_555
C4TD C3CA 1_555 1_555
H2TD C4CA 1_555 1_555
C3ME C2CA 1_555 1_555
H1ME C3TA 1_555 1_555
F1ME C3TA 1_555 1_555
C4ME C5CA 1_555 1_555
H2ME C4TA 1_555 1_555
Tb1E O3M 1_555 1_555
O2E Tb1E 1_555 1_555
O1A Tb1E 1_555 1_555
O1B Tb1D 1_555 1_555
Tb1A O1A 1_555 1_555
Tb1H O1 1_555 1_555
Tb1I O1C 1_555 1_555
Tb1CA O3CA 1_555 1_555
Tb1FA O3TA 1_555 1_555
Tb1UB O3UB 1_555 1_555
Tb1UB_2 O3VB 1_555 1_555
Tb1XB O3FC 1_555 1_555
Tb1YB O3HC 1_555 1_555
O1L Tb1 1_555 1_555
O1M Tb1E 1_555 1_555
O1N Tb1 1_555 1_555
O1O Tb1D 1_555 1_555
O3E Tb1E 1_555 1_555
O3F Tb1E 1_555 1_555
O3G Tb1D 1_555 1_555
O3L Tb1D 1_555 1_555
O3N Tb1E 1_555 1_555
O3P Tb1 1_555 1_555
O3S Tb1 1_555 1_555
C1 O3 1_555 1_555
C2 C2M 1_555 1_555
C3 C2M 1_555 1_555
C3 C3SC 1_555 1_555
H1 F1SC 1_555 1_555
F1 C3SC 1_555 1_555
F1 H1SC 1_555 1_555
F1 F1SC 1_555 1_555
C4 C3SC 1_555 1_555
C4 C4SC 1_555 1_555
H2 C4SC 1_555 1_555
C5 C5M 1_555 1_555
C5 C4SC 1_555 1_555
C2M C3M 1_555 1_555
C2M C3SC 1_555 1_555
C2M C3DD 1_555 1_555
C3M C4M 1_555 1_555
C3M C3DD 1_555 1_555
C3M C4DD 1_555 1_555
H1M C3DD 1_555 1_555
H1M F1DD 1_555 1_555
F1M C3DD 1_555 1_555
F1M H1DD 1_555 1_555
F1M F1DD 1_555 1_555
C4M C5M 1_555 1_555
C4M C3DD 1_555 1_555
C4M C4DD 1_555 1_555
H2M C4DD 1_555 1_555
C5M C5UB 1_555 1_555
C5M C5FC 1_555 1_555
C5M C4SC 1_555 1_555
C5M C4DD 1_555 1_555
C2UB C2FC 1_555 1_555
C3UB C2FC 1_555 1_555
C3UB C3LF 1_555 1_555
H1UB F1LF 1_555 1_555
F1UB C3LF 1_555 1_555
F1UB H1LF 1_555 1_555
F1UB F1LF 1_555 1_555
C4UB C5UB 1_555 1_555
C4UB C5FC 1_555 1_555
C4UB C3LF 1_555 1_555
C4UB C4LF 1_555 1_555
H2UB C4LF 1_555 1_555
C5UB C5FC 1_555 1_555
C5UB C4LF 1_555 1_555
C2FC C3FC 1_555 1_555
C2FC C3LF 1_555 1_555
C2FC C3YF 1_555 1_555
C3FC C4FC 1_555 1_555
C3FC C3YF 1_555 1_555
C3FC C4YF 1_555 1_555
H1FC C3YF 1_555 1_555
H1FC F1YF 1_555 1_555
F1FC C3YF 1_555 1_555
F1FC H1YF 1_555 1_555
F1FC F1YF 1_555 1_555
C4FC C5FC 1_555 1_555
C4FC C3YF 1_555 1_555
C4FC C4YF 1_555 1_555
H2FC C4YF 1_555 1_555
C5FC C4LF 1_555 1_555
C5FC C4YF 1_555 1_555
C3SC H1SC 1_555 1_555
C3SC F1SC 1_555 1_555
C3SC C4SC 1_555 1_555
C4SC H2SC 1_555 1_555
C3DD H1DD 1_555 1_555
C3DD F1DD 1_555 1_555
C3DD C4DD 1_555 1_555
C4DD H2DD 1_555 1_555
C3LF H1LF 1_555 1_555
C3LF F1LF 1_555 1_555
C3LF C4LF 1_555 1_555
C4LF H2LF 1_555 1_555
C3YF H1YF 1_555 1_555
C3YF F1YF 1_555 1_555
C3YF C4YF 1_555 1_555
C4YF H2YF 1_555 1_555
C1C O3C 1_555 1_555
C2C C2O 1_555 1_555
C3C C2O 1_555 1_555
C3C C3TC 1_555 1_555
H1C F1TC 1_555 1_555
F1C C3TC 1_555 1_555
F1C H1TC 1_555 1_555
F1C F1TC 1_555 1_555
C4C C3TC 1_555 1_555
C4C C4TC 1_555 1_555
H2C C4TC 1_555 1_555
C5C C5O 1_555 1_555
C5C C4TC 1_555 1_555
O1C Tb1E 1_555 1_555
C2O C3O 1_555 1_555
C2O C3TC 1_555 1_555
C2O C3FD 1_555 1_555
C3O C4O 1_555 1_555
C3O C3FD 1_555 1_555
C3O C4FD 1_555 1_555
H1O C3FD 1_555 1_555
H1O F1FD 1_555 1_555
F1O C3FD 1_555 1_555
F1O H1FD 1_555 1_555
F1O F1FD 1_555 1_555
C4O C5O 1_555 1_555
C4O C3FD 1_555 1_555
C4O C4FD 1_555 1_555
H2O C4FD 1_555 1_555
C5O C5VB 1_555 1_555
C5O C5HC 1_555 1_555
C5O C4TC 1_555 1_555
C5O C4FD 1_555 1_555
C2VB C2HC 1_555 1_555
C3VB C2HC 1_555 1_555
C3VB C3OF 1_555 1_555
H1VB F1OF 1_555 1_555
F1VB C3OF 1_555 1_555
F1VB H1OF 1_555 1_555
F1VB F1OF 1_555 1_555
C4VB C5VB 1_555 1_555
C4VB C5HC 1_555 1_555
C4VB C3OF 1_555 1_555
C4VB C4OF 1_555 1_555
H2VB C4OF 1_555 1_555
C5VB C5HC 1_555 1_555
C5VB C4OF 1_555 1_555
C2HC C3HC 1_555 1_555
C2HC C3OF 1_555 1_555
C2HC C3AG 1_555 1_555
C3HC C4HC 1_555 1_555
C3HC C3AG 1_555 1_555
C3HC C4AG 1_555 1_555
H1HC C3AG 1_555 1_555
H1HC F1AG 1_555 1_555
F1HC C3AG 1_555 1_555
F1HC H1AG 1_555 1_555
F1HC F1AG 1_555 1_555
C4HC C5HC 1_555 1_555
C4HC C3AG 1_555 1_555
C4HC C4AG 1_555 1_555
H2HC C4AG 1_555 1_555
C5HC C4OF 1_555 1_555
C5HC C4AG 1_555 1_555
C3TC H1TC 1_555 1_555
C3TC F1TC 1_555 1_555
C3TC C4TC 1_555 1_555
C4TC H2TC 1_555 1_555
C3FD H1FD 1_555 1_555
C3FD F1FD 1_555 1_555
C3FD C4FD 1_555 1_555
C4FD H2FD 1_555 1_555
C3OF H1OF 1_555 1_555
C3OF F1OF 1_555 1_555
C3OF C4OF 1_555 1_555
C4OF H2OF 1_555 1_555
C3AG H1AG 1_555 1_555
C3AG F1AG 1_555 1_555
C3AG C4AG 1_555 1_555
C4AG H2AG 1_555 1_555
Tb1D O1L 1_555 1_555
C1D O3D 1_555 1_555
C2D C2W 1_555 1_555
C3D C2W 1_555 1_555
C3D C3WC 1_555 1_555
H1D F1WC 1_555 1_555
F1D C3WC 1_555 1_555
F1D H1WC 1_555 1_555
F1D F1WC 1_555 1_555
C4D C3WC 1_555 1_555
C4D C4WC 1_555 1_555
H2D C4WC 1_555 1_555
C5D C5W 1_555 1_555
C5D C4WC 1_555 1_555
C2W C3W 1_555 1_555
C2W C3WC 1_555 1_555
C2W C3ND 1_555 1_555
C3W C4W 1_555 1_555
C3W C3ND 1_555 1_555
C3W C4ND 1_555 1_555
H1W C3ND 1_555 1_555
H1W F1ND 1_555 1_555
F1W C3ND 1_555 1_555
F1W H1ND 1_555 1_555
F1W F1ND 1_555 1_555
C4W C5W 1_555 1_555
C4W C3ND 1_555 1_555
C4W C4ND 1_555 1_555
H2W C4ND 1_555 1_555
C5W C5CA 1_555 1_555
C5W C5TA 1_555 1_555
C5W C4WC 1_555 1_555
C5W C4ND 1_555 1_555
O3W Tb1I 1_555 1_555
C2CA C2TA 1_555 1_555
C3CA C2TA 1_555 1_555
C3CA C3TD 1_555 1_555
H1CA F1TD 1_555 1_555
F1CA C3TD 1_555 1_555
F1CA H1TD 1_555 1_555
F1CA F1TD 1_555 1_555
C4CA C5CA 1_555 1_555
C4CA C5TA 1_555 1_555
C4CA C3TD 1_555 1_555
C4CA C4TD 1_555 1_555
H2CA C4TD 1_555 1_555
C5CA C5TA 1_555 1_555
C5CA C4TD 1_555 1_555
C2TA C3TA 1_555 1_555
C2TA C3TD 1_555 1_555
C2TA C3ME 1_555 1_555
C3TA C4TA 1_555 1_555
C3TA C3ME 1_555 1_555
C3TA C4ME 1_555 1_555
H1TA C3ME 1_555 1_555
H1TA F1ME 1_555 1_555
F1TA C3ME 1_555 1_555
F1TA H1ME 1_555 1_555
F1TA F1ME 1_555 1_555
C4TA C5TA 1_555 1_555
C4TA C3ME 1_555 1_555
C4TA C4ME 1_555 1_555
H2TA C4ME 1_555 1_555
C5TA C4TD 1_555 1_555
C5TA C4ME 1_555 1_555
C3WC H1WC 1_555 1_555
C3WC F1WC 1_555 1_555
C3WC C4WC 1_555 1_555
C4WC H2WC 1_555 1_555
C3ND H1ND 1_555 1_555
C3ND F1ND 1_555 1_555
C3ND C4ND 1_555 1_555
C4ND H2ND 1_555 1_555
C3TD H1TD 1_555 1_555
C3TD F1TD 1_555 1_555
C3TD C4TD 1_555 1_555
C4TD H2TD 1_555 1_555
C3ME H1ME 1_555 1_555
C3ME F1ME 1_555 1_555
C3ME C4ME 1_555 1_555
C4ME H2ME 1_555 1_555
Tb1E O1N 1_555 1_555
O1A Tb1H 1_555 1_555
O1B Tb1A 1_555 1_555
O1B Tb1I 1_555 1_555
Tb1A O1M 1_555 1_555
Tb1A O1O 1_555 1_555
Tb1H O1N 1_555 1_555
Tb1H O1O 1_555 1_555
Tb1I O1L 1_555 1_555
Tb1I O1M 1_555 1_555

#END
