
#######################################################################
#
#                 Cambridge Crystallographic Data Centre
#                                CCDC 
#
#######################################################################
#
# If this CIF has been generated from an entry in the Cambridge 
# Structural Database, then it will include bibliographic, chemical, 
# crystal, experimental, refinement or atomic coordinate data resulting 
# from the CCDC's data processing and validation procedures.
#
#######################################################################

data_VIJNIN
_chemical_name_common            MTAF-4
_chemical_formula_moiety         '(C18 H12 N6 O6 Zn3)n'
_chemical_name_systematic        
'catena-[(\m~5~-4-(1,2,3-triazolato)-benzoato)-(\m~4~-4-(1,2,3-triazolato)-benzoato)-(\m~4~-oxo)-aqua-tri-zinc unknown solvate]'
_symmetry_cell_setting           hexagonal
_symmetry_space_group_name_H-M   'P 63/m m c'
_symmetry_Int_Tables_number      194
_space_group_name_Hall           '-P 6c 2c'
loop_
_symmetry_equiv_pos_site_id
_symmetry_equiv_pos_as_xyz
1 x,y,z
2 x-y,x,1/2+z
3 -y,x-y,z
4 -x,-y,1/2+z
5 -x+y,-x,z
6 y,-x+y,1/2+z
7 x-y,-y,-z
8 -x,-x+y,-z
9 y,x,-z
10 -y,-x,1/2-z
11 -x+y,y,1/2-z
12 x,x-y,1/2-z
13 -x,-y,-z
14 -x+y,-x,1/2-z
15 y,-x+y,-z
16 x,y,1/2-z
17 x-y,x,-z
18 -y,x-y,1/2-z
19 -x+y,y,z
20 x,x-y,z
21 -y,-x,z
22 y,x,1/2+z
23 x-y,-y,1/2+z
24 -x,-x+y,1/2+z
_cell_length_a                   20.1753(4)
_cell_length_b                   20.1753(4)
_cell_length_c                   25.0329(6)
_cell_angle_alpha                90
_cell_angle_beta                 90
_cell_angle_gamma                120
_cell_volume                     8824.33
_exptl_crystal_colour            colorless
_exptl_crystal_description       block
_cell_formula_units_Z            8
loop_
_atom_site_label
_atom_site_type_symbol
_atom_site_fract_x
_atom_site_fract_y
_atom_site_fract_z
Zn1 Zn 0.6667 0.3333 0.2500
Zn2 Zn 0.56222(4) 0.281112(19) 0.36305(2)
Zn3 Zn 0.0000 0.0000 0.42536(13)
Zn4 Zn 0.05241(6) 0.10482(11) 0.47210(9)
O1 O 0.0000 0.0000 0.5000
O2 O 0.6667 0.3333 0.33326(17)
O3 O 0.4365(11) 0.2350(14) 0.4001(8)
O4 O 0.1740(7) 0.0870(3) 0.4680(5)
O5 O 0.1427(8) 0.1278(9) 0.4320(7)
O6 O 0.1019(6) 0.0510(3) 0.3946(5)
C1 C 0.1665(5) 0.0833(3) 0.4188(4)
C2 C 0.2364(5) 0.1182(3) 0.3829(4)
C3 C 0.3645(5) 0.1823(3) 0.3177(4)
C4 C 0.4303(2) 0.21517(12) 0.2776(2)
N1 N 0.5469(3) 0.27344(13) 0.2500
N2 N 0.50339(19) 0.25169(10) 0.29352(14)
C5 C 0.3019(7) 0.1800(8) 0.3995(7)
H1 H 0.3048 0.2013 0.4335
C6 C 0.3644(8) 0.2112(10) 0.3660(6)
C7 C 0.2992(8) 0.1160(9) 0.3034(7)
H2 H 0.2980 0.0912 0.2713
C8 C 0.2353(8) 0.0855(9) 0.3358(6)
H3 H 0.1904 0.0413 0.3249
O7 O 0.6499(6) 0.4605(6) 0.3991(6)
C9 C 0.5494(2) 0.4506(2) 0.4499(3)
C10 C 0.5584(5) 0.5584(5) 0.5000
H4 H 0.6095 0.5875 0.4884
C11 C 0.5157(3) 0.4843(3) 0.4837(4)
C12 C 0.5289(9) 0.5916(9) 0.5327(3)
H5 H 0.5601 0.6425 0.5440
N3 N 0.5672(6) 0.3670(5) 0.4067(6)
C13 C 0.5165(5) 0.3750(6) 0.4333(3)
H6 H 0.4660 0.3362 0.4401
C14 C 0.5820(4) 0.4180(4) 0.4133(5)
O3K O 0.4365(11) 0.2015(18) 0.0999(8)
O4K O 0.1740(7) 0.0870(8) 0.0320(5)
O5K O 0.1427(8) 0.0149(12) 0.0680(7)
O6K O 0.1019(6) 0.0509(7) 0.1054(5)
C1K C 0.1665(5) 0.0832(6) 0.0812(4)
C2K C 0.2364(5) 0.1182(6) 0.1171(4)
C3K C 0.3645(5) 0.1822(6) 0.1823(4)
C4K C 0.4303(2) 0.21513(23) 0.2224(2)
N2K N 0.50339(19) 0.25170(21) 0.20648(14)
C5K C 0.3019(7) 0.1219(11) 0.1005(7)
H1K H 0.3048 0.1035 0.0665
C6K C 0.3644(8) 0.1532(13) 0.1340(6)
C7K C 0.2992(8) 0.1832(12) 0.1966(7)
H2K H 0.2980 0.2068 0.2287
C8K C 0.2353(8) 0.1498(12) 0.1642(6)
H3K H 0.1904 0.1491 0.1751
O3O O 0.4365(11) 0.2350(14) 0.0999(8)
O5O O 0.1427(8) 0.1278(9) 0.0680(7)
C5O C 0.3019(7) 0.1800(8) 0.1005(7)
H1O H 0.3048 0.2013 0.0665
C6O C 0.3644(8) 0.2112(10) 0.1340(6)
C7O C 0.2992(8) 0.1160(9) 0.1966(7)
H2O H 0.2980 0.0912 0.2287
C8O C 0.2353(8) 0.0855(9) 0.1642(6)
H3O H 0.1904 0.0413 0.1751
O3S O 0.4365(11) 0.2015(18) 0.4001(8)
O5S O 0.1427(8) 0.0149(12) 0.4320(7)
C5S C 0.3019(7) 0.1219(11) 0.3995(7)
H1S H 0.3048 0.1035 0.4335
C6S C 0.3644(8) 0.1532(13) 0.3660(6)
C7S C 0.2992(8) 0.1832(12) 0.3034(7)
H2S H 0.2980 0.2068 0.2713
C8S C 0.2353(8) 0.1498(12) 0.3358(6)
H3S H 0.1904 0.1491 0.3249
O7H O 0.4605(6) 0.6499(6) 0.6009(6)
C9H C 0.4506(2) 0.5494(2) 0.5501(3)
H4H H 0.5875 0.6095 0.5116
C11H C 0.4843(3) 0.5157(3) 0.5163(4)
C12H C 0.5916(9) 0.5289(9) 0.4673(3)
H5H H 0.6425 0.5601 0.4560
N3H N 0.3670(5) 0.5672(6) 0.5933(6)
C13H C 0.3750(6) 0.5165(5) 0.5667(3)
H6H H 0.3362 0.4660 0.5599
C14H C 0.4180(4) 0.5820(4) 0.5867(5)
O7L O 0.3501(6) 0.5395(6) 0.6009(6)
C10L C 0.4416(5) 0.4416(5) 0.5000
H4L H 0.3905 0.4125 0.5116
C12L C 0.4711(9) 0.4084(9) 0.4673(3)
H5L H 0.4399 0.3575 0.4560
N3L N 0.4328(6) 0.6330(5) 0.5933(6)
C13L C 0.4835(5) 0.6250(6) 0.5667(3)
H6L H 0.5340 0.6638 0.5599
O7T O 0.5395(6) 0.3501(6) 0.3991(6)
H4T H 0.4125 0.3905 0.4884
C12T C 0.4084(9) 0.4711(9) 0.5327(3)
H5T H 0.3575 0.4399 0.5440
N3T N 0.6330(5) 0.4328(6) 0.4067(6)
C13T C 0.6250(6) 0.4835(5) 0.4333(3)
H6T H 0.6638 0.5340 0.4401
Zn2B Zn -0.281112(19) 0.281108(44) 0.36305(2)
Zn4B Zn -0.10482(11) -0.05241(13) 0.47210(9)
O2_2 O -0.3333 0.3333 0.33326(17)
O3B O -0.2350(14) 0.2015(18) 0.4001(8)
O4B O -0.0870(3) 0.0870(8) 0.4680(5)
O5B O -0.1278(9) 0.0149(12) 0.4320(7)
O6B O -0.0510(3) 0.0509(7) 0.3946(5)
C1B C -0.0833(3) 0.0832(6) 0.4188(4)
C2B C -0.1182(3) 0.1182(6) 0.3829(4)
C3B C -0.1823(3) 0.1822(6) 0.3177(4)
C4B C -0.21517(12) 0.21513(23) 0.2776(2)
N1B N -0.27344(13) 0.27346(33) 0.2500
N2B N -0.25169(10) 0.25170(21) 0.29352(14)
C5B C -0.1800(8) 0.1219(11) 0.3995(7)
H1B H -0.2013 0.1035 0.4335
C6B C -0.2112(10) 0.1532(13) 0.3660(6)
C7B C -0.1160(9) 0.1832(12) 0.3034(7)
H2B H -0.0912 0.2068 0.2713
C8B C -0.0855(9) 0.1498(12) 0.3358(6)
H3B H -0.0413 0.1491 0.3249
O7B O -0.4605(6) 0.1894(8) 0.3991(6)
C9B C -0.4506(2) 0.0988(3) 0.4499(3)
C10B C -0.5584(5) 0.0000(7) 0.5000
H4B H -0.5875 0.0220 0.4884
C11B C -0.4843(3) 0.0314(4) 0.4837(4)
C12B C -0.5916(9) -0.0627(13) 0.5327(3)
H5B H -0.6425 -0.0824 0.5440
N3B N -0.3670(5) 0.2002(8) 0.4067(6)
C13B C -0.3750(6) 0.1415(8) 0.4333(3)
H6B H -0.3362 0.1298 0.4401
C14B C -0.4180(4) 0.1640(6) 0.4133(5)
O3J O -0.2015(18) 0.2350(14) 0.0999(8)
O4J O -0.0870(8) 0.0870(3) 0.0320(5)
O5J O -0.0149(12) 0.1278(9) 0.0680(7)
O6J O -0.0509(7) 0.0510(3) 0.1054(5)
C1J C -0.0832(6) 0.0833(3) 0.0812(4)
C2J C -0.1182(6) 0.1182(3) 0.1171(4)
C3J C -0.1822(6) 0.1823(3) 0.1823(4)
C4J C -0.21513(23) 0.21517(12) 0.2224(2)
N2J N -0.25170(21) 0.25169(10) 0.20648(14)
C5J C -0.1219(11) 0.1800(8) 0.1005(7)
H1J H -0.1035 0.2013 0.0665
C6J C -0.1532(13) 0.2112(10) 0.1340(6)
C7J C -0.1832(12) 0.1160(9) 0.1966(7)
H2J H -0.2068 0.0912 0.2287
C8J C -0.1498(12) 0.0855(9) 0.1642(6)
H3J H -0.1491 0.0413 0.1751
O3Q O -0.2350(14) 0.2015(18) 0.0999(8)
O5Q O -0.1278(9) 0.0149(12) 0.0680(7)
C5Q C -0.1800(8) 0.1219(11) 0.1005(7)
H1Q H -0.2013 0.1035 0.0665
C6Q C -0.2112(10) 0.1532(13) 0.1340(6)
C7Q C -0.1160(9) 0.1832(12) 0.1966(7)
H2Q H -0.0912 0.2068 0.2287
C8Q C -0.0855(9) 0.1498(12) 0.1642(6)
H3Q H -0.0413 0.1491 0.1751
O3R O -0.2015(18) 0.2350(14) 0.4001(8)
O5R O -0.0149(12) 0.1278(9) 0.4320(7)
C5R C -0.1219(11) 0.1800(8) 0.3995(7)
H1R H -0.1035 0.2013 0.4335
C6R C -0.1532(13) 0.2112(10) 0.3660(6)
C7R C -0.1832(12) 0.1160(9) 0.3034(7)
H2R H -0.2068 0.0912 0.2713
C8R C -0.1498(12) 0.0855(9) 0.3358(6)
H3R H -0.1491 0.0413 0.3249
O7G O -0.6499(6) -0.1894(8) 0.6009(6)
C9G C -0.5494(2) -0.0988(3) 0.5501(3)
H4G H -0.6095 -0.0220 0.5116
C11G C -0.5157(3) -0.0314(4) 0.5163(4)
C12G C -0.5289(9) 0.0627(13) 0.4673(3)
H5G H -0.5601 0.0824 0.4560
N3G N -0.5672(6) -0.2002(8) 0.5933(6)
C13G C -0.5165(5) -0.1415(8) 0.5667(3)
H6G H -0.4660 -0.1298 0.5599
C14G C -0.5820(4) -0.1640(6) 0.5867(5)
O7N O -0.5395(6) -0.1894(8) 0.6009(6)
C10N C -0.4416(5) 0.0000(7) 0.5000
H4N H -0.4125 -0.0220 0.5116
C12N C -0.4084(9) 0.0627(13) 0.4673(3)
H5N H -0.3575 0.0824 0.4560
N3N N -0.6330(5) -0.2002(8) 0.5933(6)
C13N C -0.6250(6) -0.1415(8) 0.5667(3)
H6N H -0.6638 -0.1298 0.5599
O7S O -0.3501(6) 0.1894(8) 0.3991(6)
H4S H -0.3905 0.0220 0.4884
C12S C -0.4711(9) -0.0627(13) 0.5327(3)
H5S H -0.4399 -0.0824 0.5440
N3S N -0.4328(6) 0.2002(8) 0.4067(6)
C13S C -0.4835(5) 0.1415(8) 0.4333(3)
H6S H -0.5340 0.1298 0.4401
Zn2D Zn -0.281108(44) -0.56222(4) 0.36305(2)
Zn4D Zn 0.05241(13) -0.05241(6) 0.47210(9)
O3D O -0.2015(18) -0.4365(11) 0.4001(8)
O4D O -0.0870(8) -0.1740(7) 0.4680(5)
O5D O -0.0149(12) -0.1427(8) 0.4320(7)
O6D O -0.0509(7) -0.1019(6) 0.3946(5)
C1D C -0.0832(6) -0.1665(5) 0.4188(4)
C2D C -0.1182(6) -0.2364(5) 0.3829(4)
C3D C -0.1822(6) -0.3645(5) 0.3177(4)
C4D C -0.21513(23) -0.4303(2) 0.2776(2)
N1D N -0.27346(33) -0.5469(3) 0.2500
N2D N -0.25170(21) -0.50339(19) 0.29352(14)
C5D C -0.1219(11) -0.3019(7) 0.3995(7)
H1D H -0.1035 -0.3048 0.4335
C6D C -0.1532(13) -0.3644(8) 0.3660(6)
C7D C -0.1832(12) -0.2992(8) 0.3034(7)
H2D H -0.2068 -0.2980 0.2713
C8D C -0.1498(12) -0.2353(8) 0.3358(6)
H3D H -0.1491 -0.1904 0.3249
O7D O -0.1894(8) -0.6499(6) 0.3991(6)
C9D C -0.0988(3) -0.5494(2) 0.4499(3)
C10D C 0.0000(7) -0.5584(5) 0.5000
H4D H -0.0220 -0.6095 0.4884
C11D C -0.0314(4) -0.5157(3) 0.4837(4)
C12D C 0.0627(13) -0.5289(9) 0.5327(3)
H5D H 0.0824 -0.5601 0.5440
N3D N -0.2002(8) -0.5672(6) 0.4067(6)
C13D C -0.1415(8) -0.5165(5) 0.4333(3)
H6D H -0.1298 -0.4660 0.4401
C14D C -0.1640(6) -0.5820(4) 0.4133(5)
O3I O -0.2350(14) -0.4365(11) 0.0999(8)
O4I O -0.0870(3) -0.1740(7) 0.0320(5)
O5I O -0.1278(9) -0.1427(8) 0.0680(7)
O6I O -0.0510(3) -0.1019(6) 0.1054(5)
C1I C -0.0833(3) -0.1665(5) 0.0812(4)
C2I C -0.1182(3) -0.2364(5) 0.1171(4)
C3I C -0.1823(3) -0.3645(5) 0.1823(4)
C4I C -0.21517(12) -0.4303(2) 0.2224(2)
N2I N -0.25169(10) -0.50339(19) 0.20648(14)
C5I C -0.1800(8) -0.3019(7) 0.1005(7)
H1I H -0.2013 -0.3048 0.0665
C6I C -0.2112(10) -0.3644(8) 0.1340(6)
C7I C -0.1160(9) -0.2992(8) 0.1966(7)
H2I H -0.0912 -0.2980 0.2287
C8I C -0.0855(9) -0.2353(8) 0.1642(6)
H3I H -0.0413 -0.1904 0.1751
O3M O -0.2015(18) -0.4365(11) 0.0999(8)
O5M O -0.0149(12) -0.1427(8) 0.0680(7)
C5M C -0.1219(11) -0.3019(7) 0.1005(7)
H1M H -0.1035 -0.3048 0.0665
C6M C -0.1532(13) -0.3644(8) 0.1340(6)
C7M C -0.1832(12) -0.2992(8) 0.1966(7)
H2M H -0.2068 -0.2980 0.2287
C8M C -0.1498(12) -0.2353(8) 0.1642(6)
H3M H -0.1491 -0.1904 0.1751
O3T O -0.2350(14) -0.4365(11) 0.4001(8)
O5T O -0.1278(9) -0.1427(8) 0.4320(7)
C5T C -0.1800(8) -0.3019(7) 0.3995(7)
H1T H -0.2013 -0.3048 0.4335
C6T C -0.2112(10) -0.3644(8) 0.3660(6)
C7T C -0.1160(9) -0.2992(8) 0.3034(7)
H2T H -0.0912 -0.2980 0.2713
C8T C -0.0855(9) -0.2353(8) 0.3358(6)
H3T H -0.0413 -0.1904 0.3249
O7F O 0.1894(8) -0.4605(6) 0.6009(6)
C9F C 0.0988(3) -0.4506(2) 0.5501(3)
H4F H 0.0220 -0.5875 0.5116
C11F C 0.0314(4) -0.4843(3) 0.5163(4)
C12F C -0.0627(13) -0.5916(9) 0.4673(3)
H5F H -0.0824 -0.6425 0.4560
N3F N 0.2002(8) -0.3670(5) 0.5933(6)
C13F C 0.1415(8) -0.3750(6) 0.5667(3)
H6F H 0.1298 -0.3362 0.5599
C14F C 0.1640(6) -0.4180(4) 0.5867(5)
O7P O 0.1894(8) -0.3501(6) 0.6009(6)
C10P C 0.0000(7) -0.4416(5) 0.5000
H4P H 0.0220 -0.3905 0.5116
C12P C -0.0627(13) -0.4711(9) 0.4673(3)
H5P H -0.0824 -0.4399 0.4560
N3P N 0.2002(8) -0.4328(6) 0.5933(6)
C13P C 0.1415(8) -0.4835(5) 0.5667(3)
H6P H 0.1298 -0.5340 0.5599
O7R O -0.1894(8) -0.5395(6) 0.3991(6)
H4R H -0.0220 -0.4125 0.4884
C12R C 0.0627(13) -0.4084(9) 0.5327(3)
H5R H 0.0824 -0.3575 0.5440
N3R N -0.2002(8) -0.6330(5) 0.4067(6)
C13R C -0.1415(8) -0.6250(6) 0.4333(3)
H6R H -0.1298 -0.6638 0.4401
Zn2F Zn 0.281108(44) -0.281112(19) 0.63695(2)
Zn3F Zn 0.0000 0.0000 0.57464(13)
Zn4F Zn -0.05241(13) -0.10482(11) 0.52790(9)
Zn2G Zn -0.56222(4) -0.281108(44) 0.63695(2)
Zn4G Zn -0.05241(6) 0.05241(13) 0.52790(9)
Zn2H Zn 0.281112(19) 0.56222(4) 0.63695(2)
Zn4H Zn 0.10482(11) 0.05241(6) 0.52790(9)
Zn1_2 Zn -0.3333 -0.6667 0.2500
Zn1_3 Zn -0.3333 0.3333 0.2500
Zn2_2 Zn -0.43778(4) 0.281112(19) 0.36305(2)
Zn2B_2 Zn -0.281112(19) -0.718892(44) 0.36305(2)
Zn2B_3 Zn 0.718888(19) 0.281108(44) 0.36305(2)
Zn2D_2 Zn -0.281108(44) 0.43778(4) 0.36305(2)
Zn2D_3 Zn 0.718892(44) 0.43778(4) 0.36305(2)
Zn2F_2 Zn -0.718892(44) -0.281112(19) 0.63695(2)
Zn2G_2 Zn 0.43778(4) 0.718892(44) 0.63695(2)
Zn2H_2 Zn 0.281112(19) -0.43778(4) 0.63695(2)
Zn2I Zn -0.281112(19) -0.56222(4) 0.13695(2)
Zn2J Zn -0.281108(44) 0.281112(19) 0.13695(2)
Zn2K Zn 0.56222(4) 0.281108(44) 0.13695(2)
Zn3I Zn 0.0000 0.0000 0.07464(13)
Zn4A Zn -0.05241(13) 0.05241(6) -0.02790(9)
Zn4C Zn -0.05241(6) -0.10482(11) -0.02790(9)
Zn4E Zn 0.10482(11) 0.05241(13) -0.02790(9)
Zn4I Zn -0.10482(11) -0.05241(6) 0.02790(9)
Zn4J Zn 0.05241(13) 0.10482(11) 0.02790(9)
Zn4K Zn 0.05241(6) -0.05241(13) 0.02790(9)
O2_3 O -0.3333 -0.6667 0.33326(17)
O2F O -0.6666 -0.3333 0.66674(17)
O2F_2 O 0.3334 -0.3333 0.66674(17)
O2F_3 O 0.3334 0.6667 0.66674(17)
O2I O 0.6667 0.3333 0.16674(17)
O3F O 0.2015(18) -0.2350(14) 0.5999(8)
O3G O -0.4365(11) -0.2015(18) 0.5999(8)
O3H O 0.2350(14) 0.4365(11) 0.5999(8)
O3L O -0.4365(11) -0.2350(14) 0.5999(8)
O3N O 0.2350(14) -0.2015(18) 0.5999(8)
O3P O 0.2015(18) 0.4365(11) 0.5999(8)
O4F O 0.0870(8) -0.0870(3) 0.5320(5)
O4G O -0.1740(7) -0.0870(8) 0.5320(5)
O4H O 0.0870(3) 0.1740(7) 0.5320(5)
O5F O 0.0149(12) -0.1278(9) 0.5680(7)
O5G O -0.1427(8) -0.0149(12) 0.5680(7)
O5H O 0.1278(9) 0.1427(8) 0.5680(7)
O5L O -0.1427(8) -0.1278(9) 0.5680(7)
O5N O 0.1278(9) -0.0149(12) 0.5680(7)
O5P O 0.0149(12) 0.1427(8) 0.5680(7)
O6F O 0.0509(7) -0.0510(3) 0.6054(5)
O6G O -0.1019(6) -0.0509(7) 0.6054(5)
O6H O 0.0510(3) 0.1019(6) 0.6054(5)
N1B_2 N 0.72656(13) 0.27346(33) 0.2500
N1D_2 N 0.72654(33) 0.4531(3) 0.2500
N2F N 0.25170(21) -0.25169(10) 0.70648(14)
N2G N -0.50339(19) -0.25170(21) 0.70648(14)
N2H N 0.25169(10) 0.50339(19) 0.70648(14)
O7_2 O -0.3501(6) -0.5395(6) 0.3991(6)
O7B_2 O 0.5395(6) 0.1894(8) 0.3991(6)
O7D_2 O -0.1894(8) 0.3501(6) 0.3991(6)
O7F_2 O 0.1894(8) 0.5395(6) 0.6009(6)
O7G_2 O 0.3501(6) -0.1894(8) 0.6009(6)
O7H_2 O -0.5395(6) -0.3501(6) 0.6009(6)
N3L_2 N -0.5672(6) -0.3670(5) 0.5933(6)
N3N_2 N 0.3670(5) -0.2002(8) 0.5933(6)
N3P_2 N 0.2002(8) 0.5672(6) 0.5933(6)
N3R_2 N -0.2002(8) 0.3670(5) 0.4067(6)
N3S_2 N 0.5672(6) 0.2002(8) 0.4067(6)
N3T_2 N -0.3670(5) -0.5672(6) 0.4067(6)
N4? N 0.5165(5) 0.3750(6) 0.4333(3)
H7? H 0.3876 0.1938 0.2998
H8? H 0.4093 0.2550 0.3775
loop_
_geom_bond_atom_site_label_1
_geom_bond_atom_site_label_2
_geom_bond_site_symmetry_1
_geom_bond_site_symmetry_2
Zn1 O2 1_555 1_555
Zn2 O2 1_555 1_555
Zn3 Zn4 1_555 1_555
Zn4 O1 1_555 1_555
O1 Zn3 1_555 1_555
O2 Zn2B_3 1_555 1_555
O3 Zn2 1_555 1_555
O4 O5 1_555 1_555
O5 Zn4 1_555 1_555
O6 Zn3 1_555 1_555
C1 O4 1_555 1_555
C2 C1 1_555 1_555
C3 C4 1_555 1_555
C4 N2 1_555 1_555
N1 Zn1 1_555 1_555
N2 Zn2 1_555 1_555
C5 C2 1_555 1_555
H1 C5 1_555 1_555
C6 C3 1_555 1_555
C7 C3 1_555 1_555
H2 C7 1_555 1_555
C8 C2 1_555 1_555
H3 C8 1_555 1_555
O7 N3 1_555 1_555
C9 C11 1_555 1_555
C10 H4 1_555 1_555
H4 C12H 1_555 1_555
C11 C10 1_555 1_555
C12 C10 1_555 1_555
H5 C12 1_555 1_555
N3 Zn2 1_555 1_555
C13 C9 1_555 1_555
H6 C13 1_555 1_555
C14 O7 1_555 1_555
O3K O3O 1_555 1_555
O4K O5K 1_555 1_555
O5K O6K 1_555 1_555
O6K C1K 1_555 1_555
C1K O4K 1_555 1_555
C2K C1K 1_555 1_555
C3K C4K 1_555 1_555
C4K C4 1_555 1_555
N2K N1 1_555 1_555
C5K C2K 1_555 1_555
H1K C5K 1_555 1_555
C6K C3K 1_555 1_555
C7K C3K 1_555 1_555
H2K C7K 1_555 1_555
C8K C2K 1_555 1_555
H3K C8K 1_555 1_555
O3O Zn2K 1_555 1_555
O5O O4K 1_555 1_555
C5O C2K 1_555 1_555
H1O C5O 1_555 1_555
C6O C3K 1_555 1_555
C7O C3K 1_555 1_555
H2O C7O 1_555 1_555
C8O C2K 1_555 1_555
H3O C8O 1_555 1_555
O3S Zn2 1_555 1_555
O5S O4 1_555 1_555
C5S C2 1_555 1_555
H1S C5S 1_555 1_555
C6S C3 1_555 1_555
C7S C3 1_555 1_555
H2S C7S 1_555 1_555
C8S C2 1_555 1_555
H3S C8S 1_555 1_555
O7H N3H 1_555 1_555
C9H C12 1_555 1_555
H4H C10 1_555 1_555
C11H C10 1_555 1_555
C12H C9 1_555 1_555
H5H C12H 1_555 1_555
N3H C13H 1_555 1_555
C13H C9H 1_555 1_555
H6H C13H 1_555 1_555
C14H O7H 1_555 1_555
O7L C13H 1_555 1_555
C10L C11 1_555 1_555
H4L C10L 1_555 1_555
C12L C9 1_555 1_555
H5L C12L 1_555 1_555
N3L N3H 1_555 1_555
C13L C12 1_555 1_555
H6L C13L 1_555 1_555
O7T Zn2 1_555 1_555
H4T C10L 1_555 1_555
C12T C9H 1_555 1_555
H5T C12T 1_555 1_555
N3T N3 1_555 1_555
C13T O7 1_555 1_555
H6T C13T 1_555 1_555
Zn2B O2_2 1_555 1_555
Zn4B Zn3 1_555 1_555
O2_2 Zn1_3 1_555 1_555
O3B Zn2B 1_555 1_555
O4B O5B 1_555 1_555
O5B Zn4B 1_555 1_555
O6B Zn3 1_555 1_555
C1B O4B 1_555 1_555
C2B C1B 1_555 1_555
C3B C4B 1_555 1_555
C4B N2B 1_555 1_555
N1B N2B 1_555 1_555
N2B Zn2B 1_555 1_555
C5B C2B 1_555 1_555
H1B C5B 1_555 1_555
C6B C3B 1_555 1_555
C7B C3B 1_555 1_555
H2B C7B 1_555 1_555
C8B C2B 1_555 1_555
H3B C8B 1_555 1_555
O7B N3B 1_555 1_555
C9B C11B 1_555 1_555
C10B H4B 1_555 1_555
H4B C12G 1_555 1_555
C11B C10B 1_555 1_555
C12B C10B 1_555 1_555
H5B C12B 1_555 1_555
N3B Zn2B 1_555 1_555
C13B C9B 1_555 1_555
H6B C13B 1_555 1_555
C14B O7B 1_555 1_555
O3J O3Q 1_555 1_555
O4J O5J 1_555 1_555
O5J O6J 1_555 1_555
O6J C1J 1_555 1_555
C1J O4J 1_555 1_555
C2J C1J 1_555 1_555
C3J C4J 1_555 1_555
C4J C4B 1_555 1_555
N2J N1B 1_555 1_555
C5J C2J 1_555 1_555
H1J C5J 1_555 1_555
C6J C3J 1_555 1_555
C7J C3J 1_555 1_555
H2J C7J 1_555 1_555
C8J C2J 1_555 1_555
H3J C8J 1_555 1_555
O3Q Zn2J 1_555 1_555
O5Q O4J 1_555 1_555
C5Q C2J 1_555 1_555
H1Q C5Q 1_555 1_555
C6Q C3J 1_555 1_555
C7Q C3J 1_555 1_555
H2Q C7Q 1_555 1_555
C8Q C2J 1_555 1_555
H3Q C8Q 1_555 1_555
O3R Zn2B 1_555 1_555
O5R Zn4 1_555 1_555
C5R C2B 1_555 1_555
H1R C5R 1_555 1_555
C6R C3B 1_555 1_555
C7R C3B 1_555 1_555
H2R C7R 1_555 1_555
C8R C2B 1_555 1_555
H3R C8R 1_555 1_555
O7G N3G 1_555 1_555
C9G C12B 1_555 1_555
H4G C10B 1_555 1_555
C11G C10B 1_555 1_555
C12G C9B 1_555 1_555
H5G C12G 1_555 1_555
N3G C13G 1_555 1_555
C13G C9G 1_555 1_555
H6G C13G 1_555 1_555
C14G O7G 1_555 1_555
O7N C13G 1_555 1_555
C10N C11B 1_555 1_555
H4N C10N 1_555 1_555
C12N C9B 1_555 1_555
H5N C12N 1_555 1_555
N3N N3G 1_555 1_555
C13N C12B 1_555 1_555
H6N C13N 1_555 1_555
O7S Zn2B 1_555 1_555
H4S C10N 1_555 1_555
C12S C9G 1_555 1_555
H5S C12S 1_555 1_555
N3S N3B 1_555 1_555
C13S O7B 1_555 1_555
H6S C13S 1_555 1_555
Zn2D O3D 1_555 1_555
Zn4D Zn3 1_555 1_555
O3D O3T 1_555 1_555
O4D O5D 1_555 1_555
O5D Zn4D 1_555 1_555
O6D Zn3 1_555 1_555
C1D O4D 1_555 1_555
C2D C1D 1_555 1_555
C3D C4D 1_555 1_555
C4D N2D 1_555 1_555
N1D N2D 1_555 1_555
N2D Zn2D 1_555 1_555
C5D C2D 1_555 1_555
H1D C5D 1_555 1_555
C6D C3D 1_555 1_555
C7D C3D 1_555 1_555
H2D C7D 1_555 1_555
C8D C2D 1_555 1_555
H3D C8D 1_555 1_555
O7D N3D 1_555 1_555
C9D C11D 1_555 1_555
C10D H4D 1_555 1_555
H4D C12F 1_555 1_555
C11D C10D 1_555 1_555
C12D C10D 1_555 1_555
H5D C12D 1_555 1_555
N3D Zn2D 1_555 1_555
C13D C9D 1_555 1_555
H6D C13D 1_555 1_555
C14D O7D 1_555 1_555
O3I O3M 1_555 1_555
O4I O5I 1_555 1_555
O5I O6I 1_555 1_555
O6I C1I 1_555 1_555
C1I O4I 1_555 1_555
C2I C1I 1_555 1_555
C3I C4I 1_555 1_555
C4I C4D 1_555 1_555
N2I N1D 1_555 1_555
C5I C2I 1_555 1_555
H1I C5I 1_555 1_555
C6I C3I 1_555 1_555
C7I C3I 1_555 1_555
H2I C7I 1_555 1_555
C8I C2I 1_555 1_555
H3I C8I 1_555 1_555
O3M Zn2I 1_555 1_555
O5M O4I 1_555 1_555
C5M C2I 1_555 1_555
H1M C5M 1_555 1_555
C6M C3I 1_555 1_555
C7M C3I 1_555 1_555
H2M C7M 1_555 1_555
C8M C2I 1_555 1_555
H3M C8M 1_555 1_555
O3T Zn2D 1_555 1_555
O5T Zn4B 1_555 1_555
C5T C2D 1_555 1_555
H1T C5T 1_555 1_555
C6T C3D 1_555 1_555
C7T C3D 1_555 1_555
H2T C7T 1_555 1_555
C8T C2D 1_555 1_555
H3T C8T 1_555 1_555
O7F N3F 1_555 1_555
C9F C12D 1_555 1_555
H4F C10D 1_555 1_555
C11F C10D 1_555 1_555
C12F C9D 1_555 1_555
H5F C12F 1_555 1_555
N3F C13F 1_555 1_555
C13F C9F 1_555 1_555
H6F C13F 1_555 1_555
C14F O7F 1_555 1_555
O7P C13F 1_555 1_555
C10P C11D 1_555 1_555
H4P C10P 1_555 1_555
C12P C9D 1_555 1_555
H5P C12P 1_555 1_555
N3P N3F 1_555 1_555
C13P C12D 1_555 1_555
H6P C13P 1_555 1_555
O7R Zn2D 1_555 1_555
H4R C10P 1_555 1_555
C12R C9F 1_555 1_555
H5R C12R 1_555 1_555
N3R N3D 1_555 1_555
C13R O7D 1_555 1_555
H6R C13R 1_555 1_555
Zn2F N3F 1_555 1_555
Zn3F O1 1_555 1_555
Zn4F O1 1_555 1_555
Zn2G N3G 1_555 1_555
Zn4G Zn4 1_555 1_555
Zn2H N3H 1_555 1_555
Zn4H Zn4 1_555 1_555
Zn1_2 N1D 1_555 1_555
Zn1_3 N1B 1_555 1_555
Zn2_2 O2_2 1_555 1_555
Zn2B_2 O7D 1_555 1_555
Zn2D_2 O2_2 1_555 1_555
Zn2D_3 O2 1_555 1_555
Zn2F_2 O7G 1_555 1_555
Zn2G_2 O7H 1_555 1_555
Zn2H_2 O7F 1_555 1_555
Zn2I O3I 1_555 1_555
Zn2J O3J 1_555 1_555
Zn2K O3K 1_555 1_555
Zn3I O6K 1_555 1_555
Zn4A O4J 1_555 1_555
Zn4C O4I 1_555 1_555
Zn4E O4K 1_555 1_555
Zn4I O5Q 1_555 1_555
Zn4J O5O 1_555 1_555
Zn4K O5K 1_555 1_555
O2_3 Zn2D 1_555 1_555
O2F Zn2G 1_555 1_555
O2F_2 Zn2F 1_555 1_555
O2F_3 Zn2H 1_555 1_555
O2I Zn1 1_555 1_555
O3F Zn2F 1_555 1_555
O3G Zn2G 1_555 1_555
O3H Zn2H 1_555 1_555
O3L Zn2G 1_555 1_555
O3N Zn2F 1_555 1_555
O3P Zn2H 1_555 1_555
O4F Zn4D 1_555 1_555
O4G Zn4B 1_555 1_555
O4H Zn4 1_555 1_555
O5F Zn4F 1_555 1_555
O5G Zn4G 1_555 1_555
O5H Zn4H 1_555 1_555
O5L Zn4F 1_555 1_555
O5N Zn4H 1_555 1_555
O5P Zn4G 1_555 1_555
O6F Zn3F 1_555 1_555
O6G Zn3F 1_555 1_555
O6H Zn3F 1_555 1_555
N1B_2 Zn1 1_555 1_555
N1D_2 Zn1 1_555 1_555
N2F Zn2F 1_555 1_555
N2G Zn2G 1_555 1_555
N2H Zn2H 1_555 1_555
O7_2 Zn2D 1_555 1_555
O7B_2 Zn2 1_555 1_555
O7D_2 Zn2B 1_555 1_555
O7F_2 Zn2H 1_555 1_555
O7G_2 Zn2F 1_555 1_555
O7H_2 Zn2G 1_555 1_555
N3L_2 Zn2G 1_555 1_555
N3N_2 Zn2F 1_555 1_555
N3P_2 Zn2H 1_555 1_555
N3R_2 Zn2B 1_555 1_555
N3S_2 Zn2 1_555 1_555
N3T_2 Zn2D 1_555 1_555
O1 Zn4B 1_555 1_555
O1 Zn4D 1_555 1_555
O1 Zn4G 1_555 1_555
O1 Zn4H 1_555 1_555
O3 O3S 1_555 1_555
O4 Zn4H 1_555 1_555
O5 O6 1_555 1_555
O5 C1 1_555 1_555
O6 C1 1_555 1_555
O6 O5S 1_555 1_555
C1 O5S 1_555 1_555
N1 N2 1_555 1_555
C5 C5S 1_555 1_555
C6 C6S 1_555 1_555
C7 C8 1_555 1_555
C7 C7S 1_555 1_555
C8 C8S 1_555 1_555
O7 Zn2D_3 1_555 1_555
C9 C14 1_555 1_555
C9 C13T 1_555 1_555
C10 C12H 1_555 1_555
C11 C11H 1_555 1_555
C11 C12H 1_555 1_555
C11 C12L 1_555 1_555
C12 H4H 1_555 1_555
C12 C11H 1_555 1_555
N3 C13 1_555 1_555
N3 C14 1_555 1_555
C13 C14 1_555 1_555
C13 C12L 1_555 1_555
C13 O7T 1_555 1_555
C14 O7T 1_555 1_555
C14 N3T 1_555 1_555
C14 C13T 1_555 1_555
O5K C1K 1_555 1_555
O6K O5O 1_555 1_555
C1K O5O 1_555 1_555
C4K N2K 1_555 1_555
N2K Zn2K 1_555 1_555
C5K C5O 1_555 1_555
C6K C6O 1_555 1_555
C7K C8K 1_555 1_555
C7K C7O 1_555 1_555
C8K C8O 1_555 1_555
C7O C8O 1_555 1_555
O5S Zn4D 1_555 1_555
C7S C8S 1_555 1_555
O7H C13L 1_555 1_555
C9H C11H 1_555 1_555
C9H C14H 1_555 1_555
C9H C13L 1_555 1_555
C11H C10L 1_555 1_555
C11H C12T 1_555 1_555
C12H C13T 1_555 1_555
N3H C14H 1_555 1_555
C13H C14H 1_555 1_555
C13H C12T 1_555 1_555
C14H O7L 1_555 1_555
C14H N3L 1_555 1_555
C14H C13L 1_555 1_555
O7L N3L 1_555 1_555
O7L Zn2H 1_555 1_555
C10L C12L 1_555 1_555
C10L C12T 1_555 1_555
H4L C12T 1_555 1_555
C12L H4T 1_555 1_555
N3L C13L 1_555 1_555
N3L Zn2G_2 1_555 1_555
O7T N3T 1_555 1_555
N3T C13T 1_555 1_555
N3T Zn2D_3 1_555 1_555
Zn4B Zn4F 1_555 1_555
Zn4B Zn4G 1_555 1_555
O3B O3R 1_555 1_555
O4B O5R 1_555 1_555
O4B Zn4G 1_555 1_555
O5B O6B 1_555 1_555
O5B C1B 1_555 1_555
O6B C1B 1_555 1_555
O6B O5R 1_555 1_555
C1B O5R 1_555 1_555
C5B C5R 1_555 1_555
C6B C6R 1_555 1_555
C7B C8B 1_555 1_555
C7B C7R 1_555 1_555
C8B C8R 1_555 1_555
O7B Zn2_2 1_555 1_555
C9B C14B 1_555 1_555
C9B C13S 1_555 1_555
C10B C12G 1_555 1_555
C11B C11G 1_555 1_555
C11B C12G 1_555 1_555
C11B C12N 1_555 1_555
C12B H4G 1_555 1_555
C12B C11G 1_555 1_555
N3B C13B 1_555 1_555
N3B C14B 1_555 1_555
C13B C14B 1_555 1_555
C13B C12N 1_555 1_555
C13B O7S 1_555 1_555
C14B O7S 1_555 1_555
C14B N3S 1_555 1_555
C14B C13S 1_555 1_555
O5J C1J 1_555 1_555
O5J Zn4J 1_555 1_555
O6J O5Q 1_555 1_555
O6J Zn3I 1_555 1_555
C1J O5Q 1_555 1_555
C4J N2J 1_555 1_555
N2J Zn2J 1_555 1_555
C5J C5Q 1_555 1_555
C6J C6Q 1_555 1_555
C7J C8J 1_555 1_555
C7J C7Q 1_555 1_555
C8J C8Q 1_555 1_555
C7Q C8Q 1_555 1_555
C7R C8R 1_555 1_555
O7G C13N 1_555 1_555
C9G C11G 1_555 1_555
C9G C14G 1_555 1_555
C9G C13N 1_555 1_555
C11G C10N 1_555 1_555
C11G C12S 1_555 1_555
C12G C13S 1_555 1_555
N3G C14G 1_555 1_555
C13G C14G 1_555 1_555
C13G C12S 1_555 1_555
C14G O7N 1_555 1_555
C14G N3N 1_555 1_555
C14G C13N 1_555 1_555
O7N N3N 1_555 1_555
O7N Zn2G 1_555 1_555
C10N C12N 1_555 1_555
C10N C12S 1_555 1_555
H4N C12S 1_555 1_555
C12N H4S 1_555 1_555
N3N C13N 1_555 1_555
N3N Zn2F_2 1_555 1_555
O7S N3S 1_555 1_555
N3S C13S 1_555 1_555
N3S Zn2_2 1_555 1_555
Zn4D Zn4F 1_555 1_555
Zn4D Zn4H 1_555 1_555
O4D O5T 1_555 1_555
O4D Zn4F 1_555 1_555
O5D O6D 1_555 1_555
O5D C1D 1_555 1_555
O6D C1D 1_555 1_555
O6D O5T 1_555 1_555
C1D O5T 1_555 1_555
C5D C5T 1_555 1_555
C6D C6T 1_555 1_555
C7D C8D 1_555 1_555
C7D C7T 1_555 1_555
C8D C8T 1_555 1_555
C9D C14D 1_555 1_555
C9D C13R 1_555 1_555
C10D C12F 1_555 1_555
C11D C11F 1_555 1_555
C11D C12F 1_555 1_555
C11D C12P 1_555 1_555
C12D H4F 1_555 1_555
C12D C11F 1_555 1_555
N3D C13D 1_555 1_555
N3D C14D 1_555 1_555
C13D C14D 1_555 1_555
C13D C12P 1_555 1_555
C13D O7R 1_555 1_555
C14D O7R 1_555 1_555
C14D N3R 1_555 1_555
C14D C13R 1_555 1_555
O5I C1I 1_555 1_555
O5I Zn4I 1_555 1_555
O6I O5M 1_555 1_555
O6I Zn3I 1_555 1_555
C1I O5M 1_555 1_555
C4I N2I 1_555 1_555
N2I Zn2I 1_555 1_555
C5I C5M 1_555 1_555
C6I C6M 1_555 1_555
C7I C8I 1_555 1_555
C7I C7M 1_555 1_555
C8I C8M 1_555 1_555
O5M Zn4K 1_555 1_555
C7M C8M 1_555 1_555
C7T C8T 1_555 1_555
O7F C13P 1_555 1_555
C9F C11F 1_555 1_555
C9F C14F 1_555 1_555
C9F C13P 1_555 1_555
C11F C10P 1_555 1_555
C11F C12R 1_555 1_555
C12F C13R 1_555 1_555
N3F C14F 1_555 1_555
C13F C14F 1_555 1_555
C13F C12R 1_555 1_555
C14F O7P 1_555 1_555
C14F N3P 1_555 1_555
C14F C13P 1_555 1_555
O7P N3P 1_555 1_555
O7P Zn2F 1_555 1_555
C10P C12P 1_555 1_555
C10P C12R 1_555 1_555
H4P C12R 1_555 1_555
C12P H4R 1_555 1_555
N3P C13P 1_555 1_555
N3P Zn2H_2 1_555 1_555
O7R N3R 1_555 1_555
N3R C13R 1_555 1_555
N3R Zn2B_2 1_555 1_555
Zn3F Zn4F 1_555 1_555
Zn3F Zn4G 1_555 1_555
Zn3F Zn4H 1_555 1_555
Zn1_2 O2_3 1_555 1_555
Zn2B_2 O2_3 1_555 1_555
Zn2F_2 O2F 1_555 1_555
Zn2G_2 O2F_3 1_555 1_555
Zn2H_2 O2F_2 1_555 1_555
Zn2K O2I 1_555 1_555
Zn3I Zn4I 1_555 1_555
Zn3I Zn4J 1_555 1_555
Zn3I Zn4K 1_555 1_555
Zn4A Zn4I 1_555 1_555
Zn4A Zn4J 1_555 1_555
Zn4C Zn4I 1_555 1_555
Zn4C Zn4K 1_555 1_555
Zn4E Zn4J 1_555 1_555
Zn4E Zn4K 1_555 1_555
O3F O3N 1_555 1_555
O3G O3L 1_555 1_555
O3H O3P 1_555 1_555
O4F O5F 1_555 1_555
O4F O5N 1_555 1_555
O4G O5G 1_555 1_555
O4G O5L 1_555 1_555
O4H O5H 1_555 1_555
O4H O5P 1_555 1_555
O5F O6F 1_555 1_555
O5G O6G 1_555 1_555
O5H O6H 1_555 1_555
O5L O6G 1_555 1_555
O5N O6F 1_555 1_555
O5P O6H 1_555 1_555

#END
