
#######################################################################
#
#                 Cambridge Crystallographic Data Centre
#                                CCDC 
#
#######################################################################
#
# If this CIF has been generated from an entry in the Cambridge 
# Structural Database, then it will include bibliographic, chemical, 
# crystal, experimental, refinement or atomic coordinate data resulting 
# from the CCDC's data processing and validation procedures.
#
#######################################################################

data_PEZXUP
_chemical_formula_moiety         
'(C64 H64 Cd1 O18 2-)n,H2 O1,0.25(Na1 1+),1.75(C2 H8 N1 1+)'
_chemical_name_systematic        
"catena-(sodium dimethylammonium bis(\m~2~-2-hydroxymethyl-4,6-bis(2'-methoxyl-4'-(2''-1-carboxyl)-ethlene)-1,3,5-mesitylene)-cadmium monohydrate)"
_symmetry_cell_setting           orthorhombic
_symmetry_space_group_name_H-M   'P b a n'
_symmetry_Int_Tables_number      50
_space_group_name_Hall           '-P 2ab 2b'
loop_
_symmetry_equiv_pos_site_id
_symmetry_equiv_pos_as_xyz
1 x,y,z
2 1/2-x,1/2-y,z
3 x,1/2-y,-z
4 1/2-x,y,-z
5 -x,-y,-z
6 1/2+x,1/2+y,-z
7 -x,1/2+y,z
8 1/2+x,-y,z
_cell_length_a                   28.2340(11)
_cell_length_b                   8.672(3)
_cell_length_c                   21.339(4)
_cell_angle_alpha                90
_cell_angle_beta                 90
_cell_angle_gamma                90
_cell_volume                     5224.75
_exptl_crystal_colour            'pale yellow'
_exptl_crystal_description       strip
_cell_formula_units_Z            2
loop_
_atom_site_label
_atom_site_type_symbol
_atom_site_fract_x
_atom_site_fract_y
_atom_site_fract_z
O6 O 0.7500 0.7500 0.5000
Cd1 Cd 0.7500 0.2500 0.5000
C1 C 0.6914(9) 0.411(3) 0.4251(11)
C2 C 0.6631(7) 0.496(3) 0.3787(9)
H1 H 0.6622 0.6024 0.3829
C3 C 0.6403(6) 0.440(2) 0.3344(7)
H2 H 0.6445 0.3342 0.3298
C4 C 0.6063(7) 0.512(2) 0.2853(7)
C5 C 0.5903(7) 0.4204(16) 0.2413(8)
H3 H 0.5989 0.3170 0.2428
C6 C 0.5625(6) 0.4661(15) 0.1946(6)
H4 H 0.5521 0.3945 0.1652
C7 C 0.5485(6) 0.6223(14) 0.1891(6)
C8 C 0.5635(7) 0.7218(18) 0.2336(6)
C9 C 0.5928(7) 0.6688(17) 0.2811(7)
H5 H 0.6039 0.7380 0.3110
C10 C 0.5596(7) 0.9738(16) 0.2742(7)
H6 H 0.5491 1.0751 0.2627
H7 H 0.5932 0.9758 0.2818
H8 H 0.5435 0.9415 0.3116
C11 C 0.5057(5) 0.5780(11) 0.0921(5)
H9 H 0.4862 0.4947 0.1081
H10 H 0.5337 0.5336 0.0730
C12 C 0.4785(6) 0.6691(12) 0.0444(5)
C13 C 0.5037(8) 0.7500 0.0000
C14 C 0.5569(7) 0.7500 0.0000
C15 C 0.4318(6) 0.6798(13) 0.0477(6)
C16 C 0.4039(6) 0.6104(14) 0.1011(7)
H11 H 0.3708 0.6314 0.0952
H12 H 0.4142 0.6549 0.1400
H13 H 0.4089 0.5010 0.1021
C17 C 0.4046(9) 0.7500 0.0000
C18 C 0.3484(10) 0.7500 0.0000
O1 O 0.6926(5) 0.255(2) 0.4178(5)
O2 O 0.7134(5) 0.4756(18) 0.4560(6)
O3 O 0.5193(3) 0.6796(8) 0.1429(4)
O4 O 0.5497(4) 0.8703(10) 0.2256(4)
O5 O 0.3320(9) 0.590(3) 0.0036(16)
C1B C 0.6914(9) 1.089(3) -0.4251(11)
C2B C 0.6631(7) 1.004(3) -0.3787(9)
H1B H 0.6622 0.8976 -0.3829
C3B C 0.6403(6) 1.060(2) -0.3344(7)
H2B H 0.6445 1.1658 -0.3298
C4B C 0.6063(7) 0.988(2) -0.2853(7)
C5B C 0.5903(7) 1.0796(16) -0.2413(8)
H3B H 0.5989 1.1830 -0.2428
C6B C 0.5625(6) 1.0339(15) -0.1946(6)
H4B H 0.5521 1.1055 -0.1652
C7B C 0.5485(6) 0.8777(14) -0.1891(6)
C8B C 0.5635(7) 0.7782(18) -0.2336(6)
C9B C 0.5928(7) 0.8312(17) -0.2811(7)
H5B H 0.6039 0.7620 -0.3110
C10B C 0.5596(7) 0.5262(16) -0.2742(7)
H6B H 0.5491 0.4249 -0.2627
H7B H 0.5932 0.5242 -0.2818
H8B H 0.5435 0.5585 -0.3116
C11B C 0.5057(5) 0.9220(11) -0.0921(5)
H9B H 0.4862 1.0053 -0.1081
H10B H 0.5337 0.9664 -0.0730
C12B C 0.4785(6) 0.8309(12) -0.0444(5)
C15B C 0.4318(6) 0.8202(13) -0.0477(6)
C16B C 0.4039(6) 0.8896(14) -0.1011(7)
H11B H 0.3708 0.8686 -0.0952
H12B H 0.4142 0.8451 -0.1400
H13B H 0.4089 0.9990 -0.1021
O1B O 0.6926(5) 1.245(2) -0.4178(5)
O2B O 0.7134(5) 1.0244(18) -0.4560(6)
O3B O 0.5193(3) 0.8204(8) -0.1429(4)
O4B O 0.5497(4) 0.6297(10) -0.2256(4)
O5B O 0.3320(9) 0.910(3) -0.0036(16)
C1A C 0.8086(9) 0.089(3) 0.4251(11)
C2A C 0.8369(7) 0.004(3) 0.3787(9)
H1A H 0.8378 -0.1024 0.3829
C3A C 0.8597(6) 0.060(2) 0.3344(7)
H2A H 0.8555 0.1658 0.3298
C4A C 0.8937(7) -0.012(2) 0.2853(7)
C5A C 0.9097(7) 0.0796(16) 0.2413(8)
H3A H 0.9011 0.1830 0.2428
C6A C 0.9375(6) 0.0339(15) 0.1946(6)
H4A H 0.9479 0.1055 0.1652
C7A C 0.9515(6) -0.1223(14) 0.1891(6)
C8A C 0.9365(7) -0.2218(18) 0.2336(6)
C9A C 0.9072(7) -0.1688(17) 0.2811(7)
H5A H 0.8961 -0.2380 0.3110
C10A C 0.9404(7) -0.4738(16) 0.2742(7)
H6A H 0.9509 -0.5751 0.2627
H7A H 0.9068 -0.4758 0.2818
H8A H 0.9565 -0.4415 0.3116
C11A C 0.9943(5) -0.0780(11) 0.0921(5)
H9A H 1.0138 0.0053 0.1081
H10A H 0.9663 -0.0336 0.0730
C12A C 1.0215(6) -0.1691(12) 0.0444(5)
C13A C 0.9963(8) -0.2500 0.0000
C14A C 0.9431(7) -0.2500 0.0000
C15A C 1.0682(6) -0.1798(13) 0.0477(6)
C16A C 1.0961(6) -0.1104(14) 0.1011(7)
H11A H 1.1292 -0.1314 0.0952
H12A H 1.0858 -0.1549 0.1400
H13A H 1.0911 -0.0010 0.1021
C17A C 1.0954(9) -0.2500 0.0000
C18A C 1.1516(10) -0.2500 0.0000
O1A O 0.8074(5) 0.245(2) 0.4178(5)
O2A O 0.7866(5) 0.0244(18) 0.4560(6)
O3A O 0.9807(3) -0.1796(8) 0.1429(4)
O4A O 0.9503(4) -0.3703(10) 0.2256(4)
O5A O 1.1680(9) -0.090(3) 0.0036(16)
C1C C 0.8086(9) -0.589(3) -0.4251(11)
C2C C 0.8369(7) -0.504(3) -0.3787(9)
H1C H 0.8378 -0.3976 -0.3829
C3C C 0.8597(6) -0.560(2) -0.3344(7)
H2C H 0.8555 -0.6658 -0.3298
C4C C 0.8937(7) -0.488(2) -0.2853(7)
C5C C 0.9097(7) -0.5796(16) -0.2413(8)
H3C H 0.9011 -0.6830 -0.2428
C6C C 0.9375(6) -0.5339(15) -0.1946(6)
H4C H 0.9479 -0.6055 -0.1652
C7C C 0.9515(6) -0.3777(14) -0.1891(6)
C8C C 0.9365(7) -0.2782(18) -0.2336(6)
C9C C 0.9072(7) -0.3312(17) -0.2811(7)
H5C H 0.8961 -0.2620 -0.3110
C10C C 0.9404(7) -0.0262(16) -0.2742(7)
H6C H 0.9509 0.0751 -0.2627
H7C H 0.9068 -0.0242 -0.2818
H8C H 0.9565 -0.0585 -0.3116
C11C C 0.9943(5) -0.4220(11) -0.0921(5)
H9C H 1.0138 -0.5053 -0.1081
H10C H 0.9663 -0.4664 -0.0730
C12C C 1.0215(6) -0.3309(12) -0.0444(5)
C15C C 1.0682(6) -0.3202(13) -0.0477(6)
C16C C 1.0961(6) -0.3896(14) -0.1011(7)
H11C H 1.1292 -0.3686 -0.0952
H12C H 1.0858 -0.3451 -0.1400
H13C H 1.0911 -0.4990 -0.1021
O1C O 0.8074(5) -0.745(2) -0.4178(5)
O2C O 0.7866(5) -0.5244(18) -0.4560(6)
O3C O 0.9807(3) -0.3204(8) -0.1429(4)
O4C O 0.9503(4) -0.1297(10) -0.2256(4)
O5C O 1.1680(9) -0.410(3) -0.0036(16)
Cd1_2 Cd 0.7500 -0.7500 -0.5000
Cd1_3 Cd 0.7500 1.2500 -0.5000
O1B_2 O 0.6926(5) 0.245(2) 0.5822(5)
O1C_2 O 0.8074(5) 0.255(2) 0.5822(5)
O2B_2 O 0.7134(5) 0.0244(18) 0.5440(6)
O2C_2 O 0.7866(5) 0.4756(18) 0.5440(6)
H14? H 0.5683 0.6882 0.0342
H15? H 0.5683 0.7081 -0.0388
H16? H 0.5683 0.8537 0.0047
loop_
_geom_bond_atom_site_label_1
_geom_bond_atom_site_label_2
_geom_bond_site_symmetry_1
_geom_bond_site_symmetry_2
Cd1 O1 1_555 1_555
C1 C2 1_555 1_555
C2 H1 1_555 1_555
C3 C2 1_555 1_555
H2 C3 1_555 1_555
C4 C3 1_555 1_555
C5 C4 1_555 1_555
H3 C5 1_555 1_555
C6 C5 1_555 1_555
H4 C6 1_555 1_555
C7 C6 1_555 1_555
C8 C7 1_555 1_555
C9 C4 1_555 1_555
H5 C9 1_555 1_555
C10 H6 1_555 1_555
H7 C10 1_555 1_555
H8 C10 1_555 1_555
C11 H9 1_555 1_555
H10 C11 1_555 1_555
C12 C11 1_555 1_555
C13 C12 1_555 1_555
C14 C13 1_555 1_555
C15 C12 1_555 1_555
C16 C15 1_555 1_555
H11 C16 1_555 1_555
H12 C16 1_555 1_555
H13 C16 1_555 1_555
C17 C15 1_555 1_555
C18 C17 1_555 1_555
O1 C1 1_555 1_555
O2 Cd1 1_555 1_555
O3 C7 1_555 1_555
O4 C8 1_555 1_555
O5 C18 1_555 1_555
C1B C2B 1_555 1_555
C2B H1B 1_555 1_555
C3B C2B 1_555 1_555
H2B C3B 1_555 1_555
C4B C3B 1_555 1_555
C5B C4B 1_555 1_555
H3B C5B 1_555 1_555
C6B C5B 1_555 1_555
H4B C6B 1_555 1_555
C7B C6B 1_555 1_555
C8B C7B 1_555 1_555
C9B C4B 1_555 1_555
H5B C9B 1_555 1_555
C10B H6B 1_555 1_555
H7B C10B 1_555 1_555
H8B C10B 1_555 1_555
C11B H9B 1_555 1_555
H10B C11B 1_555 1_555
C12B C13 1_555 1_555
C15B C17 1_555 1_555
C16B C15B 1_555 1_555
H11B C16B 1_555 1_555
H12B C16B 1_555 1_555
H13B C16B 1_555 1_555
O1B C1B 1_555 1_555
O2B C1B 1_555 1_555
O3B C7B 1_555 1_555
O4B C8B 1_555 1_555
O5B C18 1_555 1_555
C1A C2A 1_555 1_555
C2A H1A 1_555 1_555
C3A C2A 1_555 1_555
H2A C3A 1_555 1_555
C4A C3A 1_555 1_555
C5A C4A 1_555 1_555
H3A C5A 1_555 1_555
C6A C5A 1_555 1_555
H4A C6A 1_555 1_555
C7A C6A 1_555 1_555
C8A C7A 1_555 1_555
C9A C4A 1_555 1_555
H5A C9A 1_555 1_555
C10A H6A 1_555 1_555
H7A C10A 1_555 1_555
H8A C10A 1_555 1_555
C11A H9A 1_555 1_555
H10A C11A 1_555 1_555
C12A C11A 1_555 1_555
C13A C12A 1_555 1_555
C14A C13A 1_555 1_555
C15A C12A 1_555 1_555
C16A C15A 1_555 1_555
H11A C16A 1_555 1_555
H12A C16A 1_555 1_555
H13A C16A 1_555 1_555
C17A C15A 1_555 1_555
C18A C17A 1_555 1_555
O1A Cd1 1_555 1_555
O2A Cd1 1_555 1_555
O3A C7A 1_555 1_555
O4A C8A 1_555 1_555
O5A C18A 1_555 1_555
C1C C2C 1_555 1_555
C2C H1C 1_555 1_555
C3C C2C 1_555 1_555
H2C C3C 1_555 1_555
C4C C3C 1_555 1_555
C5C C4C 1_555 1_555
H3C C5C 1_555 1_555
C6C C5C 1_555 1_555
H4C C6C 1_555 1_555
C7C C6C 1_555 1_555
C8C C7C 1_555 1_555
C9C C4C 1_555 1_555
H5C C9C 1_555 1_555
C10C H6C 1_555 1_555
H7C C10C 1_555 1_555
H8C C10C 1_555 1_555
C11C H9C 1_555 1_555
H10C C11C 1_555 1_555
C12C C13A 1_555 1_555
C15C C17A 1_555 1_555
C16C C15C 1_555 1_555
H11C C16C 1_555 1_555
H12C C16C 1_555 1_555
H13C C16C 1_555 1_555
O1C C1C 1_555 1_555
O2C C1C 1_555 1_555
O3C C7C 1_555 1_555
O4C C8C 1_555 1_555
O5C C18A 1_555 1_555
Cd1_2 O1C 1_555 1_555
Cd1_3 O1B 1_555 1_555
O1B_2 Cd1 1_555 1_555
O1C_2 Cd1 1_555 1_555
O2B_2 Cd1 1_555 1_555
O2C_2 Cd1 1_555 1_555
C1 O2 1_555 1_555
C8 C9 1_555 1_555
C10 O4 1_555 1_555
C11 O3 1_555 1_555
C8B C9B 1_555 1_555
C10B O4B 1_555 1_555
C11B C12B 1_555 1_555
C11B O3B 1_555 1_555
C12B C15B 1_555 1_555
O2B Cd1_3 1_555 1_555
C1A O1A 1_555 1_555
C1A O2A 1_555 1_555
C8A C9A 1_555 1_555
C10A O4A 1_555 1_555
C11A O3A 1_555 1_555
C8C C9C 1_555 1_555
C10C O4C 1_555 1_555
C11C C12C 1_555 1_555
C11C O3C 1_555 1_555
C12C C15C 1_555 1_555
O2C Cd1_2 1_555 1_555

#END
