
#######################################################################
#
#                 Cambridge Crystallographic Data Centre
#                                CCDC 
#
#######################################################################
#
# If this CIF has been generated from an entry in the Cambridge 
# Structural Database, then it will include bibliographic, chemical, 
# crystal, experimental, refinement or atomic coordinate data resulting 
# from the CCDC's data processing and validation procedures.
#
#######################################################################

data_YOZBUL01
_chemical_formula_moiety         '(C12 H6 Cl4 N10 O4 Zn2)n,0.5n(H2 O1)'
_chemical_name_systematic        
'catena-(bis((\m~2~-4,5-Dichloroimidazolato)-(\m~2~-2-nitroimidazolato))-di-zinc(ii) unknown solvate hemihydrate)'
_symmetry_cell_setting           hexagonal
_symmetry_space_group_name_H-M   'P 63/m m c'
_symmetry_Int_Tables_number      194
_space_group_name_Hall           '-P 6c 2c'
loop_
_symmetry_equiv_pos_site_id
_symmetry_equiv_pos_as_xyz
1 x,y,z
2 -y,x-y,z
3 -x+y,-x,z
4 -x,-y,1/2+z
5 y,-x+y,1/2+z
6 x-y,x,1/2+z
7 y,x,-z
8 x-y,-y,-z
9 -x,-x+y,-z
10 -y,-x,1/2-z
11 -x+y,y,1/2-z
12 x,x-y,1/2-z
13 -x,-y,-z
14 y,-x+y,-z
15 x-y,x,-z
16 x,y,1/2-z
17 -y,x-y,1/2-z
18 -x+y,-x,1/2-z
19 -y,-x,z
20 -x+y,y,z
21 x,x-y,z
22 y,x,1/2+z
23 x-y,-y,1/2+z
24 -x,-x+y,1/2+z
_cell_length_a                   26.307(4)
_cell_length_b                   26.307(4)
_cell_length_c                   19.361(4)
_cell_angle_alpha                90
_cell_angle_beta                 90
_cell_angle_gamma                120
_cell_volume                     11603.8
_exptl_crystal_colour            yellow
_exptl_crystal_description       prism
_cell_formula_units_Z            12
loop_
_atom_site_label
_atom_site_type_symbol
_atom_site_fract_x
_atom_site_fract_y
_atom_site_fract_z
_atom_site_U_iso_or_equiv
_atom_site_thermal_displace_type
Zn1 Zn 0.89576(8) 0.33177(7) 0.40572(11) 0.1166 Uani
N1 N 0.8264(5) 0.2603(6) 0.4435(7) 0.1120 Uiso
C1 C 0.7820(2) 0.2180(2) 0.4031(11) 0.1020 Uiso
H1 H 0.7808 0.2192 0.3552 0.1230 Uiso
C2 C 0.8108(6) 0.2386(6) 0.5079(10) 0.1570 Uiso
Cl1 Cl 0.8511(2) 0.2789(3) 0.5799(3) 0.2319 Uani
N2 N 0.9631(5) 0.3392(5) 0.4610(6) 0.1200 Uiso
C3 C 1.0000 0.3882(8) 0.5000 0.1160 Uiso
H2 H 1.0000 0.4236 0.5000 0.1390 Uiso
C4 C 0.9773(6) 0.2962(7) 0.4767(7) 0.1120 Uiso
Cl2 Cl 0.9419(2) 0.22803(19) 0.4421(3) 0.2124 Uani
N3 N 0.8869(5) 0.4011(6) 0.4318(6) 0.1340 Uiso
C5 C 0.9086(14) 0.4543(7) 0.4158(14) 0.1570 Uiso
C6 C 0.8377(9) 0.3904(8) 0.4722(10) 0.2250 Uiso
H3 H 0.8112 0.3556 0.4941 0.2700 Uiso
N4 N 0.9603(14) 0.4802(7) 0.3780(14) 0.2010 Uiso
O1 O 0.9925(11) 0.5350(7) 0.3786(16) 0.5702 Uani
N5 N 0.9148(5) 0.3261(4) 0.3067(8) 0.1100 Uiso
C7 C 0.8891(11) 0.3261(7) 0.2500 0.0860 Uiso
C8 C 0.9628(7) 0.3214(6) 0.2857(7) 0.1590 Uiso
H4 H 0.9898 0.3187 0.3142 0.1910 Uiso
N6 N 0.8354(12) 0.3259(8) 0.2500 0.1230 Uiso
O2 O 0.8149(4) 0.3263(4) 0.3071(7) 0.1433 Uani
Zn1R Zn 0.66823(7) 0.10424(8) 0.40572(11) 0.1166 Uani
Zn1H Zn 1.10424(8) 0.43601(11) 0.59428(11) 0.1166 Uani
Zn1T Zn 0.89576(8) 0.56399(11) 0.40572(11) 0.1166 Uani
Zn1O Zn 0.89576(8) 0.33177(7) 0.09428(11) 0.1166 Uani
N1R N 0.7397(6) 0.1736(5) 0.4435(7) 0.1120 Uiso
C2R C 0.7614(6) 0.1892(6) 0.5079(10) 0.1570 Uiso
Cl1R Cl 0.7211(3) 0.1489(2) 0.5799(3) 0.2319 Uani
N2H N 1.0369(5) 0.3761(7) 0.5390(6) 0.1200 Uiso
N2R N 0.6608(5) 0.0369(5) 0.4610(6) 0.1200 Uiso
C4H C 1.0227(6) 0.3189(9) 0.5233(7) 0.1120 Uiso
Cl2H Cl 1.0581(2) 0.28613(28) 0.5579(3) 0.2124 Uani
N3T N 0.8869(5) 0.4858(8) 0.4318(6) 0.1340 Uiso
N3R N 0.5989(6) 0.1131(5) 0.4318(6) 0.1340 Uiso
C6T C 0.8377(9) 0.4473(12) 0.4722(10) 0.2250 Uiso
H3T H 0.8112 0.4556 0.4941 0.2700 Uiso
O1T O 0.9925(11) 0.4575(13) 0.3786(16) 0.5702 Uani
N5O N 0.9148(5) 0.3261(4) 0.1933(8) 0.1100 Uiso
N5R N 0.6739(4) 0.0852(5) 0.3067(8) 0.1100 Uiso
C8O C 0.9628(7) 0.3214(6) 0.2143(7) 0.1590 Uiso
H4O H 0.9898 0.3187 0.1858 0.1910 Uiso
O2O O 0.8149(4) 0.3263(4) 0.1929(7) 0.1433 Uani
loop_
_atom_site_aniso_label
_atom_site_aniso_U_11
_atom_site_aniso_U_22
_atom_site_aniso_U_33
_atom_site_aniso_U_23
_atom_site_aniso_U_13
_atom_site_aniso_U_12
Zn1 0.094(3) 0.097(3) 0.146(4) -0.0127(12) -0.0288(14) 0.0382(17)
Cl1 0.228(6) 0.248(7) 0.129(5) -0.019(4) -0.066(4) 0.051(5)
Cl2 0.235(7) 0.122(5) 0.288(7) -0.063(4) -0.114(5) 0.095(4)
O1 0.58(4) 0.106(13) 0.88(5) 0.015(18) 0.53(4) 0.063(16)
O2 0.138(10) 0.164(11) 0.106(10) -0.012(7) -0.017(8) 0.059(8)
Zn1R 0.097 0.094 0.146 0.0288 0.0127 0.0382
Zn1H 0.094 0.1146 0.146 -0.0161 -0.0288 0.0558
Zn1T 0.094 0.1146 0.146 -0.0161 -0.0288 0.0558
Zn1O 0.094 0.097 0.146 0.0127 0.0288 0.0382
Cl1R 0.248 0.228 0.129 0.066 0.019 0.051
Cl2H 0.235 0.167 0.288 -0.051 -0.114 0.14
O1T 0.58 0.56 0.88 0.515 0.53 0.517
O2O 0.138 0.164 0.106 0.012 0.017 0.059
loop_
_geom_bond_atom_site_label_1
_geom_bond_atom_site_label_2
_geom_bond_site_symmetry_1
_geom_bond_site_symmetry_2
Zn1 N1 1_555 1_555
N1 C1 1_555 1_555
C1 H1 1_555 1_555
C2 N1 1_555 1_555
Cl1 C2 1_555 1_555
N2 Zn1 1_555 1_555
C3 N2 1_555 1_555
H2 C3 1_555 1_555
C4 N2 1_555 1_555
Cl2 C4 1_555 1_555
N3 Zn1 1_555 1_555
C5 N3 1_555 1_555
C6 N3 1_555 1_555
H3 C6 1_555 1_555
N4 C5 1_555 1_555
O1 N4 1_555 1_555
N5 Zn1 1_555 1_555
C7 N5 1_555 1_555
C8 N5 1_555 1_555
H4 C8 1_555 1_555
N6 C7 1_555 1_555
O2 N6 1_555 1_555
Zn1R N1R 1_555 1_555
Zn1H N2H 1_555 1_555
Zn1T N3T 1_555 1_555
Zn1O N5O 1_555 1_555
N1R C1 1_555 1_555
C2R C2 1_555 1_555
Cl1R C2R 1_555 1_555
N2H C3 1_555 1_555
N2R Zn1R 1_555 1_555
C4H C4 1_555 1_555
Cl2H C4H 1_555 1_555
N3T C5 1_555 1_555
N3R Zn1R 1_555 1_555
C6T C6 1_555 1_555
H3T C6T 1_555 1_555
O1T N4 1_555 1_555
N5O C7 1_555 1_555
N5R Zn1R 1_555 1_555
C8O C8 1_555 1_555
H4O C8O 1_555 1_555
O2O N6 1_555 1_555
N1R C2R 1_555 1_555
N2H C4H 1_555 1_555
N3T C6T 1_555 1_555
N5O C8O 1_555 1_555

#END
