
#######################################################################
#
#                 Cambridge Crystallographic Data Centre
#                                CCDC 
#
#######################################################################
#
# If this CIF has been generated from an entry in the Cambridge 
# Structural Database, then it will include bibliographic, chemical, 
# crystal, experimental, refinement or atomic coordinate data resulting 
# from the CCDC's data processing and validation procedures.
#
#######################################################################

data_DIDBID
_chemical_formula_moiety         '(C24 H16 Co1 N2 O4)n'
_chemical_name_systematic        
catena-[bis(\m~2~-4-(Pyridin-4-yl)benzoato)-cobalt(ii)]
_symmetry_cell_setting           tetragonal
_symmetry_space_group_name_H-M   'P 4 21 2'
_symmetry_Int_Tables_number      90
_space_group_name_Hall           'P 4ab 2ab'
loop_
_symmetry_equiv_pos_site_id
_symmetry_equiv_pos_as_xyz
1 x,y,z
2 -x,-y,z
3 1/2-y,1/2+x,z
4 1/2+y,1/2-x,z
5 1/2-x,1/2+y,-z
6 1/2+x,1/2-y,-z
7 y,x,-z
8 -y,-x,-z
_cell_length_a                   22.5795(16)
_cell_length_b                   22.5795(16)
_cell_length_c                   12.8221(19)
_cell_angle_alpha                90
_cell_angle_beta                 90
_cell_angle_gamma                90
_cell_volume                     6537.14
_cell_formula_units_Z            8
loop_
_atom_site_label
_atom_site_type_symbol
_atom_site_fract_x
_atom_site_fract_y
_atom_site_fract_z
_atom_site_U_iso_or_equiv
_atom_site_thermal_displace_type
C1 C 0.7265(3) 1.0022(2) 1.5185(4) 0.0503 Uani
C2 C 0.3710(2) 0.7576(2) 0.9911(4) 0.0453 Uani
H1 H 0.3751 0.7776 1.0541 0.0540 Uiso
C3 C 0.4157(2) 0.7204(3) 0.9571(4) 0.0453 Uani
C4 C 0.4053(2) 0.6915(3) 0.8637(4) 0.0540 Uani
H2 H 0.4332 0.6649 0.8381 0.0650 Uiso
Co1 Co 0.73585(2) 0.74649(2) 1.24725(5) 0.0330 Uani
C5 C 0.5799(2) 0.7141(2) 1.1221(4) 0.0413 Uani
C6 C 0.7291(3) 1.0596(2) 1.5767(4) 0.0490 Uani
C7 C 0.3544(2) 0.7017(2) 0.8089(4) 0.0497 Uani
H3 H 0.3491 0.6819 0.7459 0.0600 Uiso
C8 C 0.7348(3) 1.1645(2) 1.5806(4) 0.0507 Uani
H4 H 0.7339 1.2001 1.5440 0.0610 Uiso
C9 C 0.4718(2) 0.7147(2) 1.0152(4) 0.0460 Uani
C10 C 0.7293(3) 1.1127(2) 1.5256(4) 0.0560 Uani
H5 H 0.7256 1.1137 1.4533 0.0670 Uiso
C11 C 0.5784(2) 0.7035(2) 1.0163(4) 0.0473 Uani
H6 H 0.6133 0.6964 0.9799 0.0570 Uiso
C12 C 0.3206(2) 0.7654(2) 0.9323(4) 0.0427 Uani
H7 H 0.2913 0.7906 0.9573 0.0510 Uiso
C13 C 0.5244(2) 0.7033(3) 0.9642(4) 0.0520 Uani
H8 H 0.5237 0.6954 0.8931 0.0630 Uiso
C14 C 0.7552(3) 0.9525(2) 1.5552(4) 0.0700 Uani
H9 H 0.7741 0.9536 1.6196 0.0840 Uiso
C15 C 0.7559(3) 0.9011(2) 1.4968(5) 0.0627 Uani
H10 H 0.7759 0.8680 1.5216 0.0750 Uiso
C16 C 0.6964(3) 0.9466(2) 1.3682(4) 0.0523 Uani
H11 H 0.6755 0.9446 1.3059 0.0630 Uiso
C17 C 0.7401(3) 1.1149(2) 1.7311(4) 0.0693 Uani
H12 H 0.7445 1.1149 1.8032 0.0830 Uiso
C18 C 0.6956(3) 0.9985(2) 1.4250(4) 0.0550 Uani
H13 H 0.6744 1.0309 1.4007 0.0660 Uiso
C19 C 0.4742(2) 0.7227(3) 1.1225(4) 0.0627 Uani
H14 H 0.4392 0.7285 1.1595 0.0750 Uiso
C20 C 0.5271(2) 0.7222(3) 1.1748(4) 0.0570 Uani
H15 H 0.5275 0.7275 1.2467 0.0680 Uiso
C21 C 0.7329(3) 1.0615(2) 1.6826(4) 0.0760 Uani
H16 H 0.7306 1.0269 1.7216 0.0910 Uiso
C22 C 0.6379(2) 0.7196(2) 1.1775(4) 0.0393 Uani
O1 O 0.68506(13) 0.71643(15) 1.1252(2) 0.0434 Uani
O2 O 0.63907(14) 0.73043(18) 1.2732(3) 0.0553 Uani
C23 C 0.7272(2) 0.8985(2) 1.4016(4) 0.0417 Uani
C24 C 0.7312(2) 0.8436(2) 1.3388(4) 0.0370 Uani
O3 O 0.71194(15) 0.84368(13) 1.2475(3) 0.0516 Uani
O4 O 0.75436(17) 0.79773(13) 1.3762(2) 0.0474 Uani
N1 N 0.31215(16) 0.73830(18) 0.8407(3) 0.0377 Uani
N2 N 0.7413(2) 1.16631(16) 1.6823(3) 0.0430 Uani
Co1D Co 0.76415(2) 1.24649(2) 1.75275(5) 0.0330 Uani
Co1E Co 0.23585(2) 0.75351(2) 0.75275(5) 0.0330 Uani
N1E N 0.81215(16) 0.76170(18) 1.1593(3) 0.0377 Uani
N2D N 0.7587(2) 0.66631(16) 1.3177(3) 0.0430 Uani
loop_
_atom_site_aniso_label
_atom_site_aniso_U_11
_atom_site_aniso_U_22
_atom_site_aniso_U_33
_atom_site_aniso_U_23
_atom_site_aniso_U_13
_atom_site_aniso_U_12
C1 0.072(4) 0.041(3) 0.038(3) -0.003(2) -0.005(3) 0.001(3)
C2 0.039(3) 0.062(3) 0.035(3) -0.007(3) -0.004(2) 0.006(3)
C3 0.036(3) 0.064(4) 0.036(3) -0.002(2) 0.001(2) 0.003(3)
C4 0.045(3) 0.069(4) 0.048(3) -0.015(3) -0.007(3) 0.019(3)
Co1 0.0360(3) 0.0355(3) 0.0275(3) -0.0003(3) -0.0002(3) -0.0027(2)
C5 0.037(3) 0.054(3) 0.033(3) -0.004(2) -0.003(2) -0.003(2)
C6 0.078(4) 0.035(3) 0.034(3) 0.001(2) -0.006(3) 0.004(3)
C7 0.048(3) 0.062(4) 0.039(3) -0.019(3) -0.009(2) 0.009(3)
C8 0.077(4) 0.033(3) 0.042(3) 0.005(2) -0.007(3) -0.001(3)
C9 0.035(3) 0.067(4) 0.036(3) -0.008(3) -0.001(2) 0.001(2)
C10 0.091(5) 0.041(3) 0.036(3) 0.000(2) -0.009(3) -0.004(3)
C11 0.037(3) 0.071(4) 0.034(3) -0.005(3) 0.003(2) 0.011(2)
C12 0.035(3) 0.049(3) 0.044(3) -0.006(2) 0.004(2) -0.001(2)
C13 0.039(3) 0.087(4) 0.030(3) -0.008(3) -0.002(2) 0.010(3)
C14 0.124(6) 0.043(3) 0.043(3) -0.006(2) -0.031(4) 0.011(4)
C15 0.100(5) 0.032(3) 0.056(3) 0.001(3) -0.015(4) 0.010(3)
C16 0.070(4) 0.045(3) 0.042(3) -0.011(3) -0.010(3) 0.006(3)
C17 0.133(6) 0.043(3) 0.032(3) -0.002(2) -0.014(4) 0.004(3)
C18 0.078(4) 0.038(3) 0.049(3) -0.004(3) -0.015(3) 0.017(3)
C19 0.038(3) 0.111(5) 0.039(3) -0.007(3) 0.001(2) 0.008(3)
C20 0.037(3) 0.101(5) 0.033(3) -0.010(3) 0.003(2) 0.002(3)
C21 0.149(7) 0.038(3) 0.041(3) 0.002(2) -0.002(4) -0.003(4)
C22 0.031(3) 0.046(3) 0.041(3) -0.001(2) -0.007(2) 0.000(2)
O1 0.0314(18) 0.066(2) 0.0329(18) -0.0055(16) 0.0020(14) -0.0039(16)
O2 0.0378(18) 0.089(3) 0.039(2) -0.013(2) -0.0020(15) 0.0015(18)
C23 0.062(3) 0.031(3) 0.032(3) -0.002(2) 0.001(2) -0.005(2)
C24 0.045(3) 0.040(3) 0.026(2) 0.000(2) 0.003(2) -0.009(2)
O3 0.071(2) 0.0450(18) 0.0387(19) -0.004(2) -0.008(2) 0.0070(15)
O4 0.076(3) 0.0329(17) 0.0332(17) 0.0021(14) -0.0020(18) -0.0004(18)
N1 0.040(2) 0.046(2) 0.027(2) -0.0003(18) -0.0002(16) 0.0030(19)
N2 0.058(3) 0.035(2) 0.036(2) 0.0007(17) 0.001(2) 0.007(2)
Co1D 0.036 0.0355 0.0275 0.0003 -0.0002 0.0027
Co1E 0.036 0.0355 0.0275 -0.0003 0.0002 0.0027
N1E 0.04 0.046 0.027 -0.0003 0.0002 -0.003
N2D 0.058 0.035 0.036 -0.0007 0.001 -0.007
loop_
_geom_bond_atom_site_label_1
_geom_bond_atom_site_label_2
_geom_bond_site_symmetry_1
_geom_bond_site_symmetry_2
C1 C6 1_555 1_555
C2 H1 1_555 1_555
C3 C2 1_555 1_555
C4 C3 1_555 1_555
H2 C4 1_555 1_555
Co1 O1 1_555 1_555
C5 C11 1_555 1_555
C6 C10 1_555 1_555
C7 C4 1_555 1_555
H3 C7 1_555 1_555
C8 H4 1_555 1_555
C9 C3 1_555 1_555
C10 C8 1_555 1_555
H5 C10 1_555 1_555
C11 H6 1_555 1_555
C12 C2 1_555 1_555
H7 C12 1_555 1_555
C13 C9 1_555 1_555
H8 C13 1_555 1_555
C14 C1 1_555 1_555
H9 C14 1_555 1_555
C15 C14 1_555 1_555
H10 C15 1_555 1_555
C16 H11 1_555 1_555
C17 H12 1_555 1_555
C18 C1 1_555 1_555
H13 C18 1_555 1_555
C19 C9 1_555 1_555
H14 C19 1_555 1_555
C20 C5 1_555 1_555
H15 C20 1_555 1_555
C21 C6 1_555 1_555
H16 C21 1_555 1_555
C22 C5 1_555 1_555
O1 C22 1_555 1_555
O2 Co1 1_555 1_555
C23 C15 1_555 1_555
C24 C23 1_555 1_555
O3 Co1 1_555 1_555
O4 Co1 1_555 1_555
N1 C7 1_555 1_555
N2 C8 1_555 1_555
Co1D N2 1_555 1_555
Co1E N1 1_555 1_555
N1E Co1 1_555 1_555
N2D Co1 1_555 1_555
C11 C13 1_555 1_555
C12 N1 1_555 1_555
C16 C18 1_555 1_555
C16 C23 1_555 1_555
C17 C21 1_555 1_555
C17 N2 1_555 1_555
C19 C20 1_555 1_555
C22 O2 1_555 1_555
C24 O3 1_555 1_555
C24 O4 1_555 1_555

#END
