
#######################################################################
#
#                 Cambridge Crystallographic Data Centre
#                                CCDC 
#
#######################################################################
#
# If this CIF has been generated from an entry in the Cambridge 
# Structural Database, then it will include bibliographic, chemical, 
# crystal, experimental, refinement or atomic coordinate data resulting 
# from the CCDC's data processing and validation procedures.
#
#######################################################################

data_BAWJAM
_chemical_formula_moiety         '(C88 H78 Mn6 N4 O22)n'
_chemical_name_systematic        
catena-(bis(\m~4~-oxo)-tetrakis(\m~3~-phenylacetato)-hexakis(\m~2~-phenylacetato)-bis(\m~2~-pyrazine)-hexa-manganese)
_symmetry_cell_setting           monoclinic
_symmetry_space_group_name_H-M   'C 2/c'
_symmetry_Int_Tables_number      15
_space_group_name_Hall           '-C 2yc'
loop_
_symmetry_equiv_pos_site_id
_symmetry_equiv_pos_as_xyz
1 x,y,z
2 -x,y,1/2-z
3 1/2+x,1/2+y,z
4 1/2-x,1/2+y,1/2-z
5 -x,-y,-z
6 x,-y,1/2+z
7 1/2-x,1/2-y,-z
8 1/2+x,1/2-y,1/2+z
_cell_length_a                   34.701(4)
_cell_length_b                   12.9196(14)
_cell_length_c                   25.356(5)
_cell_angle_alpha                90
_cell_angle_beta                 131.0650(10)
_cell_angle_gamma                90
_cell_volume                     8570.83
_exptl_crystal_colour            black
_exptl_crystal_description       block
_cell_formula_units_Z            4
loop_
_atom_site_label
_atom_site_type_symbol
_atom_site_fract_x
_atom_site_fract_y
_atom_site_fract_z
_atom_site_U_iso_or_equiv
_atom_site_thermal_displace_type
Mn1 Mn 0.0000 0.24890(8) 0.2500 0.0306 Uani
Mn2 Mn 0.0000 0.03068(8) 0.2500 0.0325 Uani
Mn3 Mn 0.11587(3) 0.17788(6) 0.34506(4) 0.0363 Uani
Mn4 Mn 0.02359(3) 0.10811(6) 0.15556(4) 0.0365 Uani
O1 O 0.03699(11) 0.1406(2) 0.25115(15) 0.0291 Uani
N1 N 0.00731(17) 0.0412(4) 0.0568(2) 0.0466 Uani
C1 C 0.0280(4) -0.0448(7) 0.0594(4) 0.1164 Uani
H1 H 0.0489 -0.0811 0.1013 0.1400 Uiso
C2 C -0.0205(3) 0.0846(6) -0.0027(4) 0.1009 Uani
H2 H -0.0366 0.1464 -0.0085 0.1210 Uiso
C3 C 0.2272(2) 0.1723(4) 0.5037(3) 0.0471 Uani
H3 H 0.2125 0.1168 0.5082 0.0560 Uiso
C4 C 0.2775(2) 0.1965(5) 0.5587(3) 0.0508 Uani
H4 H 0.2956 0.1571 0.5994 0.0610 Uiso
N2 N 0.19892(15) 0.2258(3) 0.4442(2) 0.0413 Uani
O2 O 0.09266(14) 0.1705(3) 0.19130(19) 0.0528 Uani
O3 O 0.14846(13) 0.1221(3) 0.30301(19) 0.0516 Uani
C5 C 0.1366(2) 0.1526(4) 0.2470(3) 0.0465 Uani
C6 C 0.1798(3) 0.1658(5) 0.2461(4) 0.0757 Uani
H5 H 0.2116 0.1738 0.2938 0.0910 Uiso
H6 H 0.1823 0.1032 0.2274 0.0910 Uiso
C7 C 0.1733(2) 0.2560(6) 0.2039(4) 0.0620 Uani
C8 C 0.1679(3) 0.2431(8) 0.1458(5) 0.1004 Uani
H7 H 0.1679 0.1767 0.1315 0.1210 Uiso
C9 C 0.1624(5) 0.3274(13) 0.1082(6) 0.1434 Uani
H8 H 0.1601 0.3182 0.0699 0.1720 Uiso
C10 C 0.1604(4) 0.4214(11) 0.1268(7) 0.1307 Uani
H9 H 0.1552 0.4780 0.1001 0.1570 Uiso
C11 C 0.1657(4) 0.4357(7) 0.1822(7) 0.1260 Uani
H10 H 0.1648 0.5025 0.1951 0.1510 Uiso
C12 C 0.1724(4) 0.3530(6) 0.2215(5) 0.0963 Uani
H11 H 0.1765 0.3646 0.2611 0.1150 Uiso
O4 O -0.06792(12) 0.2610(3) 0.13257(17) 0.0398 Uani
O5 O -0.02880(14) 0.2265(3) 0.09107(19) 0.0509 Uani
C13 C -0.0632(2) 0.2681(4) 0.0873(3) 0.0433 Uani
C14 C -0.1016(3) 0.3282(7) 0.0214(4) 0.1017 Uani
H12 H -0.0829 0.3699 0.0130 0.1220 Uiso
H13 H -0.1216 0.2787 -0.0166 0.1220 Uiso
C15 C -0.1384(2) 0.3983(6) 0.0158(3) 0.0602 Uani
C16 C -0.1228(3) 0.4726(6) 0.0644(4) 0.0791 Uani
H14 H -0.0884 0.4784 0.1040 0.0950 Uiso
C17 C -0.1583(4) 0.5401(6) 0.0547(5) 0.1120 Uani
H15 H -0.1481 0.5900 0.0881 0.1340 Uiso
C18 C -0.2089(4) 0.5315(8) -0.0055(6) 0.1101 Uani
H16 H -0.2328 0.5774 -0.0132 0.1320 Uiso
C19 C -0.2243(3) 0.4576(7) -0.0534(5) 0.0876 Uani
H17 H -0.2587 0.4515 -0.0932 0.1050 Uiso
C20 C -0.1895(3) 0.3925(6) -0.0428(4) 0.0716 Uani
H18 H -0.2003 0.3421 -0.0762 0.0860 Uiso
O6 O 0.02880(13) 0.3594(3) 0.23234(19) 0.0439 Uani
O7 O 0.11199(13) 0.3268(3) 0.30445(19) 0.0455 Uani
C21 C 0.0743(2) 0.3787(4) 0.2597(3) 0.0441 Uani
C22 C 0.0831(5) 0.4869(11) 0.2461(9) 0.0550 Uiso
H19 H 0.0996 0.5270 0.2885 0.0660 Uiso
H20 H 0.1071 0.4813 0.2388 0.0660 Uiso
C23 C 0.0395(3) 0.5466(8) 0.1883(6) 0.0460 Uiso
C24 C 0.0158(4) 0.5404(9) 0.1180(6) 0.0810 Uiso
H21 H 0.0264 0.4911 0.1032 0.0980 Uiso
C25 C -0.0237(5) 0.6079(10) 0.0700(5) 0.1110 Uiso
H22 H -0.0396 0.6038 0.0229 0.1330 Uiso
C26 C -0.0396(4) 0.6816(10) 0.0922(7) 0.1080 Uiso
H23 H -0.0660 0.7268 0.0600 0.1300 Uiso
C27 C -0.0159(4) 0.6878(9) 0.1624(8) 0.0940 Uiso
H24 H -0.0265 0.7371 0.1773 0.1120 Uiso
C28 C 0.0237(4) 0.6203(9) 0.2105(6) 0.0900 Uiso
H25 H 0.0396 0.6244 0.2575 0.1070 Uiso
O8 O -0.04788(13) -0.0785(3) 0.22910(19) 0.0424 Uani
O9 O -0.06047(14) -0.0378(3) 0.30187(19) 0.0464 Uani
C29 C -0.07055(19) -0.0880(4) 0.2529(3) 0.0395 Uani
C30 C -0.1138(2) -0.1648(5) 0.2159(3) 0.0571 Uani
H26 H -0.1412 -0.1398 0.1688 0.0690 Uiso
H27 H -0.1019 -0.2298 0.2119 0.0690 Uiso
C31 C -0.1352(2) -0.1851(5) 0.2503(3) 0.0477 Uani
C32 C -0.1794(3) -0.1364(6) 0.2279(4) 0.0810 Uani
H28 H -0.1967 -0.0907 0.1903 0.0980 Uiso
C33 C -0.1978(3) -0.1562(8) 0.2618(5) 0.1094 Uani
H29 H -0.2277 -0.1239 0.2462 0.1310 Uiso
C34 C -0.1730(4) -0.2217(8) 0.3174(6) 0.1071 Uani
H30 H -0.1855 -0.2344 0.3397 0.1280 Uiso
C35 C -0.1302(4) -0.2674(6) 0.3391(4) 0.0872 Uani
H31 H -0.1130 -0.3120 0.3772 0.1040 Uiso
C36 C -0.1110(3) -0.2504(5) 0.3067(4) 0.0640 Uani
H32 H -0.0811 -0.2836 0.3233 0.0770 Uiso
O10 O 0.04422(12) 0.0256(3) 0.36474(18) 0.0422 Uani
O11 O 0.12319(13) 0.0553(3) 0.40703(19) 0.0503 Uani
C37 C 0.0921(2) 0.0165(4) 0.4097(3) 0.0488 Uani
C38 C 0.1037(3) -0.0766(9) 0.4552(5) 0.0700 Uiso
H33 H 0.0982 -0.1406 0.4312 0.0840 Uiso
H34 H 0.0817 -0.0763 0.4663 0.0840 Uiso
C39 C 0.1841(4) -0.0024(7) 0.5821(5) 0.0990 Uiso
H35 H 0.1646 0.0479 0.5815 0.1190 Uiso
C40 C 0.1618(3) -0.0660(7) 0.5243(4) 0.0470 Uiso
C41 C 0.1909(4) -0.1411(8) 0.5253(4) 0.0920 Uiso
H36 H 0.1760 -0.1837 0.4866 0.1100 Uiso
C42 C 0.2424(3) -0.1525(9) 0.5840(6) 0.0960 Uiso
H37 H 0.2619 -0.2027 0.5846 0.1150 Uiso
C43 C 0.2646(3) -0.0888(9) 0.6417(5) 0.0970 Uiso
H38 H 0.2990 -0.0964 0.6810 0.1170 Uiso
C44 C 0.2355(4) -0.0137(8) 0.6408(4) 0.1020 Uiso
H39 H 0.2504 0.0289 0.6794 0.1220 Uiso
Mn3A Mn -0.11587(3) 0.17788(6) 0.15494(4) 0.0363 Uani
Mn3F Mn 0.38413(3) 0.32212(6) 0.65494(4) 0.0363 Uani
Mn4A Mn -0.02359(3) 0.10811(6) 0.34444(4) 0.0365 Uani
Mn4D Mn -0.02359(3) -0.10811(6) -0.15556(4) 0.0365 Uani
O1A O -0.03699(11) 0.1406(2) 0.24885(15) 0.0291 Uani
N1D N -0.00731(17) -0.0412(4) -0.0568(2) 0.0466 Uani
N1A N -0.00731(17) 0.0412(4) 0.4432(2) 0.0466 Uani
C1D C -0.0280(4) 0.0448(7) -0.0594(4) 0.1164 Uani
H1D H -0.0489 0.0811 -0.1013 0.1400 Uiso
C2D C 0.0205(3) -0.0846(6) 0.0027(4) 0.1009 Uani
H2D H 0.0366 -0.1464 0.0085 0.1210 Uiso
C3F C 0.2728(2) 0.3277(4) 0.4963(3) 0.0471 Uani
H3F H 0.2875 0.3832 0.4918 0.0560 Uiso
C4F C 0.2225(2) 0.3035(5) 0.4413(3) 0.0508 Uani
H4F H 0.2044 0.3429 0.4006 0.0610 Uiso
N2F N 0.30108(15) 0.2742(3) 0.5558(2) 0.0413 Uani
N2A N -0.19892(15) 0.2258(3) 0.0558(2) 0.0413 Uani
O2A O -0.09266(14) 0.1705(3) 0.30870(19) 0.0528 Uani
O3A O -0.14846(13) 0.1221(3) 0.19699(19) 0.0516 Uani
C5A C -0.1366(2) 0.1526(4) 0.2530(3) 0.0465 Uani
C6A C -0.1798(3) 0.1658(5) 0.2539(4) 0.0757 Uani
H5A H -0.2116 0.1738 0.2062 0.0910 Uiso
H6A H -0.1823 0.1032 0.2726 0.0910 Uiso
C7A C -0.1733(2) 0.2560(6) 0.2961(4) 0.0620 Uani
C8A C -0.1679(3) 0.2431(8) 0.3542(5) 0.1004 Uani
H7A H -0.1679 0.1767 0.3685 0.1210 Uiso
C9A C -0.1624(5) 0.3274(13) 0.3918(6) 0.1434 Uani
H8A H -0.1601 0.3182 0.4301 0.1720 Uiso
C10A C -0.1604(4) 0.4214(11) 0.3732(7) 0.1307 Uani
H9A H -0.1552 0.4780 0.3999 0.1570 Uiso
C11A C -0.1657(4) 0.4357(7) 0.3178(7) 0.1260 Uani
H10A H -0.1648 0.5025 0.3049 0.1510 Uiso
C12A C -0.1724(4) 0.3530(6) 0.2785(5) 0.0963 Uani
H11A H -0.1765 0.3646 0.2389 0.1150 Uiso
O4A O 0.06792(12) 0.2610(3) 0.36743(17) 0.0398 Uani
O5A O 0.02880(14) 0.2265(3) 0.40893(19) 0.0509 Uani
C13A C 0.0632(2) 0.2681(4) 0.4127(3) 0.0433 Uani
C14A C 0.1016(3) 0.3282(7) 0.4786(4) 0.1017 Uani
H12A H 0.0829 0.3699 0.4870 0.1220 Uiso
H13A H 0.1216 0.2787 0.5166 0.1220 Uiso
C15A C 0.1384(2) 0.3983(6) 0.4842(3) 0.0602 Uani
C16A C 0.1228(3) 0.4726(6) 0.4356(4) 0.0791 Uani
H14A H 0.0884 0.4784 0.3960 0.0950 Uiso
C17A C 0.1583(4) 0.5401(6) 0.4453(5) 0.1120 Uani
H15A H 0.1481 0.5900 0.4119 0.1340 Uiso
C18A C 0.2089(4) 0.5315(8) 0.5055(6) 0.1101 Uani
H16A H 0.2328 0.5774 0.5132 0.1320 Uiso
C19A C 0.2243(3) 0.4576(7) 0.5534(5) 0.0876 Uani
H17A H 0.2587 0.4515 0.5932 0.1050 Uiso
C20A C 0.1895(3) 0.3925(6) 0.5428(4) 0.0716 Uani
H18A H 0.2003 0.3421 0.5762 0.0860 Uiso
O6A O -0.02880(13) 0.3594(3) 0.26766(19) 0.0439 Uani
O7A O -0.11199(13) 0.3268(3) 0.19555(19) 0.0455 Uani
C21A C -0.0743(2) 0.3787(4) 0.2403(3) 0.0441 Uani
C22A C -0.0831(5) 0.4869(11) 0.2539(9) 0.0550 Uiso
H19A H -0.0996 0.5270 0.2115 0.0660 Uiso
H20A H -0.1071 0.4813 0.2612 0.0660 Uiso
C23A C -0.0395(3) 0.5466(8) 0.3117(6) 0.0460 Uiso
C24A C -0.0158(4) 0.5404(9) 0.3820(6) 0.0810 Uiso
H21A H -0.0264 0.4911 0.3968 0.0980 Uiso
C25A C 0.0237(5) 0.6079(10) 0.4300(5) 0.1110 Uiso
H22A H 0.0396 0.6038 0.4771 0.1330 Uiso
C26A C 0.0396(4) 0.6816(10) 0.4078(7) 0.1080 Uiso
H23A H 0.0660 0.7268 0.4400 0.1300 Uiso
C27A C 0.0159(4) 0.6878(9) 0.3376(8) 0.0940 Uiso
H24A H 0.0265 0.7371 0.3227 0.1120 Uiso
C28A C -0.0237(4) 0.6203(9) 0.2895(6) 0.0900 Uiso
H25A H -0.0396 0.6244 0.2425 0.1070 Uiso
O8A O 0.04788(13) -0.0785(3) 0.27090(19) 0.0424 Uani
O9A O 0.06047(14) -0.0378(3) 0.19813(19) 0.0464 Uani
C29A C 0.07055(19) -0.0880(4) 0.2471(3) 0.0395 Uani
C30A C 0.1138(2) -0.1648(5) 0.2841(3) 0.0571 Uani
H26A H 0.1412 -0.1398 0.3312 0.0690 Uiso
H27A H 0.1019 -0.2298 0.2881 0.0690 Uiso
C31A C 0.1352(2) -0.1851(5) 0.2497(3) 0.0477 Uani
C32A C 0.1794(3) -0.1364(6) 0.2721(4) 0.0810 Uani
H28A H 0.1967 -0.0907 0.3097 0.0980 Uiso
C33A C 0.1978(3) -0.1562(8) 0.2382(5) 0.1094 Uani
H29A H 0.2277 -0.1239 0.2538 0.1310 Uiso
C34A C 0.1730(4) -0.2217(8) 0.1826(6) 0.1071 Uani
H30A H 0.1855 -0.2344 0.1603 0.1280 Uiso
C35A C 0.1302(4) -0.2674(6) 0.1609(4) 0.0872 Uani
H31A H 0.1130 -0.3120 0.1228 0.1040 Uiso
C36A C 0.1110(3) -0.2504(5) 0.1933(4) 0.0640 Uani
H32A H 0.0811 -0.2836 0.1767 0.0770 Uiso
O10A O -0.04422(12) 0.0256(3) 0.13526(18) 0.0422 Uani
O11A O -0.12319(13) 0.0553(3) 0.09297(19) 0.0503 Uani
C37A C -0.0921(2) 0.0165(4) 0.0903(3) 0.0488 Uani
C38A C -0.1037(3) -0.0766(9) 0.0448(5) 0.0700 Uiso
H33A H -0.0982 -0.1406 0.0688 0.0840 Uiso
H34A H -0.0817 -0.0763 0.0337 0.0840 Uiso
C39A C -0.1841(4) -0.0024(7) -0.0821(5) 0.0990 Uiso
H35A H -0.1646 0.0479 -0.0815 0.1190 Uiso
C40A C -0.1618(3) -0.0660(7) -0.0243(4) 0.0470 Uiso
C41A C -0.1909(4) -0.1411(8) -0.0253(4) 0.0920 Uiso
H36A H -0.1760 -0.1837 0.0134 0.1100 Uiso
C42A C -0.2424(3) -0.1525(9) -0.0840(6) 0.0960 Uiso
H37A H -0.2619 -0.2027 -0.0846 0.1150 Uiso
C43A C -0.2646(3) -0.0888(9) -0.1417(5) 0.0970 Uiso
H38A H -0.2990 -0.0964 -0.1810 0.1170 Uiso
C44A C -0.2355(4) -0.0137(8) -0.1408(4) 0.1020 Uiso
H39A H -0.2504 0.0289 -0.1794 0.1220 Uiso
C45? C 0.0806(5) 0.4579(12) 0.2197(9) 0.0470 Uiso
C46? C 0.0377(4) 0.5226(10) 0.1681(8) 0.0530 Uiso
C47? C 0.0201(6) 0.5185(11) 0.1006(8) 0.1420 Uiso
C48? C -0.0171(6) 0.5877(13) 0.0502(7) 0.1330 Uiso
C49? C -0.0367(5) 0.6610(12) 0.0672(8) 0.1040 Uiso
C50? C -0.0191(6) 0.6652(11) 0.1347(10) 0.1330 Uiso
C51? C 0.0181(5) 0.5959(12) 0.1852(8) 0.0880 Uiso
C52? C 0.1145(4) -0.0231(11) 0.4836(6) 0.0450 Uiso
C53? C 0.1684(3) -0.0846(6) 0.5181(4) 0.0510 Uiso
C54? C 0.1873(4) -0.1666(9) 0.5054(7) 0.1580 Uiso
C55? C 0.2389(4) -0.1919(12) 0.5542(10) 0.1640 Uiso
C56? C 0.2716(3) -0.1354(14) 0.6158(8) 0.1190 Uiso
C57? C 0.2527(4) -0.0534(13) 0.6286(6) 0.1400 Uiso
C58? C 0.2011(4) -0.0281(10) 0.5797(5) 0.0890 Uiso
H40? H 0.1091 0.5028 0.2541 0.0570 Uiso
H41? H 0.0900 0.4198 0.1968 0.0570 Uiso
H42? H 0.0332 0.4695 0.0892 0.1700 Uiso
H43? H -0.0289 0.5850 0.0050 0.1600 Uiso
H44? H -0.0616 0.7073 0.0335 0.1250 Uiso
H45? H -0.0322 0.7142 0.1461 0.1590 Uiso
H46? H 0.0298 0.5987 0.2303 0.1050 Uiso
H47? H 0.0906 -0.0696 0.4791 0.0540 Uiso
H48? H 0.1211 0.0347 0.5130 0.0540 Uiso
H49? H 0.1654 -0.2044 0.4642 0.1890 Uiso
H50? H 0.2515 -0.2468 0.5457 0.1970 Uiso
H51? H 0.3061 -0.1523 0.6485 0.1430 Uiso
H52? H 0.2746 -0.0156 0.6698 0.1680 Uiso
H53? H 0.1885 0.0268 0.5883 0.1070 Uiso
loop_
_atom_site_aniso_label
_atom_site_aniso_U_11
_atom_site_aniso_U_22
_atom_site_aniso_U_33
_atom_site_aniso_U_23
_atom_site_aniso_U_13
_atom_site_aniso_U_12
Mn1 0.0255(6) 0.0348(6) 0.0304(6) 0.000 0.0179(5) 0.000
Mn2 0.0282(6) 0.0380(6) 0.0322(6) 0.000 0.0202(5) 0.000
Mn3 0.0231(4) 0.0465(5) 0.0293(4) 0.0011(4) 0.0129(4) -0.0024(3)
Mn4 0.0337(4) 0.0492(5) 0.0283(4) 0.0014(4) 0.0211(4) 0.0055(4)
O1 0.0228(17) 0.0374(18) 0.0257(17) -0.0008(14) 0.0153(15) -0.0014(14)
N1 0.050(3) 0.058(3) 0.036(3) 0.002(2) 0.030(2) 0.017(2)
C1 0.180(9) 0.118(7) 0.046(5) 0.034(4) 0.072(6) 0.085(7)
C2 0.174(8) 0.094(6) 0.055(5) 0.031(4) 0.084(6) 0.078(6)
C3 0.031(3) 0.058(4) 0.040(3) 0.000(3) 0.018(3) -0.010(3)
C4 0.035 0.057 0.039 0.007 0.015 -0.003
N2 0.028(2) 0.053(3) 0.036(3) -0.005(2) 0.018(2) -0.003(2)
O2 0.038(2) 0.076(3) 0.043(2) 0.009(2) 0.026(2) -0.001(2)
O3 0.037(2) 0.078(3) 0.038(2) 0.000(2) 0.0239(19) 0.0070(19)
C5 0.038(3) 0.058(4) 0.053(4) -0.002(3) 0.034(3) -0.001(3)
C6 0.059(4) 0.085(5) 0.102(6) 0.023(4) 0.061(4) 0.010(4)
C7 0.050(4) 0.081(5) 0.078(5) 0.017(4) 0.052(4) 0.007(3)
C8 0.110(7) 0.131(8) 0.084(6) -0.007(6) 0.074(6) -0.001(6)
C9 0.125(9) 0.242(16) 0.091(8) 0.030(11) 0.083(8) 0.026(11)
C10 0.103(7) 0.182(12) 0.140(11) 0.102(10) 0.094(8) 0.039(8)
C11 0.166(10) 0.083(6) 0.204(12) 0.042(7) 0.154(10) 0.022(6)
C12 0.141(8) 0.076(6) 0.135(8) 0.010(5) 0.118(7) 0.005(5)
O4 0.034(2) 0.051(2) 0.031(2) 0.0072(17) 0.0199(17) 0.0086(16)
O5 0.055(2) 0.063(3) 0.046(2) 0.0133(19) 0.038(2) 0.021(2)
C13 0.035(3) 0.052(3) 0.033(3) 0.007(3) 0.018(3) 0.005(3)
C14 0.089(6) 0.165(8) 0.059(5) 0.059(5) 0.052(5) 0.081(6)
C15 0.049(4) 0.082(5) 0.053(4) 0.037(4) 0.035(4) 0.026(4)
C16 0.064(5) 0.077(5) 0.077(5) 0.012(4) 0.038(4) 0.007(4)
C17 0.127(8) 0.071(6) 0.109(8) 0.011(5) 0.065(7) 0.028(6)
C18 0.090(7) 0.100(7) 0.125(9) 0.045(6) 0.064(7) 0.058(6)
C19 0.053(5) 0.113(7) 0.090(6) 0.041(6) 0.044(5) 0.020(5)
C20 0.062(5) 0.084(5) 0.061(5) 0.028(4) 0.037(4) 0.013(4)
O6 0.033(2) 0.046(2) 0.048(2) 0.0074(17) 0.0246(19) -0.0013(16)
O7 0.0272(19) 0.057(2) 0.041(2) 0.0047(19) 0.0175(18) -0.0024(18)
C21 0.034(3) 0.047(3) 0.046(3) -0.001(3) 0.024(3) -0.008(3)
O8 0.046(2) 0.045(2) 0.048(2) -0.0083(17) 0.036(2) -0.0071(17)
O9 0.053(2) 0.052(2) 0.040(2) -0.0117(19) 0.033(2) -0.0176(19)
C29 0.037(3) 0.042(3) 0.042(3) 0.000(3) 0.027(3) -0.004(2)
C30 0.059(4) 0.065(4) 0.054(4) -0.017(3) 0.040(3) -0.026(3)
C31 0.043(3) 0.051(4) 0.054(4) -0.016(3) 0.034(3) -0.022(3)
C32 0.064(5) 0.096(6) 0.080(5) 0.016(4) 0.046(4) 0.006(4)
C33 0.073(6) 0.166(10) 0.127(8) 0.003(7) 0.082(6) 0.003(6)
C34 0.118(8) 0.128(8) 0.143(9) -0.002(7) 0.115(8) -0.025(7)
C35 0.124(7) 0.078(5) 0.096(6) 0.003(4) 0.088(6) -0.016(5)
C36 0.067(4) 0.057(4) 0.078(5) 0.008(4) 0.052(4) 0.011(3)
O10 0.027(2) 0.055(2) 0.036(2) 0.0047(17) 0.0170(18) -0.0010(17)
O11 0.032(2) 0.063(3) 0.045(2) 0.0139(19) 0.0206(19) -0.0051(18)
C37 0.040(3) 0.057(4) 0.041(3) 0.019(3) 0.023(3) 0.002(3)
Mn3A 0.0231 0.0465 0.0293 -0.0011 0.0129 0.0024
Mn3F 0.0231 0.0465 0.0293 0.0011 0.0129 -0.0024
Mn4A 0.0337 0.0492 0.0283 -0.0014 0.0211 -0.0055
Mn4D 0.0337 0.0492 0.0283 0.0014 0.0211 0.0055
O1A 0.0228 0.0374 0.0257 0.0008 0.0153 0.0014
N1D 0.05 0.058 0.036 0.002 0.03 0.017
N1A 0.05 0.058 0.036 -0.002 0.03 -0.017
C1D 0.18 0.118 0.046 0.034 0.072 0.085
C2D 0.174 0.094 0.055 0.031 0.084 0.078
C3F 0.031 0.058 0.04 0 0.018 -0.01
C4F 0.035(3) 0.057(4) 0.039(3) 0.007(3) 0.015(3) -0.003(3)
N2F 0.028 0.053 0.036 -0.005 0.018 -0.003
N2A 0.028 0.053 0.036 0.005 0.018 0.003
O2A 0.038 0.076 0.043 -0.009 0.026 0.001
O3A 0.037 0.078 0.038 0 0.0239 -0.007
C5A 0.038 0.058 0.053 0.002 0.034 0.001
C6A 0.059 0.085 0.102 -0.023 0.061 -0.01
C7A 0.05 0.081 0.078 -0.017 0.052 -0.007
C8A 0.11 0.131 0.084 0.007 0.074 0.001
C9A 0.125 0.242 0.091 -0.03 0.083 -0.026
C10A 0.103 0.182 0.14 -0.102 0.094 -0.039
C11A 0.166 0.083 0.204 -0.042 0.154 -0.022
C12A 0.141 0.076 0.135 -0.01 0.118 -0.005
O4A 0.034 0.051 0.031 -0.0072 0.0199 -0.0086
O5A 0.055 0.063 0.046 -0.0133 0.038 -0.021
C13A 0.035 0.052 0.033 -0.007 0.018 -0.005
C14A 0.089 0.165 0.059 -0.059 0.052 -0.081
C15A 0.049 0.082 0.053 -0.037 0.035 -0.026
C16A 0.064 0.077 0.077 -0.012 0.038 -0.007
C17A 0.127 0.071 0.109 -0.011 0.065 -0.028
C18A 0.09 0.1 0.125 -0.045 0.064 -0.058
C19A 0.053 0.113 0.09 -0.041 0.044 -0.02
C20A 0.062 0.084 0.061 -0.028 0.037 -0.013
O6A 0.033 0.046 0.048 -0.0074 0.0246 0.0013
O7A 0.0272 0.057 0.041 -0.0047 0.0175 0.0024
C21A 0.034 0.047 0.046 0.001 0.024 0.008
O8A 0.046 0.045 0.048 0.0083 0.036 0.0071
O9A 0.053 0.052 0.04 0.0117 0.033 0.0176
C29A 0.037 0.042 0.042 0 0.027 0.004
C30A 0.059 0.065 0.054 0.017 0.04 0.026
C31A 0.043 0.051 0.054 0.016 0.034 0.022
C32A 0.064 0.096 0.08 -0.016 0.046 -0.006
C33A 0.073 0.166 0.127 -0.003 0.082 -0.003
C34A 0.118 0.128 0.143 0.002 0.115 0.025
C35A 0.124 0.078 0.096 -0.003 0.088 0.016
C36A 0.067 0.057 0.078 -0.008 0.052 -0.011
O10A 0.027 0.055 0.036 -0.0047 0.017 0.001
O11A 0.032 0.063 0.045 -0.0139 0.0206 0.0051
C37A 0.04 0.057 0.041 -0.019 0.023 -0.002
loop_
_geom_bond_atom_site_label_1
_geom_bond_atom_site_label_2
_geom_bond_site_symmetry_1
_geom_bond_site_symmetry_2
Mn1 O1 1_555 1_555
Mn2 O1 1_555 1_555
Mn3 O1 1_555 1_555
Mn4 O1 1_555 1_555
N1 Mn4 1_555 1_555
C1 N1 1_555 1_555
H1 C1 1_555 1_555
C2 N1 1_555 1_555
H2 C2 1_555 1_555
C3 H3 1_555 1_555
C4 C3 1_555 1_555
H4 C4 1_555 1_555
N2 Mn3 1_555 1_555
O2 Mn4 1_555 1_555
O3 Mn3 1_555 1_555
C5 O2 1_555 1_555
C6 C5 1_555 1_555
H5 C6 1_555 1_555
H6 C6 1_555 1_555
C7 C6 1_555 1_555
C8 C7 1_555 1_555
H7 C8 1_555 1_555
C9 C8 1_555 1_555
H8 C9 1_555 1_555
C10 C9 1_555 1_555
H9 C10 1_555 1_555
C11 C10 1_555 1_555
H10 C11 1_555 1_555
C12 C7 1_555 1_555
H11 C12 1_555 1_555
O4 Mn1 1_555 1_555
O5 Mn4 1_555 1_555
C13 O4 1_555 1_555
C14 C13 1_555 1_555
H12 C14 1_555 1_555
H13 C14 1_555 1_555
C15 C14 1_555 1_555
C16 C15 1_555 1_555
H14 C16 1_555 1_555
C17 C16 1_555 1_555
H15 C17 1_555 1_555
C18 C17 1_555 1_555
H16 C18 1_555 1_555
C19 C18 1_555 1_555
H17 C19 1_555 1_555
C20 C15 1_555 1_555
H18 C20 1_555 1_555
O6 Mn1 1_555 1_555
O7 Mn3 1_555 1_555
C21 O6 1_555 1_555
C22 C21 1_555 1_555
H19 C22 1_555 1_555
H20 C22 1_555 1_555
C23 C22 1_555 1_555
C24 C23 1_555 1_555
H21 C24 1_555 1_555
C25 C24 1_555 1_555
H22 C25 1_555 1_555
C26 C25 1_555 1_555
H23 C26 1_555 1_555
C27 C26 1_555 1_555
H24 C27 1_555 1_555
C28 C23 1_555 1_555
H25 C28 1_555 1_555
O8 Mn2 1_555 1_555
O9 C29 1_555 1_555
C29 O8 1_555 1_555
C30 C29 1_555 1_555
H26 C30 1_555 1_555
H27 C30 1_555 1_555
C31 C30 1_555 1_555
C32 C31 1_555 1_555
H28 C32 1_555 1_555
C33 C32 1_555 1_555
H29 C33 1_555 1_555
C34 C33 1_555 1_555
H30 C34 1_555 1_555
C35 C34 1_555 1_555
H31 C35 1_555 1_555
C36 C31 1_555 1_555
H32 C36 1_555 1_555
O10 Mn2 1_555 1_555
O11 Mn3 1_555 1_555
C37 O10 1_555 1_555
C38 C37 1_555 1_555
H33 C38 1_555 1_555
H34 C38 1_555 1_555
C39 H35 1_555 1_555
C40 C38 1_555 1_555
C41 C40 1_555 1_555
H36 C41 1_555 1_555
C42 C41 1_555 1_555
H37 C42 1_555 1_555
C43 C42 1_555 1_555
H38 C43 1_555 1_555
C44 C39 1_555 1_555
H39 C44 1_555 1_555
Mn3A O4 1_555 1_555
Mn3F N2F 1_555 1_555
Mn4A O9 1_555 1_555
Mn4D N1D 1_555 1_555
O1A Mn1 1_555 1_555
N1D C1D 1_555 1_555
N1A Mn4A 1_555 1_555
C1D C2 1_555 1_555
H1D C1D 1_555 1_555
C2D C1 1_555 1_555
H2D C2D 1_555 1_555
C3F H3F 1_555 1_555
C4F N2 1_555 1_555
H4F C4F 1_555 1_555
N2F C4 1_555 1_555
N2A Mn3A 1_555 1_555
O2A Mn4A 1_555 1_555
O3A Mn3A 1_555 1_555
C5A O2A 1_555 1_555
C6A C5A 1_555 1_555
H5A C6A 1_555 1_555
H6A C6A 1_555 1_555
C7A C6A 1_555 1_555
C8A C7A 1_555 1_555
H7A C8A 1_555 1_555
C9A C8A 1_555 1_555
H8A C9A 1_555 1_555
C10A C9A 1_555 1_555
H9A C10A 1_555 1_555
C11A C10A 1_555 1_555
H10A C11A 1_555 1_555
C12A C7A 1_555 1_555
H11A C12A 1_555 1_555
O4A Mn1 1_555 1_555
O5A Mn4A 1_555 1_555
C13A O4A 1_555 1_555
C14A C13A 1_555 1_555
H12A C14A 1_555 1_555
H13A C14A 1_555 1_555
C15A C14A 1_555 1_555
C16A C15A 1_555 1_555
H14A C16A 1_555 1_555
C17A C16A 1_555 1_555
H15A C17A 1_555 1_555
C18A C17A 1_555 1_555
H16A C18A 1_555 1_555
C19A C18A 1_555 1_555
H17A C19A 1_555 1_555
C20A C15A 1_555 1_555
H18A C20A 1_555 1_555
O6A Mn1 1_555 1_555
O7A Mn3A 1_555 1_555
C21A O6A 1_555 1_555
C22A C21A 1_555 1_555
H19A C22A 1_555 1_555
H20A C22A 1_555 1_555
C23A C22A 1_555 1_555
C24A C23A 1_555 1_555
H21A C24A 1_555 1_555
C25A C24A 1_555 1_555
H22A C25A 1_555 1_555
C26A C25A 1_555 1_555
H23A C26A 1_555 1_555
C27A C26A 1_555 1_555
H24A C27A 1_555 1_555
C28A C23A 1_555 1_555
H25A C28A 1_555 1_555
O8A Mn2 1_555 1_555
O9A Mn4 1_555 1_555
C29A O8A 1_555 1_555
C30A C29A 1_555 1_555
H26A C30A 1_555 1_555
H27A C30A 1_555 1_555
C31A C30A 1_555 1_555
C32A C31A 1_555 1_555
H28A C32A 1_555 1_555
C33A C32A 1_555 1_555
H29A C33A 1_555 1_555
C34A C33A 1_555 1_555
H30A C34A 1_555 1_555
C35A C34A 1_555 1_555
H31A C35A 1_555 1_555
C36A C31A 1_555 1_555
H32A C36A 1_555 1_555
O10A Mn2 1_555 1_555
O11A Mn3A 1_555 1_555
C37A O10A 1_555 1_555
C38A C37A 1_555 1_555
H33A C38A 1_555 1_555
H34A C38A 1_555 1_555
C39A H35A 1_555 1_555
C40A C38A 1_555 1_555
C41A C40A 1_555 1_555
H36A C41A 1_555 1_555
C42A C41A 1_555 1_555
H37A C42A 1_555 1_555
C43A C42A 1_555 1_555
H38A C43A 1_555 1_555
C44A C39A 1_555 1_555
H39A C44A 1_555 1_555
Mn2 O1A 1_555 1_555
Mn3 O4A 1_555 1_555
Mn4 O10A 1_555 1_555
C3 N2 1_555 1_555
O3 C5 1_555 1_555
C11 C12 1_555 1_555
O5 C13 1_555 1_555
C19 C20 1_555 1_555
O7 C21 1_555 1_555
C27 C28 1_555 1_555
C35 C36 1_555 1_555
O10 Mn4A 1_555 1_555
O11 C37 1_555 1_555
C39 C40 1_555 1_555
C43 C44 1_555 1_555
Mn3A O1A 1_555 1_555
Mn4A O1A 1_555 1_555
N1D C2D 1_555 1_555
C3F C4F 1_555 1_555
C3F N2F 1_555 1_555
O3A C5A 1_555 1_555
C11A C12A 1_555 1_555
O5A C13A 1_555 1_555
C19A C20A 1_555 1_555
O7A C21A 1_555 1_555
C27A C28A 1_555 1_555
O9A C29A 1_555 1_555
C35A C36A 1_555 1_555
O11A C37A 1_555 1_555
C39A C40A 1_555 1_555
C43A C44A 1_555 1_555

#END
