
#######################################################################
#
#                 Cambridge Crystallographic Data Centre
#                                CCDC 
#
#######################################################################
#
# If this CIF has been generated from an entry in the Cambridge 
# Structural Database, then it will include bibliographic, chemical, 
# crystal, experimental, refinement or atomic coordinate data resulting 
# from the CCDC's data processing and validation procedures.
#
#######################################################################

data_ZEYCOX
_chemical_formula_moiety         
'(C28 H26 N2 O12 Zn2 2-)n,6n(C3 H7 N1 O1),2n(C2 H8 N1 1+)'
_chemical_name_systematic        
'catena-(bis(Dimethylammonium) tris(\m~2~-terepthalato)-dimethylamine-zinc N,N-dimethylformamide solvate)'
_symmetry_cell_setting           monoclinic
_symmetry_space_group_name_H-M   'P 21/c'
_symmetry_Int_Tables_number      14
_space_group_name_Hall           '-P 2ybc'
loop_
_symmetry_equiv_pos_site_id
_symmetry_equiv_pos_as_xyz
1 x,y,z
2 -x,1/2+y,1/2-z
3 -x,-y,-z
4 x,1/2-y,1/2+z
_cell_length_a                   17.546(3)
_cell_length_b                   11.158(2)
_cell_length_c                   18.392(3)
_cell_angle_alpha                90
_cell_angle_beta                 118.33(2)
_cell_angle_gamma                90
_cell_volume                     3169.49
_exptl_crystal_colour            colorless
_exptl_crystal_description       parallelepiped
_cell_formula_units_Z            2
loop_
_atom_site_label
_atom_site_type_symbol
_atom_site_fract_x
_atom_site_fract_y
_atom_site_fract_z
Zn1 Zn 0.83923(3) 0.16180(4) 0.66285(3)
O1 O 0.87436(18) 0.0807(3) 0.59224(18)
O2 O 1.00115(19) 0.1740(2) 0.67048(19)
O3 O 0.72853(17) 0.0742(3) 0.60200(19)
O4 O 0.67077(19) 0.2162(3) 0.6401(2)
O5 O 0.90095(17) 0.1511(2) 0.78942(17)
O6 O 0.9092(3) -0.0418(3) 0.7691(2)
N1 N 0.8222(3) 0.3422(3) 0.6417(3)
H1 H 0.7804 0.3169 0.6480
C1 C 0.7944(4) 0.3802(5) 0.5554(3)
H2 H 0.7838 0.4668 0.5504
H3 H 0.7411 0.3380 0.5179
H4 H 0.8400 0.3611 0.5408
C2 C 0.8812(4) 0.4169(5) 0.7079(4)
H5 H 0.9385 0.4132 0.7110
H6 H 0.8853 0.3888 0.7601
H7 H 0.8602 0.4998 0.6979
C3 C 0.9513(3) 0.1065(4) 0.6115(3)
C4 C 0.9760(2) 0.0501(3) 0.5536(2)
C5 C 0.9191(2) -0.0239(3) 0.4852(2)
H8 H 0.8623 -0.0389 0.4770
C6 C 1.0569(2) 0.0729(3) 0.5679(2)
H9 H 1.0954 0.1210 0.6131
C7 C 0.6651(3) 0.1224(4) 0.6018(3)
C8 C 0.5797(2) 0.0578(4) 0.5485(2)
C9 C 0.5678(3) -0.0317(4) 0.4920(3)
H10 H 0.6163 -0.0551 0.4855
C10 C 0.5109(3) 0.0900(4) 0.5562(3)
H11 H 0.5152 0.1514 0.5937
C11 C 0.9224(3) 0.0437(4) 0.8171(3)
C12 C 0.9639(2) 0.0229(3) 0.9122(2)
C13 C 0.9776(3) 0.1161(4) 0.9682(3)
H12 H 0.9629 0.1958 0.9482
C14 C 0.9864(3) -0.0935(4) 0.9447(3)
H13 H 0.9778 -0.1587 0.9084
O1B O 1.12564(18) -0.0807(3) 0.40776(18)
O2B O 0.99885(19) -0.1740(2) 0.32952(19)
C3B C 1.0487(3) -0.1065(4) 0.3885(3)
C4B C 1.0240(2) -0.0501(3) 0.4464(2)
C5B C 1.0809(2) 0.0239(3) 0.5148(2)
H8B H 1.1377 0.0389 0.5230
C6B C 0.9431(2) -0.0729(3) 0.4321(2)
H9B H 0.9046 -0.1210 0.3869
O3B O 0.27147(17) -0.0742(3) 0.39800(19)
O4B O 0.32923(19) -0.2162(3) 0.3599(2)
C7B C 0.3349(3) -0.1224(4) 0.3982(3)
C8B C 0.4203(2) -0.0578(4) 0.4515(2)
C9B C 0.4322(3) 0.0317(4) 0.5080(3)
H10B H 0.3837 0.0551 0.5145
C10B C 0.4891(3) -0.0900(4) 0.4438(3)
H11B H 0.4848 -0.1514 0.4063
O5B O 1.09905(17) -0.1511(2) 1.21058(17)
O6B O 1.0908(3) 0.0418(3) 1.2309(2)
C11B C 1.0776(3) -0.0437(4) 1.1829(3)
C12B C 1.0361(2) -0.0229(3) 1.0878(2)
C13B C 1.0224(3) -0.1161(4) 1.0318(3)
H12B H 1.0371 -0.1958 1.0518
C14B C 1.0136(3) 0.0935(4) 1.0553(3)
H13B H 1.0222 0.1587 1.0916
Zn1B Zn 0.16077(3) -0.16180(4) 0.33715(3)
N1B N 0.1778(3) -0.3422(3) 0.3583(3)
H1B H 0.2196 -0.3169 0.3520
C1B C 0.2056(4) -0.3802(5) 0.4446(3)
H2B H 0.2162 -0.4668 0.4496
H3B H 0.2589 -0.3380 0.4821
H4B H 0.1600 -0.3611 0.4592
C2B C 0.1188(4) -0.4169(5) 0.2921(4)
H5B H 0.0615 -0.4132 0.2890
H6B H 0.1147 -0.3888 0.2399
H7B H 0.1398 -0.4998 0.3021
Zn1B_2 Zn 1.16077(3) -0.16180(4) 0.33715(3)
Zn1B_3 Zn 1.16077(3) -0.16180(4) 1.33715(3)
O1B_2 O 0.12564(18) -0.0807(3) 0.40776(18)
O5B_2 O 0.09905(17) -0.1511(2) 0.21058(17)
N2 N 0.6804(3) -0.1798(4) 0.8268(3)
C15 C 0.6113(4) -0.1310(6) 0.7440(4)
H14 H 0.5563 -0.1721 0.7283
H15 H 0.6291 -0.1447 0.7017
H16 H 0.6040 -0.0448 0.7490
C16 C 0.7668(4) -0.1304(6) 0.8640(4)
H17 H 0.8054 -0.1801 0.9111
H18 H 0.7659 -0.0486 0.8829
H19 H 0.7877 -0.1291 0.8231
C17 C 0.6662(3) -0.2652(5) 0.8670(3)
H20 H 0.6094 -0.2978 0.8419
O7 O 0.7206(2) -0.3102(4) 0.9368(2)
N3 N 0.6858(3) 0.2976(4) 0.8375(2)
C18 C 0.7696(3) 0.3082(6) 0.8487(4)
H21 H 0.7809 0.2434 0.8191
H22 H 0.8109 0.3030 0.9077
H23 H 0.7761 0.3856 0.8271
C19 C 0.6631(4) 0.3905(5) 0.8769(4)
H24 H 0.6091 0.3692 0.8775
H25 H 0.6550 0.4657 0.8466
H26 H 0.7095 0.4003 0.9338
C20 C 0.6306(3) 0.2117(5) 0.7903(3)
H27 H 0.6530 0.1545 0.7671
O8 O 0.5574(2) 0.1994(4) 0.7744(2)
N4 N 0.4694(4) 0.0332(4) 0.8911(3)
C21 C 0.5322(5) -0.0389(6) 0.8887(5)
H28 H 0.5052 -0.1117 0.8571
H29 H 0.5749 -0.0608 0.9452
H30 H 0.5610 0.0046 0.8623
C22 C 0.4962(6) 0.1492(5) 0.9326(5)
H31 H 0.5120 0.2028 0.8997
H32 H 0.5463 0.1380 0.9873
H33 H 0.4484 0.1845 0.9386
C23 C 0.3901(5) -0.0069(7) 0.8581(5)
H34 H 0.3784 -0.0809 0.8293
O9 O 0.3316(4) 0.0413(6) 0.8610(4)
N5 N 0.8269(3) -0.1679(3) 0.6192(2)
H35 H 0.799(3) -0.129(4) 0.571(3)
H36 H 0.857(3) -0.106(4) 0.662(3)
C24 C 0.8986(3) -0.2383(4) 0.6267(3)
H37 H 0.9308 -0.2694 0.6831
H38 H 0.9370 -0.1883 0.6144
H39 H 0.8772 -0.3054 0.5877
C25 C 0.7722(3) -0.2377(5) 0.6392(4)
H40 H 0.7483 -0.3043 0.6000
H41 H 0.7249 -0.1877 0.6361
H42 H 0.8056 -0.2694 0.6953
loop_
_geom_bond_atom_site_label_1
_geom_bond_atom_site_label_2
_geom_bond_site_symmetry_1
_geom_bond_site_symmetry_2
Zn1 O1 1_555 1_555
O1 C3 1_555 1_555
O2 C3 1_555 1_555
O3 Zn1 1_555 1_555
O4 C7 1_555 1_555
O5 Zn1 1_555 1_555
O6 C11 1_555 1_555
N1 Zn1 1_555 1_555
H1 N1 1_555 1_555
C1 N1 1_555 1_555
H2 C1 1_555 1_555
H3 C1 1_555 1_555
H4 C1 1_555 1_555
C2 N1 1_555 1_555
H5 C2 1_555 1_555
H6 C2 1_555 1_555
H7 C2 1_555 1_555
C3 C4 1_555 1_555
C4 C5 1_555 1_555
C5 H8 1_555 1_555
C6 C4 1_555 1_555
H9 C6 1_555 1_555
C7 O3 1_555 1_555
C8 C7 1_555 1_555
C9 C8 1_555 1_555
H10 C9 1_555 1_555
C10 C8 1_555 1_555
H11 C10 1_555 1_555
C11 O5 1_555 1_555
C12 C11 1_555 1_555
C13 C12 1_555 1_555
H12 C13 1_555 1_555
C14 C12 1_555 1_555
H13 C14 1_555 1_555
N2 C15 1_555 1_555
C15 H14 1_555 1_555
H15 C15 1_555 1_555
H16 C15 1_555 1_555
C16 N2 1_555 1_555
H17 C16 1_555 1_555
H18 C16 1_555 1_555
H19 C16 1_555 1_555
C17 N2 1_555 1_555
H20 C17 1_555 1_555
O7 C17 1_555 1_555
N3 C18 1_555 1_555
C18 H21 1_555 1_555
H22 C18 1_555 1_555
H23 C18 1_555 1_555
C19 N3 1_555 1_555
H24 C19 1_555 1_555
H25 C19 1_555 1_555
H26 C19 1_555 1_555
C20 N3 1_555 1_555
H27 C20 1_555 1_555
O8 C20 1_555 1_555
N4 C21 1_555 1_555
C21 H28 1_555 1_555
H29 C21 1_555 1_555
H30 C21 1_555 1_555
C22 N4 1_555 1_555
H31 C22 1_555 1_555
H32 C22 1_555 1_555
H33 C22 1_555 1_555
C23 N4 1_555 1_555
H34 C23 1_555 1_555
O9 C23 1_555 1_555
N5 H35 1_555 1_555
H36 N5 1_555 1_555
C24 N5 1_555 1_555
H37 C24 1_555 1_555
H38 C24 1_555 1_555
H39 C24 1_555 1_555
C25 N5 1_555 1_555
H40 C25 1_555 1_555
H41 C25 1_555 1_555
H42 C25 1_555 1_555
O1B C3B 1_555 1_555
O2B C3B 1_555 1_555
C3B C4B 1_555 1_555
C4B C5B 1_555 1_555
C5B C6 1_555 1_555
H8B C5B 1_555 1_555
C6B C5 1_555 1_555
H9B C6B 1_555 1_555
O3B C7B 1_555 1_555
O4B C7B 1_555 1_555
C7B C8B 1_555 1_555
C8B C9B 1_555 1_555
C9B C10 1_555 1_555
H10B C9B 1_555 1_555
C10B C9 1_555 1_555
H11B C10B 1_555 1_555
O5B C11B 1_555 1_555
O6B C11B 1_555 1_555
C11B C12B 1_555 1_555
C12B C13B 1_555 1_555
C13B C14 1_555 1_555
H12B C13B 1_555 1_555
C14B C13 1_555 1_555
H13B C14B 1_555 1_555
Zn1B O3B 1_555 1_555
N1B Zn1B 1_555 1_555
H1B N1B 1_555 1_555
C1B N1B 1_555 1_555
H2B C1B 1_555 1_555
H3B C1B 1_555 1_555
H4B C1B 1_555 1_555
C2B N1B 1_555 1_555
H5B C2B 1_555 1_555
H6B C2B 1_555 1_555
H7B C2B 1_555 1_555
Zn1B_2 O1B 1_555 1_555
Zn1B_3 O5B 1_555 1_555
O1B_2 Zn1B 1_555 1_555
O5B_2 Zn1B 1_555 1_555
C4B C6B 1_555 1_555
C8B C10B 1_555 1_555
C12B C14B 1_555 1_555

#END
