
#######################################################################
#
#                 Cambridge Crystallographic Data Centre
#                                CCDC 
#
#######################################################################
#
# If this CIF has been generated from an entry in the Cambridge 
# Structural Database, then it will include bibliographic, chemical, 
# crystal, experimental, refinement or atomic coordinate data resulting 
# from the CCDC's data processing and validation procedures.
#
#######################################################################

data_YABKEU
_chemical_name_common            UPC-5
_chemical_formula_moiety         
'(C48 H24 Eu3 O26 1-)n,n(H3 O1 1+),4n(C4 H9 N1 O1)'
_chemical_name_systematic        
"catena-[oxonium bis(\m-3,3',5,5'-biphenyltetracarboxylato)-(\m-5'-carboxy-3,3',5-biphenyltricarboxylato)-diaqua-tri-europium N,N-dimethylacetamide solvate]"
_symmetry_cell_setting           triclinic
_symmetry_space_group_name_H-M   'P -1'
_symmetry_Int_Tables_number      2
_space_group_name_Hall           '-P 1'
loop_
_symmetry_equiv_pos_site_id
_symmetry_equiv_pos_as_xyz
1 x,y,z
2 -x,-y,-z
_cell_length_a                   11.6692(4)
_cell_length_b                   12.2365(4)
_cell_length_c                   13.6586(6)
_cell_angle_alpha                65.229(4)
_cell_angle_beta                 67.518(4)
_cell_angle_gamma                88.435(3)
_cell_volume                     1615.62
_exptl_crystal_colour            colorless
_exptl_crystal_description       block
_cell_formula_units_Z            1
loop_
_atom_site_label
_atom_site_type_symbol
_atom_site_fract_x
_atom_site_fract_y
_atom_site_fract_z
Eu1 Eu 0.5000 0.5000 0.5000
Eu2 Eu 0.43318(2) 1.33010(2) 0.32575(2)
O1 O 0.6532(4) 1.4051(4) 0.1933(4)
H1 H 0.7116 1.4256 0.2116
H2 H 0.6876 1.4162 0.1192
O2 O 0.4768(4) 0.5312(3) 0.3092(3)
O3 O 0.5374(4) 0.6890(3) 0.3203(3)
O4 O 0.4345(3) 0.6559(3) 0.5569(3)
O5 O 0.4826(4) 0.8315(3) 0.5510(4)
O6 O 0.4973(5) 0.8002(4) -0.2209(4)
O7 O 0.5550(4) 0.6290(3) -0.1284(3)
O8 O 0.1420(5) 1.1657(4) 0.3191(4)
O9 O 0.2655(4) 1.1731(3) 0.4049(4)
O10 O 0.2668(4) 0.4423(3) 0.2942(4)
O11 O 0.0827(4) 0.3671(4) 0.3129(4)
H3 H 0.1225 0.3153 0.2986
O12 O -0.2834(4) 0.5484(4) 0.4230(4)
O13 O -0.2893(4) 0.6918(4) 0.4816(3)
C1 C 0.5091(5) 0.6436(5) 0.2645(5)
C2 C 0.5075(5) 0.7265(5) 0.1473(5)
C3 C 0.5039(6) 0.8520(5) 0.1184(5)
H4 H 0.5016 0.8790 0.1733
C4 C 0.5035(6) 0.9353(5) 0.0128(5)
C5 C 0.5096(6) 0.8913(5) -0.0676(5)
H5 H 0.5122 0.9456 -0.1409
C6 C 0.5119(6) 0.7678(5) -0.0421(5)
C7 C 0.5207(6) 0.7291(5) -0.1345(5)
C8 C 0.5105(5) 0.6850(5) 0.0663(5)
H6 H 0.5115 0.6030 0.0841
C9 C 0.4240(5) 0.7688(5) 0.5281(5)
C10 C 0.3356(5) 0.8219(5) 0.4708(5)
C11 C 0.3180(5) 0.9418(5) 0.4429(5)
H7 H 0.3647 0.9910 0.4555
C12 C 0.2308(5) 0.9887(5) 0.3962(5)
C13 C 0.2113(6) 1.1190(5) 0.3712(5)
C14 C 0.1619(5) 0.9166(5) 0.3766(5)
H8 H 0.1026 0.9485 0.3468
C15 C 0.1797(5) 0.7975(5) 0.4006(5)
C16 C 0.2657(5) 0.7500(5) 0.4501(5)
H9 H 0.2764 0.6691 0.4695
C17 C 0.1060(5) 0.7167(5) 0.3818(5)
C18 C -0.0223(5) 0.7180(5) 0.4067(5)
H10 H -0.0625 0.7747 0.4308
C19 C -0.0896(5) 0.6356(5) 0.3959(5)
C20 C -0.2312(5) 0.6269(5) 0.4359(5)
C21 C -0.0317(5) 0.5501(5) 0.3594(5)
H11 H -0.0774 0.4960 0.3510
C22 C 0.0943(5) 0.5460(5) 0.3358(5)
C23 C 0.1559(5) 0.4461(5) 0.3110(5)
C24 C 0.1638(5) 0.6297(5) 0.3454(5)
H12 H 0.2489 0.6279 0.3275
O2A O 0.5232(4) 1.4688(3) -0.3092(3)
O3A O 0.4626(4) 1.3110(3) -0.3203(3)
O6A O 0.5027(5) 1.1998(4) 0.2209(4)
O7A O 0.4450(4) 1.3710(3) 0.1284(3)
C1A C 0.4909(5) 1.3564(5) -0.2645(5)
C2A C 0.4925(5) 1.2735(5) -0.1473(5)
C3A C 0.4961(6) 1.1480(5) -0.1184(5)
H4A H 0.4984 1.1210 -0.1733
C4A C 0.4965(6) 1.0647(5) -0.0128(5)
C5A C 0.4904(6) 1.1087(5) 0.0676(5)
H5A H 0.4878 1.0544 0.1409
C6A C 0.4881(6) 1.2322(5) 0.0421(5)
C7A C 0.4793(6) 1.2709(5) 0.1345(5)
C8A C 0.4895(5) 1.3150(5) -0.0663(5)
H6A H 0.4885 1.3970 -0.0841
Eu2A Eu -0.43318(2) -0.33010(2) 0.67425(2)
O1A O -0.6532(4) -0.4051(4) 0.8067(4)
H1A H -0.7116 -0.4256 0.7884
H2A H -0.6876 -0.4162 0.8808
O4A O -0.4345(3) 0.3441(3) 0.4431(3)
O5A O -0.4826(4) 0.1685(3) 0.4490(4)
O8A O -0.1420(5) -0.1657(4) 0.6809(4)
O9A O -0.2655(4) -0.1731(3) 0.5951(4)
O10A O -0.2668(4) 0.5577(3) 0.7058(4)
O11A O -0.0827(4) 0.6329(4) 0.6871(4)
H3A H -0.1225 0.6847 0.7014
O12A O 0.2834(4) 0.4516(4) 0.5770(4)
O13A O 0.2893(4) 0.3082(4) 0.5184(3)
C9A C -0.4240(5) 0.2312(5) 0.4719(5)
C10A C -0.3356(5) 0.1781(5) 0.5292(5)
C11A C -0.3180(5) 0.0582(5) 0.5571(5)
H7A H -0.3647 0.0090 0.5445
C12A C -0.2308(5) 0.0113(5) 0.6038(5)
C13A C -0.2113(6) -0.1190(5) 0.6288(5)
C14A C -0.1619(5) 0.0834(5) 0.6234(5)
H8A H -0.1026 0.0515 0.6532
C15A C -0.1797(5) 0.2025(5) 0.5994(5)
C16A C -0.2657(5) 0.2500(5) 0.5499(5)
H9A H -0.2764 0.3309 0.5305
C17A C -0.1060(5) 0.2833(5) 0.6182(5)
C18A C 0.0223(5) 0.2820(5) 0.5933(5)
H10A H 0.0625 0.2253 0.5692
C19A C 0.0896(5) 0.3644(5) 0.6041(5)
C20A C 0.2312(5) 0.3731(5) 0.5641(5)
C21A C 0.0317(5) 0.4499(5) 0.6406(5)
H11A H 0.0774 0.5040 0.6490
C22A C -0.0943(5) 0.4540(5) 0.6642(5)
C23A C -0.1559(5) 0.5539(5) 0.6890(5)
C24A C -0.1638(5) 0.3703(5) 0.6546(5)
H12A H -0.2489 0.3721 0.6725
Eu1_2 Eu -0.5000 0.5000 0.5000
Eu1_3 Eu 0.5000 1.5000 -0.5000
Eu2_2 Eu -0.56682(2) 0.33010(2) 0.32575(2)
Eu2_3 Eu 0.43318(2) 0.33010(2) 0.32575(2)
Eu2A_2 Eu -0.43318(2) 0.66990(2) 0.67425(2)
Eu2A_3 Eu 0.56682(2) 0.66990(2) -0.32575(2)
Eu2A_4 Eu 0.56682(2) 0.66990(2) 0.67425(2)
Eu2A_5 Eu 0.56682(2) 1.66990(2) -0.32575(2)
O2_2 O 0.4768(4) 1.5312(3) 0.3092(3)
O2A_2 O -0.4768(4) -0.5312(3) 0.6908(3)
O2A_3 O 0.5232(4) 0.4688(3) 0.6908(3)
O3A_2 O 0.4626(4) 0.3110(3) 0.6797(3)
O4_2 O -0.5655(3) -0.3441(3) 0.5569(3)
O4A_2 O 0.5655(3) 0.3441(3) 0.4431(3)
O4A_3 O 0.5655(3) 1.3441(3) 0.4431(3)
O5_2 O -0.5174(4) -0.1685(3) 0.5510(4)
O5A_2 O 0.5174(4) 1.1685(3) 0.4490(4)
O6_2 O -0.5027(5) -0.1998(4) 0.7791(4)
O7_2 O -0.4450(4) -0.3710(3) 0.8716(3)
O10_2 O 0.2668(4) 1.4423(3) 0.2942(4)
O10A_2 O -0.2668(4) -0.4423(3) 0.7058(4)
O12_2 O 0.7166(4) 0.5484(4) 0.4230(4)
O13_2 O -0.2893(4) -0.3082(4) 0.4816(3)
O13A_2 O 0.2893(4) 1.3082(4) 0.5184(3)
loop_
_geom_bond_atom_site_label_1
_geom_bond_atom_site_label_2
_geom_bond_site_symmetry_1
_geom_bond_site_symmetry_2
Eu1 O2 1_555 1_555
Eu2 O1 1_555 1_555
O1 H1 1_555 1_555
H2 O1 1_555 1_555
O2 C1 1_555 1_555
O3 Eu1 1_555 1_555
O4 Eu1 1_555 1_555
O5 C9 1_555 1_555
O6 C7 1_555 1_555
O7 C7 1_555 1_555
O8 C13 1_555 1_555
O9 Eu2 1_555 1_555
O10 C23 1_555 1_555
O11 H3 1_555 1_555
O12 C20 1_555 1_555
O13 C20 1_555 1_555
C1 O3 1_555 1_555
C2 C1 1_555 1_555
C3 C2 1_555 1_555
H4 C3 1_555 1_555
C4 C3 1_555 1_555
C5 C4 1_555 1_555
H5 C5 1_555 1_555
C6 C5 1_555 1_555
C7 C6 1_555 1_555
C8 C2 1_555 1_555
H6 C8 1_555 1_555
C9 O4 1_555 1_555
C10 C9 1_555 1_555
C11 C10 1_555 1_555
H7 C11 1_555 1_555
C12 C11 1_555 1_555
C13 O9 1_555 1_555
C14 C12 1_555 1_555
H8 C14 1_555 1_555
C15 C14 1_555 1_555
C16 C10 1_555 1_555
H9 C16 1_555 1_555
C17 C15 1_555 1_555
C18 C17 1_555 1_555
H10 C18 1_555 1_555
C19 C18 1_555 1_555
C20 C19 1_555 1_555
C21 C19 1_555 1_555
H11 C21 1_555 1_555
C22 C21 1_555 1_555
C23 O11 1_555 1_555
C24 C17 1_555 1_555
H12 C24 1_555 1_555
O2A C1A 1_555 1_555
O3A C1A 1_555 1_555
O6A Eu2 1_555 1_555
O7A Eu2 1_555 1_555
C1A C2A 1_555 1_555
C2A C3A 1_555 1_555
C3A H4A 1_555 1_555
C4A C4 1_555 1_555
C5A C4A 1_555 1_555
H5A C5A 1_555 1_555
C6A C5A 1_555 1_555
C7A O6A 1_555 1_555
C8A C2A 1_555 1_555
H6A C8A 1_555 1_555
Eu2A O1A 1_555 1_555
O1A H1A 1_555 1_555
H2A O1A 1_555 1_555
O4A C9A 1_555 1_555
O5A C9A 1_555 1_555
O8A C13A 1_555 1_555
O9A Eu2A 1_555 1_555
O10A C23A 1_555 1_555
O11A H3A 1_555 1_555
O12A Eu1 1_555 1_555
O13A C20A 1_555 1_555
C9A C10A 1_555 1_555
C10A C11A 1_555 1_555
C11A H7A 1_555 1_555
C12A C11A 1_555 1_555
C13A O9A 1_555 1_555
C14A C12A 1_555 1_555
H8A C14A 1_555 1_555
C15A C14A 1_555 1_555
C16A C10A 1_555 1_555
H9A C16A 1_555 1_555
C17A C15A 1_555 1_555
C18A C17A 1_555 1_555
H10A C18A 1_555 1_555
C19A C18A 1_555 1_555
C20A O12A 1_555 1_555
C21A C19A 1_555 1_555
H11A C21A 1_555 1_555
C22A C21A 1_555 1_555
C23A O11A 1_555 1_555
C24A C17A 1_555 1_555
H12A C24A 1_555 1_555
Eu1_2 O12 1_555 1_555
Eu1_3 O2A 1_555 1_555
Eu2_2 O4A 1_555 1_555
Eu2_3 O2 1_555 1_555
Eu2A_2 O13 1_555 1_555
Eu2A_3 O6 1_555 1_555
Eu2A_4 O4 1_555 1_555
Eu2A_5 O2A 1_555 1_555
O2_2 Eu2 1_555 1_555
O2A_2 Eu2A 1_555 1_555
O2A_3 Eu1 1_555 1_555
O3A_2 Eu1 1_555 1_555
O4_2 Eu2A 1_555 1_555
O4A_2 Eu1 1_555 1_555
O4A_3 Eu2 1_555 1_555
O5_2 Eu2A 1_555 1_555
O5A_2 Eu2 1_555 1_555
O6_2 Eu2A 1_555 1_555
O7_2 Eu2A 1_555 1_555
O10_2 Eu2 1_555 1_555
O10A_2 Eu2A 1_555 1_555
O12_2 Eu1 1_555 1_555
O13_2 Eu2A 1_555 1_555
O13A_2 Eu2 1_555 1_555
O5 Eu2A_4 1_555 1_555
O7 Eu2A_3 1_555 1_555
O10 Eu2_3 1_555 1_555
C6 C8 1_555 1_555
C12 C13 1_555 1_555
C15 C16 1_555 1_555
C22 C23 1_555 1_555
C22 C24 1_555 1_555
O3A Eu1_3 1_555 1_555
O7A C7A 1_555 1_555
C3A C4A 1_555 1_555
C6A C7A 1_555 1_555
C6A C8A 1_555 1_555
O4A Eu1_2 1_555 1_555
O5A Eu2_2 1_555 1_555
O10A Eu2A_2 1_555 1_555
O13A Eu2_3 1_555 1_555
C12A C13A 1_555 1_555
C15A C16A 1_555 1_555
C19A C20A 1_555 1_555
C22A C23A 1_555 1_555
C22A C24A 1_555 1_555
Eu2_3 O4A_2 1_555 1_555
Eu2A_4 O2A_3 1_555 1_555

#END
