
#######################################################################
#
#                 Cambridge Crystallographic Data Centre
#                                CCDC 
#
#######################################################################
#
# If this CIF has been generated from an entry in the Cambridge 
# Structural Database, then it will include bibliographic, chemical, 
# crystal, experimental, refinement or atomic coordinate data resulting 
# from the CCDC's data processing and validation procedures.
#
#######################################################################

data_JOZWIG02
_chemical_name_common            NU-1102
_chemical_formula_moiety         '(C216 H130 N12 O32 Zr6)n'
_chemical_name_systematic        
"catena-[tris(\m~8~-5,10,15,20-tetrakis(4'-Carboxylatobiphenyl-4-yl)porphyrin)-tetrakis(\m~3~-hydroxo)-tetrakis(\m~3~-oxo)-hexa-zirconium unknown solvate]"
_symmetry_cell_setting           cubic
_symmetry_space_group_name_H-M   'P m -3 m'
_symmetry_Int_Tables_number      221
_space_group_name_Hall           '-P 4 2 3'
loop_
_symmetry_equiv_pos_site_id
_symmetry_equiv_pos_as_xyz
1 x,y,z
2 -x,-y,z
3 -x,y,-z
4 x,-y,-z
5 z,x,y
6 z,-x,-y
7 -z,-x,y
8 -z,x,-y
9 y,z,x
10 -y,z,-x
11 y,-z,-x
12 -y,-z,x
13 y,x,-z
14 -y,-x,-z
15 y,-x,z
16 -y,x,z
17 x,z,-y
18 -x,z,y
19 -x,-z,-y
20 x,-z,y
21 z,y,-x
22 z,-y,x
23 -z,y,x
24 -z,-y,-x
25 -x,-y,-z
26 x,y,-z
27 x,-y,z
28 -x,y,z
29 -z,-x,-y
30 -z,x,y
31 z,x,-y
32 z,-x,y
33 -y,-z,-x
34 y,-z,x
35 -y,z,x
36 y,z,-x
37 -y,-x,z
38 y,x,z
39 -y,x,-z
40 y,-x,-z
41 -x,-z,y
42 x,-z,-y
43 x,z,y
44 -x,z,-y
45 -z,-y,x
46 -z,y,-x
47 z,-y,-x
48 z,y,x
_cell_length_a                   25.3340(12)
_cell_length_b                   25.3340(12)
_cell_length_c                   25.3340(12)
_cell_angle_alpha                90
_cell_angle_beta                 90
_cell_angle_gamma                90
_cell_volume                     16259.7
_exptl_crystal_colour            red
_exptl_crystal_description       block
_cell_formula_units_Z            1
loop_
_atom_site_label
_atom_site_type_symbol
_atom_site_fract_x
_atom_site_fract_y
_atom_site_fract_z
Zr1 Zr 0.40249(2) 0.5000 0.5000
O1 O 0.36000(6) 0.5000 0.42320(6)
O2 O 0.45152(10) 0.45152(10) 0.45152(10)
N1 N 0.0000 0.5000 0.0808(2)
C1 C 0.37586(8) 0.5000 0.37586(8)
C2 C 0.33414(9) 0.5000 0.33414(9)
C3 C 0.34706(12) 0.5000 0.28260(12)
H1 H 0.3828 0.5000 0.2727
C4 C 0.30867(14) 0.5000 0.24417(13)
H2 H 0.3186 0.5000 0.2084
C5 C 0.25704(12) 0.5000 0.25704(12)
C6 C 0.21477(14) 0.5000 0.21477(14)
C7 C 0.1747(2) 0.4642(3) 0.2158(2)
H3 H 0.1684(2) 0.4440(3) 0.2463(2)
C8 C 0.1361(2) 0.4650(3) 0.1777(2)
H4 H 0.1080 0.4408 0.1796
C9 C 0.13768(16) 0.5000 0.13768(16)
C10 C 0.09594(16) 0.5000 0.09594(16)
C11 C 0.04337(18) 0.5000 0.11219(16)
C12 C 0.02639(19) 0.5000 0.16583(17)
H5 H 0.0483 0.5000 0.1958
O1A O -0.36000(6) 0.5000 0.42320(6)
C1A C -0.37586(8) 0.5000 0.37586(8)
C2A C -0.33414(9) 0.5000 0.33414(9)
C3A C -0.34706(12) 0.5000 0.28260(12)
H1A H -0.3828 0.5000 0.2727
C4A C -0.30867(14) 0.5000 0.24417(13)
H2A H -0.3186 0.5000 0.2084
C5A C -0.25704(12) 0.5000 0.25704(12)
C6A C -0.21477(14) 0.5000 0.21477(14)
C7A C -0.1747(2) 0.5358(3) 0.2158(2)
H3A H -0.1684(2) 0.5560(3) 0.2463(2)
C8A C -0.1361(2) 0.5350(3) 0.1777(2)
H4A H -0.1080 0.5592 0.1796
C9A C -0.13768(16) 0.5000 0.13768(16)
C10A C -0.09594(16) 0.5000 0.09594(16)
C11A C -0.04337(18) 0.5000 0.11219(16)
C12A C -0.02639(19) 0.5000 0.16583(17)
H5A H -0.0483 0.5000 0.1958
O1U O 0.42320(6) 0.5000 0.36000(6)
N1T N 0.0808(2) 0.5000 0.0000
C3U C 0.28260(12) 0.5000 0.34706(12)
H1U H 0.2727 0.5000 0.3828
C4U C 0.24417(13) 0.5000 0.30867(14)
H2U H 0.2084 0.5000 0.3186
C7U C 0.2158(2) 0.5358(3) 0.1747(2)
H3U H 0.2463(2) 0.5560(3) 0.1684(2)
C8U C 0.1777(2) 0.5350(3) 0.1361(2)
H4U H 0.1796 0.5592 0.1080
C11U C 0.11219(16) 0.5000 0.04337(18)
C12U C 0.16583(17) 0.5000 0.02639(19)
H5U H 0.1958 0.5000 0.0483
C7Z C 0.1747(2) 0.5358(3) 0.2158(2)
H3Z H 0.1684(2) 0.5560(3) 0.2463(2)
C8Z C 0.1361(2) 0.5350(3) 0.1777(2)
H4Z H 0.1080 0.5592 0.1796
C7AA C -0.1747(2) 0.4642(3) 0.2158(2)
H3AA H -0.1684(2) 0.4440(3) 0.2463(2)
C8AA C -0.1361(2) 0.4650(3) 0.1777(2)
H4AA H -0.1080 0.4408 0.1796
C7UA C 0.2158(2) 0.4642(3) 0.1747(2)
H3UA H 0.2463(2) 0.4440(3) 0.1684(2)
C8UA C 0.1777(2) 0.4650(3) 0.1361(2)
H4UA H 0.1796 0.4408 0.1080
O1T O 0.42320(6) 0.5000 -0.36000(6)
C1C C 0.37586(8) 0.5000 -0.37586(8)
C2C C 0.33414(9) 0.5000 -0.33414(9)
C3T C 0.28260(12) 0.5000 -0.34706(12)
H1T H 0.2727 0.5000 -0.3828
C4T C 0.24417(13) 0.5000 -0.30867(14)
H2T H 0.2084 0.5000 -0.3186
C5C C 0.25704(12) 0.5000 -0.25704(12)
C6C C 0.21477(14) 0.5000 -0.21477(14)
C7T C 0.2158(2) 0.4642(3) -0.1747(2)
H3T H 0.2463(2) 0.4440(3) -0.1684(2)
C8T C 0.1777(2) 0.4650(3) -0.1361(2)
H4T H 0.1796 0.4408 -0.1080
C9C C 0.13768(16) 0.5000 -0.13768(16)
C10C C 0.09594(16) 0.5000 -0.09594(16)
C11T C 0.11219(16) 0.5000 -0.04337(18)
C12T C 0.16583(17) 0.5000 -0.02639(19)
H5T H 0.1958 0.5000 -0.0483
O1V O -0.42320(6) 0.5000 0.36000(6)
N1V N -0.0808(2) 0.5000 0.0000
C3V C -0.28260(12) 0.5000 0.34706(12)
H1V H -0.2727 0.5000 0.3828
C4V C -0.24417(13) 0.5000 0.30867(14)
H2V H -0.2084 0.5000 0.3186
C7V C -0.2158(2) 0.4642(3) 0.1747(2)
H3V H -0.2463(2) 0.4440(3) 0.1684(2)
C8V C -0.1777(2) 0.4650(3) 0.1361(2)
H4V H -0.1796 0.4408 0.1080
C11V C -0.11219(16) 0.5000 0.04337(18)
C12V C -0.16583(17) 0.5000 0.02639(19)
H5V H -0.1958 0.5000 0.0483
O1W O -0.42320(6) 0.5000 -0.36000(6)
C1B C -0.37586(8) 0.5000 -0.37586(8)
C2B C -0.33414(9) 0.5000 -0.33414(9)
C3W C -0.28260(12) 0.5000 -0.34706(12)
H1W H -0.2727 0.5000 -0.3828
C4W C -0.24417(13) 0.5000 -0.30867(14)
H2W H -0.2084 0.5000 -0.3186
C5B C -0.25704(12) 0.5000 -0.25704(12)
C6B C -0.21477(14) 0.5000 -0.21477(14)
C7W C -0.2158(2) 0.5358(3) -0.1747(2)
H3W H -0.2463(2) 0.5560(3) -0.1684(2)
C8W C -0.1777(2) 0.5350(3) -0.1361(2)
H4W H -0.1796 0.5592 -0.1080
C9B C -0.13768(16) 0.5000 -0.13768(16)
C10B C -0.09594(16) 0.5000 -0.09594(16)
C11W C -0.11219(16) 0.5000 -0.04337(18)
C12W C -0.16583(17) 0.5000 -0.02639(19)
H5W H -0.1958 0.5000 -0.0483
C7RA C -0.2158(2) 0.5358(3) 0.1747(2)
H3RA H -0.2463(2) 0.5560(3) 0.1684(2)
C8RA C -0.1777(2) 0.5350(3) 0.1361(2)
H4RA H -0.1796 0.5592 0.1080
C7SA C -0.2158(2) 0.4642(3) -0.1747(2)
H3SA H -0.2463(2) 0.4440(3) -0.1684(2)
C8SA C -0.1777(2) 0.4650(3) -0.1361(2)
H4SA H -0.1796 0.4408 -0.1080
C7TA C 0.2158(2) 0.5358(3) -0.1747(2)
H3TA H 0.2463(2) 0.5560(3) -0.1684(2)
C8TA C 0.1777(2) 0.5350(3) -0.1361(2)
H4TA H 0.1796 0.5592 -0.1080
O1B O -0.36000(6) 0.5000 -0.42320(6)
N1B N 0.0000 0.5000 -0.0808(2)
C3B C -0.34706(12) 0.5000 -0.28260(12)
H1B H -0.3828 0.5000 -0.2727
C4B C -0.30867(14) 0.5000 -0.24417(13)
H2B H -0.3186 0.5000 -0.2084
C7B C -0.1747(2) 0.4642(3) -0.2158(2)
H3B H -0.1684(2) 0.4440(3) -0.2463(2)
C8B C -0.1361(2) 0.4650(3) -0.1777(2)
H4B H -0.1080 0.4408 -0.1796
C11B C -0.04337(18) 0.5000 -0.11219(16)
C12B C -0.02639(19) 0.5000 -0.16583(17)
H5B H -0.0483 0.5000 -0.1958
O1C O 0.36000(6) 0.5000 -0.42320(6)
C3C C 0.34706(12) 0.5000 -0.28260(12)
H1C H 0.3828 0.5000 -0.2727
C4C C 0.30867(14) 0.5000 -0.24417(13)
H2C H 0.3186 0.5000 -0.2084
C7C C 0.1747(2) 0.5358(3) -0.2158(2)
H3C H 0.1684(2) 0.5560(3) -0.2463(2)
C8C C 0.1361(2) 0.5350(3) -0.1777(2)
H4C H 0.1080 0.5592 -0.1796
C11C C 0.04337(18) 0.5000 -0.11219(16)
C12C C 0.02639(19) 0.5000 -0.16583(17)
H5C H 0.0483 0.5000 -0.1958
C7X C -0.1747(2) 0.5358(3) -0.2158(2)
H3X H -0.1684(2) 0.5560(3) -0.2463(2)
C8X C -0.1361(2) 0.5350(3) -0.1777(2)
H4X H -0.1080 0.5592 -0.1796
C7Y C 0.1747(2) 0.4642(3) -0.2158(2)
H3Y H 0.1684(2) 0.4440(3) -0.2463(2)
C8Y C 0.1361(2) 0.4650(3) -0.1777(2)
H4Y H 0.1080 0.4408 -0.1796
Zr1A Zr -0.40249(2) 0.5000 0.5000
O1B_2 O -0.36000(6) 0.5000 0.57680(6)
N1B_2 N 0.0000 0.5000 0.9192(2)
C1B_2 C -0.37586(8) 0.5000 0.62414(8)
C2B_2 C -0.33414(9) 0.5000 0.66586(9)
C3B_2 C -0.34706(12) 0.5000 0.71740(12)
H1B_2 H -0.3828 0.5000 0.7273
C4B_2 C -0.30867(14) 0.5000 0.75583(13)
H2B_2 H -0.3186 0.5000 0.7916
C5B_2 C -0.25704(12) 0.5000 0.74296(12)
C6B_2 C -0.21477(14) 0.5000 0.78523(14)
C7B_2 C -0.1747(2) 0.4642(3) 0.7842(2)
H3B_2 H -0.1684(2) 0.4440(3) 0.7537(2)
C8B_2 C -0.1361(2) 0.4650(3) 0.8223(2)
H4B_2 H -0.1080 0.4408 0.8204
C9B_2 C -0.13768(16) 0.5000 0.86232(16)
C10B_2 C -0.09594(16) 0.5000 0.90406(16)
C11B_2 C -0.04337(18) 0.5000 0.88781(16)
C12B_2 C -0.02639(19) 0.5000 0.83417(17)
H5B_2 H -0.0483 0.5000 0.8042
O1C_2 O 0.36000(6) 0.5000 0.57680(6)
C1C_2 C 0.37586(8) 0.5000 0.62414(8)
C2C_2 C 0.33414(9) 0.5000 0.66586(9)
C3C_2 C 0.34706(12) 0.5000 0.71740(12)
H1C_2 H 0.3828 0.5000 0.7273
C4C_2 C 0.30867(14) 0.5000 0.75583(13)
H2C_2 H 0.3186 0.5000 0.7916
C5C_2 C 0.25704(12) 0.5000 0.74296(12)
C6C_2 C 0.21477(14) 0.5000 0.78523(14)
C7C_2 C 0.1747(2) 0.5358(3) 0.7842(2)
H3C_2 H 0.1684(2) 0.5560(3) 0.7537(2)
C8C_2 C 0.1361(2) 0.5350(3) 0.8223(2)
H4C_2 H 0.1080 0.5592 0.8204
C9C_2 C 0.13768(16) 0.5000 0.86232(16)
C10C_2 C 0.09594(16) 0.5000 0.90406(16)
C11C_2 C 0.04337(18) 0.5000 0.88781(16)
C12C_2 C 0.02639(19) 0.5000 0.83417(17)
H5C_2 H 0.0483 0.5000 0.8042
O1W_2 O -0.42320(6) 0.5000 0.64000(6)
N1V_2 N -0.0808(2) 0.5000 1.0000
C3W_2 C -0.28260(12) 0.5000 0.65294(12)
H1W_2 H -0.2727 0.5000 0.6172
C4W_2 C -0.24417(13) 0.5000 0.69133(14)
H2W_2 H -0.2084 0.5000 0.6814
C7W_2 C -0.2158(2) 0.5358(3) 0.8253(2)
H3W_2 H -0.2463(2) 0.5560(3) 0.8316(2)
C8W_2 C -0.1777(2) 0.5350(3) 0.8639(2)
H4W_2 H -0.1796 0.5592 0.8920
C11W_2 C -0.11219(16) 0.5000 0.95663(18)
C12W_2 C -0.16583(17) 0.5000 0.97361(19)
H5W_2 H -0.1958 0.5000 0.9517
C7X_2 C -0.1747(2) 0.5358(3) 0.7842(2)
H3X_2 H -0.1684(2) 0.5560(3) 0.7537(2)
C8X_2 C -0.1361(2) 0.5350(3) 0.8223(2)
H4X_2 H -0.1080 0.5592 0.8204
C7Y_2 C 0.1747(2) 0.4642(3) 0.7842(2)
H3Y_2 H 0.1684(2) 0.4440(3) 0.7537(2)
C8Y_2 C 0.1361(2) 0.4650(3) 0.8223(2)
H4Y_2 H 0.1080 0.4408 0.8204
C7SA_2 C -0.2158(2) 0.4642(3) 0.8253(2)
H3SA_2 H -0.2463(2) 0.4440(3) 0.8316(2)
C8SA_2 C -0.1777(2) 0.4650(3) 0.8639(2)
H4SA_2 H -0.1796 0.4408 0.8920
O1V_2 O -0.42320(6) 0.5000 1.36000(6)
C1A_2 C -0.37586(8) 0.5000 1.37586(8)
C2A_2 C -0.33414(9) 0.5000 1.33414(9)
C3V_2 C -0.28260(12) 0.5000 1.34706(12)
H1V_2 H -0.2727 0.5000 1.3828
C4V_2 C -0.24417(13) 0.5000 1.30867(14)
H2V_2 H -0.2084 0.5000 1.3186
C5A_2 C -0.25704(12) 0.5000 1.25704(12)
C6A_2 C -0.21477(14) 0.5000 1.21477(14)
C7V_2 C -0.2158(2) 0.4642(3) 1.1747(2)
H3V_2 H -0.2463(2) 0.4440(3) 1.1684(2)
C8V_2 C -0.1777(2) 0.4650(3) 1.1361(2)
H4V_2 H -0.1796 0.4408 1.1080
C9A_2 C -0.13768(16) 0.5000 1.13768(16)
C10A_2 C -0.09594(16) 0.5000 1.09594(16)
C11V_2 C -0.11219(16) 0.5000 1.04337(18)
C12V_2 C -0.16583(17) 0.5000 1.02639(19)
H5V_2 H -0.1958 0.5000 1.0483
O1T_2 O 0.42320(6) 0.5000 0.64000(6)
N1T_2 N 0.0808(2) 0.5000 1.0000
C3T_2 C 0.28260(12) 0.5000 0.65294(12)
H1T_2 H 0.2727 0.5000 0.6172
C4T_2 C 0.24417(13) 0.5000 0.69133(14)
H2T_2 H 0.2084 0.5000 0.6814
C7T_2 C 0.2158(2) 0.4642(3) 0.8253(2)
H3T_2 H 0.2463(2) 0.4440(3) 0.8316(2)
C8T_2 C 0.1777(2) 0.4650(3) 0.8639(2)
H4T_2 H 0.1796 0.4408 0.8920
C11T_2 C 0.11219(16) 0.5000 0.95663(18)
C12T_2 C 0.16583(17) 0.5000 0.97361(19)
H5T_2 H 0.1958 0.5000 0.9517
O1U_2 O 0.42320(6) 0.5000 1.36000(6)
C1_2 C 0.37586(8) 0.5000 1.37586(8)
C2_2 C 0.33414(9) 0.5000 1.33414(9)
C3U_2 C 0.28260(12) 0.5000 1.34706(12)
H1U_2 H 0.2727 0.5000 1.3828
C4U_2 C 0.24417(13) 0.5000 1.30867(14)
H2U_2 H 0.2084 0.5000 1.3186
C5_2 C 0.25704(12) 0.5000 1.25704(12)
C6_2 C 0.21477(14) 0.5000 1.21477(14)
C7U_2 C 0.2158(2) 0.5358(3) 1.1747(2)
H3U_2 H 0.2463(2) 0.5560(3) 1.1684(2)
C8U_2 C 0.1777(2) 0.5350(3) 1.1361(2)
H4U_2 H 0.1796 0.5592 1.1080
C9_2 C 0.13768(16) 0.5000 1.13768(16)
C10_2 C 0.09594(16) 0.5000 1.09594(16)
C11U_2 C 0.11219(16) 0.5000 1.04337(18)
C12U_2 C 0.16583(17) 0.5000 1.02639(19)
H5U_2 H 0.1958 0.5000 1.0483
C7TA_2 C 0.2158(2) 0.5358(3) 0.8253(2)
H3TA_2 H 0.2463(2) 0.5560(3) 0.8316(2)
C8TA_2 C 0.1777(2) 0.5350(3) 0.8639(2)
H4TA_2 H 0.1796 0.5592 0.8920
C7UA_2 C 0.2158(2) 0.4642(3) 1.1747(2)
H3UA_2 H 0.2463(2) 0.4440(3) 1.1684(2)
C8UA_2 C 0.1777(2) 0.4650(3) 1.1361(2)
H4UA_2 H 0.1796 0.4408 1.1080
C7RA_2 C -0.2158(2) 0.5358(3) 1.1747(2)
H3RA_2 H -0.2463(2) 0.5560(3) 1.1684(2)
C8RA_2 C -0.1777(2) 0.5350(3) 1.1361(2)
H4RA_2 H -0.1796 0.5592 1.1080
O1_2 O 0.36000(6) 0.5000 1.42320(6)
N1_2 N 0.0000 0.5000 1.0808(2)
C3_2 C 0.34706(12) 0.5000 1.28260(12)
H1_2 H 0.3828 0.5000 1.2727
C4_2 C 0.30867(14) 0.5000 1.24417(13)
H2_2 H 0.3186 0.5000 1.2084
C7_2 C 0.1747(2) 0.4642(3) 1.2158(2)
H3_2 H 0.1684(2) 0.4440(3) 1.2463(2)
C8_2 C 0.1361(2) 0.4650(3) 1.1777(2)
H4_2 H 0.1080 0.4408 1.1796
C11_2 C 0.04337(18) 0.5000 1.11219(16)
C12_2 C 0.02639(19) 0.5000 1.16583(17)
H5_2 H 0.0483 0.5000 1.1958
O1A_2 O -0.36000(6) 0.5000 1.42320(6)
C3A_2 C -0.34706(12) 0.5000 1.28260(12)
H1A_2 H -0.3828 0.5000 1.2727
C4A_2 C -0.30867(14) 0.5000 1.24417(13)
H2A_2 H -0.3186 0.5000 1.2084
C7A_2 C -0.1747(2) 0.5358(3) 1.2158(2)
H3A_2 H -0.1684(2) 0.5560(3) 1.2463(2)
C8A_2 C -0.1361(2) 0.5350(3) 1.1777(2)
H4A_2 H -0.1080 0.5592 1.1796
C11A_2 C -0.04337(18) 0.5000 1.11219(16)
C12A_2 C -0.02639(19) 0.5000 1.16583(17)
H5A_2 H -0.0483 0.5000 1.1958
C7Z_2 C 0.1747(2) 0.5358(3) 1.2158(2)
H3Z_2 H 0.1684(2) 0.5560(3) 1.2463(2)
C8Z_2 C 0.1361(2) 0.5350(3) 1.1777(2)
H4Z_2 H 0.1080 0.5592 1.1796
C7AA_2 C -0.1747(2) 0.4642(3) 1.2158(2)
H3AA_2 H -0.1684(2) 0.4440(3) 1.2463(2)
C8AA_2 C -0.1361(2) 0.4650(3) 1.1777(2)
H4AA_2 H -0.1080 0.4408 1.1796
O2C O 0.45152(10) 0.54848(10) 0.54848(10)
Zr1D Zr 0.5000 0.40249(2) 0.5000
O1D O 0.42320(6) 0.36000(6) 0.5000
N1D N 0.0808(2) 0.0000 0.5000
C1D C 0.37586(8) 0.37586(8) 0.5000
C2D C 0.33414(9) 0.33414(9) 0.5000
C3D C 0.28260(12) 0.34706(12) 0.5000
H1D H 0.2727 0.3828 0.5000
C4D C 0.24417(13) 0.30867(14) 0.5000
H2D H 0.2084 0.3186 0.5000
C5D C 0.25704(12) 0.25704(12) 0.5000
C6D C 0.21477(14) 0.21477(14) 0.5000
C7D C 0.2158(2) 0.1747(2) 0.4642(3)
H3D H 0.2463(2) 0.1684(2) 0.4440(3)
C8D C 0.1777(2) 0.1361(2) 0.4650(3)
H4D H 0.1796 0.1080 0.4408
C9D C 0.13768(16) 0.13768(16) 0.5000
C10D C 0.09594(16) 0.09594(16) 0.5000
C11D C 0.11219(16) 0.04337(18) 0.5000
C12D C 0.16583(17) 0.02639(19) 0.5000
H5D H 0.1958 0.0483 0.5000
O1E O 0.42320(6) -0.36000(6) 0.5000
C1E C 0.37586(8) -0.37586(8) 0.5000
C2E C 0.33414(9) -0.33414(9) 0.5000
C3E C 0.28260(12) -0.34706(12) 0.5000
H1E H 0.2727 -0.3828 0.5000
C4E C 0.24417(13) -0.30867(14) 0.5000
H2E H 0.2084 -0.3186 0.5000
C5E C 0.25704(12) -0.25704(12) 0.5000
C6E C 0.21477(14) -0.21477(14) 0.5000
C7E C 0.2158(2) -0.1747(2) 0.5358(3)
H3E H 0.2463(2) -0.1684(2) 0.5560(3)
C8E C 0.1777(2) -0.1361(2) 0.5350(3)
H4E H 0.1796 -0.1080 0.5592
C9E C 0.13768(16) -0.13768(16) 0.5000
C10E C 0.09594(16) -0.09594(16) 0.5000
C11E C 0.11219(16) -0.04337(18) 0.5000
C12E C 0.16583(17) -0.02639(19) 0.5000
H5E H 0.1958 -0.0483 0.5000
O1P O 0.36000(6) 0.42320(6) 0.5000
N1P N 0.0000 0.0808(2) 0.5000
C3P C 0.34706(12) 0.28260(12) 0.5000
H1P H 0.3828 0.2727 0.5000
C4P C 0.30867(14) 0.24417(13) 0.5000
H2P H 0.3186 0.2084 0.5000
C7P C 0.1747(2) 0.2158(2) 0.5358(3)
H3P H 0.1684(2) 0.2463(2) 0.5560(3)
C8P C 0.1361(2) 0.1777(2) 0.5350(3)
H4P H 0.1080 0.1796 0.5592
C11P C 0.04337(18) 0.11219(16) 0.5000
C12P C 0.02639(19) 0.16583(17) 0.5000
H5P H 0.0483 0.1958 0.5000
C7DA C 0.2158(2) 0.1747(2) 0.5358(3)
H3DA H 0.2463(2) 0.1684(2) 0.5560(3)
C8DA C 0.1777(2) 0.1361(2) 0.5350(3)
H4DA H 0.1796 0.1080 0.5592
C7EA C 0.2158(2) -0.1747(2) 0.4642(3)
H3EA H 0.2463(2) -0.1684(2) 0.4440(3)
C8EA C 0.1777(2) -0.1361(2) 0.4650(3)
H4EA H 0.1796 -0.1080 0.4408
C7PA C 0.1747(2) 0.2158(2) 0.4642(3)
H3PA H 0.1684(2) 0.2463(2) 0.4440(3)
C8PA C 0.1361(2) 0.1777(2) 0.4650(3)
H4PA H 0.1080 0.1796 0.4408
O1Q O -0.36000(6) 0.42320(6) 0.5000
C1G C -0.37586(8) 0.37586(8) 0.5000
C2G C -0.33414(9) 0.33414(9) 0.5000
C3Q C -0.34706(12) 0.28260(12) 0.5000
H1Q H -0.3828 0.2727 0.5000
C4Q C -0.30867(14) 0.24417(13) 0.5000
H2Q H -0.3186 0.2084 0.5000
C5G C -0.25704(12) 0.25704(12) 0.5000
C6G C -0.21477(14) 0.21477(14) 0.5000
C7Q C -0.1747(2) 0.2158(2) 0.4642(3)
H3Q H -0.1684(2) 0.2463(2) 0.4440(3)
C8Q C -0.1361(2) 0.1777(2) 0.4650(3)
H4Q H -0.1080 0.1796 0.4408
C9G C -0.13768(16) 0.13768(16) 0.5000
C10G C -0.09594(16) 0.09594(16) 0.5000
C11Q C -0.04337(18) 0.11219(16) 0.5000
C12Q C -0.02639(19) 0.16583(17) 0.5000
H5Q H -0.0483 0.1958 0.5000
O1S O 0.36000(6) -0.42320(6) 0.5000
N1R N 0.0000 -0.0808(2) 0.5000
C3S C 0.34706(12) -0.28260(12) 0.5000
H1S H 0.3828 -0.2727 0.5000
C4S C 0.30867(14) -0.24417(13) 0.5000
H2S H 0.3186 -0.2084 0.5000
C7S C 0.1747(2) -0.2158(2) 0.4642(3)
H3S H 0.1684(2) -0.2463(2) 0.4440(3)
C8S C 0.1361(2) -0.1777(2) 0.4650(3)
H4S H 0.1080 -0.1796 0.4408
C11S C 0.04337(18) -0.11219(16) 0.5000
C12S C 0.02639(19) -0.16583(17) 0.5000
H5S H 0.0483 -0.1958 0.5000
O1R O -0.36000(6) -0.42320(6) 0.5000
C1F C -0.37586(8) -0.37586(8) 0.5000
C2F C -0.33414(9) -0.33414(9) 0.5000
C3R C -0.34706(12) -0.28260(12) 0.5000
H1R H -0.3828 -0.2727 0.5000
C4R C -0.30867(14) -0.24417(13) 0.5000
H2R H -0.3186 -0.2084 0.5000
C5F C -0.25704(12) -0.25704(12) 0.5000
C6F C -0.21477(14) -0.21477(14) 0.5000
C7R C -0.1747(2) -0.2158(2) 0.5358(3)
H3R H -0.1684(2) -0.2463(2) 0.5560(3)
C8R C -0.1361(2) -0.1777(2) 0.5350(3)
H4R H -0.1080 -0.1796 0.5592
C9F C -0.13768(16) -0.13768(16) 0.5000
C10F C -0.09594(16) -0.09594(16) 0.5000
C11R C -0.04337(18) -0.11219(16) 0.5000
C12R C -0.02639(19) -0.16583(17) 0.5000
H5R H -0.0483 -0.1958 0.5000
C7OA C 0.1747(2) -0.2158(2) 0.5358(3)
H3OA H 0.1684(2) -0.2463(2) 0.5560(3)
C8OA C 0.1361(2) -0.1777(2) 0.5350(3)
H4OA H 0.1080 -0.1796 0.5592
C7NA C -0.1747(2) -0.2158(2) 0.4642(3)
H3NA H -0.1684(2) -0.2463(2) 0.4440(3)
C8NA C -0.1361(2) -0.1777(2) 0.4650(3)
H4NA H -0.1080 -0.1796 0.4408
C7QA C -0.1747(2) 0.2158(2) 0.5358(3)
H3QA H -0.1684(2) 0.2463(2) 0.5560(3)
C8QA C -0.1361(2) 0.1777(2) 0.5350(3)
H4QA H -0.1080 0.1796 0.5592
O1F O -0.42320(6) -0.36000(6) 0.5000
N1F N -0.0808(2) 0.0000 0.5000
C3F C -0.28260(12) -0.34706(12) 0.5000
H1F H -0.2727 -0.3828 0.5000
C4F C -0.24417(13) -0.30867(14) 0.5000
H2F H -0.2084 -0.3186 0.5000
C7F C -0.2158(2) -0.1747(2) 0.4642(3)
H3F H -0.2463(2) -0.1684(2) 0.4440(3)
C8F C -0.1777(2) -0.1361(2) 0.4650(3)
H4F H -0.1796 -0.1080 0.4408
C11F C -0.11219(16) -0.04337(18) 0.5000
C12F C -0.16583(17) -0.02639(19) 0.5000
H5F H -0.1958 -0.0483 0.5000
O1G O -0.42320(6) 0.36000(6) 0.5000
C3G C -0.28260(12) 0.34706(12) 0.5000
H1G H -0.2727 0.3828 0.5000
C4G C -0.24417(13) 0.30867(14) 0.5000
H2G H -0.2084 0.3186 0.5000
C7G C -0.2158(2) 0.1747(2) 0.5358(3)
H3G H -0.2463(2) 0.1684(2) 0.5560(3)
C8G C -0.1777(2) 0.1361(2) 0.5350(3)
H4G H -0.1796 0.1080 0.5592
C11G C -0.11219(16) 0.04337(18) 0.5000
C12G C -0.16583(17) 0.02639(19) 0.5000
H5G H -0.1958 0.0483 0.5000
C7BA C -0.2158(2) -0.1747(2) 0.5358(3)
H3BA H -0.2463(2) -0.1684(2) 0.5560(3)
C8BA C -0.1777(2) -0.1361(2) 0.5350(3)
H4BA H -0.1796 -0.1080 0.5592
C7CA C -0.2158(2) 0.1747(2) 0.4642(3)
H3CA H -0.2463(2) 0.1684(2) 0.4440(3)
C8CA C -0.1777(2) 0.1361(2) 0.4650(3)
H4CA H -0.1796 0.1080 0.4408
Zr1E Zr 0.5000 0.59751(2) 0.5000
Zr1E_2 Zr -0.5000 -0.40249(2) 0.5000
O2A O -0.45152(10) -0.45152(10) 0.45152(10)
O2A_2 O 0.54848(10) 0.54848(10) 0.45152(10)
O2N O 0.45152(10) 0.54848(10) 0.45152(10)
O2O O -0.45152(10) 0.45152(10) 0.45152(10)
O2L O 0.45152(10) 0.45152(10) 0.54848(10)
O2B O -0.45152(10) 0.45152(10) 0.54848(10)
Zr1H Zr 0.5000 0.5000 0.40249(2)
Zr1_2 Zr 0.40249(2) -0.5000 0.5000
Zr1_3 Zr 0.40249(2) 0.5000 -0.5000
Zr1_4 Zr 0.40249(2) 0.5000 1.5000
Zr1A_2 Zr -0.40249(2) -0.5000 0.5000
Zr1A_3 Zr -0.40249(2) 0.5000 -0.5000
Zr1A_4 Zr -0.40249(2) 0.5000 1.5000
Zr1A_5 Zr 0.59751(2) 0.5000 0.5000
Zr1D_2 Zr -0.5000 0.40249(2) 0.5000
Zr1E_3 Zr 0.5000 -0.40249(2) 0.5000
Zr1H_2 Zr -0.5000 -0.5000 0.40249(2)
Zr1H_3 Zr -0.5000 0.5000 0.40249(2)
Zr1H_4 Zr -0.5000 0.5000 1.40249(2)
Zr1H_5 Zr 0.5000 0.5000 1.40249(2)
Zr1I Zr -0.5000 0.5000 -0.40249(2)
Zr1I_2 Zr -0.5000 0.5000 0.59751(2)
Zr1I_3 Zr 0.5000 0.5000 -0.40249(2)
Zr1I_4 Zr 0.5000 0.5000 0.59751(2)
O1E_2 O -0.57680(6) -0.36000(6) 0.5000
O1E_3 O 0.42320(6) 0.64000(6) 0.5000
O1F_2 O 0.57680(6) 0.64000(6) 0.5000
O1G_2 O 0.57680(6) 0.36000(6) 0.5000
O1H O 0.5000 0.42320(6) 0.36000(6)
O1K O 0.5000 0.57680(6) 0.36000(6)
O1L O 0.5000 0.36000(6) 0.57680(6)
O1M O -0.5000 -0.36000(6) 0.57680(6)
O1M_2 O 0.5000 0.64000(6) 0.57680(6)
O1N O -0.5000 -0.36000(6) 0.42320(6)
O1N_2 O 0.5000 0.64000(6) 0.42320(6)
O1O O 0.5000 0.36000(6) 0.42320(6)
O1R_2 O -0.36000(6) 0.57680(6) 0.5000
O1S_2 O 0.36000(6) 0.57680(6) 0.5000
O1V_3 O 0.57680(6) 0.5000 0.36000(6)
O2A_3 O -0.45152(10) 0.54848(10) 0.45152(10)
O2B_2 O 0.54848(10) 0.45152(10) 0.54848(10)
O2C_2 O -0.54848(10) -0.45152(10) 0.54848(10)
O2M O -0.45152(10) -0.45152(10) 0.54848(10)
O2M_2 O -0.45152(10) 0.54848(10) 0.54848(10)
O2M_3 O 0.54848(10) 0.54848(10) 0.54848(10)
O2N_2 O -0.54848(10) -0.45152(10) 0.45152(10)
O2O_2 O 0.54848(10) 0.45152(10) 0.45152(10)
loop_
_geom_bond_atom_site_label_1
_geom_bond_atom_site_label_2
_geom_bond_site_symmetry_1
_geom_bond_site_symmetry_2
Zr1 O1 1_555 1_555
O1 C1 1_555 1_555
O2 Zr1 1_555 1_555
N1 C11 1_555 1_555
C1 C2 1_555 1_555
C2 C3 1_555 1_555
C3 H1 1_555 1_555
C4 C3 1_555 1_555
H2 C4 1_555 1_555
C5 C4 1_555 1_555
C6 C5 1_555 1_555
C7 C6 1_555 1_555
H3 C7 1_555 1_555
C8 C7 1_555 1_555
H4 C8 1_555 1_555
C9 C8 1_555 1_555
C10 C9 1_555 1_555
C11 C10 1_555 1_555
C12 C11 1_555 1_555
H5 C12 1_555 1_555
O1A C1A 1_555 1_555
C1A C2A 1_555 1_555
C2A C3A 1_555 1_555
C3A H1A 1_555 1_555
C4A C3A 1_555 1_555
H2A C4A 1_555 1_555
C5A C4A 1_555 1_555
C6A C5A 1_555 1_555
C7A C6A 1_555 1_555
H3A C7A 1_555 1_555
C8A C7A 1_555 1_555
H4A C8A 1_555 1_555
C9A C8A 1_555 1_555
C10A C9A 1_555 1_555
C11A N1 1_555 1_555
C12A C12 1_555 1_555
H5A C12A 1_555 1_555
O1U C1 1_555 1_555
N1T C11U 1_555 1_555
C3U C2 1_555 1_555
H1U C3U 1_555 1_555
C4U C5 1_555 1_555
H2U C4U 1_555 1_555
C7U C6 1_555 1_555
H3U C7U 1_555 1_555
C8U C9 1_555 1_555
H4U C8U 1_555 1_555
C11U C10 1_555 1_555
C12U C11U 1_555 1_555
H5U C12U 1_555 1_555
C7Z C6 1_555 1_555
H3Z C7Z 1_555 1_555
C8Z C8 1_555 1_555
H4Z C8Z 1_555 1_555
C7AA C6A 1_555 1_555
H3AA C7AA 1_555 1_555
C8AA C8A 1_555 1_555
H4AA C8AA 1_555 1_555
C7UA C6 1_555 1_555
H3UA C7UA 1_555 1_555
C8UA C8 1_555 1_555
H4UA C8UA 1_555 1_555
O1T C1C 1_555 1_555
C1C C2C 1_555 1_555
C2C C3T 1_555 1_555
C3T H1T 1_555 1_555
C4T C3T 1_555 1_555
H2T C4T 1_555 1_555
C5C C4T 1_555 1_555
C6C C5C 1_555 1_555
C7T C6C 1_555 1_555
H3T C7T 1_555 1_555
C8T C7T 1_555 1_555
H4T C8T 1_555 1_555
C9C C8T 1_555 1_555
C10C C9C 1_555 1_555
C11T N1T 1_555 1_555
C12T C12U 1_555 1_555
H5T C12T 1_555 1_555
O1V C1A 1_555 1_555
N1V C11V 1_555 1_555
C3V C2A 1_555 1_555
H1V C3V 1_555 1_555
C4V C5A 1_555 1_555
H2V C4V 1_555 1_555
C7V C6A 1_555 1_555
H3V C7V 1_555 1_555
C8V C9A 1_555 1_555
H4V C8V 1_555 1_555
C11V C10A 1_555 1_555
C12V C11V 1_555 1_555
H5V C12V 1_555 1_555
O1W C1B 1_555 1_555
C1B C2B 1_555 1_555
C2B C3W 1_555 1_555
C3W H1W 1_555 1_555
C4W C3W 1_555 1_555
H2W C4W 1_555 1_555
C5B C4W 1_555 1_555
C6B C5B 1_555 1_555
C7W C6B 1_555 1_555
H3W C7W 1_555 1_555
C8W C7W 1_555 1_555
H4W C8W 1_555 1_555
C9B C8W 1_555 1_555
C10B C9B 1_555 1_555
C11W N1V 1_555 1_555
C12W C12V 1_555 1_555
H5W C12W 1_555 1_555
C7RA C6A 1_555 1_555
H3RA C7RA 1_555 1_555
C8RA C8A 1_555 1_555
H4RA C8RA 1_555 1_555
C7SA C6B 1_555 1_555
H3SA C7SA 1_555 1_555
C8SA C8W 1_555 1_555
H4SA C8SA 1_555 1_555
C7TA C6C 1_555 1_555
H3TA C7TA 1_555 1_555
C8TA C8T 1_555 1_555
H4TA C8TA 1_555 1_555
O1B C1B 1_555 1_555
N1B C11B 1_555 1_555
C3B C2B 1_555 1_555
H1B C3B 1_555 1_555
C4B C5B 1_555 1_555
H2B C4B 1_555 1_555
C7B C6B 1_555 1_555
H3B C7B 1_555 1_555
C8B C9B 1_555 1_555
H4B C8B 1_555 1_555
C11B C10B 1_555 1_555
C12B C11B 1_555 1_555
H5B C12B 1_555 1_555
O1C C1C 1_555 1_555
C3C C2C 1_555 1_555
H1C C3C 1_555 1_555
C4C C5C 1_555 1_555
H2C C4C 1_555 1_555
C7C C6C 1_555 1_555
H3C C7C 1_555 1_555
C8C C9C 1_555 1_555
H4C C8C 1_555 1_555
C11C C10C 1_555 1_555
C12C C12B 1_555 1_555
H5C C12C 1_555 1_555
C7X C6B 1_555 1_555
H3X C7X 1_555 1_555
C8X C8W 1_555 1_555
H4X C8X 1_555 1_555
C7Y C6C 1_555 1_555
H3Y C7Y 1_555 1_555
C8Y C8T 1_555 1_555
H4Y C8Y 1_555 1_555
Zr1A O1A 1_555 1_555
O1B_2 Zr1A 1_555 1_555
N1B_2 C11B_2 1_555 1_555
C1B_2 O1B_2 1_555 1_555
C2B_2 C1B_2 1_555 1_555
C3B_2 C2B_2 1_555 1_555
H1B_2 C3B_2 1_555 1_555
C4B_2 C3B_2 1_555 1_555
H2B_2 C4B_2 1_555 1_555
C5B_2 C4B_2 1_555 1_555
C6B_2 C5B_2 1_555 1_555
C7B_2 C6B_2 1_555 1_555
H3B_2 C7B_2 1_555 1_555
C8B_2 C7B_2 1_555 1_555
H4B_2 C8B_2 1_555 1_555
C9B_2 C8B_2 1_555 1_555
C10B_2 C9B_2 1_555 1_555
C11B_2 C10B_2 1_555 1_555
C12B_2 C11B_2 1_555 1_555
H5B_2 C12B_2 1_555 1_555
O1C_2 Zr1 1_555 1_555
C1C_2 O1C_2 1_555 1_555
C2C_2 C1C_2 1_555 1_555
C3C_2 C2C_2 1_555 1_555
H1C_2 C3C_2 1_555 1_555
C4C_2 C3C_2 1_555 1_555
H2C_2 C4C_2 1_555 1_555
C5C_2 C4C_2 1_555 1_555
C6C_2 C5C_2 1_555 1_555
C7C_2 C6C_2 1_555 1_555
H3C_2 C7C_2 1_555 1_555
C8C_2 C7C_2 1_555 1_555
H4C_2 C8C_2 1_555 1_555
C9C_2 C8C_2 1_555 1_555
C10C_2 C9C_2 1_555 1_555
C11C_2 N1B_2 1_555 1_555
C12C_2 C12B_2 1_555 1_555
H5C_2 C12C_2 1_555 1_555
O1W_2 C1B_2 1_555 1_555
N1V_2 C11W_2 1_555 1_555
C3W_2 C2B_2 1_555 1_555
H1W_2 C3W_2 1_555 1_555
C4W_2 C5B_2 1_555 1_555
H2W_2 C4W_2 1_555 1_555
C7W_2 C6B_2 1_555 1_555
H3W_2 C7W_2 1_555 1_555
C8W_2 C9B_2 1_555 1_555
H4W_2 C8W_2 1_555 1_555
C11W_2 C10B_2 1_555 1_555
C12W_2 C11W_2 1_555 1_555
H5W_2 C12W_2 1_555 1_555
C7X_2 C6B_2 1_555 1_555
H3X_2 C7X_2 1_555 1_555
C8X_2 C8B_2 1_555 1_555
H4X_2 C8X_2 1_555 1_555
C7Y_2 C6C_2 1_555 1_555
H3Y_2 C7Y_2 1_555 1_555
C8Y_2 C8C_2 1_555 1_555
H4Y_2 C8Y_2 1_555 1_555
C7SA_2 C6B_2 1_555 1_555
H3SA_2 C7SA_2 1_555 1_555
C8SA_2 C8B_2 1_555 1_555
H4SA_2 C8SA_2 1_555 1_555
O1V_2 C1A_2 1_555 1_555
C1A_2 C2A_2 1_555 1_555
C2A_2 C3V_2 1_555 1_555
C3V_2 H1V_2 1_555 1_555
C4V_2 C3V_2 1_555 1_555
H2V_2 C4V_2 1_555 1_555
C5A_2 C4V_2 1_555 1_555
C6A_2 C5A_2 1_555 1_555
C7V_2 C6A_2 1_555 1_555
H3V_2 C7V_2 1_555 1_555
C8V_2 C7V_2 1_555 1_555
H4V_2 C8V_2 1_555 1_555
C9A_2 C8V_2 1_555 1_555
C10A_2 C9A_2 1_555 1_555
C11V_2 N1V_2 1_555 1_555
C12V_2 C12W_2 1_555 1_555
H5V_2 C12V_2 1_555 1_555
O1T_2 C1C_2 1_555 1_555
N1T_2 C11T_2 1_555 1_555
C3T_2 C2C_2 1_555 1_555
H1T_2 C3T_2 1_555 1_555
C4T_2 C5C_2 1_555 1_555
H2T_2 C4T_2 1_555 1_555
C7T_2 C6C_2 1_555 1_555
H3T_2 C7T_2 1_555 1_555
C8T_2 C9C_2 1_555 1_555
H4T_2 C8T_2 1_555 1_555
C11T_2 C10C_2 1_555 1_555
C12T_2 C11T_2 1_555 1_555
H5T_2 C12T_2 1_555 1_555
O1U_2 C1_2 1_555 1_555
C1_2 C2_2 1_555 1_555
C2_2 C3U_2 1_555 1_555
C3U_2 H1U_2 1_555 1_555
C4U_2 C3U_2 1_555 1_555
H2U_2 C4U_2 1_555 1_555
C5_2 C4U_2 1_555 1_555
C6_2 C5_2 1_555 1_555
C7U_2 C6_2 1_555 1_555
H3U_2 C7U_2 1_555 1_555
C8U_2 C7U_2 1_555 1_555
H4U_2 C8U_2 1_555 1_555
C9_2 C8U_2 1_555 1_555
C10_2 C9_2 1_555 1_555
C11U_2 N1T_2 1_555 1_555
C12U_2 C12T_2 1_555 1_555
H5U_2 C12U_2 1_555 1_555
C7TA_2 C6C_2 1_555 1_555
H3TA_2 C7TA_2 1_555 1_555
C8TA_2 C8C_2 1_555 1_555
H4TA_2 C8TA_2 1_555 1_555
C7UA_2 C6_2 1_555 1_555
H3UA_2 C7UA_2 1_555 1_555
C8UA_2 C8U_2 1_555 1_555
H4UA_2 C8UA_2 1_555 1_555
C7RA_2 C6A_2 1_555 1_555
H3RA_2 C7RA_2 1_555 1_555
C8RA_2 C8V_2 1_555 1_555
H4RA_2 C8RA_2 1_555 1_555
O1_2 C1_2 1_555 1_555
N1_2 C11_2 1_555 1_555
C3_2 C2_2 1_555 1_555
H1_2 C3_2 1_555 1_555
C4_2 C5_2 1_555 1_555
H2_2 C4_2 1_555 1_555
C7_2 C6_2 1_555 1_555
H3_2 C7_2 1_555 1_555
C8_2 C9_2 1_555 1_555
H4_2 C8_2 1_555 1_555
C11_2 C10_2 1_555 1_555
C12_2 C11_2 1_555 1_555
H5_2 C12_2 1_555 1_555
O1A_2 C1A_2 1_555 1_555
C3A_2 C2A_2 1_555 1_555
H1A_2 C3A_2 1_555 1_555
C4A_2 C5A_2 1_555 1_555
H2A_2 C4A_2 1_555 1_555
C7A_2 C6A_2 1_555 1_555
H3A_2 C7A_2 1_555 1_555
C8A_2 C9A_2 1_555 1_555
H4A_2 C8A_2 1_555 1_555
C11A_2 C10A_2 1_555 1_555
C12A_2 C12_2 1_555 1_555
H5A_2 C12A_2 1_555 1_555
C7Z_2 C6_2 1_555 1_555
H3Z_2 C7Z_2 1_555 1_555
C8Z_2 C8U_2 1_555 1_555
H4Z_2 C8Z_2 1_555 1_555
C7AA_2 C6A_2 1_555 1_555
H3AA_2 C7AA_2 1_555 1_555
C8AA_2 C8V_2 1_555 1_555
H4AA_2 C8AA_2 1_555 1_555
O2C Zr1 1_555 1_555
Zr1D O2 1_555 1_555
O1D Zr1D 1_555 1_555
N1D C11D 1_555 1_555
C1D O1D 1_555 1_555
C2D C1D 1_555 1_555
C3D C2D 1_555 1_555
H1D C3D 1_555 1_555
C4D C3D 1_555 1_555
H2D C4D 1_555 1_555
C5D C4D 1_555 1_555
C6D C5D 1_555 1_555
C7D C6D 1_555 1_555
H3D C7D 1_555 1_555
C8D C7D 1_555 1_555
H4D C8D 1_555 1_555
C9D C8D 1_555 1_555
C10D C9D 1_555 1_555
C11D C10D 1_555 1_555
C12D C11D 1_555 1_555
H5D C12D 1_555 1_555
O1E C1E 1_555 1_555
C1E C2E 1_555 1_555
C2E C3E 1_555 1_555
C3E H1E 1_555 1_555
C4E C3E 1_555 1_555
H2E C4E 1_555 1_555
C5E C4E 1_555 1_555
C6E C5E 1_555 1_555
C7E C6E 1_555 1_555
H3E C7E 1_555 1_555
C8E C7E 1_555 1_555
H4E C8E 1_555 1_555
C9E C8E 1_555 1_555
C10E C9E 1_555 1_555
C11E N1D 1_555 1_555
C12E C12D 1_555 1_555
H5E C12E 1_555 1_555
O1P Zr1 1_555 1_555
N1P C11P 1_555 1_555
C3P C2D 1_555 1_555
H1P C3P 1_555 1_555
C4P C5D 1_555 1_555
H2P C4P 1_555 1_555
C7P C6D 1_555 1_555
H3P C7P 1_555 1_555
C8P C9D 1_555 1_555
H4P C8P 1_555 1_555
C11P C10D 1_555 1_555
C12P C11P 1_555 1_555
H5P C12P 1_555 1_555
C7DA C6D 1_555 1_555
H3DA C7DA 1_555 1_555
C8DA C8D 1_555 1_555
H4DA C8DA 1_555 1_555
C7EA C6E 1_555 1_555
H3EA C7EA 1_555 1_555
C8EA C8E 1_555 1_555
H4EA C8EA 1_555 1_555
C7PA C6D 1_555 1_555
H3PA C7PA 1_555 1_555
C8PA C8D 1_555 1_555
H4PA C8PA 1_555 1_555
O1Q Zr1A 1_555 1_555
C1G O1Q 1_555 1_555
C2G C1G 1_555 1_555
C3Q C2G 1_555 1_555
H1Q C3Q 1_555 1_555
C4Q C3Q 1_555 1_555
H2Q C4Q 1_555 1_555
C5G C4Q 1_555 1_555
C6G C5G 1_555 1_555
C7Q C6G 1_555 1_555
H3Q C7Q 1_555 1_555
C8Q C7Q 1_555 1_555
H4Q C8Q 1_555 1_555
C9G C8Q 1_555 1_555
C10G C9G 1_555 1_555
C11Q N1P 1_555 1_555
C12Q C12P 1_555 1_555
H5Q C12Q 1_555 1_555
O1S C1E 1_555 1_555
N1R C11S 1_555 1_555
C3S C2E 1_555 1_555
H1S C3S 1_555 1_555
C4S C5E 1_555 1_555
H2S C4S 1_555 1_555
C7S C6E 1_555 1_555
H3S C7S 1_555 1_555
C8S C9E 1_555 1_555
H4S C8S 1_555 1_555
C11S C10E 1_555 1_555
C12S C11S 1_555 1_555
H5S C12S 1_555 1_555
O1R C1F 1_555 1_555
C1F C2F 1_555 1_555
C2F C3R 1_555 1_555
C3R H1R 1_555 1_555
C4R C3R 1_555 1_555
H2R C4R 1_555 1_555
C5F C4R 1_555 1_555
C6F C5F 1_555 1_555
C7R C6F 1_555 1_555
H3R C7R 1_555 1_555
C8R C7R 1_555 1_555
H4R C8R 1_555 1_555
C9F C8R 1_555 1_555
C10F C9F 1_555 1_555
C11R N1R 1_555 1_555
C12R C12S 1_555 1_555
H5R C12R 1_555 1_555
C7OA C6E 1_555 1_555
H3OA C7OA 1_555 1_555
C8OA C8E 1_555 1_555
H4OA C8OA 1_555 1_555
C7NA C6F 1_555 1_555
H3NA C7NA 1_555 1_555
C8NA C8R 1_555 1_555
H4NA C8NA 1_555 1_555
C7QA C6G 1_555 1_555
H3QA C7QA 1_555 1_555
C8QA C8Q 1_555 1_555
H4QA C8QA 1_555 1_555
O1F C1F 1_555 1_555
N1F C11F 1_555 1_555
C3F C2F 1_555 1_555
H1F C3F 1_555 1_555
C4F C5F 1_555 1_555
H2F C4F 1_555 1_555
C7F C6F 1_555 1_555
H3F C7F 1_555 1_555
C8F C9F 1_555 1_555
H4F C8F 1_555 1_555
C11F C10F 1_555 1_555
C12F C11F 1_555 1_555
H5F C12F 1_555 1_555
O1G C1G 1_555 1_555
C3G C2G 1_555 1_555
H1G C3G 1_555 1_555
C4G C5G 1_555 1_555
H2G C4G 1_555 1_555
C7G C6G 1_555 1_555
H3G C7G 1_555 1_555
C8G C9G 1_555 1_555
H4G C8G 1_555 1_555
C11G C10G 1_555 1_555
C12G C12F 1_555 1_555
H5G C12G 1_555 1_555
C7BA C6F 1_555 1_555
H3BA C7BA 1_555 1_555
C8BA C8R 1_555 1_555
H4BA C8BA 1_555 1_555
C7CA C6G 1_555 1_555
H3CA C7CA 1_555 1_555
C8CA C8Q 1_555 1_555
H4CA C8CA 1_555 1_555
Zr1E O2C 1_555 1_555
Zr1E_2 O1F 1_555 1_555
O2A Zr1E_2 1_555 1_555
O2A_2 Zr1E 1_555 1_555
O2N Zr1 1_555 1_555
O2O Zr1A 1_555 1_555
O2L Zr1 1_555 1_555
O2B Zr1A 1_555 1_555
Zr1H O2 1_555 1_555
Zr1_2 O1S 1_555 1_555
Zr1_3 O1C 1_555 1_555
Zr1_4 O1_2 1_555 1_555
Zr1A_2 O1R 1_555 1_555
Zr1A_3 O1B 1_555 1_555
Zr1A_4 O1A_2 1_555 1_555
Zr1A_5 O2A_2 1_555 1_555
Zr1D_2 O1G 1_555 1_555
Zr1E_3 O1E 1_555 1_555
Zr1H_2 O2A 1_555 1_555
Zr1H_3 O1V 1_555 1_555
Zr1H_4 O1V_2 1_555 1_555
Zr1H_5 O1U_2 1_555 1_555
Zr1I O1W 1_555 1_555
Zr1I_2 O1W_2 1_555 1_555
Zr1I_3 O1T 1_555 1_555
Zr1I_4 O1T_2 1_555 1_555
O1E_2 Zr1E_2 1_555 1_555
O1E_3 Zr1E 1_555 1_555
O1F_2 Zr1E 1_555 1_555
O1G_2 Zr1D 1_555 1_555
O1H Zr1H 1_555 1_555
O1K Zr1H 1_555 1_555
O1L Zr1D 1_555 1_555
O1M Zr1E_2 1_555 1_555
O1M_2 Zr1E 1_555 1_555
O1N Zr1E_2 1_555 1_555
O1N_2 Zr1E 1_555 1_555
O1O Zr1D 1_555 1_555
O1R_2 Zr1A 1_555 1_555
O1S_2 Zr1 1_555 1_555
O1V_3 Zr1H 1_555 1_555
O2A_3 Zr1A 1_555 1_555
O2B_2 Zr1D 1_555 1_555
O2C_2 Zr1E_2 1_555 1_555
O2M Zr1E_2 1_555 1_555
O2M_2 Zr1A 1_555 1_555
O2M_3 Zr1E 1_555 1_555
O2N_2 Zr1E_2 1_555 1_555
O2O_2 Zr1D 1_555 1_555
C7 C7UA 1_555 1_555
C9 C8Z 1_555 1_555
C9 C8UA 1_555 1_555
C7A C7RA 1_555 1_555
C9A C8AA 1_555 1_555
C9A C8RA 1_555 1_555
C10A C11A 1_555 1_555
C11A C12A 1_555 1_555
O1U Zr1H 1_555 1_555
C3U C4U 1_555 1_555
C7U C8U 1_555 1_555
C7U C7Z 1_555 1_555
C8U C8Z 1_555 1_555
C8U C8UA 1_555 1_555
C7Z C8Z 1_555 1_555
C7AA C8AA 1_555 1_555
C7AA C7V 1_555 1_555
C8AA C8V 1_555 1_555
C7UA C8UA 1_555 1_555
C7T C7Y 1_555 1_555
C9C C8TA 1_555 1_555
C9C C8Y 1_555 1_555
C10C C11T 1_555 1_555
C11T C12T 1_555 1_555
C3V C4V 1_555 1_555
C7V C8V 1_555 1_555
C8V C8RA 1_555 1_555
C7W C7X 1_555 1_555
C9B C8SA 1_555 1_555
C9B C8X 1_555 1_555
C10B C11W 1_555 1_555
C11W C12W 1_555 1_555
C7RA C8RA 1_555 1_555
C7SA C8SA 1_555 1_555
C7SA C7B 1_555 1_555
C8SA C8B 1_555 1_555
C7TA C8TA 1_555 1_555
C7TA C7C 1_555 1_555
C8TA C8C 1_555 1_555
N1B C11C 1_555 1_555
C3B C4B 1_555 1_555
C7B C8B 1_555 1_555
C8B C8X 1_555 1_555
C3C C4C 1_555 1_555
C7C C8C 1_555 1_555
C8C C8Y 1_555 1_555
C11C C12C 1_555 1_555
C7X C8X 1_555 1_555
C7Y C8Y 1_555 1_555
C7B_2 C7SA_2 1_555 1_555
C9B_2 C8X_2 1_555 1_555
C9B_2 C8SA_2 1_555 1_555
C7C_2 C7TA_2 1_555 1_555
C9C_2 C8Y_2 1_555 1_555
C9C_2 C8TA_2 1_555 1_555
C10C_2 C11C_2 1_555 1_555
C11C_2 C12C_2 1_555 1_555
C3W_2 C4W_2 1_555 1_555
C7W_2 C8W_2 1_555 1_555
C7W_2 C7X_2 1_555 1_555
C8W_2 C8X_2 1_555 1_555
C8W_2 C8SA_2 1_555 1_555
C7X_2 C8X_2 1_555 1_555
C7Y_2 C8Y_2 1_555 1_555
C7Y_2 C7T_2 1_555 1_555
C8Y_2 C8T_2 1_555 1_555
C7SA_2 C8SA_2 1_555 1_555
C7V_2 C7AA_2 1_555 1_555
C9A_2 C8RA_2 1_555 1_555
C9A_2 C8AA_2 1_555 1_555
C10A_2 C11V_2 1_555 1_555
C11V_2 C12V_2 1_555 1_555
C3T_2 C4T_2 1_555 1_555
C7T_2 C8T_2 1_555 1_555
C8T_2 C8TA_2 1_555 1_555
C7U_2 C7Z_2 1_555 1_555
C9_2 C8UA_2 1_555 1_555
C9_2 C8Z_2 1_555 1_555
C10_2 C11U_2 1_555 1_555
C11U_2 C12U_2 1_555 1_555
C7TA_2 C8TA_2 1_555 1_555
C7UA_2 C8UA_2 1_555 1_555
C7UA_2 C7_2 1_555 1_555
C8UA_2 C8_2 1_555 1_555
C7RA_2 C8RA_2 1_555 1_555
C7RA_2 C7A_2 1_555 1_555
C8RA_2 C8A_2 1_555 1_555
N1_2 C11A_2 1_555 1_555
C3_2 C4_2 1_555 1_555
C7_2 C8_2 1_555 1_555
C8_2 C8Z_2 1_555 1_555
C3A_2 C4A_2 1_555 1_555
C7A_2 C8A_2 1_555 1_555
C8A_2 C8AA_2 1_555 1_555
C11A_2 C12A_2 1_555 1_555
C7Z_2 C8Z_2 1_555 1_555
C7AA_2 C8AA_2 1_555 1_555
O2C Zr1I_4 1_555 1_555
Zr1D O2L 1_555 1_555
C1D O1P 1_555 1_555
C7D C7PA 1_555 1_555
C9D C8DA 1_555 1_555
C9D C8PA 1_555 1_555
C7E C7OA 1_555 1_555
C9E C8EA 1_555 1_555
C9E C8OA 1_555 1_555
C10E C11E 1_555 1_555
C11E C12E 1_555 1_555
C3P C4P 1_555 1_555
C7P C8P 1_555 1_555
C7P C7DA 1_555 1_555
C8P C8DA 1_555 1_555
C8P C8PA 1_555 1_555
C7DA C8DA 1_555 1_555
C7EA C8EA 1_555 1_555
C7EA C7S 1_555 1_555
C8EA C8S 1_555 1_555
C7PA C8PA 1_555 1_555
C7Q C7CA 1_555 1_555
C9G C8QA 1_555 1_555
C9G C8CA 1_555 1_555
C10G C11Q 1_555 1_555
C11Q C12Q 1_555 1_555
C3S C4S 1_555 1_555
C7S C8S 1_555 1_555
C8S C8OA 1_555 1_555
C7R C7BA 1_555 1_555
C9F C8NA 1_555 1_555
C9F C8BA 1_555 1_555
C10F C11R 1_555 1_555
C11R C12R 1_555 1_555
C7OA C8OA 1_555 1_555
C7NA C8NA 1_555 1_555
C7NA C7F 1_555 1_555
C8NA C8F 1_555 1_555
C7QA C8QA 1_555 1_555
C7QA C7G 1_555 1_555
C8QA C8G 1_555 1_555
N1F C11G 1_555 1_555
C3F C4F 1_555 1_555
C7F C8F 1_555 1_555
C8F C8BA 1_555 1_555
C3G C4G 1_555 1_555
C7G C8G 1_555 1_555
C8G C8CA 1_555 1_555
C11G C12G 1_555 1_555
C7BA C8BA 1_555 1_555
C7CA C8CA 1_555 1_555
Zr1E O2N 1_555 1_555
O2A Zr1A_2 1_555 1_555
O2A_2 Zr1H 1_555 1_555
O2N Zr1H 1_555 1_555
O2O Zr1D_2 1_555 1_555
O2O Zr1H_3 1_555 1_555
O2L Zr1I_4 1_555 1_555
O2B Zr1D_2 1_555 1_555
O2B Zr1I_2 1_555 1_555
Zr1H O2O_2 1_555 1_555
Zr1A_2 O2M 1_555 1_555
Zr1A_5 O2B_2 1_555 1_555
Zr1A_5 O2M_3 1_555 1_555
Zr1A_5 O2O_2 1_555 1_555
Zr1H_2 O2N_2 1_555 1_555
Zr1H_3 O2A_3 1_555 1_555
Zr1I_2 O2M_2 1_555 1_555
Zr1I_4 O2B_2 1_555 1_555
Zr1I_4 O2M_3 1_555 1_555

#END
