
#######################################################################
#
#                 Cambridge Crystallographic Data Centre
#                                CCDC 
#
#######################################################################
#
# If this CIF has been generated from an entry in the Cambridge 
# Structural Database, then it will include bibliographic, chemical, 
# crystal, experimental, refinement or atomic coordinate data resulting 
# from the CCDC's data processing and validation procedures.
#
#######################################################################

data_WUHDAG
_chemical_name_common            NU-1104
_chemical_formula_moiety         '(C240 H130 N12 O32 Zr6)n'
_chemical_name_systematic        
'catena-[tris(\m~8~-5,10,15,20-tetrakis(4-((4-carboxylatophenyl)ethynyl)phenyl)porphyrin-tetrakis(\m~3~-hydroxo)-tetrakis(\m~3~-oxo)-hexa-zirconium unknown solvate]'
_symmetry_cell_setting           cubic
_symmetry_space_group_name_H-M   'P m -3 m'
_symmetry_Int_Tables_number      221
_space_group_name_Hall           '-P 4 2 3'
loop_
_symmetry_equiv_pos_site_id
_symmetry_equiv_pos_as_xyz
1 x,y,z
2 -y,x,z
3 -x,-y,z
4 y,-x,z
5 x,-z,y
6 x,-y,-z
7 x,z,-y
8 z,y,-x
9 -x,y,-z
10 -z,y,x
11 z,x,y
12 y,z,x
13 -y,-z,x
14 z,-x,-y
15 -y,z,-x
16 -z,-x,y
17 -z,x,-y
18 y,-z,-x
19 y,x,-z
20 -y,-x,-z
21 -x,z,y
22 -x,-z,-y
23 z,-y,x
24 -z,-y,-x
25 -x,-y,-z
26 y,-x,-z
27 x,y,-z
28 -y,x,-z
29 -x,z,-y
30 -x,y,z
31 -x,-z,y
32 -z,-y,x
33 x,-y,z
34 z,-y,-x
35 -z,-x,-y
36 -y,-z,-x
37 y,z,-x
38 -z,x,y
39 y,-z,x
40 z,x,-y
41 z,-x,y
42 -y,z,x
43 -y,-x,z
44 y,x,z
45 x,-z,-y
46 x,z,y
47 -z,y,-x
48 z,y,x
_cell_length_a                   28.9202(7)
_cell_length_b                   28.9202(7)
_cell_length_c                   28.9202(7)
_cell_angle_alpha                90
_cell_angle_beta                 90
_cell_angle_gamma                90
_cell_volume                     24188.2
_exptl_crystal_colour            red
_exptl_crystal_description       cube
_cell_formula_units_Z            3
loop_
_atom_site_label
_atom_site_type_symbol
_atom_site_fract_x
_atom_site_fract_y
_atom_site_fract_z
Zr1 Zr 0.5000 0.5000 0.41424(2)
O1 O 0.56723(4) 0.5000 0.37755(4)
C1 C 0.60876(6) 0.5000 0.39124(6)
C2 C 0.64496(8) 0.48761(13) 0.35504(8)
O2 O 0.54220(7) 0.54220(7) 0.45780(7)
O1W O 0.62245(4) 0.5000 0.43277(4)
C2W C 0.64496(8) 0.51239(13) 0.35504(8)
O1N O 0.5000 0.37755(4) 0.43277(4)
C1C C 0.5000 0.39124(6) 0.39124(6)
C2C C 0.48761(13) 0.35504(8) 0.35504(8)
O1C O 0.5000 0.43277(4) 0.37755(4)
C2N C 0.51239(13) 0.35504(8) 0.35504(8)
O1B O 0.43277(4) 0.5000 0.37755(4)
C1B C 0.39124(6) 0.5000 0.39124(6)
C2B C 0.35504(8) 0.51239(13) 0.35504(8)
O2B O 0.45780(7) 0.45780(7) 0.45780(7)
O1G O 0.37755(4) 0.5000 0.43277(4)
C2G C 0.35504(8) 0.48761(13) 0.35504(8)
O2C O 0.54220(7) 0.45780(7) 0.45780(7)
Zr1G Zr 0.41424(2) 0.5000 0.5000
Zr1F Zr 0.5000 0.41424(2) 0.5000
O2A O 0.45780(7) 0.54220(7) 0.45780(7)
Zr1D Zr 0.5000 0.58576(2) 0.5000
Zr1E Zr 0.5000 0.5000 0.58576(2)
Zr1I Zr 0.58576(2) 0.5000 0.5000
O1A O 0.5000 0.56723(4) 0.37755(4)
O1F O 0.56723(4) 0.37755(4) 0.5000
O1J O 0.37755(4) 0.56723(4) 0.5000
O1K O 0.5000 0.37755(4) 0.56723(4)
O1M O 0.37755(4) 0.43277(4) 0.5000
O1T O 0.43277(4) 0.37755(4) 0.5000
O1V O 0.37755(4) 0.5000 0.56723(4)
O2E O 0.54220(7) 0.45780(7) 0.54220(7)
O2H O 0.45780(7) 0.54220(7) 0.54220(7)
O2S O 0.45780(7) 0.45780(7) 0.54220(7)
N1 N 0.92870(15) 0.4532(3) 0.0000
H1 H 0.9591 0.4531 0.0000
C3 C 0.66620(11) 0.47766(18) 0.27633(11)
C4 C 0.71170(11) 0.4742(3) 0.28830(11)
C5 C 0.74718(12) 0.4683(3) 0.25282(12)
C6 C 0.77594(12) 0.4647(4) 0.22406(12)
C7 C 0.81155(11) 0.46079(5) 0.18845(11)
C8 C 0.82726(16) 0.4199(3) 0.17274(16)
C9 C 0.86215(16) 0.4184(3) 0.13785(16)
C10 C 0.87926(11) 0.46046(5) 0.12074(11)
C11 C 0.86311(5) 0.5000 0.13689(5)
C12 C 0.82944(5) 0.5000 0.17056(5)
C13 C 0.91593(12) 0.4544(4) 0.08407(12)
C14 C 0.90131(12) 0.4532(3) 0.03797(12)
C15 C 0.85394(12) 0.4552(3) 0.02337(13)
H2 H 0.8275 0.4563 0.0429
N1W N 1.0000 0.5468(3) 0.07130(15)
H1W H 1.0000 0.5469 0.0409
C3W C 0.72367(11) 0.52234(18) 0.33380(11)
C4W C 0.71170(11) 0.5258(3) 0.28830(11)
C5W C 0.74718(12) 0.5317(3) 0.25282(12)
C6W C 0.77594(12) 0.5353(4) 0.22406(12)
C7W C 0.81155(11) 0.53921(5) 0.18845(11)
C8W C 0.82726(16) 0.5801(3) 0.17274(16)
C9W C 0.86215(16) 0.5816(3) 0.13785(16)
C10W C 0.87926(11) 0.53954(5) 0.12074(11)
C13W C 0.91593(12) 0.5456(4) 0.08407(12)
C14W C 0.96203(12) 0.5468(3) 0.09869(12)
C15W C 0.97663(13) 0.5448(3) 0.14606(12)
H2W H 0.9571 0.5437 0.1725
C3Z C 0.66620(11) 0.47766(18) -0.27633(11)
C4I C 0.71170(11) 0.4742(3) -0.28830(11)
C5I C 0.74718(12) 0.4683(3) -0.25282(12)
C6I C 0.77594(12) 0.4647(4) -0.22406(12)
C7I C 0.81155(11) 0.46079(5) -0.18845(11)
C8I C 0.82726(16) 0.4199(3) -0.17274(16)
C9I C 0.86215(16) 0.4184(3) -0.13785(16)
C10I C 0.87926(11) 0.46046(5) -0.12074(11)
C11E C 0.86311(5) 0.5000 -0.13689(5)
C12E C 0.82944(5) 0.5000 -0.17056(5)
C13I C 0.91593(12) 0.4544(4) -0.08407(12)
C14Z C 0.90131(12) 0.4532(3) -0.03797(12)
C15Z C 0.85394(12) 0.4552(3) -0.02337(13)
H2Z H 0.8275 0.4563 -0.0429
N1V N 1.0000 0.5468(3) -0.07130(15)
H1V H 1.0000 0.5469 -0.0409
C3EA C 0.72367(11) 0.52234(18) -0.33380(11)
C4E C 0.71170(11) 0.5258(3) -0.28830(11)
C5E C 0.74718(12) 0.5317(3) -0.25282(12)
C6E C 0.77594(12) 0.5353(4) -0.22406(12)
C7E C 0.81155(11) 0.53921(5) -0.18845(11)
C8E C 0.82726(16) 0.5801(3) -0.17274(16)
C9E C 0.86215(16) 0.5816(3) -0.13785(16)
C10E C 0.87926(11) 0.53954(5) -0.12074(11)
C13E C 0.91593(12) 0.5456(4) -0.08407(12)
C14EA C 0.96203(12) 0.5468(3) -0.09869(12)
C15EA C 0.97663(13) 0.5448(3) -0.14606(12)
H2EA H 0.9571 0.5437 -0.1725
N1E N 0.92870(15) 0.5468(3) 0.0000
H1E H 0.9591 0.5469 0.0000
C3FA C 0.66620(11) 0.52234(18) 0.27633(11)
C14FA C 0.90131(12) 0.5468(3) 0.03797(12)
C15FA C 0.85394(12) 0.5448(3) 0.02337(13)
H2FA H 0.8275 0.5437 0.0429
C3GA C 1.27633(11) 0.52234(18) 0.33380(11)
C4B C 1.28830(11) 0.5258(3) 0.28830(11)
C5B C 1.25282(12) 0.5317(3) 0.25282(12)
C6B C 1.22406(12) 0.5353(4) 0.22406(12)
C7B C 1.18845(11) 0.53921(5) 0.18845(11)
C8B C 1.17274(16) 0.5801(3) 0.17274(16)
C9B C 1.13785(16) 0.5816(3) 0.13785(16)
C10B C 1.12074(11) 0.53954(5) 0.12074(11)
C11B C 1.13689(5) 0.5000 0.13689(5)
C12B C 1.17056(5) 0.5000 0.17056(5)
C13B C 1.08407(12) 0.5456(4) 0.08407(12)
C14GA C 1.03797(12) 0.5468(3) 0.09869(12)
C15GA C 1.02337(13) 0.5448(3) 0.14606(12)
H2GA H 1.0429 0.5437 0.1725
N1G N 1.0000 0.4532(3) 0.07130(15)
H1G H 1.0000 0.4531 0.0409
C3TA C 0.72367(11) 0.47766(18) 0.33380(11)
C14TA C 0.96203(12) 0.4532(3) 0.09869(12)
C15TA C 0.97663(13) 0.4552(3) 0.14606(12)
H2TA H 0.9571 0.4563 0.1725
N1B N 1.07130(15) 0.5468(3) 0.0000
H1B H 1.0409 0.5469 0.0000
C3B C 1.33380(11) 0.52234(18) 0.27633(11)
C14B C 1.09869(12) 0.5468(3) 0.03797(12)
C15B C 1.14606(12) 0.5448(3) 0.02337(13)
H2B H 1.1725 0.5437 0.0429
C3E C 0.66620(11) 0.52234(18) -0.27633(11)
C14E C 0.90131(12) 0.5468(3) -0.03797(12)
C15E C 0.85394(12) 0.5448(3) -0.02337(13)
H2E H 0.8275 0.5437 -0.0429
C3G C 1.27633(11) 0.47766(18) 0.33380(11)
C4G C 1.28830(11) 0.4742(3) 0.28830(11)
C5G C 1.25282(12) 0.4683(3) 0.25282(12)
C6G C 1.22406(12) 0.4647(4) 0.22406(12)
C7G C 1.18845(11) 0.46079(5) 0.18845(11)
C8G C 1.17274(16) 0.4199(3) 0.17274(16)
C9G C 1.13785(16) 0.4184(3) 0.13785(16)
C10G C 1.12074(11) 0.46046(5) 0.12074(11)
C13G C 1.08407(12) 0.4544(4) 0.08407(12)
C14G C 1.03797(12) 0.4532(3) 0.09869(12)
C15G C 1.02337(13) 0.4552(3) 0.14606(12)
H2G H 1.0429 0.4563 0.1725
N1I N 1.0000 0.4532(3) -0.07130(15)
H1I H 1.0000 0.4531 -0.0409
C3I C 0.72367(11) 0.47766(18) -0.33380(11)
C14I C 0.96203(12) 0.4532(3) -0.09869(12)
C15I C 0.97663(13) 0.4552(3) -0.14606(12)
H2I H 0.9571 0.4563 -0.1725
C3V C 1.27633(11) 0.52234(18) -0.33380(11)
C4V C 1.28830(11) 0.5258(3) -0.28830(11)
C5V C 1.25282(12) 0.5317(3) -0.25282(12)
C6V C 1.22406(12) 0.5353(4) -0.22406(12)
C7V C 1.18845(11) 0.53921(5) -0.18845(11)
C8V C 1.17274(16) 0.5801(3) -0.17274(16)
C9V C 1.13785(16) 0.5816(3) -0.13785(16)
C10V C 1.12074(11) 0.53954(5) -0.12074(11)
C11H C 1.13689(5) 0.5000 -0.13689(5)
C12H C 1.17056(5) 0.5000 -0.17056(5)
C13V C 1.08407(12) 0.5456(4) -0.08407(12)
C14V C 1.03797(12) 0.5468(3) -0.09869(12)
C15V C 1.02337(13) 0.5448(3) -0.14606(12)
H2V H 1.0429 0.5437 -0.1725
C3X C 1.33380(11) 0.52234(18) -0.27633(11)
C14X C 1.09869(12) 0.5468(3) -0.03797(12)
C15X C 1.14606(12) 0.5448(3) -0.02337(13)
H2X H 1.1725 0.5437 -0.0429
N1H N 1.07130(15) 0.4532(3) 0.0000
H1H H 1.0409 0.4531 0.0000
C3CA C 1.33380(11) 0.47766(18) 0.27633(11)
C14CA C 1.09869(12) 0.4532(3) 0.03797(12)
C15CA C 1.14606(12) 0.4552(3) 0.02337(13)
H2CA H 1.1725 0.4563 0.0429
C3UA C 1.27633(11) 0.47766(18) -0.33380(11)
C4H C 1.28830(11) 0.4742(3) -0.28830(11)
C5H C 1.25282(12) 0.4683(3) -0.25282(12)
C6H C 1.22406(12) 0.4647(4) -0.22406(12)
C7H C 1.18845(11) 0.46079(5) -0.18845(11)
C8H C 1.17274(16) 0.4199(3) -0.17274(16)
C9H C 1.13785(16) 0.4184(3) -0.13785(16)
C10H C 1.12074(11) 0.46046(5) -0.12074(11)
C13H C 1.08407(12) 0.4544(4) -0.08407(12)
C14UA C 1.03797(12) 0.4532(3) -0.09869(12)
C15UA C 1.02337(13) 0.4552(3) -0.14606(12)
H2UA H 1.0429 0.4563 -0.1725
C3H C 1.33380(11) 0.47766(18) -0.27633(11)
C14H C 1.09869(12) 0.4532(3) -0.03797(12)
C15H C 1.14606(12) 0.4552(3) -0.02337(13)
H2H H 1.1725 0.4563 -0.0429
C16 C 0.63295(10) 0.48439(18) 0.30962(10)
C16FA C 0.63295(10) 0.51561(18) 0.30962(10)
C16W C 0.69038(10) 0.51561(18) 0.36705(10)
C16TA C 0.69038(10) 0.48439(18) 0.36705(10)
O1E O 0.56723(4) 0.5000 -0.37755(4)
C1E C 0.60876(6) 0.5000 -0.39124(6)
C2I C 0.64496(8) 0.48761(13) -0.35504(8)
O1I O 0.62245(4) 0.5000 -0.43277(4)
C2E C 0.64496(8) 0.51239(13) -0.35504(8)
O1K_2 O 0.5000 0.37755(4) -0.43277(4)
C1K C 0.5000 0.39124(6) -0.39124(6)
C2K C 0.48761(13) 0.35504(8) -0.35504(8)
O1S O 0.5000 0.43277(4) -0.37755(4)
C2S C 0.51239(13) 0.35504(8) -0.35504(8)
O1H O 0.43277(4) 0.5000 -0.37755(4)
C1H C 0.39124(6) 0.5000 -0.39124(6)
C2V C 0.35504(8) 0.51239(13) -0.35504(8)
O1V_2 O 0.37755(4) 0.5000 -0.43277(4)
C2H C 0.35504(8) 0.48761(13) -0.35504(8)
Zr1E_2 Zr 0.5000 0.5000 -0.41424(2)
O2S_2 O 0.45780(7) 0.45780(7) -0.45780(7)
O2D O 0.54220(7) 0.54220(7) -0.45780(7)
Zr1D_2 Zr 0.5000 0.58576(2) -0.5000
Zr1F_2 Zr 0.5000 0.41424(2) -0.5000
Zr1G_2 Zr 0.41424(2) 0.5000 -0.5000
Zr1I_2 Zr 0.58576(2) 0.5000 -0.5000
O1R O 0.5000 0.56723(4) -0.37755(4)
O2E_2 O 0.54220(7) 0.45780(7) -0.45780(7)
O2H_2 O 0.45780(7) 0.54220(7) -0.45780(7)
C16Z C 0.63295(10) 0.48439(18) -0.30962(10)
C16E C 0.63295(10) 0.51561(18) -0.30962(10)
C16EA C 0.69038(10) 0.51561(18) -0.36705(10)
C16I C 0.69038(10) 0.48439(18) -0.36705(10)
O1G_2 O 1.37755(4) 0.5000 0.43277(4)
C1B_2 C 1.39124(6) 0.5000 0.39124(6)
C2B_2 C 1.35504(8) 0.51239(13) 0.35504(8)
O1B_2 O 1.43277(4) 0.5000 0.37755(4)
C2G_2 C 1.35504(8) 0.48761(13) 0.35504(8)
Zr1_2 Zr 1.5000 0.5000 0.41424(2)
Zr1G_3 Zr 1.41424(2) 0.5000 0.5000
C16GA C 1.30962(10) 0.51561(18) 0.36705(10)
C16G C 1.30962(10) 0.48439(18) 0.36705(10)
C16B C 1.36705(10) 0.51561(18) 0.30962(10)
C16CA C 1.36705(10) 0.48439(18) 0.30962(10)
O1V_3 O 1.37755(4) 0.5000 -0.43277(4)
C1H_2 C 1.39124(6) 0.5000 -0.39124(6)
C2V_2 C 1.35504(8) 0.51239(13) -0.35504(8)
O1H_2 O 1.43277(4) 0.5000 -0.37755(4)
C2H_2 C 1.35504(8) 0.48761(13) -0.35504(8)
Zr1E_3 Zr 1.5000 0.5000 -0.41424(2)
Zr1G_4 Zr 1.41424(2) 0.5000 -0.5000
C16V C 1.30962(10) 0.51561(18) -0.36705(10)
C16UA C 1.30962(10) 0.48439(18) -0.36705(10)
C16X C 1.36705(10) 0.51561(18) -0.30962(10)
C16H C 1.36705(10) 0.48439(18) -0.30962(10)
O1A_2 O 0.5000 -0.43277(4) 0.37755(4)
C1A C 0.5000 -0.39124(6) 0.39124(6)
C2A C 0.51239(13) -0.35504(8) 0.35504(8)
O1Q O 0.5000 -0.37755(4) 0.43277(4)
C2Q C 0.48761(13) -0.35504(8) 0.35504(8)
Zr1_3 Zr 0.5000 -0.5000 0.41424(2)
Zr1D_3 Zr 0.5000 -0.41424(2) 0.5000
N1A N 0.5468(3) -0.07130(15) 0.0000
H1A H 0.5469 -0.0409 0.0000
C3A C 0.52234(18) -0.33380(11) 0.27633(11)
C4A C 0.5258(3) -0.28830(11) 0.28830(11)
C5A C 0.5317(3) -0.25282(12) 0.25282(12)
C6A C 0.5353(4) -0.22406(12) 0.22406(12)
C7A C 0.53921(5) -0.18845(11) 0.18845(11)
C8A C 0.5801(3) -0.17274(16) 0.17274(16)
C9A C 0.5816(3) -0.13785(16) 0.13785(16)
C10A C 0.53954(5) -0.12074(11) 0.12074(11)
C11A C 0.5000 -0.13689(5) 0.13689(5)
C12A C 0.5000 -0.17056(5) 0.17056(5)
C13A C 0.5456(4) -0.08407(12) 0.08407(12)
C14A C 0.5468(3) -0.09869(12) 0.03797(12)
C15A C 0.5448(3) -0.14606(12) 0.02337(13)
H2A H 0.5437 -0.1725 0.0429
N1Q N 0.4532(3) 0.0000 0.07130(15)
H1Q H 0.4531 0.0000 0.0409
C3Q C 0.47766(18) -0.27633(11) 0.33380(11)
C4Q C 0.4742(3) -0.28830(11) 0.28830(11)
C5Q C 0.4683(3) -0.25282(12) 0.25282(12)
C6Q C 0.4647(4) -0.22406(12) 0.22406(12)
C7Q C 0.46079(5) -0.18845(11) 0.18845(11)
C8Q C 0.4199(3) -0.17274(16) 0.17274(16)
C9Q C 0.4184(3) -0.13785(16) 0.13785(16)
C10Q C 0.46046(5) -0.12074(11) 0.12074(11)
C13Q C 0.4544(4) -0.08407(12) 0.08407(12)
C14Q C 0.4532(3) -0.03797(12) 0.09869(12)
C15Q C 0.4552(3) -0.02337(13) 0.14606(12)
H2Q H 0.4563 -0.0429 0.1725
C3AA C 0.52234(18) -0.33380(11) -0.27633(11)
C4L C 0.5258(3) -0.28830(11) -0.28830(11)
C5L C 0.5317(3) -0.25282(12) -0.25282(12)
C6L C 0.5353(4) -0.22406(12) -0.22406(12)
C7L C 0.53921(5) -0.18845(11) -0.18845(11)
C8L C 0.5801(3) -0.17274(16) -0.17274(16)
C9L C 0.5816(3) -0.13785(16) -0.13785(16)
C10L C 0.53954(5) -0.12074(11) -0.12074(11)
C11L C 0.5000 -0.13689(5) -0.13689(5)
C12L C 0.5000 -0.17056(5) -0.17056(5)
C13L C 0.5456(4) -0.08407(12) -0.08407(12)
C14AA C 0.5468(3) -0.09869(12) -0.03797(12)
C15AA C 0.5448(3) -0.14606(12) -0.02337(13)
H2AA H 0.5437 -0.1725 -0.0429
N1K N 0.4532(3) 0.0000 -0.07130(15)
H1K H 0.4531 0.0000 -0.0409
C3LA C 0.47766(18) -0.27633(11) -0.33380(11)
C4R C 0.4742(3) -0.28830(11) -0.28830(11)
C5R C 0.4683(3) -0.25282(12) -0.25282(12)
C6R C 0.4647(4) -0.22406(12) -0.22406(12)
C7R C 0.46079(5) -0.18845(11) -0.18845(11)
C8R C 0.4199(3) -0.17274(16) -0.17274(16)
C9R C 0.4184(3) -0.13785(16) -0.13785(16)
C10R C 0.46046(5) -0.12074(11) -0.12074(11)
C13R C 0.4544(4) -0.08407(12) -0.08407(12)
C14LA C 0.4532(3) -0.03797(12) -0.09869(12)
C15LA C 0.4552(3) -0.02337(13) -0.14606(12)
H2LA H 0.4563 -0.0429 -0.1725
N1R N 0.4532(3) -0.07130(15) 0.0000
H1R H 0.4531 -0.0409 0.0000
C3QA C 0.47766(18) -0.33380(11) 0.27633(11)
C14QA C 0.4532(3) -0.09869(12) 0.03797(12)
C15QA C 0.4552(3) -0.14606(12) 0.02337(13)
H2QA H 0.4563 -0.1725 0.0429
C3JA C 0.47766(18) 0.27633(11) 0.33380(11)
C4C C 0.4742(3) 0.28830(11) 0.28830(11)
C5C C 0.4683(3) 0.25282(12) 0.25282(12)
C6C C 0.4647(4) 0.22406(12) 0.22406(12)
C7C C 0.46079(5) 0.18845(11) 0.18845(11)
C8C C 0.4199(3) 0.17274(16) 0.17274(16)
C9C C 0.4184(3) 0.13785(16) 0.13785(16)
C10C C 0.46046(5) 0.12074(11) 0.12074(11)
C11C C 0.5000 0.13689(5) 0.13689(5)
C12C C 0.5000 0.17056(5) 0.17056(5)
C13C C 0.4544(4) 0.08407(12) 0.08407(12)
C14JA C 0.4532(3) 0.03797(12) 0.09869(12)
C15JA C 0.4552(3) 0.02337(13) 0.14606(12)
H2JA H 0.4563 0.0429 0.1725
N1N N 0.5468(3) 0.0000 0.07130(15)
H1N H 0.5469 0.0000 0.0409
C3IA C 0.52234(18) -0.27633(11) 0.33380(11)
C14IA C 0.5468(3) -0.03797(12) 0.09869(12)
C15IA C 0.5448(3) -0.02337(13) 0.14606(12)
H2IA H 0.5437 -0.0429 0.1725
N1C N 0.4532(3) 0.07130(15) 0.0000
H1C H 0.4531 0.0409 0.0000
C3C C 0.47766(18) 0.33380(11) 0.27633(11)
C14C C 0.4532(3) 0.09869(12) 0.03797(12)
C15C C 0.4552(3) 0.14606(12) 0.02337(13)
H2C H 0.4563 0.1725 0.0429
C3R C 0.47766(18) -0.33380(11) -0.27633(11)
C14R C 0.4532(3) -0.09869(12) -0.03797(12)
C15R C 0.4552(3) -0.14606(12) -0.02337(13)
H2R H 0.4563 -0.1725 -0.0429
C3N C 0.52234(18) 0.27633(11) 0.33380(11)
C4N C 0.5258(3) 0.28830(11) 0.28830(11)
C5N C 0.5317(3) 0.25282(12) 0.25282(12)
C6N C 0.5353(4) 0.22406(12) 0.22406(12)
C7N C 0.53921(5) 0.18845(11) 0.18845(11)
C8N C 0.5801(3) 0.17274(16) 0.17274(16)
C9N C 0.5816(3) 0.13785(16) 0.13785(16)
C10N C 0.53954(5) 0.12074(11) 0.12074(11)
C13N C 0.5456(4) 0.08407(12) 0.08407(12)
C14N C 0.5468(3) 0.03797(12) 0.09869(12)
C15N C 0.5448(3) 0.02337(13) 0.14606(12)
H2N H 0.5437 0.0429 0.1725
N1L N 0.5468(3) 0.0000 -0.07130(15)
H1L H 0.5469 0.0000 -0.0409
C3L C 0.52234(18) -0.27633(11) -0.33380(11)
C14L C 0.5468(3) -0.03797(12) -0.09869(12)
C15L C 0.5448(3) -0.02337(13) -0.14606(12)
H2L H 0.5437 -0.0429 -0.1725
C3K C 0.47766(18) 0.27633(11) -0.33380(11)
C4K C 0.4742(3) 0.28830(11) -0.28830(11)
C5K C 0.4683(3) 0.25282(12) -0.25282(12)
C6K C 0.4647(4) 0.22406(12) -0.22406(12)
C7K C 0.46079(5) 0.18845(11) -0.18845(11)
C8K C 0.4199(3) 0.17274(16) -0.17274(16)
C9K C 0.4184(3) 0.13785(16) -0.13785(16)
C10K C 0.46046(5) 0.12074(11) -0.12074(11)
C11K C 0.5000 0.13689(5) -0.13689(5)
C12K C 0.5000 0.17056(5) -0.17056(5)
C13K C 0.4544(4) 0.08407(12) -0.08407(12)
C14K C 0.4532(3) 0.03797(12) -0.09869(12)
C15K C 0.4552(3) 0.02337(13) -0.14606(12)
H2K H 0.4563 0.0429 -0.1725
C3Y C 0.47766(18) 0.33380(11) -0.27633(11)
C14Y C 0.4532(3) 0.09869(12) -0.03797(12)
C15Y C 0.4552(3) 0.14606(12) -0.02337(13)
H2Y H 0.4563 0.1725 -0.0429
N1S N 0.5468(3) 0.07130(15) 0.0000
H1S H 0.5469 0.0409 0.0000
C3PA C 0.52234(18) 0.33380(11) 0.27633(11)
C14PA C 0.5468(3) 0.09869(12) 0.03797(12)
C15PA C 0.5448(3) 0.14606(12) 0.02337(13)
H2PA H 0.5437 0.1725 0.0429
C3OA C 0.52234(18) 0.27633(11) -0.33380(11)
C4S C 0.5258(3) 0.28830(11) -0.28830(11)
C5S C 0.5317(3) 0.25282(12) -0.25282(12)
C6S C 0.5353(4) 0.22406(12) -0.22406(12)
C7S C 0.53921(5) 0.18845(11) -0.18845(11)
C8S C 0.5801(3) 0.17274(16) -0.17274(16)
C9S C 0.5816(3) 0.13785(16) -0.13785(16)
C10S C 0.53954(5) 0.12074(11) -0.12074(11)
C13S C 0.5456(4) 0.08407(12) -0.08407(12)
C14OA C 0.5468(3) 0.03797(12) -0.09869(12)
C15OA C 0.5448(3) 0.02337(13) -0.14606(12)
H2OA H 0.5437 0.0429 -0.1725
C3S C 0.52234(18) 0.33380(11) -0.27633(11)
C14S C 0.5468(3) 0.09869(12) -0.03797(12)
C15S C 0.5448(3) 0.14606(12) -0.02337(13)
H2S H 0.5437 0.1725 -0.0429
C16A C 0.51561(18) -0.36705(10) 0.30962(10)
C16QA C 0.48439(18) -0.36705(10) 0.30962(10)
C16Q C 0.48439(18) -0.30962(10) 0.36705(10)
C16IA C 0.51561(18) -0.30962(10) 0.36705(10)
O1R_2 O 0.5000 -0.43277(4) -0.37755(4)
C1L C 0.5000 -0.39124(6) -0.39124(6)
C2L C 0.51239(13) -0.35504(8) -0.35504(8)
O1L O 0.5000 -0.37755(4) -0.43277(4)
C2R C 0.48761(13) -0.35504(8) -0.35504(8)
Zr1D_4 Zr 0.5000 -0.41424(2) -0.5000
O2H_3 O 0.45780(7) -0.45780(7) -0.45780(7)
Zr1_4 Zr 0.5000 -0.5000 -0.58576(2)
Zr1E_4 Zr 0.5000 -0.5000 -0.41424(2)
Zr1G_5 Zr 0.41424(2) -0.5000 -0.5000
Zr1I_3 Zr 0.58576(2) -0.5000 -0.5000
O1D O 0.56723(4) -0.37755(4) -0.5000
O1Q_2 O 0.5000 -0.37755(4) -0.56723(4)
O1U O 0.43277(4) -0.37755(4) -0.5000
O2_2 O 0.54220(7) -0.45780(7) -0.54220(7)
O2A_2 O 0.45780(7) -0.45780(7) -0.54220(7)
O2D_2 O 0.54220(7) -0.45780(7) -0.45780(7)
C16AA C 0.51561(18) -0.36705(10) -0.30962(10)
C16R C 0.48439(18) -0.36705(10) -0.30962(10)
C16LA C 0.48439(18) -0.30962(10) -0.36705(10)
C16L C 0.51561(18) -0.30962(10) -0.36705(10)
C16JA C 0.48439(18) 0.30962(10) 0.36705(10)
C16N C 0.51561(18) 0.30962(10) 0.36705(10)
C16C C 0.48439(18) 0.36705(10) 0.30962(10)
C16PA C 0.51561(18) 0.36705(10) 0.30962(10)
C16K C 0.48439(18) 0.30962(10) -0.36705(10)
C16OA C 0.51561(18) 0.30962(10) -0.36705(10)
C16Y C 0.48439(18) 0.36705(10) -0.30962(10)
C16S C 0.51561(18) 0.36705(10) -0.30962(10)
N1B_2 N 0.07130(15) 0.5468(3) 0.0000
H1B_2 H 0.0409 0.5469 0.0000
C3B_2 C 0.33380(11) 0.52234(18) 0.27633(11)
C4B_2 C 0.28830(11) 0.5258(3) 0.28830(11)
C5B_2 C 0.25282(12) 0.5317(3) 0.25282(12)
C6B_2 C 0.22406(12) 0.5353(4) 0.22406(12)
C7B_2 C 0.18845(11) 0.53921(5) 0.18845(11)
C8B_2 C 0.17274(16) 0.5801(3) 0.17274(16)
C9B_2 C 0.13785(16) 0.5816(3) 0.13785(16)
C10B_2 C 0.12074(11) 0.53954(5) 0.12074(11)
C11B_2 C 0.13689(5) 0.5000 0.13689(5)
C12B_2 C 0.17056(5) 0.5000 0.17056(5)
C13B_2 C 0.08407(12) 0.5456(4) 0.08407(12)
C14B_2 C 0.09869(12) 0.5468(3) 0.03797(12)
C15B_2 C 0.14606(12) 0.5448(3) 0.02337(13)
H2B_2 H 0.1725 0.5437 0.0429
N1G_2 N 0.0000 0.4532(3) 0.07130(15)
H1G_2 H 0.0000 0.4531 0.0409
C3G_2 C 0.27633(11) 0.47766(18) 0.33380(11)
C4G_2 C 0.28830(11) 0.4742(3) 0.28830(11)
C5G_2 C 0.25282(12) 0.4683(3) 0.25282(12)
C6G_2 C 0.22406(12) 0.4647(4) 0.22406(12)
C7G_2 C 0.18845(11) 0.46079(5) 0.18845(11)
C8G_2 C 0.17274(16) 0.4199(3) 0.17274(16)
C9G_2 C 0.13785(16) 0.4184(3) 0.13785(16)
C10G_2 C 0.12074(11) 0.46046(5) 0.12074(11)
C13G_2 C 0.08407(12) 0.4544(4) 0.08407(12)
C14G_2 C 0.03797(12) 0.4532(3) 0.09869(12)
C15G_2 C 0.02337(13) 0.4552(3) 0.14606(12)
H2G_2 H 0.0429 0.4563 0.1725
C3X_2 C 0.33380(11) 0.52234(18) -0.27633(11)
C4V_2 C 0.28830(11) 0.5258(3) -0.28830(11)
C5V_2 C 0.25282(12) 0.5317(3) -0.25282(12)
C6V_2 C 0.22406(12) 0.5353(4) -0.22406(12)
C7V_2 C 0.18845(11) 0.53921(5) -0.18845(11)
C8V_2 C 0.17274(16) 0.5801(3) -0.17274(16)
C9V_2 C 0.13785(16) 0.5816(3) -0.13785(16)
C10V_2 C 0.12074(11) 0.53954(5) -0.12074(11)
C11H_2 C 0.13689(5) 0.5000 -0.13689(5)
C12H_2 C 0.17056(5) 0.5000 -0.17056(5)
C13V_2 C 0.08407(12) 0.5456(4) -0.08407(12)
C14X_2 C 0.09869(12) 0.5468(3) -0.03797(12)
C15X_2 C 0.14606(12) 0.5448(3) -0.02337(13)
H2X_2 H 0.1725 0.5437 -0.0429
N1I_2 N 0.0000 0.4532(3) -0.07130(15)
H1I_2 H 0.0000 0.4531 -0.0409
C3UA_2 C 0.27633(11) 0.47766(18) -0.33380(11)
C4H_2 C 0.28830(11) 0.4742(3) -0.28830(11)
C5H_2 C 0.25282(12) 0.4683(3) -0.25282(12)
C6H_2 C 0.22406(12) 0.4647(4) -0.22406(12)
C7H_2 C 0.18845(11) 0.46079(5) -0.18845(11)
C8H_2 C 0.17274(16) 0.4199(3) -0.17274(16)
C9H_2 C 0.13785(16) 0.4184(3) -0.13785(16)
C10H_2 C 0.12074(11) 0.46046(5) -0.12074(11)
C13H_2 C 0.08407(12) 0.4544(4) -0.08407(12)
C14UA_2 C 0.03797(12) 0.4532(3) -0.09869(12)
C15UA_2 C 0.02337(13) 0.4552(3) -0.14606(12)
H2UA_2 H 0.0429 0.4563 -0.1725
N1H_2 N 0.07130(15) 0.4532(3) 0.0000
H1H_2 H 0.0409 0.4531 0.0000
C3CA_2 C 0.33380(11) 0.47766(18) 0.27633(11)
C14CA_2 C 0.09869(12) 0.4532(3) 0.03797(12)
C15CA_2 C 0.14606(12) 0.4552(3) 0.02337(13)
H2CA_2 H 0.1725 0.4563 0.0429
C3TA_2 C -0.27633(11) 0.47766(18) 0.33380(11)
C4_2 C -0.28830(11) 0.4742(3) 0.28830(11)
C5_2 C -0.25282(12) 0.4683(3) 0.25282(12)
C6_2 C -0.22406(12) 0.4647(4) 0.22406(12)
C7_2 C -0.18845(11) 0.46079(5) 0.18845(11)
C8_2 C -0.17274(16) 0.4199(3) 0.17274(16)
C9_2 C -0.13785(16) 0.4184(3) 0.13785(16)
C10_2 C -0.12074(11) 0.46046(5) 0.12074(11)
C11_2 C -0.13689(5) 0.5000 0.13689(5)
C12_2 C -0.17056(5) 0.5000 0.17056(5)
C13_2 C -0.08407(12) 0.4544(4) 0.08407(12)
C14TA_2 C -0.03797(12) 0.4532(3) 0.09869(12)
C15TA_2 C -0.02337(13) 0.4552(3) 0.14606(12)
H2TA_2 H -0.0429 0.4563 0.1725
N1W_2 N 0.0000 0.5468(3) 0.07130(15)
H1W_2 H 0.0000 0.5469 0.0409
C3GA_2 C 0.27633(11) 0.52234(18) 0.33380(11)
C14GA_2 C 0.03797(12) 0.5468(3) 0.09869(12)
C15GA_2 C 0.02337(13) 0.5448(3) 0.14606(12)
H2GA_2 H 0.0429 0.5437 0.1725
N1_2 N -0.07130(15) 0.4532(3) 0.0000
H1_2 H -0.0409 0.4531 0.0000
C3_2 C -0.33380(11) 0.47766(18) 0.27633(11)
C14_2 C -0.09869(12) 0.4532(3) 0.03797(12)
C15_2 C -0.14606(12) 0.4552(3) 0.02337(13)
H2_2 H -0.1725 0.4563 0.0429
C3H_2 C 0.33380(11) 0.47766(18) -0.27633(11)
C14H_2 C 0.09869(12) 0.4532(3) -0.03797(12)
C15H_2 C 0.14606(12) 0.4552(3) -0.02337(13)
H2H_2 H 0.1725 0.4563 -0.0429
C3W_2 C -0.27633(11) 0.52234(18) 0.33380(11)
C4W_2 C -0.28830(11) 0.5258(3) 0.28830(11)
C5W_2 C -0.25282(12) 0.5317(3) 0.25282(12)
C6W_2 C -0.22406(12) 0.5353(4) 0.22406(12)
C7W_2 C -0.18845(11) 0.53921(5) 0.18845(11)
C8W_2 C -0.17274(16) 0.5801(3) 0.17274(16)
C9W_2 C -0.13785(16) 0.5816(3) 0.13785(16)
C10W_2 C -0.12074(11) 0.53954(5) 0.12074(11)
C13W_2 C -0.08407(12) 0.5456(4) 0.08407(12)
C14W_2 C -0.03797(12) 0.5468(3) 0.09869(12)
C15W_2 C -0.02337(13) 0.5448(3) 0.14606(12)
H2W_2 H -0.0429 0.5437 0.1725
N1V_2 N 0.0000 0.5468(3) -0.07130(15)
H1V_2 H 0.0000 0.5469 -0.0409
C3V_2 C 0.27633(11) 0.52234(18) -0.33380(11)
C14V_2 C 0.03797(12) 0.5468(3) -0.09869(12)
C15V_2 C 0.02337(13) 0.5448(3) -0.14606(12)
H2V_2 H 0.0429 0.5437 -0.1725
C3I_2 C -0.27633(11) 0.47766(18) -0.33380(11)
C4I_2 C -0.28830(11) 0.4742(3) -0.28830(11)
C5I_2 C -0.25282(12) 0.4683(3) -0.25282(12)
C6I_2 C -0.22406(12) 0.4647(4) -0.22406(12)
C7I_2 C -0.18845(11) 0.46079(5) -0.18845(11)
C8I_2 C -0.17274(16) 0.4199(3) -0.17274(16)
C9I_2 C -0.13785(16) 0.4184(3) -0.13785(16)
C10I_2 C -0.12074(11) 0.46046(5) -0.12074(11)
C11E_2 C -0.13689(5) 0.5000 -0.13689(5)
C12E_2 C -0.17056(5) 0.5000 -0.17056(5)
C13I_2 C -0.08407(12) 0.4544(4) -0.08407(12)
C14I_2 C -0.03797(12) 0.4532(3) -0.09869(12)
C15I_2 C -0.02337(13) 0.4552(3) -0.14606(12)
H2I_2 H -0.0429 0.4563 -0.1725
C3Z_2 C -0.33380(11) 0.47766(18) -0.27633(11)
C14Z_2 C -0.09869(12) 0.4532(3) -0.03797(12)
C15Z_2 C -0.14606(12) 0.4552(3) -0.02337(13)
H2Z_2 H -0.1725 0.4563 -0.0429
N1E_2 N -0.07130(15) 0.5468(3) 0.0000
H1E_2 H -0.0409 0.5469 0.0000
C3FA_2 C -0.33380(11) 0.52234(18) 0.27633(11)
C14FA_2 C -0.09869(12) 0.5468(3) 0.03797(12)
C15FA_2 C -0.14606(12) 0.5448(3) 0.02337(13)
H2FA_2 H -0.1725 0.5437 0.0429
C3EA_2 C -0.27633(11) 0.52234(18) -0.33380(11)
C4E_2 C -0.28830(11) 0.5258(3) -0.28830(11)
C5E_2 C -0.25282(12) 0.5317(3) -0.25282(12)
C6E_2 C -0.22406(12) 0.5353(4) -0.22406(12)
C7E_2 C -0.18845(11) 0.53921(5) -0.18845(11)
C8E_2 C -0.17274(16) 0.5801(3) -0.17274(16)
C9E_2 C -0.13785(16) 0.5816(3) -0.13785(16)
C10E_2 C -0.12074(11) 0.53954(5) -0.12074(11)
C13E_2 C -0.08407(12) 0.5456(4) -0.08407(12)
C14EA_2 C -0.03797(12) 0.5468(3) -0.09869(12)
C15EA_2 C -0.02337(13) 0.5448(3) -0.14606(12)
H2EA_2 H -0.0429 0.5437 -0.1725
C3E_2 C -0.33380(11) 0.52234(18) -0.27633(11)
C14E_2 C -0.09869(12) 0.5468(3) -0.03797(12)
C15E_2 C -0.14606(12) 0.5448(3) -0.02337(13)
H2E_2 H -0.1725 0.5437 -0.0429
C16B_2 C 0.36705(10) 0.51561(18) 0.30962(10)
C16CA_2 C 0.36705(10) 0.48439(18) 0.30962(10)
C16G_2 C 0.30962(10) 0.48439(18) 0.36705(10)
C16GA_2 C 0.30962(10) 0.51561(18) 0.36705(10)
C16X_2 C 0.36705(10) 0.51561(18) -0.30962(10)
C16H_2 C 0.36705(10) 0.48439(18) -0.30962(10)
C16UA_2 C 0.30962(10) 0.48439(18) -0.36705(10)
C16V_2 C 0.30962(10) 0.51561(18) -0.36705(10)
O1W_2 O -0.37755(4) 0.5000 0.43277(4)
C1_2 C -0.39124(6) 0.5000 0.39124(6)
C2_2 C -0.35504(8) 0.48761(13) 0.35504(8)
O1_2 O -0.43277(4) 0.5000 0.37755(4)
C2W_2 C -0.35504(8) 0.51239(13) 0.35504(8)
Zr1_5 Zr -0.5000 0.5000 0.41424(2)
Zr1I_4 Zr -0.41424(2) 0.5000 0.5000
C16TA_2 C -0.30962(10) 0.48439(18) 0.36705(10)
C16W_2 C -0.30962(10) 0.51561(18) 0.36705(10)
C16_2 C -0.36705(10) 0.48439(18) 0.30962(10)
C16FA_2 C -0.36705(10) 0.51561(18) 0.30962(10)
O1I_2 O -0.37755(4) 0.5000 -0.43277(4)
C1E_2 C -0.39124(6) 0.5000 -0.39124(6)
C2I_2 C -0.35504(8) 0.48761(13) -0.35504(8)
O1E_2 O -0.43277(4) 0.5000 -0.37755(4)
C2E_2 C -0.35504(8) 0.51239(13) -0.35504(8)
Zr1I_5 Zr -0.41424(2) 0.5000 -0.5000
O2E_3 O -0.45780(7) 0.45780(7) -0.45780(7)
Zr1_6 Zr -0.5000 0.5000 -0.58576(2)
Zr1D_5 Zr -0.5000 0.58576(2) -0.5000
Zr1E_5 Zr -0.5000 0.5000 -0.41424(2)
Zr1F_3 Zr -0.5000 0.41424(2) -0.5000
O1O O -0.37755(4) 0.43277(4) -0.5000
O1P O -0.37755(4) 0.56723(4) -0.5000
O1W_3 O -0.37755(4) 0.5000 -0.56723(4)
O2_3 O -0.45780(7) 0.54220(7) -0.54220(7)
O2C_2 O -0.45780(7) 0.45780(7) -0.54220(7)
O2D_3 O -0.45780(7) 0.54220(7) -0.45780(7)
C16I_2 C -0.30962(10) 0.48439(18) -0.36705(10)
C16EA_2 C -0.30962(10) 0.51561(18) -0.36705(10)
C16Z_2 C -0.36705(10) 0.48439(18) -0.30962(10)
C16E_2 C -0.36705(10) 0.51561(18) -0.30962(10)
H3? H 0.6014 0.4868 0.3009
H4? H 0.6574 0.4754 0.2448
H5? H 0.81878(5) 0.52918(4) 0.18122(5)
H6? H 0.8151 0.3919 0.1849
H7? H 0.8735 0.3897 0.1265
H8? H 0.87377(5) 0.52918(4) 0.12623(5)
loop_
_geom_bond_atom_site_label_1
_geom_bond_atom_site_label_2
_geom_bond_site_symmetry_1
_geom_bond_site_symmetry_2
Zr1 O1 1_555 1_555
O1 C1 1_555 1_555
C1 C2 1_555 1_555
C2 C2W 1_555 1_555
O2 Zr1 1_555 1_555
N1 H1 1_555 1_555
C3 C4 1_555 1_555
C4 C5 1_555 1_555
C5 C6 1_555 1_555
C6 C7 1_555 1_555
C7 C8 1_555 1_555
C8 C9 1_555 1_555
C9 C10 1_555 1_555
C10 C11 1_555 1_555
C11 C12 1_555 1_555
C12 C7 1_555 1_555
C13 C10 1_555 1_555
C14 N1 1_555 1_555
C15 C14 1_555 1_555
H2 C15 1_555 1_555
C16 C16FA 1_555 1_555
O1W C1 1_555 1_555
C2W C1 1_555 1_555
O1N C1C 1_555 1_555
C1C C2C 1_555 1_555
C2C C2N 1_555 1_555
O1C Zr1 1_555 1_555
C2N C1C 1_555 1_555
O1B Zr1 1_555 1_555
C1B O1B 1_555 1_555
C2B C1B 1_555 1_555
O2B Zr1 1_555 1_555
O1G C1B 1_555 1_555
C2G C1B 1_555 1_555
O2C Zr1 1_555 1_555
Zr1G Zr1 1_555 1_555
Zr1F Zr1 1_555 1_555
O2A Zr1 1_555 1_555
Zr1D Zr1 1_555 1_555
Zr1E Zr1G 1_555 1_555
Zr1I Zr1 1_555 1_555
O1A Zr1 1_555 1_555
O1F Zr1F 1_555 1_555
O1J Zr1G 1_555 1_555
O1K Zr1F 1_555 1_555
O1M Zr1G 1_555 1_555
O1T Zr1F 1_555 1_555
O1V Zr1G 1_555 1_555
O2E Zr1F 1_555 1_555
O2H Zr1G 1_555 1_555
O2S Zr1G 1_555 1_555
N1W H1W 1_555 1_555
C3W C4W 1_555 1_555
C4W C4 1_555 1_555
C5W C4W 1_555 1_555
C6W C5W 1_555 1_555
C7W C12 1_555 1_555
C8W C7W 1_555 1_555
C9W C8W 1_555 1_555
C10W C11 1_555 1_555
C13W C10W 1_555 1_555
C14W N1W 1_555 1_555
C15W C14W 1_555 1_555
H2W C15W 1_555 1_555
C3Z C4I 1_555 1_555
C4I C5I 1_555 1_555
C5I C6I 1_555 1_555
C6I C7I 1_555 1_555
C7I C8I 1_555 1_555
C8I C9I 1_555 1_555
C9I C10I 1_555 1_555
C10I C11E 1_555 1_555
C11E C12E 1_555 1_555
C12E C7I 1_555 1_555
C13I C10I 1_555 1_555
C14Z N1 1_555 1_555
C15Z C15 1_555 1_555
H2Z C15Z 1_555 1_555
N1V H1V 1_555 1_555
C3EA C4E 1_555 1_555
C4E C4I 1_555 1_555
C5E C4E 1_555 1_555
C6E C5E 1_555 1_555
C7E C12E 1_555 1_555
C8E C7E 1_555 1_555
C9E C8E 1_555 1_555
C10E C11E 1_555 1_555
C13E C10E 1_555 1_555
C14EA N1V 1_555 1_555
C15EA C14EA 1_555 1_555
H2EA C15EA 1_555 1_555
N1E H1E 1_555 1_555
C3FA C3 1_555 1_555
C14FA C13W 1_555 1_555
C15FA C14FA 1_555 1_555
H2FA C15FA 1_555 1_555
C3GA C4B 1_555 1_555
C4B C5B 1_555 1_555
C5B C6B 1_555 1_555
C6B C7B 1_555 1_555
C7B C8B 1_555 1_555
C8B C9B 1_555 1_555
C9B C10B 1_555 1_555
C10B C11B 1_555 1_555
C11B C12B 1_555 1_555
C12B C7B 1_555 1_555
C13B C10B 1_555 1_555
C14GA N1W 1_555 1_555
C15GA C15W 1_555 1_555
H2GA C15GA 1_555 1_555
N1G H1G 1_555 1_555
C3TA C4 1_555 1_555
C14TA C13 1_555 1_555
C15TA C14TA 1_555 1_555
H2TA C15TA 1_555 1_555
N1B H1B 1_555 1_555
C3B C4B 1_555 1_555
C14B C13B 1_555 1_555
C15B C14B 1_555 1_555
H2B C15B 1_555 1_555
C3E C3Z 1_555 1_555
C14E C13E 1_555 1_555
C15E C15FA 1_555 1_555
H2E C15E 1_555 1_555
C3G C3GA 1_555 1_555
C4G C4B 1_555 1_555
C5G C4G 1_555 1_555
C6G C5G 1_555 1_555
C7G C12B 1_555 1_555
C8G C7G 1_555 1_555
C9G C8G 1_555 1_555
C10G C11B 1_555 1_555
C13G C10G 1_555 1_555
C14G N1G 1_555 1_555
C15G C15TA 1_555 1_555
H2G C15G 1_555 1_555
N1I H1I 1_555 1_555
C3I C4I 1_555 1_555
C14I C13I 1_555 1_555
C15I C14I 1_555 1_555
H2I C15I 1_555 1_555
C3V C4V 1_555 1_555
C4V C5V 1_555 1_555
C5V C6V 1_555 1_555
C6V C7V 1_555 1_555
C7V C8V 1_555 1_555
C8V C9V 1_555 1_555
C9V C10V 1_555 1_555
C10V C11H 1_555 1_555
C11H C12H 1_555 1_555
C12H C7V 1_555 1_555
C13V C10V 1_555 1_555
C14V N1V 1_555 1_555
C15V C15EA 1_555 1_555
H2V C15V 1_555 1_555
C3X C4V 1_555 1_555
C14X N1B 1_555 1_555
C15X C15B 1_555 1_555
H2X C15X 1_555 1_555
N1H H1H 1_555 1_555
C3CA C3B 1_555 1_555
C14CA C13G 1_555 1_555
C15CA C14CA 1_555 1_555
H2CA C15CA 1_555 1_555
C3UA C3V 1_555 1_555
C4H C4V 1_555 1_555
C5H C4H 1_555 1_555
C6H C5H 1_555 1_555
C7H C12H 1_555 1_555
C8H C7H 1_555 1_555
C9H C8H 1_555 1_555
C10H C11H 1_555 1_555
C13H C10H 1_555 1_555
C14UA N1I 1_555 1_555
C15UA C15I 1_555 1_555
H2UA C15UA 1_555 1_555
C3H C3X 1_555 1_555
C14H N1H 1_555 1_555
C15H C15CA 1_555 1_555
H2H C15H 1_555 1_555
C16W C16TA 1_555 1_555
O1E C1E 1_555 1_555
C1E C2I 1_555 1_555
C2I C2E 1_555 1_555
O1I C1E 1_555 1_555
C2E C1E 1_555 1_555
O1K_2 C1K 1_555 1_555
C1K C2K 1_555 1_555
C2K C2S 1_555 1_555
O1S C1K 1_555 1_555
C2S C1K 1_555 1_555
O1H C1H 1_555 1_555
C1H C2V 1_555 1_555
C2V C2H 1_555 1_555
O1V_2 C1H 1_555 1_555
C2H C1H 1_555 1_555
Zr1E_2 O1E 1_555 1_555
O2S_2 Zr1E_2 1_555 1_555
O2D Zr1E_2 1_555 1_555
Zr1D_2 Zr1E_2 1_555 1_555
Zr1F_2 O1K_2 1_555 1_555
Zr1G_2 O1V_2 1_555 1_555
Zr1I_2 O1I 1_555 1_555
O1R Zr1E_2 1_555 1_555
O2E_2 Zr1E_2 1_555 1_555
O2H_2 Zr1E_2 1_555 1_555
C16Z C16E 1_555 1_555
C16EA C16I 1_555 1_555
O1G_2 C1B_2 1_555 1_555
C1B_2 C2B_2 1_555 1_555
C2B_2 C2G_2 1_555 1_555
O1B_2 C1B_2 1_555 1_555
C2G_2 C1B_2 1_555 1_555
Zr1_2 O1B_2 1_555 1_555
Zr1G_3 O1G_2 1_555 1_555
C16GA C16G 1_555 1_555
C16B C16CA 1_555 1_555
O1V_3 C1H_2 1_555 1_555
C1H_2 C2V_2 1_555 1_555
C2V_2 C2H_2 1_555 1_555
O1H_2 C1H_2 1_555 1_555
C2H_2 C1H_2 1_555 1_555
Zr1E_3 O1H_2 1_555 1_555
Zr1G_4 O1V_3 1_555 1_555
C16V C16UA 1_555 1_555
C16X C16H 1_555 1_555
O1A_2 C1A 1_555 1_555
C1A C2A 1_555 1_555
C2A C2Q 1_555 1_555
O1Q C1A 1_555 1_555
C2Q C1A 1_555 1_555
Zr1_3 O1A_2 1_555 1_555
Zr1D_3 O1Q 1_555 1_555
N1A H1A 1_555 1_555
C3A C4A 1_555 1_555
C4A C5A 1_555 1_555
C5A C6A 1_555 1_555
C6A C7A 1_555 1_555
C7A C8A 1_555 1_555
C8A C9A 1_555 1_555
C9A C10A 1_555 1_555
C10A C11A 1_555 1_555
C11A C12A 1_555 1_555
C12A C7A 1_555 1_555
C13A C10A 1_555 1_555
C14A N1A 1_555 1_555
C15A C14A 1_555 1_555
H2A C15A 1_555 1_555
N1Q H1Q 1_555 1_555
C3Q C4Q 1_555 1_555
C4Q C4A 1_555 1_555
C5Q C4Q 1_555 1_555
C6Q C5Q 1_555 1_555
C7Q C12A 1_555 1_555
C8Q C7Q 1_555 1_555
C9Q C8Q 1_555 1_555
C10Q C11A 1_555 1_555
C13Q C10Q 1_555 1_555
C14Q N1Q 1_555 1_555
C15Q C14Q 1_555 1_555
H2Q C15Q 1_555 1_555
C3AA C4L 1_555 1_555
C4L C5L 1_555 1_555
C5L C6L 1_555 1_555
C6L C7L 1_555 1_555
C7L C8L 1_555 1_555
C8L C9L 1_555 1_555
C9L C10L 1_555 1_555
C10L C11L 1_555 1_555
C11L C12L 1_555 1_555
C12L C7L 1_555 1_555
C13L C10L 1_555 1_555
C14AA N1A 1_555 1_555
C15AA C15A 1_555 1_555
H2AA C15AA 1_555 1_555
N1K H1K 1_555 1_555
C3LA C4R 1_555 1_555
C4R C4L 1_555 1_555
C5R C4R 1_555 1_555
C6R C5R 1_555 1_555
C7R C12L 1_555 1_555
C8R C7R 1_555 1_555
C9R C8R 1_555 1_555
C10R C11L 1_555 1_555
C13R C10R 1_555 1_555
C14LA N1K 1_555 1_555
C15LA C14LA 1_555 1_555
H2LA C15LA 1_555 1_555
N1R H1R 1_555 1_555
C3QA C3A 1_555 1_555
C14QA C13Q 1_555 1_555
C15QA C14QA 1_555 1_555
H2QA C15QA 1_555 1_555
C3JA C4C 1_555 1_555
C4C C5C 1_555 1_555
C5C C6C 1_555 1_555
C6C C7C 1_555 1_555
C7C C8C 1_555 1_555
C8C C9C 1_555 1_555
C9C C10C 1_555 1_555
C10C C11C 1_555 1_555
C11C C12C 1_555 1_555
C12C C7C 1_555 1_555
C13C C10C 1_555 1_555
C14JA N1Q 1_555 1_555
C15JA C15Q 1_555 1_555
H2JA C15JA 1_555 1_555
N1N H1N 1_555 1_555
C3IA C4A 1_555 1_555
C14IA C13A 1_555 1_555
C15IA C14IA 1_555 1_555
H2IA C15IA 1_555 1_555
N1C H1C 1_555 1_555
C3C C4C 1_555 1_555
C14C C13C 1_555 1_555
C15C C14C 1_555 1_555
H2C C15C 1_555 1_555
C3R C3AA 1_555 1_555
C14R C13R 1_555 1_555
C15R C15QA 1_555 1_555
H2R C15R 1_555 1_555
C3N C3JA 1_555 1_555
C4N C4C 1_555 1_555
C5N C4N 1_555 1_555
C6N C5N 1_555 1_555
C7N C12C 1_555 1_555
C8N C7N 1_555 1_555
C9N C8N 1_555 1_555
C10N C11C 1_555 1_555
C13N C10N 1_555 1_555
C14N N1N 1_555 1_555
C15N C15IA 1_555 1_555
H2N C15N 1_555 1_555
N1L H1L 1_555 1_555
C3L C4L 1_555 1_555
C14L C13L 1_555 1_555
C15L C14L 1_555 1_555
H2L C15L 1_555 1_555
C3K C4K 1_555 1_555
C4K C5K 1_555 1_555
C5K C6K 1_555 1_555
C6K C7K 1_555 1_555
C7K C8K 1_555 1_555
C8K C9K 1_555 1_555
C9K C10K 1_555 1_555
C10K C11K 1_555 1_555
C11K C12K 1_555 1_555
C12K C7K 1_555 1_555
C13K C10K 1_555 1_555
C14K N1K 1_555 1_555
C15K C15LA 1_555 1_555
H2K C15K 1_555 1_555
C3Y C4K 1_555 1_555
C14Y N1C 1_555 1_555
C15Y C15C 1_555 1_555
H2Y C15Y 1_555 1_555
N1S H1S 1_555 1_555
C3PA C3C 1_555 1_555
C14PA C13N 1_555 1_555
C15PA C14PA 1_555 1_555
H2PA C15PA 1_555 1_555
C3OA C3K 1_555 1_555
C4S C4K 1_555 1_555
C5S C4S 1_555 1_555
C6S C5S 1_555 1_555
C7S C12K 1_555 1_555
C8S C7S 1_555 1_555
C9S C8S 1_555 1_555
C10S C11K 1_555 1_555
C13S C10S 1_555 1_555
C14OA N1L 1_555 1_555
C15OA C15L 1_555 1_555
H2OA C15OA 1_555 1_555
C3S C3Y 1_555 1_555
C14S N1S 1_555 1_555
C15S C15PA 1_555 1_555
H2S C15S 1_555 1_555
C16A C16QA 1_555 1_555
C16Q C16IA 1_555 1_555
O1R_2 C1L 1_555 1_555
C1L C2L 1_555 1_555
C2L C2R 1_555 1_555
O1L C1L 1_555 1_555
C2R C1L 1_555 1_555
Zr1D_4 O1L 1_555 1_555
O2H_3 Zr1D_4 1_555 1_555
Zr1_4 Zr1D_4 1_555 1_555
Zr1E_4 O1R_2 1_555 1_555
Zr1G_5 Zr1D_4 1_555 1_555
Zr1I_3 Zr1D_4 1_555 1_555
O1D Zr1D_4 1_555 1_555
O1Q_2 Zr1D_4 1_555 1_555
O1U Zr1D_4 1_555 1_555
O2_2 Zr1D_4 1_555 1_555
O2A_2 Zr1D_4 1_555 1_555
O2D_2 Zr1D_4 1_555 1_555
C16AA C16R 1_555 1_555
C16LA C16L 1_555 1_555
C16JA C16N 1_555 1_555
C16C C16PA 1_555 1_555
C16K C16OA 1_555 1_555
C16Y C16S 1_555 1_555
N1B_2 H1B_2 1_555 1_555
C3B_2 C4B_2 1_555 1_555
C4B_2 C5B_2 1_555 1_555
C5B_2 C6B_2 1_555 1_555
C6B_2 C7B_2 1_555 1_555
C7B_2 C8B_2 1_555 1_555
C8B_2 C9B_2 1_555 1_555
C9B_2 C10B_2 1_555 1_555
C10B_2 C11B_2 1_555 1_555
C11B_2 C12B_2 1_555 1_555
C12B_2 C7B_2 1_555 1_555
C13B_2 C10B_2 1_555 1_555
C14B_2 N1B_2 1_555 1_555
C15B_2 C14B_2 1_555 1_555
H2B_2 C15B_2 1_555 1_555
N1G_2 H1G_2 1_555 1_555
C3G_2 C4G_2 1_555 1_555
C4G_2 C4B_2 1_555 1_555
C5G_2 C4G_2 1_555 1_555
C6G_2 C5G_2 1_555 1_555
C7G_2 C12B_2 1_555 1_555
C8G_2 C7G_2 1_555 1_555
C9G_2 C8G_2 1_555 1_555
C10G_2 C11B_2 1_555 1_555
C13G_2 C10G_2 1_555 1_555
C14G_2 N1G_2 1_555 1_555
C15G_2 C14G_2 1_555 1_555
H2G_2 C15G_2 1_555 1_555
C3X_2 C4V_2 1_555 1_555
C4V_2 C5V_2 1_555 1_555
C5V_2 C6V_2 1_555 1_555
C6V_2 C7V_2 1_555 1_555
C7V_2 C8V_2 1_555 1_555
C8V_2 C9V_2 1_555 1_555
C9V_2 C10V_2 1_555 1_555
C10V_2 C11H_2 1_555 1_555
C11H_2 C12H_2 1_555 1_555
C12H_2 C7V_2 1_555 1_555
C13V_2 C10V_2 1_555 1_555
C14X_2 N1B_2 1_555 1_555
C15X_2 C15B_2 1_555 1_555
H2X_2 C15X_2 1_555 1_555
N1I_2 H1I_2 1_555 1_555
C3UA_2 C4H_2 1_555 1_555
C4H_2 C4V_2 1_555 1_555
C5H_2 C4H_2 1_555 1_555
C6H_2 C5H_2 1_555 1_555
C7H_2 C12H_2 1_555 1_555
C8H_2 C7H_2 1_555 1_555
C9H_2 C8H_2 1_555 1_555
C10H_2 C11H_2 1_555 1_555
C13H_2 C10H_2 1_555 1_555
C14UA_2 N1I_2 1_555 1_555
C15UA_2 C14UA_2 1_555 1_555
H2UA_2 C15UA_2 1_555 1_555
N1H_2 H1H_2 1_555 1_555
C3CA_2 C3B_2 1_555 1_555
C14CA_2 C13G_2 1_555 1_555
C15CA_2 C14CA_2 1_555 1_555
H2CA_2 C15CA_2 1_555 1_555
C3TA_2 C4_2 1_555 1_555
C4_2 C5_2 1_555 1_555
C5_2 C6_2 1_555 1_555
C6_2 C7_2 1_555 1_555
C7_2 C8_2 1_555 1_555
C8_2 C9_2 1_555 1_555
C9_2 C10_2 1_555 1_555
C10_2 C11_2 1_555 1_555
C11_2 C12_2 1_555 1_555
C12_2 C7_2 1_555 1_555
C13_2 C10_2 1_555 1_555
C14TA_2 N1G_2 1_555 1_555
C15TA_2 C15G_2 1_555 1_555
H2TA_2 C15TA_2 1_555 1_555
N1W_2 H1W_2 1_555 1_555
C3GA_2 C4B_2 1_555 1_555
C14GA_2 C13B_2 1_555 1_555
C15GA_2 C14GA_2 1_555 1_555
H2GA_2 C15GA_2 1_555 1_555
N1_2 H1_2 1_555 1_555
C3_2 C4_2 1_555 1_555
C14_2 C13_2 1_555 1_555
C15_2 C14_2 1_555 1_555
H2_2 C15_2 1_555 1_555
C3H_2 C3X_2 1_555 1_555
C14H_2 C13H_2 1_555 1_555
C15H_2 C15CA_2 1_555 1_555
H2H_2 C15H_2 1_555 1_555
C3W_2 C3TA_2 1_555 1_555
C4W_2 C4_2 1_555 1_555
C5W_2 C4W_2 1_555 1_555
C6W_2 C5W_2 1_555 1_555
C7W_2 C12_2 1_555 1_555
C8W_2 C7W_2 1_555 1_555
C9W_2 C8W_2 1_555 1_555
C10W_2 C11_2 1_555 1_555
C13W_2 C10W_2 1_555 1_555
C14W_2 N1W_2 1_555 1_555
C15W_2 C15GA_2 1_555 1_555
H2W_2 C15W_2 1_555 1_555
N1V_2 H1V_2 1_555 1_555
C3V_2 C4V_2 1_555 1_555
C14V_2 C13V_2 1_555 1_555
C15V_2 C14V_2 1_555 1_555
H2V_2 C15V_2 1_555 1_555
C3I_2 C4I_2 1_555 1_555
C4I_2 C5I_2 1_555 1_555
C5I_2 C6I_2 1_555 1_555
C6I_2 C7I_2 1_555 1_555
C7I_2 C8I_2 1_555 1_555
C8I_2 C9I_2 1_555 1_555
C9I_2 C10I_2 1_555 1_555
C10I_2 C11E_2 1_555 1_555
C11E_2 C12E_2 1_555 1_555
C12E_2 C7I_2 1_555 1_555
C13I_2 C10I_2 1_555 1_555
C14I_2 N1I_2 1_555 1_555
C15I_2 C15UA_2 1_555 1_555
H2I_2 C15I_2 1_555 1_555
C3Z_2 C4I_2 1_555 1_555
C14Z_2 N1_2 1_555 1_555
C15Z_2 C15_2 1_555 1_555
H2Z_2 C15Z_2 1_555 1_555
N1E_2 H1E_2 1_555 1_555
C3FA_2 C3_2 1_555 1_555
C14FA_2 C13W_2 1_555 1_555
C15FA_2 C14FA_2 1_555 1_555
H2FA_2 C15FA_2 1_555 1_555
C3EA_2 C3I_2 1_555 1_555
C4E_2 C4I_2 1_555 1_555
C5E_2 C4E_2 1_555 1_555
C6E_2 C5E_2 1_555 1_555
C7E_2 C12E_2 1_555 1_555
C8E_2 C7E_2 1_555 1_555
C9E_2 C8E_2 1_555 1_555
C10E_2 C11E_2 1_555 1_555
C13E_2 C10E_2 1_555 1_555
C14EA_2 N1V_2 1_555 1_555
C15EA_2 C15V_2 1_555 1_555
H2EA_2 C15EA_2 1_555 1_555
C3E_2 C3Z_2 1_555 1_555
C14E_2 N1E_2 1_555 1_555
C15E_2 C15FA_2 1_555 1_555
H2E_2 C15E_2 1_555 1_555
C16B_2 C16CA_2 1_555 1_555
C16G_2 C16GA_2 1_555 1_555
C16X_2 C16H_2 1_555 1_555
C16UA_2 C16V_2 1_555 1_555
O1W_2 C1_2 1_555 1_555
C1_2 C2_2 1_555 1_555
C2_2 C2W_2 1_555 1_555
O1_2 C1_2 1_555 1_555
C2W_2 C1_2 1_555 1_555
Zr1_5 O1_2 1_555 1_555
Zr1I_4 O1W_2 1_555 1_555
C16TA_2 C16W_2 1_555 1_555
C16_2 C16FA_2 1_555 1_555
O1I_2 C1E_2 1_555 1_555
C1E_2 C2I_2 1_555 1_555
C2I_2 C2E_2 1_555 1_555
O1E_2 C1E_2 1_555 1_555
C2E_2 C1E_2 1_555 1_555
Zr1I_5 O1I_2 1_555 1_555
O2E_3 Zr1I_5 1_555 1_555
Zr1_6 Zr1I_5 1_555 1_555
Zr1D_5 Zr1I_5 1_555 1_555
Zr1E_5 O1E_2 1_555 1_555
Zr1F_3 Zr1I_5 1_555 1_555
O1O Zr1I_5 1_555 1_555
O1P Zr1I_5 1_555 1_555
O1W_3 Zr1I_5 1_555 1_555
O2_3 Zr1I_5 1_555 1_555
O2C_2 Zr1I_5 1_555 1_555
O2D_3 Zr1I_5 1_555 1_555
C16I_2 C16EA_2 1_555 1_555
C16Z_2 C16E_2 1_555 1_555
O2 Zr1D 1_555 1_555
O2 Zr1I 1_555 1_555
C13 C14 1_555 1_555
O1W Zr1I 1_555 1_555
O1N Zr1F 1_555 1_555
C1C O1C 1_555 1_555
C2B C2G 1_555 1_555
O2B Zr1G 1_555 1_555
O2B Zr1F 1_555 1_555
O1G Zr1G 1_555 1_555
O2C Zr1F 1_555 1_555
O2C Zr1I 1_555 1_555
Zr1G Zr1F 1_555 1_555
Zr1G O2A 1_555 1_555
Zr1G Zr1D 1_555 1_555
Zr1F Zr1E 1_555 1_555
Zr1F Zr1I 1_555 1_555
Zr1F O2S 1_555 1_555
O2A Zr1D 1_555 1_555
Zr1D Zr1E 1_555 1_555
Zr1D Zr1I 1_555 1_555
Zr1D O2H 1_555 1_555
Zr1E Zr1I 1_555 1_555
Zr1E O2E 1_555 1_555
Zr1E O2H 1_555 1_555
Zr1E O2S 1_555 1_555
Zr1I O2E 1_555 1_555
C3W C3TA 1_555 1_555
C4W C3FA 1_555 1_555
C6W C7W 1_555 1_555
C9W C10W 1_555 1_555
C13W C14W 1_555 1_555
C13I C14Z 1_555 1_555
C14Z C15Z 1_555 1_555
C3EA C3I 1_555 1_555
C4E C3E 1_555 1_555
C6E C7E 1_555 1_555
C9E C10E 1_555 1_555
C13E C14EA 1_555 1_555
N1E C14FA 1_555 1_555
N1E C14E 1_555 1_555
C13B C14GA 1_555 1_555
C14GA C15GA 1_555 1_555
N1G C14TA 1_555 1_555
N1B C14B 1_555 1_555
C14E C15E 1_555 1_555
C3G C4G 1_555 1_555
C4G C3CA 1_555 1_555
C6G C7G 1_555 1_555
C9G C10G 1_555 1_555
C13G C14G 1_555 1_555
C14G C15G 1_555 1_555
N1I C14I 1_555 1_555
C13V C14V 1_555 1_555
C13V C14X 1_555 1_555
C14V C15V 1_555 1_555
C14X C15X 1_555 1_555
N1H C14CA 1_555 1_555
C3UA C4H 1_555 1_555
C4H C3H 1_555 1_555
C6H C7H 1_555 1_555
C9H C10H 1_555 1_555
C13H C14UA 1_555 1_555
C13H C14H 1_555 1_555
C14UA C15UA 1_555 1_555
C14H C15H 1_555 1_555
O1S Zr1E_2 1_555 1_555
O1H Zr1E_2 1_555 1_555
Zr1E_2 Zr1F_2 1_555 1_555
Zr1E_2 Zr1G_2 1_555 1_555
Zr1E_2 Zr1I_2 1_555 1_555
O2S_2 Zr1F_2 1_555 1_555
O2S_2 Zr1G_2 1_555 1_555
O2D Zr1D_2 1_555 1_555
O2D Zr1I_2 1_555 1_555
Zr1D_2 Zr1G_2 1_555 1_555
Zr1D_2 Zr1I_2 1_555 1_555
Zr1D_2 O2H_2 1_555 1_555
Zr1F_2 Zr1G_2 1_555 1_555
Zr1F_2 Zr1I_2 1_555 1_555
Zr1F_2 O2E_2 1_555 1_555
Zr1G_2 O2H_2 1_555 1_555
Zr1I_2 O2E_2 1_555 1_555
Zr1_2 Zr1G_3 1_555 1_555
Zr1E_3 Zr1G_4 1_555 1_555
Zr1_3 Zr1D_3 1_555 1_555
C13A C14A 1_555 1_555
C3Q C3IA 1_555 1_555
C4Q C3QA 1_555 1_555
C6Q C7Q 1_555 1_555
C9Q C10Q 1_555 1_555
C13Q C14Q 1_555 1_555
C13L C14AA 1_555 1_555
C14AA C15AA 1_555 1_555
C3LA C3L 1_555 1_555
C4R C3R 1_555 1_555
C6R C7R 1_555 1_555
C9R C10R 1_555 1_555
C13R C14LA 1_555 1_555
N1R C14QA 1_555 1_555
N1R C14R 1_555 1_555
C13C C14JA 1_555 1_555
C14JA C15JA 1_555 1_555
N1N C14IA 1_555 1_555
N1C C14C 1_555 1_555
C14R C15R 1_555 1_555
C3N C4N 1_555 1_555
C4N C3PA 1_555 1_555
C6N C7N 1_555 1_555
C9N C10N 1_555 1_555
C13N C14N 1_555 1_555
C14N C15N 1_555 1_555
N1L C14L 1_555 1_555
C13K C14K 1_555 1_555
C13K C14Y 1_555 1_555
C14K C15K 1_555 1_555
C14Y C15Y 1_555 1_555
N1S C14PA 1_555 1_555
C3OA C4S 1_555 1_555
C4S C3S 1_555 1_555
C6S C7S 1_555 1_555
C9S C10S 1_555 1_555
C13S C14OA 1_555 1_555
C13S C14S 1_555 1_555
C14OA C15OA 1_555 1_555
C14S C15S 1_555 1_555
Zr1D_4 Zr1E_4 1_555 1_555
O2H_3 Zr1E_4 1_555 1_555
O2H_3 Zr1G_5 1_555 1_555
Zr1_4 Zr1G_5 1_555 1_555
Zr1_4 Zr1I_3 1_555 1_555
Zr1_4 O2_2 1_555 1_555
Zr1_4 O2A_2 1_555 1_555
Zr1E_4 Zr1G_5 1_555 1_555
Zr1E_4 Zr1I_3 1_555 1_555
Zr1E_4 O2D_2 1_555 1_555
Zr1G_5 O2A_2 1_555 1_555
Zr1I_3 O2_2 1_555 1_555
Zr1I_3 O2D_2 1_555 1_555
C13B_2 C14B_2 1_555 1_555
C3G_2 C3GA_2 1_555 1_555
C4G_2 C3CA_2 1_555 1_555
C6G_2 C7G_2 1_555 1_555
C9G_2 C10G_2 1_555 1_555
C13G_2 C14G_2 1_555 1_555
C13V_2 C14X_2 1_555 1_555
C14X_2 C15X_2 1_555 1_555
C3UA_2 C3V_2 1_555 1_555
C4H_2 C3H_2 1_555 1_555
C6H_2 C7H_2 1_555 1_555
C9H_2 C10H_2 1_555 1_555
C13H_2 C14UA_2 1_555 1_555
N1H_2 C14CA_2 1_555 1_555
N1H_2 C14H_2 1_555 1_555
C13_2 C14TA_2 1_555 1_555
C14TA_2 C15TA_2 1_555 1_555
N1W_2 C14GA_2 1_555 1_555
N1_2 C14_2 1_555 1_555
C14H_2 C15H_2 1_555 1_555
C3W_2 C4W_2 1_555 1_555
C4W_2 C3FA_2 1_555 1_555
C6W_2 C7W_2 1_555 1_555
C9W_2 C10W_2 1_555 1_555
C13W_2 C14W_2 1_555 1_555
C14W_2 C15W_2 1_555 1_555
N1V_2 C14V_2 1_555 1_555
C13I_2 C14I_2 1_555 1_555
C13I_2 C14Z_2 1_555 1_555
C14I_2 C15I_2 1_555 1_555
C14Z_2 C15Z_2 1_555 1_555
N1E_2 C14FA_2 1_555 1_555
C3EA_2 C4E_2 1_555 1_555
C4E_2 C3E_2 1_555 1_555
C6E_2 C7E_2 1_555 1_555
C9E_2 C10E_2 1_555 1_555
C13E_2 C14EA_2 1_555 1_555
C13E_2 C14E_2 1_555 1_555
C14EA_2 C15EA_2 1_555 1_555
C14E_2 C15E_2 1_555 1_555
Zr1_5 Zr1I_4 1_555 1_555
Zr1I_5 Zr1E_5 1_555 1_555
O2E_3 Zr1E_5 1_555 1_555
O2E_3 Zr1F_3 1_555 1_555
Zr1_6 Zr1D_5 1_555 1_555
Zr1_6 Zr1F_3 1_555 1_555
Zr1_6 O2_3 1_555 1_555
Zr1_6 O2C_2 1_555 1_555
Zr1D_5 Zr1E_5 1_555 1_555
Zr1D_5 O2_3 1_555 1_555
Zr1D_5 O2D_3 1_555 1_555
Zr1E_5 Zr1F_3 1_555 1_555
Zr1E_5 O2D_3 1_555 1_555
Zr1F_3 O2C_2 1_555 1_555

#END
