
#######################################################################
#
#                 Cambridge Crystallographic Data Centre
#                                CCDC 
#
#######################################################################
#
# If this CIF has been generated from an entry in the Cambridge 
# Structural Database, then it will include bibliographic, chemical, 
# crystal, experimental, refinement or atomic coordinate data resulting 
# from the CCDC's data processing and validation procedures.
#
#######################################################################

data_MUZBUF
_chemical_formula_moiety         '(C45 H27 Cu5 N54)n,3n(H2 O1)'
_chemical_name_systematic        
'catena-(nonakis(\m~2~-2-Tetrazolepyrimidine)-penta-copper(ii) trihydrate)'
_symmetry_cell_setting           rhombohedral
_symmetry_space_group_name_H-M   'R -3 c'
_symmetry_Int_Tables_number      167
_space_group_name_Hall           '-R 3 2"c'
loop_
_symmetry_equiv_pos_site_id
_symmetry_equiv_pos_as_xyz
1 x,y,z
2 -y,x-y,z
3 -x+y,-x,z
4 y,x,1/2-z
5 -x,-x+y,1/2-z
6 x-y,-y,1/2-z
7 2/3+x,1/3+y,1/3+z
8 2/3-y,1/3+x-y,1/3+z
9 2/3-x+y,1/3-x,1/3+z
10 2/3+y,1/3+x,5/6-z
11 2/3-x,1/3-x+y,5/6-z
12 2/3+x-y,1/3-y,5/6-z
13 1/3+x,2/3+y,2/3+z
14 1/3-y,2/3+x-y,2/3+z
15 1/3-x+y,2/3-x,2/3+z
16 1/3+y,2/3+x,1/6-z
17 1/3-x,2/3-x+y,1/6-z
18 1/3+x-y,2/3-y,1/6-z
19 -x,-y,-z
20 y,-x+y,-z
21 x-y,x,-z
22 -y,-x,1/2+z
23 x,x-y,1/2+z
24 -x+y,y,1/2+z
25 1/3-x,2/3-y,2/3-z
26 1/3+y,2/3-x+y,2/3-z
27 1/3+x-y,2/3+x,2/3-z
28 1/3-y,2/3-x,1/6+z
29 1/3+x,2/3+x-y,1/6+z
30 1/3-x+y,2/3+y,1/6+z
31 2/3-x,1/3-y,1/3-z
32 2/3+y,1/3-x+y,1/3-z
33 2/3+x-y,1/3+x,1/3-z
34 2/3-y,1/3-x,5/6+z
35 2/3+x,1/3+x-y,5/6+z
36 2/3-x+y,1/3+y,5/6+z
_cell_length_a                   17.967(3)
_cell_length_b                   17.967(3)
_cell_length_c                   42.438(9)
_cell_angle_alpha                90
_cell_angle_beta                 90
_cell_angle_gamma                120
_cell_volume                     11864.2
_exptl_crystal_colour            blue
_exptl_crystal_description       prismatic
_cell_formula_units_Z            6
loop_
_atom_site_label
_atom_site_type_symbol
_atom_site_fract_x
_atom_site_fract_y
_atom_site_fract_z
O1 O 0.0000 0.0000 0.2500
O2 O 0.0000 0.0000 -0.0793(6)
Cu1 Cu 0.3200 0.33337(5) 0.0834
Cu2 Cu -0.00756(15) 0.33337(15) 0.0834
N1 N 0.2109(4) 0.2885(3) 0.05744(11)
N2 N 0.0832(4) 0.2868(3) 0.05296(13)
N3 N 0.3954(4) 0.4573(3) 0.04824(10)
N4 N 0.4328(4) 0.4078(3) 0.10380(9)
N5 N 0.4698(5) 0.4011(4) 0.13062(11)
N6 N 0.5465(6) 0.4700(4) 0.13315(12)
N7 N 0.5616(3) 0.5220(4) 0.10788(11)
N8 N 0.5342(4) 0.5847(5) 0.04872(11)
C1 C 0.0641(15) 0.2468(15) 0.0238(5)
H1 H 0.0145 0.2364 0.0132
C2 C 0.1196(10) 0.2217(10) 0.0100(4)
H2 H 0.1057 0.1890 -0.0083
C3 C 0.195(2) 0.249(3) 0.0256(7)
H3 H 0.2378 0.2426 0.0159
C4 C 0.1548(6) 0.3099(4) 0.06896(15)
C5 C 0.3787(7) 0.4821(5) 0.02062(15)
H4 H 0.3263 0.4473 0.0107
C6 C 0.5157(8) 0.6086(6) 0.02186(17)
H5 H 0.5559 0.6605 0.0128
C7 C 0.4728(5) 0.5105(4) 0.06054(11)
C8 C 0.4904(4) 0.4820(3) 0.09068(11)
C9 C 0.4375(8) 0.5580(6) 0.00684(18)
H6 H 0.4254 0.5753 -0.0122
Cu1A Cu 0.66663(5) 0.98663(5) 0.0834
Cu1P Cu 0.0133 -0.31996(5) 0.0833
Cu1B Cu 0.01337(5) 0.6800 0.0834
Cu1O Cu -0.33330(5) -0.0133 0.0833
Cu1P_2 Cu 1.0133 0.68004(5) 0.0833
Cu1A_2 Cu 0.66663(5) -0.01337(5) 0.0834
Cu2A Cu 0.66663(15) 0.65907(21) 0.0834
Cu2P Cu 0.34089(15) 0.00760(21) 0.0833
Cu2B Cu 0.34093(21) 1.00756(15) 0.0834
Cu2_2 Cu 0.99244(15) 1.33337(15) 0.0834
Cu2A_2 Cu -0.33337(15) -0.34093(21) 0.0834
Cu2_3 Cu -0.00756(15) -0.66663(15) 0.0834
Cu2A_3 Cu -0.33337(15) 0.65907(21) 0.0834
Cu2B_2 Cu -0.65907(21) 0.00756(15) 0.0834
Cu2B_3 Cu 1.34093(21) 1.00756(15) 0.0834
Cu2_4 Cu 0.99244(15) 0.33337(15) 0.0834
Cu2A_4 Cu 0.66663(15) -0.34093(21) 0.0834
N1Q N 0.2557(5) 0.3782(3) 0.10923(11)
N1A N 0.7115(3) 0.9224(5) 0.05744(11)
N1O N 0.6218(3) 0.8776(4) 0.10923(11)
N1P N 0.1224(4) -0.2557(5) 0.10923(11)
N1B N 0.0776(5) -0.2109(4) 0.05744(11)
N1B_2 N 0.0776(5) 0.7891(4) 0.05744(11)
N1P_2 N 0.1224(4) 0.7443(5) 0.10923(11)
N1O_2 N -0.3782(3) -0.1224(4) 0.10923(11)
N1A_2 N -0.2885(3) -0.0776(5) 0.05744(11)
N1P_3 N 1.1224(4) 0.7443(5) 0.10923(11)
N1B_3 N 1.0776(5) 0.7891(4) 0.05744(11)
N1A_3 N 0.7115(3) -0.0776(5) 0.05744(11)
N1O_3 N 0.6218(3) -0.1224(4) 0.10923(11)
N1_2 N 1.2109(4) 1.2885(3) 0.05744(11)
N1Q_2 N 1.2557(5) 1.3782(3) 0.10923(11)
N1_3 N 0.2109(4) -0.7115(3) 0.05744(11)
N1Q_3 N 0.2557(5) -0.6218(3) 0.10923(11)
N1A_4 N -0.2885(3) 0.9224(5) 0.05744(11)
N1O_4 N -0.3782(3) 0.8776(4) 0.10923(11)
N1B_4 N -0.9224(5) -0.2109(4) 0.05744(11)
N1P_4 N -0.8776(4) -0.2557(5) 0.10923(11)
N1_4 N 1.2109(4) 0.2885(3) 0.05744(11)
N1Q_4 N 1.2557(5) 0.3782(3) 0.10923(11)
N2Q N 0.1297(5) 0.3799(3) 0.11371(13)
N2A N 0.7132(3) 0.7964(5) 0.05296(13)
N2O N 0.6201(3) 0.7499(4) 0.11371(13)
N2P N 0.2501(4) -0.1297(5) 0.11371(13)
N2B N 0.2036(5) -0.0832(4) 0.05296(13)
N2B_2 N 0.2036(5) 0.9168(4) 0.05296(13)
N2P_2 N 0.2501(4) 0.8703(5) 0.11371(13)
N2O_2 N -0.3799(3) -0.2501(4) 0.11371(13)
N2A_2 N -0.2868(3) -0.2036(5) 0.05296(13)
N2P_3 N 1.2501(4) 0.8703(5) 0.11371(13)
N2B_3 N 1.2036(5) 0.9168(4) 0.05296(13)
N2A_3 N 0.7132(3) -0.2036(5) 0.05296(13)
N2O_3 N 0.6201(3) -0.2501(4) 0.11371(13)
N2_2 N 1.0832(4) 1.2868(3) 0.05296(13)
N2Q_2 N 1.1297(5) 1.3799(3) 0.11371(13)
N2_3 N 0.0832(4) -0.7132(3) 0.05296(13)
N2Q_3 N 0.1297(5) -0.6201(3) 0.11371(13)
N2A_4 N -0.2868(3) 0.7964(5) 0.05296(13)
N2O_4 N -0.3799(3) 0.7499(4) 0.11371(13)
N2B_4 N -0.7964(5) -0.0832(4) 0.05296(13)
N2P_4 N -0.7499(4) -0.1297(5) 0.11371(13)
N2_4 N 1.0832(4) 0.2868(3) 0.05296(13)
N2Q_4 N 1.1297(5) 0.3799(3) 0.11371(13)
N3Q N 0.2714(5) 0.2094(3) 0.11843(10)
N3B N 0.0619(5) 0.6046(4) 0.04824(10)
N3O N -0.2094(3) 0.0621(4) 0.11843(10)
N3P N 0.9379(4) 0.7286(5) 0.11843(10)
N3A N 0.5427(3) -0.0619(5) 0.04824(10)
N3A_2 N 0.5427(3) 0.9381(5) 0.04824(10)
N3O_2 N 0.7906(3) 1.0621(4) 0.11843(10)
N3P_2 N -0.0621(4) -0.2714(5) 0.11843(10)
N3B_2 N 0.0619(5) -0.3954(4) 0.04824(10)
N3P_3 N -0.0621(4) 0.7286(5) 0.11843(10)
N3A_3 N -0.4573(3) -0.0619(5) 0.04824(10)
N3B_3 N 1.0619(5) 0.6046(4) 0.04824(10)
N3O_3 N 0.7906(3) 0.0621(4) 0.11843(10)
N3Q_2 N 0.2714(5) 1.2094(3) 0.11843(10)
N3B_4 N 1.0619(5) 1.6046(4) 0.04824(10)
N3_2 N -0.6046(4) -0.5427(3) 0.04824(10)
N3O_4 N -0.2094(3) -0.9379(4) 0.11843(10)
N3_3 N -0.6046(4) 0.4573(3) 0.04824(10)
N3Q_3 N -0.7286(5) 0.2094(3) 0.11843(10)
N3A_4 N 1.5427(3) 0.9381(5) 0.04824(10)
N3Q_4 N 1.2714(5) 1.2094(3) 0.11843(10)
N4Q N 0.3583(5) 0.2589(3) 0.06287(9)
N4B N -0.0250(5) 0.5672(4) 0.10380(9)
N4O N -0.2589(3) 0.0995(4) 0.06287(9)
N4P N 0.9005(4) 0.6417(5) 0.06287(9)
N4A N 0.5922(3) 0.0250(5) 0.10380(9)
N4A_2 N 0.5922(3) 1.0250(5) 0.10380(9)
N4O_2 N 0.7411(3) 1.0995(4) 0.06287(9)
N4P_2 N -0.0995(4) -0.3583(5) 0.06287(9)
N4B_2 N -0.0250(5) -0.4328(4) 0.10380(9)
N4P_3 N -0.0995(4) 0.6417(5) 0.06287(9)
N4A_3 N -0.4078(3) 0.0250(5) 0.10380(9)
N4B_3 N 0.9750(5) 0.5672(4) 0.10380(9)
N4O_3 N 0.7411(3) 0.0995(4) 0.06287(9)
N4Q_2 N 0.3583(5) 1.2589(3) 0.06287(9)
N4B_4 N 0.9750(5) 1.5672(4) 0.10380(9)
N4_2 N -0.5672(4) -0.5922(3) 0.10380(9)
N4O_4 N -0.2589(3) -0.9005(4) 0.06287(9)
N4_3 N -0.5672(4) 0.4078(3) 0.10380(9)
N4Q_3 N -0.6417(5) 0.2589(3) 0.06287(9)
N4A_4 N 1.5922(3) 1.0250(5) 0.10380(9)
N4Q_4 N 1.3583(5) 1.2589(3) 0.06287(9)
N5Q N 0.4020(6) 0.2656(4) 0.03605(11)
N5B N -0.0687(6) 0.5302(5) 0.13062(11)
N5O N -0.2656(4) 0.1365(5) 0.03605(11)
N5P N 0.8635(5) 0.5980(6) 0.03605(11)
N5A N 0.5989(4) 0.0687(6) 0.13062(11)
N5A_2 N 0.5989(4) 1.0687(6) 0.13062(11)
N5O_2 N 0.7344(4) 1.1365(5) 0.03605(11)
N5P_2 N -0.1365(5) -0.4020(6) 0.03605(11)
N5B_2 N -0.0687(6) -0.4698(5) 0.13062(11)
N5P_3 N -0.1365(5) 0.5980(6) 0.03605(11)
N5A_3 N -0.4011(4) 0.0687(6) 0.13062(11)
N5B_3 N 0.9313(6) 0.5302(5) 0.13062(11)
N5O_3 N 0.7344(4) 0.1365(5) 0.03605(11)
N5Q_2 N 0.4020(6) 1.2656(4) 0.03605(11)
N5B_4 N 0.9313(6) 1.5302(5) 0.13062(11)
N5_2 N -0.5302(5) -0.5989(4) 0.13062(11)
N5O_4 N -0.2656(4) -0.8635(5) 0.03605(11)
N5_3 N -0.5302(5) 0.4011(4) 0.13062(11)
N5Q_3 N -0.5980(6) 0.2656(4) 0.03605(11)
N5A_4 N 1.5989(4) 1.0687(6) 0.13062(11)
N5Q_4 N 1.4020(6) 1.2656(4) 0.03605(11)
N6Q N 0.4098(7) 0.1967(4) 0.03352(12)
N6B N -0.0765(7) 0.4535(6) 0.13315(12)
N6O N -0.1967(4) 0.2132(6) 0.03352(12)
N6P N 0.7868(6) 0.5902(7) 0.03352(12)
N6A N 0.5300(4) 0.0765(7) 0.13315(12)
N6A_2 N 0.5300(4) 1.0765(7) 0.13315(12)
N6O_2 N 0.8033(4) 1.2132(6) 0.03352(12)
N6P_2 N -0.2132(6) -0.4098(7) 0.03352(12)
N6B_2 N -0.0765(7) -0.5465(6) 0.13315(12)
N6P_3 N -0.2132(6) 0.5902(7) 0.03352(12)
N6A_3 N -0.4700(4) 0.0765(7) 0.13315(12)
N6B_3 N 0.9235(7) 0.4535(6) 0.13315(12)
N6O_3 N 0.8033(4) 0.2132(6) 0.03352(12)
N6Q_2 N 0.4098(7) 1.1967(4) 0.03352(12)
N6B_4 N 0.9235(7) 1.4535(6) 0.13315(12)
N6_2 N -0.4535(6) -0.5300(4) 0.13315(12)
N6O_4 N -0.1967(4) -0.7868(6) 0.03352(12)
N6_3 N -0.4535(6) 0.4700(4) 0.13315(12)
N6Q_3 N -0.5902(7) 0.1967(4) 0.03352(12)
N6A_4 N 1.5300(4) 1.0765(7) 0.13315(12)
N6Q_4 N 1.4098(7) 1.1967(4) 0.03352(12)
N6_4 N 0.5465(6) -0.5300(4) 0.13315(12)
N6P_4 N 0.7868(6) -0.4098(7) 0.03352(12)
N7Q N 0.3729(5) 0.1447(4) 0.05879(11)
N7B N -0.0396(5) 0.4384(3) 0.10788(11)
N7O N -0.1447(4) 0.2283(3) 0.05879(11)
N7P N 0.7717(3) 0.6271(5) 0.05879(11)
N7A N 0.4780(4) 0.0396(5) 0.10788(11)
N7A_2 N 0.4780(4) 1.0396(5) 0.10788(11)
N7O_2 N 0.8553(4) 1.2283(3) 0.05879(11)
N7P_2 N -0.2283(3) -0.3729(5) 0.05879(11)
N7B_2 N -0.0396(5) -0.5616(3) 0.10788(11)
N7P_3 N -0.2283(3) 0.6271(5) 0.05879(11)
N7A_3 N -0.5220(4) 0.0396(5) 0.10788(11)
N7B_3 N 0.9604(5) 0.4384(3) 0.10788(11)
N7O_3 N 0.8553(4) 0.2283(3) 0.05879(11)
N7Q_2 N 0.3729(5) 1.1447(4) 0.05879(11)
N7B_4 N 0.9604(5) 1.4384(3) 0.10788(11)
N7_2 N -0.4384(3) -0.4780(4) 0.10788(11)
N7O_4 N -0.1447(4) -0.7717(3) 0.05879(11)
N7_3 N -0.4384(3) 0.5220(4) 0.10788(11)
N7Q_3 N -0.6271(5) 0.1447(4) 0.05879(11)
N7A_4 N 1.4780(4) 1.0396(5) 0.10788(11)
N7Q_4 N 1.3729(5) 1.1447(4) 0.05879(11)
N7_4 N 0.5616(3) -0.4780(4) 0.10788(11)
N7P_4 N 0.7717(3) -0.3729(5) 0.05879(11)
N8Q N 0.2828(6) 0.0820(5) 0.11795(11)
N8B N 0.0505(6) 0.4658(4) 0.04872(11)
N8O N -0.0820(5) 0.2009(4) 0.11795(11)
N8P N 0.7991(4) 0.7172(6) 0.11795(11)
N8A N 0.4153(5) -0.0505(6) 0.04872(11)
N8A_2 N 0.4153(5) 0.9495(6) 0.04872(11)
N8O_2 N 0.9180(5) 1.2009(4) 0.11795(11)
N8P_2 N -0.2009(4) -0.2828(6) 0.11795(11)
N8B_2 N 0.0505(6) -0.5342(4) 0.04872(11)
N8P_3 N -0.2009(4) 0.7172(6) 0.11795(11)
N8A_3 N -0.5847(5) -0.0505(6) 0.04872(11)
N8B_3 N 1.0505(6) 0.4658(4) 0.04872(11)
N8O_3 N 0.9180(5) 0.2009(4) 0.11795(11)
N8Q_2 N 0.2828(6) 1.0820(5) 0.11795(11)
N8B_4 N 1.0505(6) 1.4658(4) 0.04872(11)
N8_2 N -0.4658(4) -0.4153(5) 0.04872(11)
N8O_4 N -0.0820(5) -0.7991(4) 0.11795(11)
N8_3 N -0.4658(4) 0.5847(5) 0.04872(11)
N8Q_3 N -0.7172(6) 0.0820(5) 0.11795(11)
N8A_4 N 1.4153(5) 0.9495(6) 0.04872(11)
N8Q_4 N 1.2828(6) 1.0820(5) 0.11795(11)
N8_4 N 0.5342(4) -0.4153(5) 0.04872(11)
N8P_4 N 0.7991(4) -0.2828(6) 0.11795(11)
C1Q C 0.1506(21) 0.4199(15) 0.1429(5)
C1A C 0.7532(15) 0.8173(21) 0.0238(5)
C1O C 0.5801(15) 0.7308(15) 0.1429(5)
C1P C 0.2692(15) -0.1506(21) 0.1429(5)
C1B C 0.1827(21) -0.0641(15) 0.0238(5)
C1B_2 C 0.1827(21) 0.9359(15) 0.0238(5)
C1P_2 C 0.2692(15) 0.8494(21) 0.1429(5)
C1O_2 C -0.4199(15) -0.2692(15) 0.1429(5)
C1A_2 C -0.2468(15) -0.1827(21) 0.0238(5)
C1P_3 C 1.2692(15) 0.8494(21) 0.1429(5)
C1B_3 C 1.1827(21) 0.9359(15) 0.0238(5)
C1A_3 C 0.7532(15) -0.1827(21) 0.0238(5)
C1O_3 C 0.5801(15) -0.2692(15) 0.1429(5)
C1_2 C 1.0641(15) 1.2468(15) 0.0238(5)
C1Q_2 C 1.1506(21) 1.4199(15) 0.1429(5)
C1_3 C 0.0641(15) -0.7532(15) 0.0238(5)
C1Q_3 C 0.1506(21) -0.5801(15) 0.1429(5)
C1A_4 C -0.2468(15) 0.8173(21) 0.0238(5)
C1O_4 C -0.4199(15) 0.7308(15) 0.1429(5)
C1B_4 C -0.8173(21) -0.0641(15) 0.0238(5)
C1P_4 C -0.7308(15) -0.1506(21) 0.1429(5)
C1_4 C 1.0641(15) 0.2468(15) 0.0238(5)
C1Q_4 C 1.1506(21) 0.4199(15) 0.1429(5)
H1Q H 0.1114 0.4303 0.1535
H1A H 0.7636 0.7781 0.0132
H1O H 0.5697 0.6812 0.1535
H1P H 0.3188 -0.1114 0.1535
H1B H 0.2219 -0.0145 0.0132
H1B_2 H 0.2219 0.9855 0.0132
H1P_2 H 0.3188 0.8886 0.1535
H1O_2 H -0.4303 -0.3188 0.1535
H1A_2 H -0.2364 -0.2219 0.0132
H1P_3 H 1.3188 0.8886 0.1535
H1B_3 H 1.2219 0.9855 0.0132
H1A_3 H 0.7636 -0.2219 0.0132
H1O_3 H 0.5697 -0.3188 0.1535
H1_2 H 1.0145 1.2364 0.0132
H1Q_2 H 1.1114 1.4303 0.1535
H1_3 H 0.0145 -0.7636 0.0132
H1Q_3 H 0.1114 -0.5697 0.1535
H1A_4 H -0.2364 0.7781 0.0132
H1O_4 H -0.4303 0.6812 0.1535
H1B_4 H -0.7781 -0.0145 0.0132
H1P_4 H -0.6812 -0.1114 0.1535
H1_4 H 1.0145 0.2364 0.0132
H1Q_4 H 1.1114 0.4303 0.1535
C2Q C 0.2312(14) 0.4450(10) 0.1567(4)
C2A C 0.7783(10) 0.8979(14) 0.0100(4)
C2O C 0.5550(10) 0.7863(10) 0.1567(4)
C2P C 0.2137(10) -0.2312(14) 0.1567(4)
C2B C 0.1021(14) -0.1196(10) 0.0100(4)
C2B_2 C 0.1021(14) 0.8804(10) 0.0100(4)
C2P_2 C 0.2137(10) 0.7688(14) 0.1567(4)
C2O_2 C -0.4450(10) -0.2137(10) 0.1567(4)
C2A_2 C -0.2217(10) -0.1021(14) 0.0100(4)
C2P_3 C 1.2137(10) 0.7688(14) 0.1567(4)
C2B_3 C 1.1021(14) 0.8804(10) 0.0100(4)
C2A_3 C 0.7783(10) -0.1021(14) 0.0100(4)
C2O_3 C 0.5550(10) -0.2137(10) 0.1567(4)
C2_2 C 1.1196(10) 1.2217(10) 0.0100(4)
C2Q_2 C 1.2312(14) 1.4450(10) 0.1567(4)
C2_3 C 0.1196(10) -0.7783(10) 0.0100(4)
C2Q_3 C 0.2312(14) -0.5550(10) 0.1567(4)
C2A_4 C -0.2217(10) 0.8979(14) 0.0100(4)
C2O_4 C -0.4450(10) 0.7863(10) 0.1567(4)
C2B_4 C -0.8979(14) -0.1196(10) 0.0100(4)
C2P_4 C -0.7863(10) -0.2312(14) 0.1567(4)
C2_4 C 1.1196(10) 0.2217(10) 0.0100(4)
C2Q_4 C 1.2312(14) 0.4450(10) 0.1567(4)
H2Q H 0.2500 0.4777 0.1750
H2A H 0.8110 0.9167 -0.0083
H2O H 0.5223 0.7724 0.1750
H2P H 0.2276 -0.2500 0.1750
H2B H 0.0833 -0.1057 -0.0083
H2B_2 H 0.0833 0.8943 -0.0083
H2P_2 H 0.2276 0.7500 0.1750
H2O_2 H -0.4777 -0.2276 0.1750
H2A_2 H -0.1890 -0.0833 -0.0083
H2P_3 H 1.2276 0.7500 0.1750
H2B_3 H 1.0833 0.8943 -0.0083
H2A_3 H 0.8110 -0.0833 -0.0083
H2O_3 H 0.5223 -0.2276 0.1750
C3Q C 0.279(4) 0.418(3) 0.1411(7)
C3A C 0.751(3) 0.946(4) 0.0256(7)
C3O C 0.582(3) 0.862(2) 0.1411(7)
C3P C 0.138(2) -0.279(4) 0.1411(7)
C3B C 0.054(4) -0.195(2) 0.0256(7)
C3B_2 C 0.054(4) 0.805(2) 0.0256(7)
C3P_2 C 0.138(2) 0.721(4) 0.1411(7)
C3O_2 C -0.418(3) -0.138(2) 0.1411(7)
C3A_2 C -0.249(3) -0.054(4) 0.0256(7)
C3P_3 C 1.138(2) 0.721(4) 0.1411(7)
C3B_3 C 1.054(4) 0.805(2) 0.0256(7)
C3A_3 C 0.751(3) -0.054(4) 0.0256(7)
C3O_3 C 0.582(3) -0.138(2) 0.1411(7)
H3Q H 0.3285 0.4241 0.1508
H3A H 0.7574 0.9952 0.0159
H3O H 0.5759 0.9045 0.1508
H3P H 0.0955 -0.3285 0.1508
H3B H 0.0048 -0.2378 0.0159
H3B_2 H 0.0048 0.7622 0.0159
H3P_2 H 0.0955 0.6715 0.1508
H3O_2 H -0.4241 -0.0955 0.1508
H3A_2 H -0.2426 -0.0048 0.0159
H3P_3 H 1.0955 0.6715 0.1508
H3B_3 H 1.0048 0.7622 0.0159
H3A_3 H 0.7574 -0.0048 0.0159
H3O_3 H 0.5759 -0.0955 0.1508
C4Q C 0.1782(7) 0.3568(4) 0.09771(15)
C4A C 0.6901(4) 0.8449(7) 0.06896(15)
C4O C 0.6432(4) 0.8215(6) 0.09771(15)
C4P C 0.1785(6) -0.1782(7) 0.09771(15)
C4B C 0.1551(7) -0.1548(6) 0.06896(15)
C4B_2 C 0.1551(7) 0.8452(6) 0.06896(15)
C4P_2 C 0.1785(6) 0.8218(7) 0.09771(15)
C4O_2 C -0.3568(4) -0.1785(6) 0.09771(15)
C4A_2 C -0.3099(4) -0.1551(7) 0.06896(15)
C4P_3 C 1.1785(6) 0.8218(7) 0.09771(15)
C4B_3 C 1.1551(7) 0.8452(6) 0.06896(15)
C4A_3 C 0.6901(4) -0.1551(7) 0.06896(15)
C4O_3 C 0.6432(4) -0.1785(6) 0.09771(15)
C4_2 C 1.1548(6) 1.3099(4) 0.06896(15)
C4Q_2 C 1.1782(7) 1.3568(4) 0.09771(15)
C4_3 C 0.1548(6) -0.6901(4) 0.06896(15)
C4Q_3 C 0.1782(7) -0.6432(4) 0.09771(15)
C4A_4 C -0.3099(4) 0.8449(7) 0.06896(15)
C4O_4 C -0.3568(4) 0.8215(6) 0.09771(15)
C4B_4 C -0.8449(7) -0.1548(6) 0.06896(15)
C4P_4 C -0.8215(6) -0.1782(7) 0.09771(15)
C4_4 C 1.1548(6) 0.3099(4) 0.06896(15)
C4Q_4 C 1.1782(7) 0.3568(4) 0.09771(15)
C5Q C 0.2299(9) 0.1846(5) 0.14605(15)
C5B C 0.1034(9) 0.6213(7) 0.02062(15)
C5O C -0.1846(5) 0.0454(7) 0.14605(15)
C5P C 0.9546(7) 0.7701(9) 0.14605(15)
C5A C 0.5179(5) -0.1034(9) 0.02062(15)
C5A_2 C 0.5179(5) 0.8966(9) 0.02062(15)
C5O_2 C 0.8154(5) 1.0454(7) 0.14605(15)
C5P_2 C -0.0454(7) -0.2299(9) 0.14605(15)
C5B_2 C 0.1034(9) -0.3787(7) 0.02062(15)
C5P_3 C -0.0454(7) 0.7701(9) 0.14605(15)
C5A_3 C -0.4821(5) -0.1034(9) 0.02062(15)
C5B_3 C 1.1034(9) 0.6213(7) 0.02062(15)
C5O_3 C 0.8154(5) 0.0454(7) 0.14605(15)
H4Q H 0.2123 0.2194 0.1560
H4B H 0.1210 0.6737 0.0107
H4O H -0.2194 -0.0070 0.1560
H4P H 1.0070 0.7877 0.1560
H4A H 0.5527 -0.1210 0.0107
H4A_2 H 0.5527 0.8790 0.0107
H4O_2 H 0.7806 0.9930 0.1560
H4P_2 H 0.0070 -0.2123 0.1560
H4B_2 H 0.1210 -0.3263 0.0107
H4P_3 H 0.0070 0.7877 0.1560
H4A_3 H -0.4473 -0.1210 0.0107
H4B_3 H 1.1210 0.6737 0.0107
H4O_3 H 0.7806 -0.0070 0.1560
C6Q C 0.2404(10) 0.0581(6) 0.14481(17)
C6B C 0.0929(10) 0.4843(8) 0.02186(17)
C6O C -0.0581(6) 0.1824(8) 0.14481(17)
C6P C 0.8176(8) 0.7596(10) 0.14481(17)
C6A C 0.3914(6) -0.0929(10) 0.02186(17)
C6A_2 C 0.3914(6) 0.9071(10) 0.02186(17)
C6O_2 C 0.9419(6) 1.1824(8) 0.14481(17)
C6P_2 C -0.1824(8) -0.2404(10) 0.14481(17)
C6B_2 C 0.0929(10) -0.5157(8) 0.02186(17)
C6P_3 C -0.1824(8) 0.7596(10) 0.14481(17)
C6A_3 C -0.6086(6) -0.0929(10) 0.02186(17)
C6B_3 C 1.0929(10) 0.4843(8) 0.02186(17)
C6O_3 C 0.9419(6) 0.1824(8) 0.14481(17)
C6Q_2 C 0.2404(10) 1.0581(6) 0.14481(17)
C6B_4 C 1.0929(10) 1.4843(8) 0.02186(17)
C6_2 C -0.4843(8) -0.3914(6) 0.02186(17)
C6O_4 C -0.0581(6) -0.8176(8) 0.14481(17)
C6_3 C -0.4843(8) 0.6086(6) 0.02186(17)
C6Q_3 C -0.7596(10) 0.0581(6) 0.14481(17)
C6A_4 C 1.3914(6) 0.9071(10) 0.02186(17)
C6Q_4 C 1.2404(10) 1.0581(6) 0.14481(17)
C6_4 C 0.5157(8) -0.3914(6) 0.02186(17)
C6P_4 C 0.8176(8) -0.2404(10) 0.14481(17)
H5Q H 0.2287 0.0062 0.1539
H5B H 0.1046 0.4441 0.0128
H5O H -0.0062 0.2226 0.1539
H5P H 0.7774 0.7713 0.1539
H5A H 0.3395 -0.1046 0.0128
H5A_2 H 0.3395 0.8954 0.0128
H5O_2 H 0.9938 1.2226 0.1539
H5P_2 H -0.2226 -0.2287 0.1539
H5B_2 H 0.1046 -0.5559 0.0128
H5P_3 H -0.2226 0.7713 0.1539
H5A_3 H -0.6605 -0.1046 0.0128
H5B_3 H 1.1046 0.4441 0.0128
H5O_3 H 0.9938 0.2226 0.1539
H5Q_2 H 0.2287 1.0062 0.1539
H5B_4 H 1.1046 1.4441 0.0128
H5_2 H -0.4441 -0.3395 0.0128
H5O_4 H -0.0062 -0.7774 0.1539
H5_3 H -0.4441 0.6605 0.0128
H5Q_3 H -0.7713 0.0062 0.1539
H5A_4 H 1.3395 0.8954 0.0128
H5Q_4 H 1.2287 1.0062 0.1539
C7Q C 0.2956(6) 0.1562(4) 0.10613(11)
C7B C 0.0377(6) 0.5272(5) 0.06054(11)
C7O C -0.1562(4) 0.1395(5) 0.10613(11)
C7P C 0.8605(5) 0.7044(6) 0.10613(11)
C7A C 0.4895(4) -0.0377(6) 0.06054(11)
C7A_2 C 0.4895(4) 0.9623(6) 0.06054(11)
C7O_2 C 0.8438(4) 1.1395(5) 0.10613(11)
C7P_2 C -0.1395(5) -0.2956(6) 0.10613(11)
C7B_2 C 0.0377(6) -0.4728(5) 0.06054(11)
C7P_3 C -0.1395(5) 0.7044(6) 0.10613(11)
C7A_3 C -0.5105(4) -0.0377(6) 0.06054(11)
C7B_3 C 1.0377(6) 0.5272(5) 0.06054(11)
C7O_3 C 0.8438(4) 0.1395(5) 0.10613(11)
C7Q_2 C 0.2956(6) 1.1562(4) 0.10613(11)
C7B_4 C 1.0377(6) 1.5272(5) 0.06054(11)
C7_2 C -0.5272(5) -0.4895(4) 0.06054(11)
C7O_4 C -0.1562(4) -0.8605(5) 0.10613(11)
C7_3 C -0.5272(5) 0.5105(4) 0.06054(11)
C7Q_3 C -0.7044(6) 0.1562(4) 0.10613(11)
C7A_4 C 1.4895(4) 0.9623(6) 0.06054(11)
C7Q_4 C 1.2956(6) 1.1562(4) 0.10613(11)
C7_4 C 0.4728(5) -0.4895(4) 0.06054(11)
C7P_4 C 0.8605(5) -0.2956(6) 0.10613(11)
C8Q C 0.3417(5) 0.1847(3) 0.07599(11)
C8B C -0.0084(5) 0.5096(4) 0.09068(11)
C8O C -0.1847(3) 0.1571(4) 0.07599(11)
C8P C 0.8429(4) 0.6583(5) 0.07599(11)
C8A C 0.5180(3) 0.0084(5) 0.09068(11)
C8A_2 C 0.5180(3) 1.0084(5) 0.09068(11)
C8O_2 C 0.8153(3) 1.1571(4) 0.07599(11)
C8P_2 C -0.1571(4) -0.3417(5) 0.07599(11)
C8B_2 C -0.0084(5) -0.4904(4) 0.09068(11)
C8P_3 C -0.1571(4) 0.6583(5) 0.07599(11)
C8A_3 C -0.4820(3) 0.0084(5) 0.09068(11)
C8B_3 C 0.9916(5) 0.5096(4) 0.09068(11)
C8O_3 C 0.8153(3) 0.1571(4) 0.07599(11)
C8Q_2 C 0.3417(5) 1.1847(3) 0.07599(11)
C8B_4 C 0.9916(5) 1.5096(4) 0.09068(11)
C8_2 C -0.5096(4) -0.5180(3) 0.09068(11)
C8O_4 C -0.1847(3) -0.8429(4) 0.07599(11)
C8_3 C -0.5096(4) 0.4820(3) 0.09068(11)
C8Q_3 C -0.6583(5) 0.1847(3) 0.07599(11)
C8A_4 C 1.5180(3) 1.0084(5) 0.09068(11)
C8Q_4 C 1.3417(5) 1.1847(3) 0.07599(11)
C8_4 C 0.4904(4) -0.5180(3) 0.09068(11)
C8P_4 C 0.8429(4) -0.3417(5) 0.07599(11)
C9Q C 0.2128(10) 0.1087(6) 0.15983(18)
C9B C 0.1205(10) 0.5625(8) 0.00684(18)
C9O C -0.1087(6) 0.1042(8) 0.15983(18)
C9P C 0.8958(8) 0.7872(10) 0.15983(18)
C9A C 0.4420(6) -0.1205(10) 0.00684(18)
C9A_2 C 0.4420(6) 0.8795(10) 0.00684(18)
C9O_2 C 0.8913(6) 1.1042(8) 0.15983(18)
C9P_2 C -0.1042(8) -0.2128(10) 0.15983(18)
C9B_2 C 0.1205(10) -0.4375(8) 0.00684(18)
C9P_3 C -0.1042(8) 0.7872(10) 0.15983(18)
C9A_3 C -0.5580(6) -0.1205(10) 0.00684(18)
C9B_3 C 1.1205(10) 0.5625(8) 0.00684(18)
C9O_3 C 0.8913(6) 0.1042(8) 0.15983(18)
C9Q_2 C 0.2128(10) 1.1087(6) 0.15983(18)
C9B_4 C 1.1205(10) 1.5625(8) 0.00684(18)
C9_2 C -0.5625(8) -0.4420(6) 0.00684(18)
C9O_4 C -0.1087(6) -0.8958(8) 0.15983(18)
C9_3 C -0.5625(8) 0.5580(6) 0.00684(18)
C9Q_3 C -0.7872(10) 0.1087(6) 0.15983(18)
C9A_4 C 1.4420(6) 0.8795(10) 0.00684(18)
C9Q_4 C 1.2128(10) 1.1087(6) 0.15983(18)
H6Q H 0.1834 0.0914 0.1789
H6B H 0.1499 0.5746 -0.0122
H6O H -0.0914 0.0921 0.1789
H6P H 0.9079 0.8166 0.1789
H6A H 0.4247 -0.1499 -0.0122
H6A_2 H 0.4247 0.8501 -0.0122
H6O_2 H 0.9086 1.0921 0.1789
H6P_2 H -0.0921 -0.1834 0.1789
H6B_2 H 0.1499 -0.4254 -0.0122
H6P_3 H -0.0921 0.8166 0.1789
H6A_3 H -0.5753 -0.1499 -0.0122
H6B_3 H 1.1499 0.5746 -0.0122
H6O_3 H 0.9086 0.0921 0.1789
N9? N 0.0968(16) 0.2445(12) 0.0307(4)
N10? N 0.1719(26) 0.243(2) 0.0340(6)
loop_
_geom_bond_atom_site_label_1
_geom_bond_atom_site_label_2
_geom_bond_site_symmetry_1
_geom_bond_site_symmetry_2
Cu1 N1 1_555 1_555
Cu2 N2 1_555 1_555
N1 C3 1_555 1_555
N2 C1 1_555 1_555
N3 Cu1 1_555 1_555
N4 Cu1 1_555 1_555
N5 N4 1_555 1_555
N6 N5 1_555 1_555
N7 N6 1_555 1_555
N8 C6 1_555 1_555
C1 H1 1_555 1_555
C2 C1 1_555 1_555
H2 C2 1_555 1_555
C3 C2 1_555 1_555
H3 C3 1_555 1_555
C4 N1 1_555 1_555
C5 N3 1_555 1_555
H4 C5 1_555 1_555
C6 H5 1_555 1_555
C7 N3 1_555 1_555
C8 N4 1_555 1_555
C9 C5 1_555 1_555
H6 C9 1_555 1_555
Cu1A N1A 1_555 1_555
Cu1P N1P 1_555 1_555
Cu1B N1B_2 1_555 1_555
Cu1O N1O_2 1_555 1_555
Cu1P_2 N1P_3 1_555 1_555
Cu1A_2 N1A_3 1_555 1_555
Cu2A N7 1_555 1_555
Cu2P N2P 1_555 1_555
Cu2B N2B_2 1_555 1_555
Cu2_2 N2_2 1_555 1_555
Cu2A_2 N2O_2 1_555 1_555
Cu2_3 N2_3 1_555 1_555
Cu2A_3 N2A_4 1_555 1_555
Cu2B_2 N2B_4 1_555 1_555
Cu2B_3 N2P_3 1_555 1_555
Cu2_4 N2_4 1_555 1_555
Cu2A_4 N2A_3 1_555 1_555
N1Q Cu1 1_555 1_555
N1A C3A 1_555 1_555
N1O Cu1A 1_555 1_555
N1P C3P 1_555 1_555
N1B Cu1P 1_555 1_555
N1B_2 C3B_2 1_555 1_555
N1P_2 Cu1B 1_555 1_555
N1O_2 C3O_2 1_555 1_555
N1A_2 Cu1O 1_555 1_555
N1P_3 C3P_3 1_555 1_555
N1B_3 Cu1P_2 1_555 1_555
N1A_3 C3A_3 1_555 1_555
N1O_3 Cu1A_2 1_555 1_555
N1_2 C4_2 1_555 1_555
N1Q_2 C4Q_2 1_555 1_555
N1_3 C4_3 1_555 1_555
N1Q_3 C4Q_3 1_555 1_555
N1A_4 C4A_4 1_555 1_555
N1O_4 C4O_4 1_555 1_555
N1B_4 C4B_4 1_555 1_555
N1P_4 C4P_4 1_555 1_555
N1_4 C4_4 1_555 1_555
N1Q_4 C4Q_4 1_555 1_555
N2Q Cu2 1_555 1_555
N2A Cu2A 1_555 1_555
N2O Cu2A 1_555 1_555
N2P C1P 1_555 1_555
N2B Cu2P 1_555 1_555
N2B_2 C1B_2 1_555 1_555
N2P_2 Cu2B 1_555 1_555
N2O_2 C1O_2 1_555 1_555
N2A_2 Cu2A_2 1_555 1_555
N2P_3 C1P_3 1_555 1_555
N2B_3 Cu2B_3 1_555 1_555
N2A_3 C1A_3 1_555 1_555
N2O_3 Cu2A_4 1_555 1_555
N2_2 C1_2 1_555 1_555
N2Q_2 Cu2_2 1_555 1_555
N2_3 C1_3 1_555 1_555
N2Q_3 Cu2_3 1_555 1_555
N2A_4 C1A_4 1_555 1_555
N2O_4 Cu2A_3 1_555 1_555
N2B_4 C1B_4 1_555 1_555
N2P_4 Cu2B_2 1_555 1_555
N2_4 C1_4 1_555 1_555
N2Q_4 Cu2_4 1_555 1_555
N3Q Cu1 1_555 1_555
N3B Cu1B 1_555 1_555
N3O Cu1O 1_555 1_555
N3P Cu1P_2 1_555 1_555
N3A Cu1A_2 1_555 1_555
N3A_2 Cu1A 1_555 1_555
N3O_2 Cu1A 1_555 1_555
N3P_2 Cu1P 1_555 1_555
N3B_2 Cu1P 1_555 1_555
N3P_3 Cu1B 1_555 1_555
N3A_3 Cu1O 1_555 1_555
N3B_3 Cu1P_2 1_555 1_555
N3O_3 Cu1A_2 1_555 1_555
N3Q_2 C7Q_2 1_555 1_555
N3B_4 C7B_4 1_555 1_555
N3_2 C7_2 1_555 1_555
N3O_4 C7O_4 1_555 1_555
N3_3 C7_3 1_555 1_555
N3Q_3 C7Q_3 1_555 1_555
N3A_4 C7A_4 1_555 1_555
N3Q_4 C7Q_4 1_555 1_555
N4Q Cu1 1_555 1_555
N4B Cu1B 1_555 1_555
N4O Cu1O 1_555 1_555
N4P Cu1P_2 1_555 1_555
N4A Cu1A_2 1_555 1_555
N4A_2 Cu1A 1_555 1_555
N4O_2 Cu1A 1_555 1_555
N4P_2 Cu1P 1_555 1_555
N4B_2 Cu1P 1_555 1_555
N4P_3 Cu1B 1_555 1_555
N4A_3 Cu1O 1_555 1_555
N4B_3 Cu1P_2 1_555 1_555
N4O_3 Cu1A_2 1_555 1_555
N4Q_2 C8Q_2 1_555 1_555
N4B_4 C8B_4 1_555 1_555
N4_2 C8_2 1_555 1_555
N4O_4 C8O_4 1_555 1_555
N4_3 C8_3 1_555 1_555
N4Q_3 C8Q_3 1_555 1_555
N4A_4 C8A_4 1_555 1_555
N4Q_4 C8Q_4 1_555 1_555
N5Q N4Q 1_555 1_555
N5B N4B 1_555 1_555
N5O N4O 1_555 1_555
N5P N4P 1_555 1_555
N5A N4A 1_555 1_555
N5A_2 N4A_2 1_555 1_555
N5O_2 N4O_2 1_555 1_555
N5P_2 N4P_2 1_555 1_555
N5B_2 N4B_2 1_555 1_555
N5P_3 N4P_3 1_555 1_555
N5A_3 N4A_3 1_555 1_555
N5B_3 N4B_3 1_555 1_555
N5O_3 N4O_3 1_555 1_555
N5Q_2 N6Q_2 1_555 1_555
N5B_4 N6B_4 1_555 1_555
N5_2 N6_2 1_555 1_555
N5O_4 N6O_4 1_555 1_555
N5_3 N6_3 1_555 1_555
N5Q_3 N6Q_3 1_555 1_555
N5A_4 N6A_4 1_555 1_555
N5Q_4 N6Q_4 1_555 1_555
N6Q N5Q 1_555 1_555
N6B N5B 1_555 1_555
N6O N5O 1_555 1_555
N6P N5P 1_555 1_555
N6A N5A 1_555 1_555
N6A_2 N5A_2 1_555 1_555
N6O_2 N5O_2 1_555 1_555
N6P_2 N5P_2 1_555 1_555
N6B_2 N5B_2 1_555 1_555
N6P_3 N5P_3 1_555 1_555
N6A_3 N5A_3 1_555 1_555
N6B_3 N5B_3 1_555 1_555
N6O_3 N5O_3 1_555 1_555
N6Q_2 N7Q_2 1_555 1_555
N6B_4 N7B_4 1_555 1_555
N6_2 N7_2 1_555 1_555
N6O_4 N7O_4 1_555 1_555
N6_3 N7_3 1_555 1_555
N6Q_3 N7Q_3 1_555 1_555
N6A_4 N7A_4 1_555 1_555
N6Q_4 N7Q_4 1_555 1_555
N6_4 N7_4 1_555 1_555
N6P_4 N7P_4 1_555 1_555
N7Q Cu2P 1_555 1_555
N7B Cu2 1_555 1_555
N7O Cu2 1_555 1_555
N7P Cu2A 1_555 1_555
N7A Cu2P 1_555 1_555
N7A_2 Cu2B 1_555 1_555
N7O_2 Cu2_2 1_555 1_555
N7P_2 Cu2A_2 1_555 1_555
N7B_2 Cu2_3 1_555 1_555
N7P_3 Cu2A_3 1_555 1_555
N7A_3 Cu2B_2 1_555 1_555
N7B_3 Cu2_4 1_555 1_555
N7O_3 Cu2_4 1_555 1_555
N7Q_2 Cu2B 1_555 1_555
N7B_4 Cu2_2 1_555 1_555
N7_2 Cu2A_2 1_555 1_555
N7O_4 Cu2_3 1_555 1_555
N7_3 Cu2A_3 1_555 1_555
N7Q_3 Cu2B_2 1_555 1_555
N7A_4 Cu2B_3 1_555 1_555
N7Q_4 Cu2B_3 1_555 1_555
N7_4 Cu2A_4 1_555 1_555
N7P_4 Cu2A_4 1_555 1_555
N8Q Cu2P 1_555 1_555
N8B Cu2 1_555 1_555
N8O Cu2 1_555 1_555
N8P Cu2A 1_555 1_555
N8A Cu2P 1_555 1_555
N8A_2 Cu2B 1_555 1_555
N8O_2 Cu2_2 1_555 1_555
N8P_2 Cu2A_2 1_555 1_555
N8B_2 Cu2_3 1_555 1_555
N8P_3 Cu2A_3 1_555 1_555
N8A_3 Cu2B_2 1_555 1_555
N8B_3 Cu2_4 1_555 1_555
N8O_3 Cu2_4 1_555 1_555
N8Q_2 Cu2B 1_555 1_555
N8B_4 Cu2_2 1_555 1_555
N8_2 Cu2A_2 1_555 1_555
N8O_4 Cu2_3 1_555 1_555
N8_3 Cu2A_3 1_555 1_555
N8Q_3 Cu2B_2 1_555 1_555
N8A_4 Cu2B_3 1_555 1_555
N8Q_4 Cu2B_3 1_555 1_555
N8_4 Cu2A_4 1_555 1_555
N8P_4 Cu2A_4 1_555 1_555
C1Q N2Q 1_555 1_555
C1A N2A 1_555 1_555
C1O N2O 1_555 1_555
C1P H1P 1_555 1_555
C1B N2B 1_555 1_555
C1B_2 H1B_2 1_555 1_555
C1P_2 N2P_2 1_555 1_555
C1O_2 H1O_2 1_555 1_555
C1A_2 N2A_2 1_555 1_555
C1P_3 H1P_3 1_555 1_555
C1B_3 N2B_3 1_555 1_555
C1A_3 H1A_3 1_555 1_555
C1O_3 N2O_3 1_555 1_555
C1_2 H1_2 1_555 1_555
C1Q_2 N2Q_2 1_555 1_555
C1_3 H1_3 1_555 1_555
C1Q_3 N2Q_3 1_555 1_555
C1A_4 H1A_4 1_555 1_555
C1O_4 N2O_4 1_555 1_555
C1B_4 H1B_4 1_555 1_555
C1P_4 N2P_4 1_555 1_555
C1_4 H1_4 1_555 1_555
C1Q_4 N2Q_4 1_555 1_555
H1Q C1Q 1_555 1_555
H1A C1A 1_555 1_555
H1O C1O 1_555 1_555
H1B C1B 1_555 1_555
H1P_2 C1P_2 1_555 1_555
H1A_2 C1A_2 1_555 1_555
H1B_3 C1B_3 1_555 1_555
H1O_3 C1O_3 1_555 1_555
H1Q_2 C1Q_2 1_555 1_555
H1Q_3 C1Q_3 1_555 1_555
H1O_4 C1O_4 1_555 1_555
H1P_4 C1P_4 1_555 1_555
H1Q_4 C1Q_4 1_555 1_555
C2Q C1Q 1_555 1_555
C2A C1A 1_555 1_555
C2O C1O 1_555 1_555
C2P C1P 1_555 1_555
C2B C1B 1_555 1_555
C2B_2 C1B_2 1_555 1_555
C2P_2 C1P_2 1_555 1_555
C2O_2 C1O_2 1_555 1_555
C2A_2 C1A_2 1_555 1_555
C2P_3 C1P_3 1_555 1_555
C2B_3 C1B_3 1_555 1_555
C2A_3 C1A_3 1_555 1_555
C2O_3 C1O_3 1_555 1_555
C2_2 C1_2 1_555 1_555
C2Q_2 C1Q_2 1_555 1_555
C2_3 C1_3 1_555 1_555
C2Q_3 C1Q_3 1_555 1_555
C2A_4 C1A_4 1_555 1_555
C2O_4 C1O_4 1_555 1_555
C2B_4 C1B_4 1_555 1_555
C2P_4 C1P_4 1_555 1_555
C2_4 C1_4 1_555 1_555
C2Q_4 C1Q_4 1_555 1_555
H2Q C2Q 1_555 1_555
H2A C2A 1_555 1_555
H2O C2O 1_555 1_555
H2P C2P 1_555 1_555
H2B C2B 1_555 1_555
H2B_2 C2B_2 1_555 1_555
H2P_2 C2P_2 1_555 1_555
H2O_2 C2O_2 1_555 1_555
H2A_2 C2A_2 1_555 1_555
H2P_3 C2P_3 1_555 1_555
H2B_3 C2B_3 1_555 1_555
H2A_3 C2A_3 1_555 1_555
H2O_3 C2O_3 1_555 1_555
C3Q N1Q 1_555 1_555
C3A C2A 1_555 1_555
C3O N1O 1_555 1_555
C3P C2P 1_555 1_555
C3B N1B 1_555 1_555
C3B_2 C2B_2 1_555 1_555
C3P_2 N1P_2 1_555 1_555
C3O_2 C2O_2 1_555 1_555
C3A_2 N1A_2 1_555 1_555
C3P_3 C2P_3 1_555 1_555
C3B_3 N1B_3 1_555 1_555
C3A_3 C2A_3 1_555 1_555
C3O_3 N1O_3 1_555 1_555
H3Q C3Q 1_555 1_555
H3A C3A 1_555 1_555
H3O C3O 1_555 1_555
H3P C3P 1_555 1_555
H3B C3B 1_555 1_555
H3B_2 C3B_2 1_555 1_555
H3P_2 C3P_2 1_555 1_555
H3O_2 C3O_2 1_555 1_555
H3A_2 C3A_2 1_555 1_555
H3P_3 C3P_3 1_555 1_555
H3B_3 C3B_3 1_555 1_555
H3A_3 C3A_3 1_555 1_555
H3O_3 C3O_3 1_555 1_555
C4Q C4 1_555 1_555
C4A N1A 1_555 1_555
C4O N1O 1_555 1_555
C4P N1P 1_555 1_555
C4B N1B 1_555 1_555
C4B_2 N1B_2 1_555 1_555
C4P_2 N1P_2 1_555 1_555
C4O_2 N1O_2 1_555 1_555
C4A_2 N1A_2 1_555 1_555
C4P_3 N1P_3 1_555 1_555
C4B_3 N1B_3 1_555 1_555
C4A_3 N1A_3 1_555 1_555
C4O_3 N1O_3 1_555 1_555
C4_2 N2_2 1_555 1_555
C4Q_2 N2Q_2 1_555 1_555
C4_3 N2_3 1_555 1_555
C4Q_3 N2Q_3 1_555 1_555
C4A_4 N2A_4 1_555 1_555
C4O_4 N2O_4 1_555 1_555
C4B_4 N2B_4 1_555 1_555
C4P_4 N2P_4 1_555 1_555
C4_4 N2_4 1_555 1_555
C4Q_4 N2Q_4 1_555 1_555
C5Q N3Q 1_555 1_555
C5B N3B 1_555 1_555
C5O N3O 1_555 1_555
C5P N3P 1_555 1_555
C5A N3A 1_555 1_555
C5A_2 N3A_2 1_555 1_555
C5O_2 N3O_2 1_555 1_555
C5P_2 N3P_2 1_555 1_555
C5B_2 N3B_2 1_555 1_555
C5P_3 N3P_3 1_555 1_555
C5A_3 N3A_3 1_555 1_555
C5B_3 N3B_3 1_555 1_555
C5O_3 N3O_3 1_555 1_555
H4Q C5Q 1_555 1_555
H4B C5B 1_555 1_555
H4O C5O 1_555 1_555
H4P C5P 1_555 1_555
H4A C5A 1_555 1_555
H4A_2 C5A_2 1_555 1_555
H4O_2 C5O_2 1_555 1_555
H4P_2 C5P_2 1_555 1_555
H4B_2 C5B_2 1_555 1_555
H4P_3 C5P_3 1_555 1_555
H4A_3 C5A_3 1_555 1_555
H4B_3 C5B_3 1_555 1_555
H4O_3 C5O_3 1_555 1_555
C6Q N8Q 1_555 1_555
C6B N8B 1_555 1_555
C6O N8O 1_555 1_555
C6P N8P 1_555 1_555
C6A N8A 1_555 1_555
C6A_2 N8A_2 1_555 1_555
C6O_2 N8O_2 1_555 1_555
C6P_2 N8P_2 1_555 1_555
C6B_2 N8B_2 1_555 1_555
C6P_3 N8P_3 1_555 1_555
C6A_3 N8A_3 1_555 1_555
C6B_3 N8B_3 1_555 1_555
C6O_3 N8O_3 1_555 1_555
C6Q_2 N8Q_2 1_555 1_555
C6B_4 N8B_4 1_555 1_555
C6_2 N8_2 1_555 1_555
C6O_4 N8O_4 1_555 1_555
C6_3 N8_3 1_555 1_555
C6Q_3 N8Q_3 1_555 1_555
C6A_4 N8A_4 1_555 1_555
C6Q_4 N8Q_4 1_555 1_555
C6_4 N8_4 1_555 1_555
C6P_4 N8P_4 1_555 1_555
H5Q C6Q 1_555 1_555
H5B C6B 1_555 1_555
H5O C6O 1_555 1_555
H5P C6P 1_555 1_555
H5A C6A 1_555 1_555
H5A_2 C6A_2 1_555 1_555
H5O_2 C6O_2 1_555 1_555
H5P_2 C6P_2 1_555 1_555
H5B_2 C6B_2 1_555 1_555
H5P_3 C6P_3 1_555 1_555
H5A_3 C6A_3 1_555 1_555
H5B_3 C6B_3 1_555 1_555
H5O_3 C6O_3 1_555 1_555
H5Q_2 C6Q_2 1_555 1_555
H5B_4 C6B_4 1_555 1_555
H5_2 C6_2 1_555 1_555
H5O_4 C6O_4 1_555 1_555
H5_3 C6_3 1_555 1_555
H5Q_3 C6Q_3 1_555 1_555
H5A_4 C6A_4 1_555 1_555
H5Q_4 C6Q_4 1_555 1_555
C7Q N3Q 1_555 1_555
C7B N3B 1_555 1_555
C7O N3O 1_555 1_555
C7P N3P 1_555 1_555
C7A N3A 1_555 1_555
C7A_2 N3A_2 1_555 1_555
C7O_2 N3O_2 1_555 1_555
C7P_2 N3P_2 1_555 1_555
C7B_2 N3B_2 1_555 1_555
C7P_3 N3P_3 1_555 1_555
C7A_3 N3A_3 1_555 1_555
C7B_3 N3B_3 1_555 1_555
C7O_3 N3O_3 1_555 1_555
C7Q_2 N8Q_2 1_555 1_555
C7B_4 N8B_4 1_555 1_555
C7_2 N8_2 1_555 1_555
C7O_4 N8O_4 1_555 1_555
C7_3 N8_3 1_555 1_555
C7Q_3 N8Q_3 1_555 1_555
C7A_4 N8A_4 1_555 1_555
C7Q_4 N8Q_4 1_555 1_555
C7_4 N8_4 1_555 1_555
C7P_4 N8P_4 1_555 1_555
C8Q N4Q 1_555 1_555
C8B N4B 1_555 1_555
C8O N4O 1_555 1_555
C8P N4P 1_555 1_555
C8A N4A 1_555 1_555
C8A_2 N4A_2 1_555 1_555
C8O_2 N4O_2 1_555 1_555
C8P_2 N4P_2 1_555 1_555
C8B_2 N4B_2 1_555 1_555
C8P_3 N4P_3 1_555 1_555
C8A_3 N4A_3 1_555 1_555
C8B_3 N4B_3 1_555 1_555
C8O_3 N4O_3 1_555 1_555
C8Q_2 N7Q_2 1_555 1_555
C8B_4 N7B_4 1_555 1_555
C8_2 N7_2 1_555 1_555
C8O_4 N7O_4 1_555 1_555
C8_3 N7_3 1_555 1_555
C8Q_3 N7Q_3 1_555 1_555
C8A_4 N7A_4 1_555 1_555
C8Q_4 N7Q_4 1_555 1_555
C8_4 N7_4 1_555 1_555
C8P_4 N7P_4 1_555 1_555
C9Q C5Q 1_555 1_555
C9B C5B 1_555 1_555
C9O C5O 1_555 1_555
C9P C5P 1_555 1_555
C9A C5A 1_555 1_555
C9A_2 C5A_2 1_555 1_555
C9O_2 C5O_2 1_555 1_555
C9P_2 C5P_2 1_555 1_555
C9B_2 C5B_2 1_555 1_555
C9P_3 C5P_3 1_555 1_555
C9A_3 C5A_3 1_555 1_555
C9B_3 C5B_3 1_555 1_555
C9O_3 C5O_3 1_555 1_555
C9Q_2 C6Q_2 1_555 1_555
C9B_4 C6B_4 1_555 1_555
C9_2 C6_2 1_555 1_555
C9O_4 C6O_4 1_555 1_555
C9_3 C6_3 1_555 1_555
C9Q_3 C6Q_3 1_555 1_555
C9A_4 C6A_4 1_555 1_555
C9Q_4 C6Q_4 1_555 1_555
H6Q C9Q 1_555 1_555
H6B C9B 1_555 1_555
H6O C9O 1_555 1_555
H6P C9P 1_555 1_555
H6A C9A 1_555 1_555
H6A_2 C9A_2 1_555 1_555
H6O_2 C9O_2 1_555 1_555
H6P_2 C9P_2 1_555 1_555
H6B_2 C9B_2 1_555 1_555
H6P_3 C9P_3 1_555 1_555
H6A_3 C9A_3 1_555 1_555
H6B_3 C9B_3 1_555 1_555
H6O_3 C9O_3 1_555 1_555
N2 C4 1_555 1_555
N7 C8 1_555 1_555
N8 C7 1_555 1_555
N8 Cu2A 1_555 1_555
C6 C9 1_555 1_555
C7 C8 1_555 1_555
N1Q C4Q 1_555 1_555
N2Q C4Q 1_555 1_555
N2A C4A 1_555 1_555
N2O C4O 1_555 1_555
N2P C4P 1_555 1_555
N2B C4B 1_555 1_555
N2B_2 C4B_2 1_555 1_555
N2P_2 C4P_2 1_555 1_555
N2O_2 C4O_2 1_555 1_555
N2A_2 C4A_2 1_555 1_555
N2P_3 C4P_3 1_555 1_555
N2B_3 C4B_3 1_555 1_555
N2A_3 C4A_3 1_555 1_555
N2O_3 C4O_3 1_555 1_555
N6Q N7Q 1_555 1_555
N6B N7B 1_555 1_555
N6O N7O 1_555 1_555
N6P N7P 1_555 1_555
N6A N7A 1_555 1_555
N6A_2 N7A_2 1_555 1_555
N6O_2 N7O_2 1_555 1_555
N6P_2 N7P_2 1_555 1_555
N6B_2 N7B_2 1_555 1_555
N6P_3 N7P_3 1_555 1_555
N6A_3 N7A_3 1_555 1_555
N6B_3 N7B_3 1_555 1_555
N6O_3 N7O_3 1_555 1_555
N7Q C8Q 1_555 1_555
N7B C8B 1_555 1_555
N7O C8O 1_555 1_555
N7P C8P 1_555 1_555
N7A C8A 1_555 1_555
N7A_2 C8A_2 1_555 1_555
N7O_2 C8O_2 1_555 1_555
N7P_2 C8P_2 1_555 1_555
N7B_2 C8B_2 1_555 1_555
N7P_3 C8P_3 1_555 1_555
N7A_3 C8A_3 1_555 1_555
N7B_3 C8B_3 1_555 1_555
N7O_3 C8O_3 1_555 1_555
N8Q C7Q 1_555 1_555
N8B C7B 1_555 1_555
N8O C7O 1_555 1_555
N8P C7P 1_555 1_555
N8A C7A 1_555 1_555
N8A_2 C7A_2 1_555 1_555
N8O_2 C7O_2 1_555 1_555
N8P_2 C7P_2 1_555 1_555
N8B_2 C7B_2 1_555 1_555
N8P_3 C7P_3 1_555 1_555
N8A_3 C7A_3 1_555 1_555
N8B_3 C7B_3 1_555 1_555
N8O_3 C7O_3 1_555 1_555
C2Q C3Q 1_555 1_555
C2O C3O 1_555 1_555
C2B C3B 1_555 1_555
C2P_2 C3P_2 1_555 1_555
C2A_2 C3A_2 1_555 1_555
C2B_3 C3B_3 1_555 1_555
C2O_3 C3O_3 1_555 1_555
C4A C4O 1_555 1_555
C4P C4B 1_555 1_555
C4B_2 C4P_2 1_555 1_555
C4O_2 C4A_2 1_555 1_555
C4P_3 C4B_3 1_555 1_555
C4A_3 C4O_3 1_555 1_555
C4_2 C4Q_2 1_555 1_555
C4_3 C4Q_3 1_555 1_555
C4A_4 C4O_4 1_555 1_555
C4B_4 C4P_4 1_555 1_555
C4_4 C4Q_4 1_555 1_555
C6Q C9Q 1_555 1_555
C6B C9B 1_555 1_555
C6O C9O 1_555 1_555
C6P C9P 1_555 1_555
C6A C9A 1_555 1_555
C6A_2 C9A_2 1_555 1_555
C6O_2 C9O_2 1_555 1_555
C6P_2 C9P_2 1_555 1_555
C6B_2 C9B_2 1_555 1_555
C6P_3 C9P_3 1_555 1_555
C6A_3 C9A_3 1_555 1_555
C6B_3 C9B_3 1_555 1_555
C6O_3 C9O_3 1_555 1_555
C7Q C8Q 1_555 1_555
C7B C8B 1_555 1_555
C7O C8O 1_555 1_555
C7P C8P 1_555 1_555
C7A C8A 1_555 1_555
C7A_2 C8A_2 1_555 1_555
C7O_2 C8O_2 1_555 1_555
C7P_2 C8P_2 1_555 1_555
C7B_2 C8B_2 1_555 1_555
C7P_3 C8P_3 1_555 1_555
C7A_3 C8A_3 1_555 1_555
C7B_3 C8B_3 1_555 1_555
C7O_3 C8O_3 1_555 1_555
C7Q_2 C8Q_2 1_555 1_555
C7B_4 C8B_4 1_555 1_555
C7_2 C8_2 1_555 1_555
C7O_4 C8O_4 1_555 1_555
C7_3 C8_3 1_555 1_555
C7Q_3 C8Q_3 1_555 1_555
C7A_4 C8A_4 1_555 1_555
C7Q_4 C8Q_4 1_555 1_555

#END
