
#######################################################################
#
#                 Cambridge Crystallographic Data Centre
#                                CCDC 
#
#######################################################################
#
# If this CIF has been generated from an entry in the Cambridge 
# Structural Database, then it will include bibliographic, chemical, 
# crystal, experimental, refinement or atomic coordinate data resulting 
# from the CCDC's data processing and validation procedures.
#
#######################################################################

data_HOYQUJ
_chemical_formula_moiety         '(C13 H8 Cu1 N2 O4)n'
_chemical_name_systematic        
'catena-[(\m~5~-5-(pyridin-3-ylamino)isophthalato)-copper unknown solvate]'
_symmetry_cell_setting           monoclinic
_symmetry_space_group_name_H-M   'P 21/c'
_symmetry_Int_Tables_number      14
_space_group_name_Hall           '-P 2ybc'
loop_
_symmetry_equiv_pos_site_id
_symmetry_equiv_pos_as_xyz
1 x,y,z
2 -x,1/2+y,1/2-z
3 -x,-y,-z
4 x,1/2-y,1/2+z
_cell_length_a                   12.5824(6)
_cell_length_b                   11.7081(7)
_cell_length_c                   14.7356(7)
_cell_angle_alpha                90
_cell_angle_beta                 114.996(3)
_cell_angle_gamma                90
_cell_volume                     1967.47
_exptl_crystal_colour            blue
_cell_formula_units_Z            4
loop_
_atom_site_label
_atom_site_type_symbol
_atom_site_fract_x
_atom_site_fract_y
_atom_site_fract_z
Cu1 Cu 0.08883(4) 0.07320(4) 0.03959(4)
O1 O 0.8416(2) 0.4559(2) 0.3575(2)
O2 O 0.8511(2) 0.0127(2) 0.0431(2)
O3 O 0.9940(2) 0.3360(2) 0.4216(2)
O4 O 1.0004(2) 0.1345(2) 0.1112(2)
N1 N 0.2407(3) 0.1839(3) 0.0981(2)
N2 N 0.5455(3) 0.1356(3) 0.1492(3)
H1 H 0.5341 0.0621 0.1364
C1 C 0.3428(3) 0.1361(3) 0.1132(3)
H2 H 0.3446 0.0559 0.1043
C2 C 0.4480(3) 0.1971(4) 0.1413(3)
C3 C 0.4427(3) 0.3146(4) 0.1540(3)
H3 H 0.5108 0.3605 0.1718
C4 C 0.3372(4) 0.3637(4) 0.1406(4)
H4 H 0.3327 0.4435 0.1503
C5 C 0.2379(3) 0.2964(3) 0.1130(3)
H5 H 0.1659 0.3310 0.1043
C6 C 0.6596(3) 0.1746(4) 0.1750(3)
C7 C 0.7222(3) 0.1230(3) 0.1263(3)
H6 H 0.6844 0.0687 0.0748
C8 C 0.7158(3) 0.2563(4) 0.2489(3)
H7 H 0.6740 0.2944 0.2806
C9 C 0.8330(3) 0.2814(3) 0.2758(3)
C10 C 0.8958(3) 0.2294(3) 0.2284(3)
H8 H 0.9760 0.2475 0.2474
C11 C 0.8384(3) 0.1507(3) 0.1530(3)
C12 C 0.9019(3) 0.0949(3) 0.0981(3)
C13 C 0.8944(3) 0.3645(3) 0.3583(3)
Cu1_2 Cu 1.08883(4) 0.07320(4) 0.03959(4)
Cu1A Cu 0.91117(4) 0.57320(4) 0.46041(4)
Cu1B Cu -0.08883(4) -0.07320(4) -0.03959(4)
Cu1B_2 Cu 0.91117(4) -0.07320(4) -0.03959(4)
Cu1C Cu 1.08883(4) 0.42680(4) 0.53959(4)
O1A O 0.1584(2) -0.0441(2) 0.1425(2)
O2B O 0.1489(2) -0.0127(2) -0.0431(2)
O3C O -0.0060(2) 0.1640(2) -0.0784(2)
O4_2 O 0.0004(2) 0.1345(2) 0.1112(2)
loop_
_geom_bond_atom_site_label_1
_geom_bond_atom_site_label_2
_geom_bond_site_symmetry_1
_geom_bond_site_symmetry_2
Cu1 N1 1_555 1_555
O1 C13 1_555 1_555
O2 C12 1_555 1_555
O3 C13 1_555 1_555
O4 C12 1_555 1_555
N1 C1 1_555 1_555
N2 H1 1_555 1_555
C1 H2 1_555 1_555
C2 N2 1_555 1_555
C3 C2 1_555 1_555
H3 C3 1_555 1_555
C4 C3 1_555 1_555
H4 C4 1_555 1_555
C5 N1 1_555 1_555
H5 C5 1_555 1_555
C6 N2 1_555 1_555
C7 C6 1_555 1_555
H6 C7 1_555 1_555
C8 C6 1_555 1_555
H7 C8 1_555 1_555
C9 C8 1_555 1_555
C10 C9 1_555 1_555
H8 C10 1_555 1_555
C11 C7 1_555 1_555
C12 C11 1_555 1_555
C13 C9 1_555 1_555
Cu1_2 O4 1_555 1_555
Cu1A O1 1_555 1_555
Cu1B Cu1 1_555 1_555
Cu1B_2 O2 1_555 1_555
Cu1C O3 1_555 1_555
O1A Cu1 1_555 1_555
O2B Cu1 1_555 1_555
O3C Cu1 1_555 1_555
O4_2 Cu1 1_555 1_555
C1 C2 1_555 1_555
C4 C5 1_555 1_555
C10 C11 1_555 1_555
Cu1_2 Cu1B_2 1_555 1_555
Cu1A Cu1C 1_555 1_555

#END
