
#######################################################################
#
#                 Cambridge Crystallographic Data Centre
#                                CCDC 
#
#######################################################################
#
# If this CIF has been generated from an entry in the Cambridge 
# Structural Database, then it will include bibliographic, chemical, 
# crystal, experimental, refinement or atomic coordinate data resulting 
# from the CCDC's data processing and validation procedures.
#
#######################################################################

data_GUVBOQ
_chemical_formula_moiety         '(C162 H92 O56 Zn9 2-)n,6n(H2 O1),2n(H3 O1 1+)'
_chemical_name_systematic        
'catena-[bis(oxonium) bis(\m-hydroxo)-hexakis(\m-1,3,5-tris(4-carboxylato-3-hydroxyphenyl)benzene)-nona-zinc hexahydrate]'
_symmetry_cell_setting           cubic
_symmetry_space_group_name_H-M   'P 41 3 2'
_symmetry_Int_Tables_number      213
_space_group_name_Hall           'P 4bd 2ab 3'
loop_
_symmetry_equiv_pos_site_id
_symmetry_equiv_pos_as_xyz
1 x,y,z
2 1/2-x,-y,1/2+z
3 -x,1/2+y,1/2-z
4 1/2+x,1/2-y,-z
5 z,x,y
6 1/2+z,1/2-x,-y
7 1/2-z,-x,1/2+y
8 -z,1/2+x,1/2-y
9 y,z,x
10 -y,1/2+z,1/2-x
11 1/2+y,1/2-z,-x
12 1/2-y,-z,1/2+x
13 3/4+y,1/4+x,1/4-z
14 3/4-y,3/4-x,3/4-z
15 1/4+y,1/4-x,3/4+z
16 1/4-y,3/4+x,1/4+z
17 3/4+x,1/4+z,1/4-y
18 1/4-x,3/4+z,1/4+y
19 3/4-x,3/4-z,3/4-y
20 1/4+x,1/4-z,3/4+y
21 3/4+z,1/4+y,1/4-x
22 1/4+z,1/4-y,3/4+x
23 1/4-z,3/4+y,1/4+x
24 3/4-z,3/4-y,3/4-x
_cell_length_a                   26.01190(10)
_cell_length_b                   26.01190(10)
_cell_length_c                   26.01190(10)
_cell_angle_alpha                90
_cell_angle_beta                 90
_cell_angle_gamma                90
_cell_volume                     17600.1
_exptl_crystal_colour            colorless
_exptl_crystal_description       block
_cell_formula_units_Z            4
loop_
_atom_site_label
_atom_site_type_symbol
_atom_site_fract_x
_atom_site_fract_y
_atom_site_fract_z
O11 O 0.3050(9) 0.3050(9) 0.3050(9)
Zn1 Zn 0.45548(4) 0.54749(4) 0.54579(4)
Zn2 Zn 0.12428(4) 0.37428(4) 0.1250
C1 C 0.3707(4) 0.6015(4) 0.5086(3)
C2 C 0.3305(4) 0.6154(4) 0.4700(4)
C3 C 0.3177(6) 0.5826(6) 0.4293(5)
C4 C 0.2774(7) 0.5957(7) 0.3964(6)
H1 H 0.2687 0.5731 0.3701
C5 C 0.2502(5) 0.6402(4) 0.4013(4)
C6 C 0.2630(4) 0.6720(4) 0.4423(4)
H2 H 0.2450 0.7025 0.4472
C7 C 0.3018(4) 0.6594(4) 0.4759(4)
C8 C 0.2061(4) 0.6540(4) 0.3674(4)
C9 C 0.1945(4) 0.6213(5) 0.3257(4)
H3 H 0.2151 0.5927 0.3192
C10 C 0.1518(4) 0.6317(4) 0.2938(5)
C11 C 0.1210(5) 0.6736(4) 0.3055(4)
H4 H 0.0922 0.6801 0.2853
C12 C 0.1319(4) 0.7057(5) 0.3460(4)
C13 C 0.1751(4) 0.6951(4) 0.3764(5)
H5 H 0.1829 0.7169 0.4036
C14 C 0.1388(4) 0.5962(4) 0.2505(5)
C15 C 0.1749(4) 0.5603(4) 0.2332(5)
H6 H 0.2072 0.5591 0.2484
C16 C 0.1631(4) 0.5267(4) 0.1939(4)
C17 C 0.1144(4) 0.5275(4) 0.1702(4)
C18 C 0.0783(4) 0.5626(4) 0.1883(4)
C19 C 0.0907(5) 0.5965(4) 0.2282(4)
H7 H 0.0661 0.6197 0.2398
C20 C 0.1005(3) 0.4902(3) 0.1289(4)
C21 C 0.0971(4) 0.7485(4) 0.3599(4)
C22 C 0.0605(4) 0.7663(4) 0.3238(4)
H8 H 0.0594 0.7519 0.2911
C23 C 0.0265(4) 0.8047(4) 0.3365(4)
C24 C 0.0272(3) 0.8268(4) 0.3853(4)
C25 C 0.0633(4) 0.8098(4) 0.4209(4)
C26 C 0.0971(4) 0.7712(4) 0.4090(4)
H9 H 0.1204 0.7598 0.4337
C27 C -0.0098(3) 0.8683(3) 0.3998(3)
O1 O 0.5032(2) 0.5032(2) 0.5032(2)
O2 O 0.3967(2) 0.5602(3) 0.5002(3)
O3 O 0.3781(3) 0.6302(2) 0.5454(2)
O4 O 0.1317(2) 0.4543(2) 0.1209(3)
O5 O 0.0615(2) 0.4982(3) 0.1026(3)
O6 O -0.0459(2) 0.8785(3) 0.3688(2)
O7 O -0.0018(2) 0.8930(2) 0.4401(2)
O8 O 0.3142(9) 0.6950(8) 0.5086(8)
H10 H 0.2979 0.6909 0.5353
O9 O 0.1996(3) 0.4917(4) 0.1820(4)
H11 H 0.1868 0.4688 0.1644
O10 O -0.0076(3) 0.8178(4) 0.2992(3)
H12 H -0.0334 0.8301 0.3124
Zn1D Zn 0.54579(4) 0.45548(4) 0.54749(4)
Zn2D Zn 0.1250 0.12428(4) 0.37428(4)
C1D C 0.5086(3) 0.3707(4) 0.6015(4)
C2D C 0.4700(4) 0.3305(4) 0.6154(4)
C3D C 0.4293(5) 0.3177(6) 0.5826(6)
C4D C 0.3964(6) 0.2774(7) 0.5957(7)
H1D H 0.3701 0.2687 0.5731
C5D C 0.4013(4) 0.2502(5) 0.6402(4)
C6D C 0.4423(4) 0.2630(4) 0.6720(4)
H2D H 0.4472 0.2450 0.7025
C7D C 0.4759(4) 0.3018(4) 0.6594(4)
C8D C 0.3674(4) 0.2061(4) 0.6540(4)
C9D C 0.3257(4) 0.1945(4) 0.6213(5)
H3D H 0.3192 0.2151 0.5927
C10D C 0.2938(5) 0.1518(4) 0.6317(4)
C11D C 0.3055(4) 0.1210(5) 0.6736(4)
H4D H 0.2853 0.0922 0.6801
C12D C 0.3460(4) 0.1319(4) 0.7057(5)
C13D C 0.3764(5) 0.1751(4) 0.6951(4)
H5D H 0.4036 0.1829 0.7169
C14D C 0.2505(5) 0.1388(4) 0.5962(4)
C15D C 0.2332(5) 0.1749(4) 0.5603(4)
H6D H 0.2484 0.2072 0.5591
C16D C 0.1939(4) 0.1631(4) 0.5267(4)
C17D C 0.1702(4) 0.1144(4) 0.5275(4)
C18D C 0.1883(4) 0.0783(4) 0.5626(4)
C19D C 0.2282(4) 0.0907(5) 0.5965(4)
H7D H 0.2398 0.0661 0.6197
C20D C 0.1289(4) 0.1005(3) 0.4902(3)
C21D C 0.3599(4) 0.0971(4) 0.7485(4)
C22D C 0.3238(4) 0.0605(4) 0.7663(4)
H8D H 0.2911 0.0594 0.7519
C23D C 0.3365(4) 0.0265(4) 0.8047(4)
C24D C 0.3853(4) 0.0272(3) 0.8268(4)
C25D C 0.4209(4) 0.0633(4) 0.8098(4)
C26D C 0.4090(4) 0.0971(4) 0.7712(4)
H9D H 0.4337 0.1204 0.7598
C27D C 0.3998(3) -0.0098(3) 0.8683(3)
O2D O 0.5002(3) 0.3967(2) 0.5602(3)
O3D O 0.5454(2) 0.3781(3) 0.6302(2)
O4D O 0.1209(3) 0.1317(2) 0.4543(2)
O5D O 0.1026(3) 0.0615(2) 0.4982(3)
O6D O 0.3688(2) -0.0459(2) 0.8785(3)
O7D O 0.4401(2) -0.0018(2) 0.8930(2)
O8D O 0.5086(8) 0.3142(9) 0.6950(8)
H10D H 0.5353 0.2979 0.6909
O9D O 0.1820(4) 0.1996(3) 0.4917(4)
H11D H 0.1644 0.1868 0.4688
O10D O 0.2992(3) -0.0076(3) 0.8178(4)
H12D H 0.3124 -0.0334 0.8301
Zn1H Zn 0.54749(4) 0.54579(4) 0.45548(4)
C1H C 0.6015(4) 0.5086(3) 0.3707(4)
C2H C 0.6154(4) 0.4700(4) 0.3305(4)
C3H C 0.5826(6) 0.4293(5) 0.3177(6)
C4H C 0.5957(7) 0.3964(6) 0.2774(7)
H1H H 0.5731 0.3701 0.2687
C5H C 0.6402(4) 0.4013(4) 0.2502(5)
C6H C 0.6720(4) 0.4423(4) 0.2630(4)
H2H H 0.7025 0.4472 0.2450
C7H C 0.6594(4) 0.4759(4) 0.3018(4)
C8H C 0.6540(4) 0.3674(4) 0.2061(4)
C9H C 0.6213(5) 0.3257(4) 0.1945(4)
H3H H 0.5927 0.3192 0.2151
C10H C 0.6317(4) 0.2938(5) 0.1518(4)
C11H C 0.6736(4) 0.3055(4) 0.1210(5)
H4H H 0.6801 0.2853 0.0922
C12H C 0.7057(5) 0.3460(4) 0.1319(4)
C13H C 0.6951(4) 0.3764(5) 0.1751(4)
H5H H 0.7169 0.4036 0.1829
C14H C 0.5962(4) 0.2505(5) 0.1388(4)
C15H C 0.5603(4) 0.2332(5) 0.1749(4)
H6H H 0.5591 0.2484 0.2072
C16H C 0.5267(4) 0.1939(4) 0.1631(4)
C17H C 0.5275(4) 0.1702(4) 0.1144(4)
C18H C 0.5626(4) 0.1883(4) 0.0783(4)
C19H C 0.5965(4) 0.2282(4) 0.0907(5)
H7H H 0.6197 0.2398 0.0661
C20H C 0.4902(3) 0.1289(4) 0.1005(3)
C21H C 0.7485(4) 0.3599(4) 0.0971(4)
C22H C 0.7663(4) 0.3238(4) 0.0605(4)
H8H H 0.7519 0.2911 0.0594
C23H C 0.8047(4) 0.3365(4) 0.0265(4)
C24H C 0.8268(4) 0.3853(4) 0.0272(3)
C25H C 0.8098(4) 0.4209(4) 0.0633(4)
C26H C 0.7712(4) 0.4090(4) 0.0971(4)
H9H H 0.7598 0.4337 0.1204
C27H C 0.8683(3) 0.3998(3) -0.0098(3)
O2H O 0.5602(3) 0.5002(3) 0.3967(2)
O3H O 0.6302(2) 0.5454(2) 0.3781(3)
O4H O 0.4543(2) 0.1209(3) 0.1317(2)
O5H O 0.4982(3) 0.1026(3) 0.0615(2)
O6H O 0.8785(3) 0.3688(2) -0.0459(2)
O7H O 0.8930(2) 0.4401(2) -0.0018(2)
O8H O 0.6950(8) 0.5086(8) 0.3142(9)
H10H H 0.6909 0.5353 0.2979
O9H O 0.4917(4) 0.1820(4) 0.1996(3)
H11H H 0.4688 0.1644 0.1868
O10H O 0.8178(4) 0.2992(3) -0.0076(3)
H12H H 0.8301 0.3124 -0.0334
Zn1M Zn 0.20251(4) 0.29452(4) 0.20421(4)
C1M C 0.1485(4) 0.3793(4) 0.2414(3)
C2M C 0.1346(4) 0.4195(4) 0.2800(4)
C3M C 0.1674(6) 0.4323(6) 0.3207(5)
C4M C 0.1543(7) 0.4726(7) 0.3536(6)
H1M H 0.1769 0.4813 0.3799
C5M C 0.1098(4) 0.4998(5) 0.3487(4)
C6M C 0.0780(4) 0.4870(4) 0.3077(4)
H2M H 0.0475 0.5050 0.3028
C7M C 0.0906(4) 0.4482(4) 0.2741(4)
C8M C 0.0960(4) 0.5439(4) 0.3826(4)
C9M C 0.1287(5) 0.5555(4) 0.4243(4)
H3M H 0.1573 0.5349 0.4308
C10M C 0.1183(4) 0.5982(4) 0.4562(5)
C11M C 0.0764(4) 0.6290(5) 0.4445(4)
H4M H 0.0699 0.6578 0.4647
C12M C 0.0443(5) 0.6181(4) 0.4040(4)
C13M C 0.0549(4) 0.5749(4) 0.3736(5)
H5M H 0.0331 0.5671 0.3464
C14M C 0.1538(4) 0.6112(4) 0.4995(5)
C15M C 0.1897(4) 0.5751(4) 0.5168(5)
H6M H 0.1909 0.5428 0.5016
C16M C 0.2233(4) 0.5869(4) 0.5561(4)
C17M C 0.2225(4) 0.6356(4) 0.5798(4)
C18M C 0.1874(4) 0.6717(4) 0.5617(4)
C19M C 0.1535(4) 0.6593(5) 0.5218(4)
H7M H 0.1303 0.6839 0.5102
C20M C 0.2598(3) 0.6495(3) 0.6211(4)
C21M C 0.0015(4) 0.6529(4) 0.3901(4)
C22M C -0.0163(4) 0.6895(4) 0.4262(4)
H8M H -0.0019 0.6906 0.4589
C23M C -0.0547(4) 0.7235(4) 0.4135(4)
C24M C -0.0768(4) 0.7228(3) 0.3647(4)
C25M C -0.0598(4) 0.6867(4) 0.3291(4)
C26M C -0.0212(4) 0.6529(4) 0.3410(4)
H9M H -0.0098 0.6296 0.3163
C27M C -0.1183(3) 0.7598(3) 0.3502(3)
O1M O 0.2468(2) 0.2468(2) 0.2468(2)
O2M O 0.1898(3) 0.3533(2) 0.2498(3)
O3M O 0.1198(2) 0.3719(3) 0.2046(2)
O4M O 0.2957(2) 0.6183(2) 0.6291(3)
O5M O 0.2518(3) 0.6885(2) 0.6474(3)
O6M O -0.1285(3) 0.7959(2) 0.3812(2)
O7M O -0.1430(2) 0.7518(2) 0.3099(2)
O8M O 0.0550(8) 0.4358(9) 0.2414(8)
H10M H 0.0591 0.4521 0.2147
O9M O 0.2583(4) 0.5504(3) 0.5680(4)
H11M H 0.2812 0.5632 0.5856
O10M O -0.0678(4) 0.7576(3) 0.4508(3)
H12M H -0.0801 0.7834 0.4376
Zn1R Zn 0.29452(4) 0.20421(4) 0.20251(4)
Zn2I Zn 0.62572(4) 0.6250 0.37572(4)
C1R C 0.3793(4) 0.2414(3) 0.1485(4)
C2R C 0.4195(4) 0.2800(4) 0.1346(4)
C3R C 0.4323(6) 0.3207(5) 0.1674(6)
C4R C 0.4726(7) 0.3536(6) 0.1543(7)
H1R H 0.4813 0.3799 0.1769
C5R C 0.4998(5) 0.3487(4) 0.1098(4)
C6R C 0.4870(4) 0.3077(4) 0.0780(4)
H2R H 0.5050 0.3028 0.0475
C7R C 0.4482(4) 0.2741(4) 0.0906(4)
C8R C 0.5439(4) 0.3826(4) 0.0960(4)
C9R C 0.5555(4) 0.4243(4) 0.1287(5)
H3R H 0.5349 0.4308 0.1573
C10R C 0.5982(4) 0.4562(5) 0.1183(4)
C11R C 0.6290(5) 0.4445(4) 0.0764(4)
H4R H 0.6578 0.4647 0.0699
C12R C 0.6181(4) 0.4040(4) 0.0443(5)
C13R C 0.5749(4) 0.3736(5) 0.0549(4)
H5R H 0.5671 0.3464 0.0331
C14R C 0.6112(4) 0.4995(5) 0.1538(4)
C15R C 0.5751(4) 0.5168(5) 0.1897(4)
H6R H 0.5428 0.5016 0.1909
C16R C 0.5869(4) 0.5561(4) 0.2233(4)
C17R C 0.6356(4) 0.5798(4) 0.2225(4)
C18R C 0.6717(4) 0.5617(4) 0.1874(4)
C19R C 0.6593(5) 0.5218(4) 0.1535(4)
H7R H 0.6839 0.5102 0.1303
C20R C 0.6495(3) 0.6211(4) 0.2598(3)
C21R C 0.6529(4) 0.3901(4) 0.0015(4)
C22R C 0.6895(4) 0.4262(4) -0.0163(4)
H8R H 0.6906 0.4589 -0.0019
C23R C 0.7235(4) 0.4135(4) -0.0547(4)
C24R C 0.7228(3) 0.3647(4) -0.0768(4)
C25R C 0.6867(4) 0.3291(4) -0.0598(4)
C26R C 0.6529(4) 0.3410(4) -0.0212(4)
H9R H 0.6296 0.3163 -0.0098
C27R C 0.7598(3) 0.3502(3) -0.1183(3)
O2R O 0.3533(2) 0.2498(3) 0.1898(3)
O3R O 0.3719(3) 0.2046(2) 0.1198(2)
O4R O 0.6183(2) 0.6291(3) 0.2957(2)
O5R O 0.6885(2) 0.6474(3) 0.2518(3)
O6R O 0.7959(2) 0.3812(2) -0.1285(3)
O7R O 0.7518(2) 0.3099(2) -0.1430(2)
O8R O 0.4358(9) 0.2414(8) 0.0550(8)
H10R H 0.4521 0.2147 0.0591
O9R O 0.5504(3) 0.5680(4) 0.2583(4)
H11R H 0.5632 0.5856 0.2812
O10R O 0.7576(3) 0.4508(3) -0.0678(4)
H12R H 0.7834 0.4376 -0.0801
Zn1W Zn 0.20421(4) 0.20251(4) 0.29452(4)
C1W C 0.2414(3) 0.1485(4) 0.3793(4)
C2W C 0.2800(4) 0.1346(4) 0.4195(4)
C3W C 0.3207(5) 0.1674(6) 0.4323(6)
C4W C 0.3536(6) 0.1543(7) 0.4726(7)
H1W H 0.3799 0.1769 0.4813
C5W C 0.3487(4) 0.1098(4) 0.4998(5)
C6W C 0.3077(4) 0.0780(4) 0.4870(4)
H2W H 0.3028 0.0475 0.5050
C7W C 0.2741(4) 0.0906(4) 0.4482(4)
C8W C 0.3826(4) 0.0960(4) 0.5439(4)
C9W C 0.4243(4) 0.1287(5) 0.5555(4)
H3W H 0.4308 0.1573 0.5349
C10W C 0.4562(5) 0.1183(4) 0.5982(4)
C11W C 0.4445(4) 0.0764(4) 0.6290(5)
H4W H 0.4647 0.0699 0.6578
C12W C 0.4040(4) 0.0443(5) 0.6181(4)
C13W C 0.3736(5) 0.0549(4) 0.5749(4)
H5W H 0.3464 0.0331 0.5671
C14W C 0.4995(5) 0.1538(4) 0.6112(4)
C15W C 0.5168(5) 0.1897(4) 0.5751(4)
H6W H 0.5016 0.1909 0.5428
C16W C 0.5561(4) 0.2233(4) 0.5869(4)
C17W C 0.5798(4) 0.2225(4) 0.6356(4)
C18W C 0.5617(4) 0.1874(4) 0.6717(4)
C19W C 0.5218(4) 0.1535(4) 0.6593(5)
H7W H 0.5102 0.1303 0.6839
C20W C 0.6211(4) 0.2598(3) 0.6495(3)
C21W C 0.3901(4) 0.0015(4) 0.6529(4)
C22W C 0.4262(4) -0.0163(4) 0.6895(4)
H8W H 0.4589 -0.0019 0.6906
C23W C 0.4135(4) -0.0547(4) 0.7235(4)
C24W C 0.3647(4) -0.0768(4) 0.7228(3)
C25W C 0.3291(4) -0.0598(4) 0.6867(4)
C26W C 0.3410(4) -0.0212(4) 0.6529(4)
H9W H 0.3163 -0.0098 0.6296
C27W C 0.3502(3) -0.1183(3) 0.7598(3)
O2W O 0.2498(3) 0.1898(3) 0.3533(2)
O3W O 0.2046(2) 0.1198(2) 0.3719(3)
O4W O 0.6291(3) 0.2957(2) 0.6183(2)
O5W O 0.6474(3) 0.2518(3) 0.6885(2)
O6W O 0.3812(2) -0.1285(3) 0.7959(2)
O7W O 0.3099(2) -0.1430(2) 0.7518(2)
O8W O 0.2414(8) 0.0550(8) 0.4358(9)
H10W H 0.2147 0.0591 0.4521
O9W O 0.5680(4) 0.2583(4) 0.5504(3)
H11W H 0.5856 0.2812 0.5632
O10W O 0.4508(3) -0.0678(4) 0.7576(3)
H12W H 0.4376 -0.0801 0.7834
Zn1A Zn 0.04452(4) 0.45251(4) 0.04579(4)
Zn1C Zn -0.04452(4) 0.95251(4) 0.45421(4)
Zn1E Zn 0.04579(4) 0.04452(4) 0.45251(4)
Zn1G Zn 0.45421(4) -0.04452(4) 0.95251(4)
Zn1I Zn 0.45251(4) 0.04579(4) 0.04452(4)
Zn1K Zn 0.95251(4) 0.45421(4) -0.04452(4)
Zn1L Zn 0.29749(4) 0.70548(4) 0.70421(4)
Zn1N Zn -0.20251(4) 0.79452(4) 0.29579(4)
Zn1Q Zn 0.79452(4) 0.29579(4) -0.20251(4)
Zn1S Zn 0.70548(4) 0.70421(4) 0.29749(4)
Zn1T Zn 0.29579(4) -0.20251(4) 0.79452(4)
Zn1V Zn 0.70421(4) 0.29749(4) 0.70548(4)
Zn2A Zn 0.37572(4) 0.62572(4) 0.6250
Zn2B Zn -0.12428(4) 0.87428(4) 0.3750
Zn2E Zn 0.6250 0.37572(4) 0.62572(4)
Zn2F Zn 0.3750 -0.12428(4) 0.87428(4)
Zn2H Zn 0.37428(4) 0.1250 0.12428(4)
Zn2J Zn 0.87428(4) 0.3750 -0.12428(4)
O3A O 0.1219(3) 0.3698(2) 0.0454(2)
O3E O 0.0454(2) 0.1219(3) 0.3698(2)
O3S O 0.6281(3) 0.7046(2) 0.3802(2)
O4I O 0.5457(2) 0.6209(3) 0.3683(2)
O4L O 0.2043(2) 0.3817(2) 0.1291(3)
O4V O 0.1291(3) 0.2043(2) 0.3817(2)
O5A O 0.4385(2) 0.5018(3) 0.6026(3)
O5E O 0.6026(3) 0.4385(2) 0.5018(3)
O5I O 0.5018(3) 0.6026(3) 0.4385(2)
O5L O 0.2482(3) 0.3115(2) 0.1474(3)
O5S O 0.3115(2) 0.1474(3) 0.2482(3)
O5V O 0.1474(3) 0.2482(3) 0.3115(2)
O6B O 0.0459(2) 0.3785(3) 0.1312(2)
O6F O 0.1312(2) 0.0459(2) 0.3785(3)
O6K O 0.6215(3) 0.6312(2) 0.4541(2)
O6N O 0.1285(3) 0.2959(2) 0.1188(2)
O6P O 0.7041(2) 0.6188(2) 0.3715(3)
O6T O 0.1188(2) 0.1285(3) 0.2959(2)
O7C O 0.4982(2) 0.6070(2) 0.5599(2)
O7G O 0.5599(2) 0.4982(2) 0.6070(2)
O7K O 0.6070(2) 0.5599(2) 0.4982(2)
O7N O 0.1430(2) 0.2518(2) 0.1901(2)
O7Q O 0.2518(2) 0.1901(2) 0.1430(2)
O7T O 0.1901(2) 0.1430(2) 0.2518(2)
O12? O 0.037(3) 0.561(3) 0.181(3)
O13? O 0.0625(15) 0.8268(15) 0.4688(15)
H13? H 0.0431 0.8088 0.4860
O14? O 0.3510(7) 0.5472(7) 0.4143(7)
H14? H 0.3508 0.5232 0.4347
loop_
_geom_bond_atom_site_label_1
_geom_bond_atom_site_label_2
_geom_bond_site_symmetry_1
_geom_bond_site_symmetry_2
Zn1 O1 1_555 1_555
Zn2 O4 1_555 1_555
C1 C2 1_555 1_555
C2 C3 1_555 1_555
C3 C4 1_555 1_555
C4 H1 1_555 1_555
C5 C4 1_555 1_555
C6 C5 1_555 1_555
H2 C6 1_555 1_555
C7 C2 1_555 1_555
C8 C5 1_555 1_555
C9 C8 1_555 1_555
H3 C9 1_555 1_555
C10 C9 1_555 1_555
C11 C10 1_555 1_555
H4 C11 1_555 1_555
C12 C11 1_555 1_555
C13 C8 1_555 1_555
H5 C13 1_555 1_555
C14 C10 1_555 1_555
C15 C14 1_555 1_555
H6 C15 1_555 1_555
C16 C15 1_555 1_555
C17 C16 1_555 1_555
C18 C17 1_555 1_555
C19 C14 1_555 1_555
H7 C19 1_555 1_555
C20 C17 1_555 1_555
C21 C12 1_555 1_555
C22 C21 1_555 1_555
H8 C22 1_555 1_555
C23 C22 1_555 1_555
C24 C23 1_555 1_555
C25 C24 1_555 1_555
C26 C21 1_555 1_555
H9 C26 1_555 1_555
C27 C24 1_555 1_555
O1 Zn1D 1_555 1_555
O2 Zn1 1_555 1_555
O3 C1 1_555 1_555
O4 C20 1_555 1_555
O5 C20 1_555 1_555
O6 C27 1_555 1_555
O7 C27 1_555 1_555
O8 C7 1_555 1_555
H10 O8 1_555 1_555
O9 C16 1_555 1_555
H11 O9 1_555 1_555
O10 C23 1_555 1_555
H12 O10 1_555 1_555
Zn1D O2D 1_555 1_555
Zn2D O4D 1_555 1_555
C1D C2D 1_555 1_555
C2D C3D 1_555 1_555
C3D C4D 1_555 1_555
C4D H1D 1_555 1_555
C5D C4D 1_555 1_555
C6D C5D 1_555 1_555
H2D C6D 1_555 1_555
C7D C2D 1_555 1_555
C8D C5D 1_555 1_555
C9D C8D 1_555 1_555
H3D C9D 1_555 1_555
C10D C9D 1_555 1_555
C11D C10D 1_555 1_555
H4D C11D 1_555 1_555
C12D C11D 1_555 1_555
C13D C8D 1_555 1_555
H5D C13D 1_555 1_555
C14D C10D 1_555 1_555
C15D C14D 1_555 1_555
H6D C15D 1_555 1_555
C16D C15D 1_555 1_555
C17D C16D 1_555 1_555
C18D C17D 1_555 1_555
C19D C14D 1_555 1_555
H7D C19D 1_555 1_555
C20D C17D 1_555 1_555
C21D C12D 1_555 1_555
C22D C21D 1_555 1_555
H8D C22D 1_555 1_555
C23D C22D 1_555 1_555
C24D C23D 1_555 1_555
C25D C24D 1_555 1_555
C26D C21D 1_555 1_555
H9D C26D 1_555 1_555
C27D C24D 1_555 1_555
O2D C1D 1_555 1_555
O3D C1D 1_555 1_555
O4D C20D 1_555 1_555
O5D C20D 1_555 1_555
O6D C27D 1_555 1_555
O7D C27D 1_555 1_555
O8D C7D 1_555 1_555
H10D O8D 1_555 1_555
O9D C16D 1_555 1_555
H11D O9D 1_555 1_555
O10D C23D 1_555 1_555
H12D O10D 1_555 1_555
Zn1H O1 1_555 1_555
C1H C2H 1_555 1_555
C2H C3H 1_555 1_555
C3H C4H 1_555 1_555
C4H H1H 1_555 1_555
C5H C4H 1_555 1_555
C6H C5H 1_555 1_555
H2H C6H 1_555 1_555
C7H C2H 1_555 1_555
C8H C5H 1_555 1_555
C9H C8H 1_555 1_555
H3H C9H 1_555 1_555
C10H C9H 1_555 1_555
C11H C10H 1_555 1_555
H4H C11H 1_555 1_555
C12H C11H 1_555 1_555
C13H C8H 1_555 1_555
H5H C13H 1_555 1_555
C14H C10H 1_555 1_555
C15H C14H 1_555 1_555
H6H C15H 1_555 1_555
C16H C15H 1_555 1_555
C17H C16H 1_555 1_555
C18H C17H 1_555 1_555
C19H C14H 1_555 1_555
H7H C19H 1_555 1_555
C20H C17H 1_555 1_555
C21H C12H 1_555 1_555
C22H C21H 1_555 1_555
H8H C22H 1_555 1_555
C23H C22H 1_555 1_555
C24H C23H 1_555 1_555
C25H C24H 1_555 1_555
C26H C21H 1_555 1_555
H9H C26H 1_555 1_555
C27H C24H 1_555 1_555
O2H Zn1H 1_555 1_555
O3H C1H 1_555 1_555
O4H C20H 1_555 1_555
O5H C20H 1_555 1_555
O6H C27H 1_555 1_555
O7H C27H 1_555 1_555
O8H C7H 1_555 1_555
H10H O8H 1_555 1_555
O9H C16H 1_555 1_555
H11H O9H 1_555 1_555
O10H C23H 1_555 1_555
H12H O10H 1_555 1_555
Zn1M O1M 1_555 1_555
C1M C2M 1_555 1_555
C2M C3M 1_555 1_555
C3M C4M 1_555 1_555
C4M H1M 1_555 1_555
C5M C4M 1_555 1_555
C6M C5M 1_555 1_555
H2M C6M 1_555 1_555
C7M C2M 1_555 1_555
C8M C5M 1_555 1_555
C9M C8M 1_555 1_555
H3M C9M 1_555 1_555
C10M C9M 1_555 1_555
C11M C10M 1_555 1_555
H4M C11M 1_555 1_555
C12M C11M 1_555 1_555
C13M C8M 1_555 1_555
H5M C13M 1_555 1_555
C14M C10M 1_555 1_555
C15M C14M 1_555 1_555
H6M C15M 1_555 1_555
C16M C15M 1_555 1_555
C17M C16M 1_555 1_555
C18M C17M 1_555 1_555
C19M C14M 1_555 1_555
H7M C19M 1_555 1_555
C20M C17M 1_555 1_555
C21M C12M 1_555 1_555
C22M C21M 1_555 1_555
H8M C22M 1_555 1_555
C23M C22M 1_555 1_555
C24M C23M 1_555 1_555
C25M C24M 1_555 1_555
C26M C21M 1_555 1_555
H9M C26M 1_555 1_555
C27M C24M 1_555 1_555
O1M Zn1R 1_555 1_555
O2M Zn1M 1_555 1_555
O3M Zn2 1_555 1_555
O4M C20M 1_555 1_555
O5M C20M 1_555 1_555
O6M C27M 1_555 1_555
O7M C27M 1_555 1_555
O8M C7M 1_555 1_555
H10M O8M 1_555 1_555
O9M C16M 1_555 1_555
H11M O9M 1_555 1_555
O10M C23M 1_555 1_555
H12M O10M 1_555 1_555
Zn1R O2R 1_555 1_555
Zn2I O3H 1_555 1_555
C1R C2R 1_555 1_555
C2R C3R 1_555 1_555
C3R C4R 1_555 1_555
C4R H1R 1_555 1_555
C5R C4R 1_555 1_555
C6R C5R 1_555 1_555
H2R C6R 1_555 1_555
C7R C2R 1_555 1_555
C8R C5R 1_555 1_555
C9R C8R 1_555 1_555
H3R C9R 1_555 1_555
C10R C9R 1_555 1_555
C11R C10R 1_555 1_555
H4R C11R 1_555 1_555
C12R C11R 1_555 1_555
C13R C8R 1_555 1_555
H5R C13R 1_555 1_555
C14R C10R 1_555 1_555
C15R C14R 1_555 1_555
H6R C15R 1_555 1_555
C16R C15R 1_555 1_555
C17R C16R 1_555 1_555
C18R C17R 1_555 1_555
C19R C14R 1_555 1_555
H7R C19R 1_555 1_555
C20R C17R 1_555 1_555
C21R C12R 1_555 1_555
C22R C21R 1_555 1_555
H8R C22R 1_555 1_555
C23R C22R 1_555 1_555
C24R C23R 1_555 1_555
C25R C24R 1_555 1_555
C26R C21R 1_555 1_555
H9R C26R 1_555 1_555
C27R C24R 1_555 1_555
O2R C1R 1_555 1_555
O3R C1R 1_555 1_555
O4R Zn2I 1_555 1_555
O5R C20R 1_555 1_555
O6R C27R 1_555 1_555
O7R C27R 1_555 1_555
O8R C7R 1_555 1_555
H10R O8R 1_555 1_555
O9R C16R 1_555 1_555
H11R O9R 1_555 1_555
O10R C23R 1_555 1_555
H12R O10R 1_555 1_555
Zn1W O1M 1_555 1_555
C1W C2W 1_555 1_555
C2W C3W 1_555 1_555
C3W C4W 1_555 1_555
C4W H1W 1_555 1_555
C5W C4W 1_555 1_555
C6W C5W 1_555 1_555
H2W C6W 1_555 1_555
C7W C2W 1_555 1_555
C8W C5W 1_555 1_555
C9W C8W 1_555 1_555
H3W C9W 1_555 1_555
C10W C9W 1_555 1_555
C11W C10W 1_555 1_555
H4W C11W 1_555 1_555
C12W C11W 1_555 1_555
C13W C8W 1_555 1_555
H5W C13W 1_555 1_555
C14W C10W 1_555 1_555
C15W C14W 1_555 1_555
H6W C15W 1_555 1_555
C16W C15W 1_555 1_555
C17W C16W 1_555 1_555
C18W C17W 1_555 1_555
C19W C14W 1_555 1_555
H7W C19W 1_555 1_555
C20W C17W 1_555 1_555
C21W C12W 1_555 1_555
C22W C21W 1_555 1_555
H8W C22W 1_555 1_555
C23W C22W 1_555 1_555
C24W C23W 1_555 1_555
C25W C24W 1_555 1_555
C26W C21W 1_555 1_555
H9W C26W 1_555 1_555
C27W C24W 1_555 1_555
O2W Zn1W 1_555 1_555
O3W Zn2D 1_555 1_555
O4W C20W 1_555 1_555
O5W C20W 1_555 1_555
O6W C27W 1_555 1_555
O7W C27W 1_555 1_555
O8W C7W 1_555 1_555
H10W O8W 1_555 1_555
O9W C16W 1_555 1_555
H11W O9W 1_555 1_555
O10W C23W 1_555 1_555
H12W O10W 1_555 1_555
Zn1A O5 1_555 1_555
Zn1C O7 1_555 1_555
Zn1E O5D 1_555 1_555
Zn1G O7D 1_555 1_555
Zn1I O5H 1_555 1_555
Zn1K O7H 1_555 1_555
Zn1L O5M 1_555 1_555
Zn1N O7M 1_555 1_555
Zn1Q O7R 1_555 1_555
Zn1S O5R 1_555 1_555
Zn1T O7W 1_555 1_555
Zn1V O5W 1_555 1_555
Zn2A O3 1_555 1_555
Zn2B O6 1_555 1_555
Zn2E O3D 1_555 1_555
Zn2F O6D 1_555 1_555
Zn2H O4H 1_555 1_555
Zn2J O6H 1_555 1_555
O3A Zn2 1_555 1_555
O3E Zn2D 1_555 1_555
O3S Zn2I 1_555 1_555
O4I Zn2I 1_555 1_555
O4L Zn2 1_555 1_555
O4V Zn2D 1_555 1_555
O5A Zn1 1_555 1_555
O5E Zn1D 1_555 1_555
O5I Zn1H 1_555 1_555
O5L Zn1M 1_555 1_555
O5S Zn1R 1_555 1_555
O5V Zn1W 1_555 1_555
O6B Zn2 1_555 1_555
O6F Zn2D 1_555 1_555
O6K Zn2I 1_555 1_555
O6N Zn2 1_555 1_555
O6P Zn2I 1_555 1_555
O6T Zn2D 1_555 1_555
O7C Zn1 1_555 1_555
O7G Zn1D 1_555 1_555
O7K Zn1H 1_555 1_555
O7N Zn1M 1_555 1_555
O7Q Zn1R 1_555 1_555
O7T Zn1W 1_555 1_555
C1 O2 1_555 1_555
C6 C7 1_555 1_555
C12 C13 1_555 1_555
C18 C19 1_555 1_555
C25 C26 1_555 1_555
C6D C7D 1_555 1_555
C12D C13D 1_555 1_555
C18D C19D 1_555 1_555
C25D C26D 1_555 1_555
C1H O2H 1_555 1_555
C6H C7H 1_555 1_555
C12H C13H 1_555 1_555
C18H C19H 1_555 1_555
C25H C26H 1_555 1_555
C1M O2M 1_555 1_555
C1M O3M 1_555 1_555
C6M C7M 1_555 1_555
C12M C13M 1_555 1_555
C18M C19M 1_555 1_555
C25M C26M 1_555 1_555
O4M Zn2A 1_555 1_555
O6M Zn2B 1_555 1_555
C6R C7R 1_555 1_555
C12R C13R 1_555 1_555
C18R C19R 1_555 1_555
C20R O4R 1_555 1_555
C25R C26R 1_555 1_555
O3R Zn2H 1_555 1_555
O6R Zn2J 1_555 1_555
C1W O2W 1_555 1_555
C1W O3W 1_555 1_555
C6W C7W 1_555 1_555
C12W C13W 1_555 1_555
C18W C19W 1_555 1_555
C25W C26W 1_555 1_555
O4W Zn2E 1_555 1_555
O6W Zn2F 1_555 1_555

#END
