
#######################################################################
#
#                 Cambridge Crystallographic Data Centre
#                                CCDC 
#
#######################################################################
#
# If this CIF has been generated from an entry in the Cambridge 
# Structural Database, then it will include bibliographic, chemical, 
# crystal, experimental, refinement or atomic coordinate data resulting 
# from the CCDC's data processing and validation procedures.
#
#######################################################################

data_WOBHOM
_chemical_formula_moiety         '(C12 H11 N1 O9 Zn2)n'
_chemical_name_systematic        
catena-[(\m-2,5-dicarboxylatoanilinium)-(2-oxidopropanoato)-formato-di-zinc]
_symmetry_cell_setting           orthorhombic
_symmetry_space_group_name_H-M   'P 21 21 21'
_symmetry_Int_Tables_number      19
_space_group_name_Hall           'P 2ac 2ab'
loop_
_symmetry_equiv_pos_site_id
_symmetry_equiv_pos_as_xyz
1 x,y,z
2 1/2-x,-y,1/2+z
3 1/2+x,1/2-y,-z
4 -x,1/2+y,1/2-z
_cell_length_a                   10.3349(4)
_cell_length_b                   11.8962(4)
_cell_length_c                   20.2894(8)
_cell_angle_alpha                90
_cell_angle_beta                 90
_cell_angle_gamma                90
_cell_volume                     2494.5
_cell_formula_units_Z            4
loop_
_atom_site_label
_atom_site_type_symbol
_atom_site_fract_x
_atom_site_fract_y
_atom_site_fract_z
_atom_site_U_iso_or_equiv
_atom_site_thermal_displace_type
Zn1 Zn 0.14246(5) 0.67650(5) 0.99072(4) 0.0263 Uani
Zn2 Zn 0.45562(5) 0.58325(5) 0.99026(3) 0.0262 Uani
O1 O 0.1796(5) 0.5980(5) 0.9068(3) 0.0550 Uani
O2 O 0.3848(5) 0.5430(5) 0.9036(2) 0.0513 Uani
O3 O 0.5383(5) 0.4180(4) 0.9927(4) 0.0660 Uani
O4 O 0.1220(5) 0.4547(5) 0.5765(2) 0.0563 Uani
O5 O 0.3325(5) 0.4125(5) 0.5730(2) 0.0487 Uani
O6 O 0.1192(3) 0.8380(3) 1.0078(2) 0.0320 Uani
O7 O 0.3396(4) 0.7316(3) 0.9912(2) 0.0346 Uani
O8 O 0.4587(4) 0.8753(4) 1.0246(3) 0.0493 Uani
C1 C 0.2588(6) 0.5299(7) 0.8057(3) 0.0420 Uani
C2 C 0.2423(7) 0.4735(6) 0.6724(3) 0.0427 Uani
C3 C 0.1485(7) 0.5384(9) 0.7735(4) 0.0597 Uani
C4 C 0.3708(7) 0.4973(8) 0.7716(4) 0.0617 Uani
H1 H 0.4496 0.4948 0.7937 0.0740 Uiso
C5 C 0.1379(7) 0.5082(9) 0.7090(4) 0.0727 Uani
H2 H 0.0570 0.5112 0.6889 0.0870 Uiso
C6 C 0.3656(7) 0.4685(9) 0.7046(4) 0.0697 Uani
H3 H 0.4397 0.4470 0.6818 0.0840 Uiso
C7 C 0.2783(6) 0.5586(7) 0.8779(3) 0.0417 Uani
C8 C 0.3530(5) 0.8285(4) 1.0135(3) 0.0310 Uani
C9 C 0.2299(6) 0.8934(5) 1.0314(4) 0.0377 Uani
H4 H 0.234(7) 0.968(6) 1.011(4) 0.0450 Uiso
C10 C 0.2325(6) 0.4439(6) 0.6025(3) 0.0367 Uani
N1 N 0.0320(12) 0.5755(18) 0.8022(6) 0.1903 Uani
H5 H 0.0418 0.5802 0.8457 0.2850 Uiso
H6 H -0.0309 0.5269 0.7929 0.2850 Uiso
H7 H 0.0116 0.6428 0.7861 0.2850 Uiso
C11 C 0.2240(8) 0.9068(10) 1.1068(5) 0.0737 Uani
H8 H 0.1393 0.9320 1.1194 0.1100 Uiso
H9 H 0.2872 0.9609 1.1207 0.1100 Uiso
H10 H 0.2417 0.8357 1.1274 0.1100 Uiso
C12 C 0.5140(12) 0.3390(8) 1.0176(10) 0.1393 Uani
H11 H 0.4574 0.3482 1.0528 0.1660 Uiso
O9 O 0.5480(15) 0.2350(8) 1.0079(10) 0.1833 Uani
Zn1A Zn 0.35754(5) 0.32350(5) 0.49072(4) 0.0263 Uani
Zn1B Zn 0.64246(5) 0.82350(5) 1.00928(4) 0.0263 Uani
Zn2A Zn 0.04438(5) 0.41675(5) 0.49026(3) 0.0262 Uani
Zn2B Zn -0.04438(5) 0.91675(5) 1.00974(3) 0.0262 Uani
O4A O 0.3780(5) 0.5453(5) 1.0765(2) 0.0563 Uani
O5A O 0.1675(5) 0.5875(5) 1.0730(2) 0.0487 Uani
O6B O 0.6192(3) 0.6620(3) 0.9922(2) 0.0320 Uani
O8B O -0.0413(4) 0.6247(4) 0.9754(3) 0.0493 Uani
loop_
_atom_site_aniso_label
_atom_site_aniso_U_11
_atom_site_aniso_U_22
_atom_site_aniso_U_33
_atom_site_aniso_U_23
_atom_site_aniso_U_13
_atom_site_aniso_U_12
Zn1 0.0166(3) 0.0321(3) 0.0302(3) -0.0025(3) -0.0005(2) 0.0008(2)
Zn2 0.0165(3) 0.0331(3) 0.0289(3) -0.0020(3) 0.0003(2) -0.0018(2)
O1 0.032(3) 0.095(4) 0.038(3) -0.028(3) 0.007(2) -0.011(3)
O2 0.046(3) 0.069(3) 0.039(3) -0.024(2) -0.011(2) 0.014(3)
O3 0.056(3) 0.040(3) 0.102(5) 0.014(3) 0.000(4) 0.002(2)
O4 0.049(3) 0.083(4) 0.037(3) -0.024(2) -0.012(2) 0.022(3)
O5 0.031(2) 0.079(3) 0.036(2) -0.017(2) 0.0031(19) -0.009(3)
O6 0.0153(16) 0.0326(19) 0.048(2) -0.0073(19) -0.0027(17) 0.0005(13)
O7 0.0207(18) 0.0290(18) 0.054(3) -0.0095(19) 0.006(2) 0.0005(14)
O8 0.0159 0.044 0.088 -0.018 -0.004 0.0013
C1 0.033(3) 0.067(5) 0.026(3) -0.014(3) 0.007(3) -0.003(3)
C2 0.034(3) 0.061(5) 0.033(3) -0.012(3) -0.005(3) 0.011(3)
C3 0.036(4) 0.105(7) 0.038(4) -0.020(4) 0.008(3) 0.008(5)
C4 0.035(4) 0.109(7) 0.041(4) -0.016(4) -0.012(3) 0.021(4)
C5 0.028(4) 0.137(9) 0.053(5) -0.040(5) -0.012(4) 0.016(5)
C6 0.028(3) 0.129(8) 0.052(5) -0.041(5) -0.007(3) 0.010(5)
C7 0.034(3) 0.058(4) 0.033(3) -0.014(3) 0.003(3) -0.008(3)
C8 0.016(2) 0.035(3) 0.042(3) -0.004(3) 0.005(2) -0.002(2)
C9 0.019(3) 0.037(3) 0.057(4) -0.015(3) -0.006(3) -0.001(2)
C10 0.038(3) 0.040(3) 0.032(3) -0.009(2) -0.007(3) 0.001(3)
N1 0.110(9) 0.35(2) 0.111(10) -0.119(13) -0.041(8) 0.034(13)
C11 0.034(4) 0.120(8) 0.067(6) -0.053(6) -0.008(4) 0.008(5)
C12 0.089(8) 0.039(5) 0.29(2) 0.010(9) 0.036(12) 0.006(5)
O9 0.185(9) 0.090(5) 0.275(11) 0.034(7) -0.028(8) -0.015(5)
Zn1A 0.0166 0.0321 0.0302 0.0025 0.0005 0.0008
Zn1B 0.0166 0.0321 0.0302 -0.0025 0.0005 -0.0008
Zn2A 0.0165 0.0331 0.0289 0.002 -0.0003 -0.0018
Zn2B 0.0165 0.0331 0.0289 -0.002 -0.0003 0.0018
O4A 0.049 0.083 0.037 0.024 0.012 0.022
O5A 0.031 0.079 0.036 0.017 -0.0031 -0.009
O6B 0.0153 0.0326 0.048 -0.0073 0.0027 -0.0005
O8B 0.0159 0.044 0.088 -0.018 0.004 -0.0013
loop_
_geom_bond_atom_site_label_1
_geom_bond_atom_site_label_2
_geom_bond_site_symmetry_1
_geom_bond_site_symmetry_2
Zn1 O1 1_555 1_555
Zn2 O2 1_555 1_555
O1 C7 1_555 1_555
O2 C7 1_555 1_555
O3 Zn2 1_555 1_555
O4 C10 1_555 1_555
O5 C10 1_555 1_555
O6 Zn1 1_555 1_555
O7 Zn1 1_555 1_555
O8 C8 1_555 1_555
C1 C3 1_555 1_555
C2 C5 1_555 1_555
C3 C5 1_555 1_555
C4 C1 1_555 1_555
H1 C4 1_555 1_555
C5 H2 1_555 1_555
C6 C2 1_555 1_555
H3 C6 1_555 1_555
C7 C1 1_555 1_555
C8 O7 1_555 1_555
C9 O6 1_555 1_555
H4 C9 1_555 1_555
C10 C2 1_555 1_555
N1 C3 1_555 1_555
H5 N1 1_555 1_555
H6 N1 1_555 1_555
H7 N1 1_555 1_555
C11 C9 1_555 1_555
H8 C11 1_555 1_555
H9 C11 1_555 1_555
H10 C11 1_555 1_555
C12 O3 1_555 1_555
H11 C12 1_555 1_555
O9 C12 1_555 1_555
Zn1A O5 1_555 1_555
Zn1B O8 1_555 1_555
Zn2A O4 1_555 1_555
Zn2B O6 1_555 1_555
O4A Zn2 1_555 1_555
O5A Zn1 1_555 1_555
O6B Zn2 1_555 1_555
O8B Zn1 1_555 1_555
Zn2 O7 1_555 1_555
C4 C6 1_555 1_555
C8 C9 1_555 1_555
Zn1B O6B 1_555 1_555

#END
