
#######################################################################
#
#                 Cambridge Crystallographic Data Centre
#                                CCDC 
#
#######################################################################
#
# If this CIF has been generated from an entry in the Cambridge 
# Structural Database, then it will include bibliographic, chemical, 
# crystal, experimental, refinement or atomic coordinate data resulting 
# from the CCDC's data processing and validation procedures.
#
#######################################################################

data_GAZZIS03
_chemical_formula_moiety         '(C40 H22 In1 O8 1-)1.75n,1.75n(C2 H8 N1 1+)'
_chemical_name_systematic        
"catena-(dimethylammonium (\m~4~-biphenyl-3,3',5,5'-tetrakis(4-carboxyphenyl))-tetra-indium)"
_symmetry_cell_setting           monoclinic
_symmetry_space_group_name_H-M   'C 2/c'
_symmetry_Int_Tables_number      15
_space_group_name_Hall           '-C 2yc'
loop_
_symmetry_equiv_pos_site_id
_symmetry_equiv_pos_as_xyz
1 x,y,z
2 -x,y,1/2-z
3 1/2+x,1/2+y,z
4 1/2-x,1/2+y,1/2-z
5 -x,-y,-z
6 x,-y,1/2+z
7 1/2-x,1/2-y,-z
8 1/2+x,1/2-y,1/2+z
_cell_length_a                   19.722(3)
_cell_length_b                   28.524(5)
_cell_length_c                   26.562(5)
_cell_angle_alpha                90
_cell_angle_beta                 96.774(3)
_cell_angle_gamma                90
_cell_volume                     14838.2
_exptl_crystal_colour            colorless
_exptl_crystal_description       tablet
_cell_formula_units_Z            4
loop_
_atom_site_label
_atom_site_type_symbol
_atom_site_fract_x
_atom_site_fract_y
_atom_site_fract_z
In1 In 0.885840(9) 0.256380(7) 0.115180(7)
O1 O -0.01534(10) 0.21768(7) 0.11868(7)
O2 O -0.06473(11) 0.23925(8) 0.04441(8)
O3 O 0.39454(14) 0.23873(9) -0.30492(9)
O4 O 0.28375(15) 0.23089(11) -0.32675(9)
O5 O 0.83171(10) 0.18432(7) 0.11792(8)
O6 O 0.78844(10) 0.24032(7) 0.06784(8)
O7 O 0.34894(11) -0.17077(8) 0.09603(10)
O8 O 0.45816(12) -0.17853(8) 0.11506(11)
C1 C 0.04806(15) 0.20845(10) 0.04803(11)
C2 C 0.05099(18) 0.21310(16) -0.00258(13)
H1 H 0.0118 0.2240 -0.0236
C3 C 0.10954(17) 0.20244(17) -0.02440(14)
H2 H 0.1098 0.2054 -0.0600
C4 C 0.16791(15) 0.18739(11) 0.00580(11)
C5 C 0.16462(17) 0.18316(13) 0.05689(12)
H3 H 0.2040 0.1730 0.0782
C6 C 0.10592(17) 0.19319(13) 0.07835(13)
H4 H 0.1051 0.1897 0.1138
C7 C 0.32644(18) 0.22296(13) -0.23920(12)
C8 C 0.38240(16) 0.22207(12) -0.20231(12)
H5 H 0.4266 0.2289 -0.2112
C9 C 0.37425(16) 0.21130(12) -0.15304(12)
H6 H 0.4132 0.2107 -0.1283
C10 C 0.31029(15) 0.20130(11) -0.13844(11)
C11 C 0.25448(17) 0.20302(14) -0.17581(12)
H7 H 0.2101 0.1968 -0.1670
C12 C 0.26243(17) 0.21354(14) -0.22492(13)
H8 H 0.2235 0.2144 -0.2497
C13 C 0.71826(14) 0.17410(10) 0.07552(12)
C14 C 0.70251(16) 0.13626(12) 0.10458(13)
H9 H 0.7355 0.1247 0.1306
C15 C 0.63903(16) 0.11502(12) 0.09601(14)
H10 H 0.6286 0.0895 0.1168
C16 C 0.59068(15) 0.13044(10) 0.05762(12)
C17 C 0.60888(15) 0.16738(11) 0.02717(12)
H11 H 0.5772 0.1777 -0.0003
C18 C 0.67092(15) 0.18889(11) 0.03595(11)
H12 H 0.6817 0.2141 0.0149
C19 C 0.41701(15) -0.10212(11) 0.09151(12)
C20 C 0.43556(15) -0.00760(11) 0.06851(12)
C21 C 0.3616(3) -0.0706(2) 0.0901(3)
H13 H 0.3180 -0.0817 0.0966
C22 C 0.3705(3) -0.0230(2) 0.0793(2)
H14 H 0.3337 -0.0015 0.0792
C23 C 0.4881(3) -0.0379(2) 0.0712(3)
H15 H 0.5319 -0.0275 0.0644
C24 C 0.4783(3) -0.0842(2) 0.0839(3)
H16 H 0.5168 -0.1045 0.0874
C25 C 0.30229(15) 0.18661(11) -0.08593(11)
C26 C 0.35414(15) 0.16121(11) -0.05792(11)
H17 H 0.3960 0.1561 -0.0715
C27 C 0.34542(15) 0.14343(10) -0.01065(11)
C28 C 0.28396(14) 0.15077(10) 0.00942(11)
H18 H 0.2773 0.1374 0.0412
C29 C 0.23235(15) 0.17756(11) -0.01691(11)
C30 C 0.24228(15) 0.19511(12) -0.06436(11)
H19 H 0.2073 0.2134 -0.0826
C31 C 0.44526(15) 0.04247(10) 0.05478(11)
C32 C 0.39133(15) 0.06957(10) 0.03271(11)
H20 H 0.3465 0.0568 0.0283
C33 C 0.40205(14) 0.11511(11) 0.01700(11)
C34 C 0.46704(14) 0.13424(11) 0.02471(11)
H21 H 0.4743 0.1653 0.0137
C35 C 0.52171(15) 0.10872(11) 0.04828(12)
C36 C 0.51021(15) 0.06280(11) 0.06283(12)
H22 H 0.5473 0.0448 0.0786
C37 C -0.01390(15) 0.22219(10) 0.07133(11)
C38 C 0.3347(2) 0.23159(13) -0.29389(13)
C39 C 0.78359(15) 0.20000(10) 0.08751(11)
C40 C 0.40784(17) -0.15309(11) 0.10173(12)
In1G In 0.385840(9) 0.243620(7) -0.384820(7)
In1_2 In -0.114160(9) 0.256380(7) 0.115180(7)
In1B In 0.385840(9) -0.243620(7) 0.115180(7)
O1_2 O 0.98466(10) 0.21768(7) 0.11868(7)
O2_2 O 0.93527(11) 0.23925(8) 0.04441(8)
O3G O 0.89454(14) 0.26127(9) 0.19508(9)
O7B O 0.84894(11) 0.32923(8) 0.09603(10)
O8B O 0.95816(12) 0.32147(8) 0.11506(11)
C37_2 C 0.98610(15) 0.22219(10) 0.07133(11)
C40B C 0.90784(17) 0.34691(11) 0.10173(12)
N1 N -0.30503(19) 0.31668(13) 0.09310(14)
H23 H -0.2934 0.3417 0.1142
H24 H -0.2685 0.2964 0.0957
C41 C -0.3184(3) 0.33341(18) 0.04099(18)
H25 H -0.2778 0.3495 0.0316
H26 H -0.3570 0.3552 0.0381
H27 H -0.3293 0.3067 0.0182
C42 C -0.3653(4) 0.2924(3) 0.1099(3)
H28 H -0.3535 0.2804 0.1444
H29 H -0.3786 0.2662 0.0869
H30 H -0.4034 0.3145 0.1094
C43? C -0.6311(4) -0.0795(3) 0.0593(3)
C44? C -0.6211(4) -0.0333(2) 0.0468(3)
C45? C -0.5120(4) -0.0344(3) 0.0968(4)
C46? C -0.5208(4) -0.0805(3) 0.1112(3)
H31? H -0.6713 -0.0955 0.0455
H32? H -0.6537 -0.0184 0.0229
H33? H -0.4690 -0.0199 0.1063
H34? H -0.4870 -0.0968 0.1329
loop_
_geom_bond_atom_site_label_1
_geom_bond_atom_site_label_2
_geom_bond_site_symmetry_1
_geom_bond_site_symmetry_2
In1 O5 1_555 1_555
O1 C37 1_555 1_555
O2 C37 1_555 1_555
O3 C38 1_555 1_555
O4 C38 1_555 1_555
O5 C39 1_555 1_555
O6 In1 1_555 1_555
O7 C40 1_555 1_555
O8 C40 1_555 1_555
C1 C2 1_555 1_555
C2 H1 1_555 1_555
C3 C2 1_555 1_555
H2 C3 1_555 1_555
C4 C3 1_555 1_555
C5 C4 1_555 1_555
H3 C5 1_555 1_555
C6 C1 1_555 1_555
H4 C6 1_555 1_555
C7 C8 1_555 1_555
C8 H5 1_555 1_555
C9 C8 1_555 1_555
H6 C9 1_555 1_555
C10 C9 1_555 1_555
C11 C10 1_555 1_555
H7 C11 1_555 1_555
C12 C7 1_555 1_555
H8 C12 1_555 1_555
C13 C14 1_555 1_555
C14 H9 1_555 1_555
C15 C14 1_555 1_555
H10 C15 1_555 1_555
C16 C15 1_555 1_555
C17 C16 1_555 1_555
H11 C17 1_555 1_555
C18 C13 1_555 1_555
H12 C18 1_555 1_555
C19 C21 1_555 1_555
C20 C22 1_555 1_555
C21 H13 1_555 1_555
C22 C21 1_555 1_555
H14 C22 1_555 1_555
C23 C20 1_555 1_555
H15 C23 1_555 1_555
C24 C19 1_555 1_555
H16 C24 1_555 1_555
C25 C10 1_555 1_555
C26 C25 1_555 1_555
H17 C26 1_555 1_555
C27 C26 1_555 1_555
C28 C27 1_555 1_555
H18 C28 1_555 1_555
C29 C4 1_555 1_555
C30 C25 1_555 1_555
H19 C30 1_555 1_555
C31 C20 1_555 1_555
C32 C31 1_555 1_555
H20 C32 1_555 1_555
C33 C27 1_555 1_555
C34 C33 1_555 1_555
H21 C34 1_555 1_555
C35 C16 1_555 1_555
C36 C31 1_555 1_555
H22 C36 1_555 1_555
C37 C1 1_555 1_555
C38 C7 1_555 1_555
C39 O6 1_555 1_555
C40 C19 1_555 1_555
N1 H23 1_555 1_555
H24 N1 1_555 1_555
C41 N1 1_555 1_555
H25 C41 1_555 1_555
H26 C41 1_555 1_555
H27 C41 1_555 1_555
C42 N1 1_555 1_555
H28 C42 1_555 1_555
H29 C42 1_555 1_555
H30 C42 1_555 1_555
In1G O3 1_555 1_555
In1_2 O1 1_555 1_555
In1B O7 1_555 1_555
O1_2 In1 1_555 1_555
O2_2 In1 1_555 1_555
O3G In1 1_555 1_555
O7B In1 1_555 1_555
O8B In1 1_555 1_555
C37_2 O1_2 1_555 1_555
C40B O7B 1_555 1_555
O2 In1_2 1_555 1_555
O8 In1B 1_555 1_555
C5 C6 1_555 1_555
C11 C12 1_555 1_555
C13 C39 1_555 1_555
C17 C18 1_555 1_555
C23 C24 1_555 1_555
C28 C29 1_555 1_555
C29 C30 1_555 1_555
C32 C33 1_555 1_555
C34 C35 1_555 1_555
C35 C36 1_555 1_555
O2_2 C37_2 1_555 1_555
O8B C40B 1_555 1_555

#END
