
#######################################################################
#
#                 Cambridge Crystallographic Data Centre
#                                CCDC 
#
#######################################################################
#
# If this CIF has been generated from an entry in the Cambridge 
# Structural Database, then it will include bibliographic, chemical, 
# crystal, experimental, refinement or atomic coordinate data resulting 
# from the CCDC's data processing and validation procedures.
#
#######################################################################

data_LOQLEJ
_chemical_name_common            'MIL-68 (In)'
_chemical_formula_moiety         '(C24 H15 In3 O15)n,0.5n(C3 H7 N1 O1)'
_chemical_name_systematic        
'catena-(tris(\m~4~-Terephthalato)-tris(\m~2~-hydroxo)-tri-indium(iii) N,N-dimethylformamide solvate)'
_symmetry_cell_setting           orthorhombic
_symmetry_space_group_name_H-M   'C m c m'
_symmetry_Int_Tables_number      63
_space_group_name_Hall           '-C 2c 2'
loop_
_symmetry_equiv_pos_site_id
_symmetry_equiv_pos_as_xyz
1 x,y,z
2 -x,-y,1/2+z
3 -x,y,1/2-z
4 x,-y,-z
5 1/2+x,1/2+y,z
6 1/2-x,1/2-y,1/2+z
7 1/2-x,1/2+y,1/2-z
8 1/2+x,1/2-y,-z
9 -x,-y,-z
10 x,y,1/2-z
11 x,-y,1/2+z
12 -x,y,z
13 1/2-x,1/2-y,-z
14 1/2+x,1/2+y,1/2-z
15 1/2+x,1/2-y,1/2+z
16 1/2-x,1/2+y,z
_cell_length_a                   21.7739(6)
_cell_length_b                   37.6772(10)
_cell_length_c                   7.23300(10)
_cell_angle_alpha                90
_cell_angle_beta                 90
_cell_angle_gamma                90
_cell_volume                     5933.81
_exptl_crystal_colour            colorless
_exptl_crystal_description       needle
_cell_formula_units_Z            4
loop_
_atom_site_label
_atom_site_type_symbol
_atom_site_fract_x
_atom_site_fract_y
_atom_site_fract_z
In1 In 0.2500 -0.2500 1.0000
In2 In 0.0000 0.0000 1.0000
O2 O 0.22628(9) -0.27489(5) 1.2500
O3 O 0.34179(5) -0.23893(4) 1.09565(16)
O4 O 0.22136(7) -0.19869(3) 1.09806(19)
O5 O 0.06617(7) -0.03799(3) 1.09647(19)
O6 O 0.0000 0.02416(8) 1.2500
C4 C 0.36763(11) -0.23833(7) 1.2500
C5 C 0.43722(10) -0.23508(8) 1.2500
C6 C 0.46837(7) -0.23630(8) 1.4144(2)
H1 H 0.4469 -0.2371 1.5255
C7 C 0.20819(12) -0.18567(7) 1.2500
C8 C 0.17818(12) -0.14937(6) 1.2500
C9 C 0.16312(11) -0.13271(5) 1.0861(2)
H2 H 0.1742 -0.1431 0.9743
C10 C 0.13249(10) -0.10159(5) 1.0858(2)
H3 H 0.1219 -0.0909 0.9743
C11 C 0.11691(13) -0.08558(6) 1.2500
C12 C 0.08025(12) -0.05100(6) 1.2500
In1E In 0.2500 -0.2500 1.5000
In1G In 0.7500 -0.2500 1.0000
In1B In 0.7500 -0.2500 1.5000
In1D In -0.2500 0.2500 1.0000
In1A In -0.2500 0.2500 0.5000
In1E_2 In 0.2500 -0.2500 0.5000
In2A In 0.0000 0.0000 1.5000
In2A_2 In 0.0000 0.0000 0.5000
O2E O 0.27372(9) -0.22511(5) 0.7500
O2E_2 O 0.27372(9) -0.22511(5) 1.7500
O3I O 0.34179(5) -0.23893(4) 1.40435(16)
O3K O 0.65821(5) -0.23893(4) 1.09565(16)
O3B O 0.65821(5) -0.23893(4) 1.40435(16)
O3L O 0.15821(5) -0.26107(4) 0.90435(16)
O3E O 0.15821(5) -0.26107(4) 1.59565(16)
O4I O 0.22136(7) -0.19869(3) 1.40194(19)
O4H O -0.22136(7) 0.19869(3) 0.90194(19)
O4A O -0.22136(7) 0.19869(3) 0.59806(19)
O4L O 0.27864(7) -0.30131(3) 0.90194(19)
O4E O 0.27864(7) -0.30131(3) 1.59806(19)
O5I O 0.06617(7) -0.03799(3) 1.40353(19)
O5H O -0.06617(7) 0.03799(3) 0.90353(19)
O5A O -0.06617(7) 0.03799(3) 0.59647(19)
O5C O 0.06617(7) 0.03799(3) 0.90353(19)
O5K O -0.06617(7) -0.03799(3) 1.09647(19)
O6A O 0.0000 -0.02416(8) 0.7500
C4B C 0.63237(11) -0.23833(7) 1.2500
C5B C 0.56278(10) -0.23508(8) 1.2500
C6K C 0.53163(7) -0.23630(8) 1.4144(2)
C6B C 0.53163(7) -0.23630(8) 1.0856(2)
C6I C 0.46837(7) -0.23630(8) 1.0856(2)
H1B H 0.5531 -0.2371 0.9745
H1I H 0.4469 -0.2371 0.9745
H1K H 0.5531 -0.2371 1.5255
C7A C -0.20819(12) 0.18567(7) 0.7500
C8A C -0.17818(12) 0.14937(6) 0.7500
C9I C 0.16312(11) -0.13271(5) 1.4139(2)
C9H C -0.16312(11) 0.13271(5) 0.9139(2)
C9A C -0.16312(11) 0.13271(5) 0.5861(2)
H2I H 0.1742 -0.1431 1.5257
H2H H -0.1742 0.1431 1.0257
H2A H -0.1742 0.1431 0.4743
C10I C 0.13249(10) -0.10159(5) 1.4142(2)
C10H C -0.13249(10) 0.10159(5) 0.9142(2)
C10A C -0.13249(10) 0.10159(5) 0.5858(2)
H3I H 0.1219 -0.0909 1.5257
H3H H -0.1219 0.0909 1.0257
H3A H -0.1219 0.0909 0.4743
C11A C -0.11691(13) 0.08558(6) 0.7500
C12A C -0.08025(12) 0.05100(6) 0.7500
C1 C 0.5000 0.3270(3) 0.7500
N1 N 0.5000 0.35178(16) 0.5983(10)
C2 C 0.5000 0.3298(3) 0.4335(14)
C3 C 0.5000 0.38730(17) 0.6025(10)
O1 O 0.5000 0.4024(2) 0.7500
N1B N 0.5000 0.35178(16) 0.9017(10)
C2B C 0.5000 0.3298(3) 1.0665(14)
C3B C 0.5000 0.38730(17) 0.8975(10)
loop_
_geom_bond_atom_site_label_1
_geom_bond_atom_site_label_2
_geom_bond_site_symmetry_1
_geom_bond_site_symmetry_2
C1 N1 1_555 1_555
N1 C2 1_555 1_555
C3 N1 1_555 1_555
O1 C3 1_555 1_555
In1 O2 1_555 1_555
In2 O5 1_555 1_555
O2 In1E 1_555 1_555
O3 In1 1_555 1_555
O4 In1 1_555 1_555
O5 C12 1_555 1_555
O6 In2 1_555 1_555
C4 O3 1_555 1_555
C5 C4 1_555 1_555
C6 C5 1_555 1_555
H1 C6 1_555 1_555
C7 O4 1_555 1_555
C8 C7 1_555 1_555
C9 C8 1_555 1_555
H2 C9 1_555 1_555
C10 C9 1_555 1_555
H3 C10 1_555 1_555
C11 C10 1_555 1_555
C12 C11 1_555 1_555
N1B C1 1_555 1_555
C2B N1B 1_555 1_555
C3B O1 1_555 1_555
In1E O2E_2 1_555 1_555
In1G O3K 1_555 1_555
In1B O3B 1_555 1_555
In1D O4H 1_555 1_555
In1A O4A 1_555 1_555
In1E_2 O2E 1_555 1_555
In2A O6 1_555 1_555
In2A_2 O5A 1_555 1_555
O2E In1 1_555 1_555
O3I C4 1_555 1_555
O3K C4B 1_555 1_555
O3B C4B 1_555 1_555
O3L In1 1_555 1_555
O3E In1E 1_555 1_555
O4I C7 1_555 1_555
O4H C7A 1_555 1_555
O4A C7A 1_555 1_555
O4L In1 1_555 1_555
O4E In1E 1_555 1_555
O5I C12 1_555 1_555
O5H In2 1_555 1_555
O5A C12A 1_555 1_555
O5C In2 1_555 1_555
O5K In2 1_555 1_555
O6A In2 1_555 1_555
C4B C5B 1_555 1_555
C5B C6K 1_555 1_555
C6K C6 1_555 1_555
C6B C5B 1_555 1_555
C6I C5 1_555 1_555
H1B C6B 1_555 1_555
H1I C6I 1_555 1_555
H1K C6K 1_555 1_555
C7A C8A 1_555 1_555
C8A C9H 1_555 1_555
C9I C8 1_555 1_555
C9H H2H 1_555 1_555
C9A C8A 1_555 1_555
H2I C9I 1_555 1_555
H2A C9A 1_555 1_555
C10I C11 1_555 1_555
C10H C9H 1_555 1_555
C10A C9A 1_555 1_555
H3I C10I 1_555 1_555
H3H C10H 1_555 1_555
H3A C10A 1_555 1_555
C11A C10H 1_555 1_555
C12A O5H 1_555 1_555
N1B C3B 1_555 1_555
In1E O3I 1_555 1_555
In1E O4I 1_555 1_555
In2A O5I 1_555 1_555
In2A_2 O6A 1_555 1_555
C6B C6I 1_555 1_555
C9I C10I 1_555 1_555
C10A C11A 1_555 1_555
C11A C12A 1_555 1_555

#END
