
#######################################################################
#
#                 Cambridge Crystallographic Data Centre
#                                CCDC 
#
#######################################################################
#
# If this CIF has been generated from an entry in the Cambridge 
# Structural Database, then it will include bibliographic, chemical, 
# crystal, experimental, refinement or atomic coordinate data resulting 
# from the CCDC's data processing and validation procedures.
#
#######################################################################

data_BEDHOJ
_chemical_formula_moiety         '(C16 H10 N4 Ni1 O4)n,n(C2 H6 O1),n(H2 O1)'
_chemical_name_systematic        
'catena-[bis(\m~2~-1H-Benzimidazole-6-carboxylato)-nickel ethanol solvate monohydrate]'
_symmetry_cell_setting           tetragonal
_symmetry_space_group_name_H-M   'P 43 21 2'
_symmetry_Int_Tables_number      96
_space_group_name_Hall           'P 4nw 2abw'
loop_
_symmetry_equiv_pos_site_id
_symmetry_equiv_pos_as_xyz
1 x,y,z
2 -x,-y,1/2+z
3 1/2-y,1/2+x,3/4+z
4 1/2+y,1/2-x,1/4+z
5 1/2-x,1/2+y,3/4-z
6 1/2+x,1/2-y,1/4-z
7 y,x,-z
8 -y,-x,1/2-z
_cell_length_a                   15.3384(8)
_cell_length_b                   15.3384(8)
_cell_length_c                   8.1822(10)
_cell_angle_alpha                90
_cell_angle_beta                 90
_cell_angle_gamma                90
_cell_volume                     1925
_exptl_crystal_colour            green
_exptl_crystal_description       block
_cell_formula_units_Z            4
loop_
_atom_site_label
_atom_site_type_symbol
_atom_site_fract_x
_atom_site_fract_y
_atom_site_fract_z
_atom_site_U_iso_or_equiv
_atom_site_thermal_displace_type
Ni1 Ni 0.74014(6) 0.74014(6) 0.0000 0.0278 Uani
O1 O 0.7376(8) 0.6036(5) 0.0551(8) 0.0687 Uani
O2 O 0.7455(5) 0.6995(4) 0.2450(9) 0.0557 Uani
N1 N 0.7645(6) 0.3758(5) 0.7034(8) 0.0340 Uani
C1 C 0.7379(7) 0.6121(10) 0.2128(13) 0.0580 Uani
C2 C 0.7489(9) 0.4187(7) 0.5660(12) 0.0483 Uani
C3 C 0.7411(7) 0.5556(7) 0.3341(10) 0.0413 Uani
C4 C 0.7497(8) 0.5720(9) 0.4934(12) 0.0553 Uani
H1 H 0.7535 0.6299 0.5261 0.0660 Uiso
C5 C 0.7386(11) 0.4628(9) 0.2901(11) 0.0690 Uani
H2 H 0.7324 0.4469 0.1811 0.0820 Uiso
C6 C 0.7451(12) 0.4002(9) 0.4060(12) 0.0677 Uani
H3 H 0.7471 0.3421 0.3734 0.0810 Uiso
N2 N 0.7650(10) 0.5076(8) 0.7759(12) 0.0930 Uani
H4 H 0.7670 0.5520 0.8399 0.1120 Uiso
C7 C 0.7529(8) 0.5123(9) 0.6054(12) 0.0593 Uani
C8 C 0.7726(10) 0.4262(10) 0.8239(14) 0.0657 Uani
H5 H 0.7826 0.4084 0.9309 0.0790 Uiso
Ni1B Ni 0.75986(6) 0.24014(6) 0.7500 0.0278 Uani
Ni1C Ni 0.24014(6) 0.75986(6) -0.7500 0.0278 Uani
O1F O 0.6036(5) 0.7376(8) -0.0551(8) 0.0687 Uani
O2F O 0.6995(4) 0.7455(5) -0.2450(9) 0.0557 Uani
N1F N 0.3758(5) 0.7645(6) -0.7034(8) 0.0340 Uani
N1C N 0.8758(5) 0.7355(6) -0.0466(8) 0.0340 Uani
N1D N 0.7355(6) 0.8758(5) 0.0466(8) 0.0340 Uani
C1F C 0.6121(10) 0.7379(7) -0.2128(13) 0.0580 Uani
C2F C 0.4187(7) 0.7489(9) -0.5660(12) 0.0483 Uani
C3F C 0.5556(7) 0.7411(7) -0.3341(10) 0.0413 Uani
C4F C 0.5720(9) 0.7497(8) -0.4934(12) 0.0553 Uani
H1F H 0.6299 0.7535 -0.5261 0.0660 Uiso
C5F C 0.4628(9) 0.7386(11) -0.2901(11) 0.0690 Uani
H2F H 0.4469 0.7324 -0.1811 0.0820 Uiso
C6F C 0.4002(9) 0.7451(12) -0.4060(12) 0.0677 Uani
H3F H 0.3421 0.7471 -0.3734 0.0810 Uiso
N2F N 0.5076(8) 0.7650(10) -0.7759(12) 0.0930 Uani
H4F H 0.5520 0.7670 -0.8399 0.1120 Uiso
C7F C 0.5123(9) 0.7529(8) -0.6054(12) 0.0593 Uani
C8F C 0.4262(10) 0.7726(10) -0.8239(14) 0.0657 Uani
H5F H 0.4084 0.7826 -0.9309 0.0790 Uiso
loop_
_atom_site_aniso_label
_atom_site_aniso_U_11
_atom_site_aniso_U_22
_atom_site_aniso_U_33
_atom_site_aniso_U_23
_atom_site_aniso_U_13
_atom_site_aniso_U_12
Ni1 0.0337(7) 0.0337(7) 0.0160(8) -0.0072(4) 0.0072(4) -0.0196(6)
O1 0.147(10) 0.039(4) 0.020(3) -0.016(3) 0.038(5) -0.032(5)
O2 0.088(6) 0.035(3) 0.044(4) -0.010(3) 0.017(5) 0.003(4)
N1 0.049(5) 0.034(4) 0.019(3) -0.001(3) -0.009(3) 0.019(4)
C1 0.014(4) 0.126(11) 0.034(5) -0.017(6) 0.003(4) 0.014(5)
C2 0.052(7) 0.056(6) 0.037(5) 0.001(4) 0.036(5) -0.003(6)
C3 0.048(6) 0.055(6) 0.021(4) -0.007(4) 0.023(5) 0.018(5)
C4 0.047(6) 0.092(8) 0.027(5) -0.003(5) 0.004(6) -0.001(6)
C5 0.105(12) 0.087(9) 0.015(4) -0.004(5) 0.006(6) -0.041(9)
C6 0.097(11) 0.083(8) 0.023(5) 0.000(5) -0.029(7) -0.024(9)
N2 0.167(15) 0.078(8) 0.034(5) -0.020(5) -0.022(8) 0.039(9)
C7 0.050(7) 0.100(9) 0.028(5) -0.015(5) -0.007(5) 0.053(8)
C8 0.086(11) 0.077(9) 0.034(6) -0.002(6) 0.002(6) 0.002(8)
Ni1B 0.0337 0.0337 0.016 0.0072 0.0072 0.0196
Ni1C 0.0337 0.0337 0.016 -0.0072 -0.0072 0.0196
O1F 0.039 0.147 0.02 -0.038 0.016 -0.032
O2F 0.035 0.088 0.044 -0.017 0.01 0.003
N1F 0.034 0.049 0.019 0.009 0.001 0.019
N1C 0.034 0.049 0.019 0.009 -0.001 -0.019
N1D 0.049 0.034 0.019 0.001 -0.009 -0.019
C1F 0.126 0.014 0.034 -0.003 0.017 0.014
C2F 0.056 0.052 0.037 -0.036 -0.001 -0.003
C3F 0.055 0.048 0.021 -0.023 0.007 0.018
C4F 0.092 0.047 0.027 -0.004 0.003 -0.001
C5F 0.087 0.105 0.015 -0.006 0.004 -0.041
C6F 0.083 0.097 0.023 0.029 0 -0.024
N2F 0.078 0.167 0.034 0.022 0.02 0.039
C7F 0.1 0.05 0.028 0.007 0.015 0.053
C8F 0.077 0.086 0.034 -0.002 0.002 0.002
loop_
_geom_bond_atom_site_label_1
_geom_bond_atom_site_label_2
_geom_bond_site_symmetry_1
_geom_bond_site_symmetry_2
Ni1 O1 1_555 1_555
O1 C1 1_555 1_555
O2 Ni1 1_555 1_555
N1 C2 1_555 1_555
C1 O2 1_555 1_555
C2 C6 1_555 1_555
C3 C1 1_555 1_555
C4 C3 1_555 1_555
H1 C4 1_555 1_555
C5 C3 1_555 1_555
H2 C5 1_555 1_555
C6 C5 1_555 1_555
H3 C6 1_555 1_555
N2 H4 1_555 1_555
C7 C2 1_555 1_555
C8 N1 1_555 1_555
H5 C8 1_555 1_555
Ni1B N1 1_555 1_555
Ni1C N1F 1_555 1_555
O1F Ni1 1_555 1_555
O2F Ni1 1_555 1_555
N1F C2F 1_555 1_555
N1C Ni1 1_555 1_555
N1D Ni1 1_555 1_555
C1F O1F 1_555 1_555
C2F C6F 1_555 1_555
C3F C1F 1_555 1_555
C4F C3F 1_555 1_555
H1F C4F 1_555 1_555
C5F C3F 1_555 1_555
H2F C5F 1_555 1_555
C6F C5F 1_555 1_555
H3F C6F 1_555 1_555
N2F H4F 1_555 1_555
C7F C2F 1_555 1_555
C8F N1F 1_555 1_555
H5F C8F 1_555 1_555
C4 C7 1_555 1_555
N2 C7 1_555 1_555
N2 C8 1_555 1_555
O2F C1F 1_555 1_555
C4F C7F 1_555 1_555
N2F C7F 1_555 1_555
N2F C8F 1_555 1_555

#END
