
#######################################################################
#
#                 Cambridge Crystallographic Data Centre
#                                CCDC 
#
#######################################################################
#
# If this CIF has been generated from an entry in the Cambridge 
# Structural Database, then it will include bibliographic, chemical, 
# crystal, experimental, refinement or atomic coordinate data resulting 
# from the CCDC's data processing and validation procedures.
#
#######################################################################

data_DUGGOD
_chemical_formula_moiety         '(C20 H28 Cu6 N30 O44 Si1 W12)n,8n(H2 O1)'
_chemical_name_systematic        
'catena-[(\m-orthosilicato)-nonacosakis(\m-oxo)-nonakis(\m-1,2,4-triazolato)-tetraaqua-heptaoxo-(1,2,4-triazolato)-hexa-copper-dodeca-tungsten octahydrate]'
_symmetry_cell_setting           monoclinic
_symmetry_space_group_name_H-M   'P n'
_symmetry_Int_Tables_number      7
_space_group_name_Hall           'P -2yac'
loop_
_symmetry_equiv_pos_site_id
_symmetry_equiv_pos_as_xyz
1 x,y,z
2 1/2+x,-y,1/2+z
_cell_length_a                   11.926(5)
_cell_length_b                   14.419(5)
_cell_length_c                   24.311(5)
_cell_angle_alpha                90
_cell_angle_beta                 103.424(5)
_cell_angle_gamma                90
_cell_volume                     4066.33
_exptl_crystal_colour            blue
_exptl_crystal_description       block
_cell_formula_units_Z            2
loop_
_atom_site_label
_atom_site_type_symbol
_atom_site_fract_x
_atom_site_fract_y
_atom_site_fract_z
C1 C 0.4649(19) -0.0752(16) 0.4628(10)
H1 H 0.4648 -0.0122 0.4711
C2 C 0.896(3) 0.1703(16) 0.3447(11)
H2 H 0.8759 0.1081 0.3394
C3 C 1.1223(17) 0.5440(13) 0.4407(9)
H3 H 1.0758 0.5944 0.4443
C4 C 1.1805(17) 0.4089(15) 0.4322(10)
H4 H 1.1859 0.3451 0.4279
C5 C 0.969(4) 0.3064(19) 0.3362(13)
H5 H 1.0102 0.3552 0.3255
C6 C 0.240(2) -0.3224(18) 0.5529(12)
H6 H 0.2648 -0.3831 0.5608
C7 C 0.182(2) -0.1867(15) 0.5601(11)
H7 H 0.1578 -0.1328 0.5750
C8 C 0.666(3) 0.0506(17) 0.5690(11)
H8 H 0.6306 0.0018 0.5832
C9 C 0.395(3) -0.329(2) 0.3350(14)
H9 H 0.3726 -0.2674 0.3283
C10 C 0.473(2) -0.471(2) 0.3328(13)
H10 H 0.5090 -0.5227 0.3221
C11 C 1.6830(19) 0.4331(15) 0.4360(10)
H11 H 1.6900 0.4971 0.4329
C12 C 1.030(2) 0.0518(16) 0.4606(11)
H12 H 1.0802 0.1014 0.4623
C13 C 0.965(2) -0.0880(16) 0.4584(13)
H13 H 0.9602 -0.1523 0.4560
C14 C 0.743(3) 0.1821(16) 0.5640(12)
H14 H 0.7736 0.2406 0.5745
C15 C 0.522(2) -0.2087(16) 0.4512(11)
H15 H 0.5695 -0.2591 0.4489
C16 C 0.603(2) 0.1367(19) 0.3396(13)
H16 H 0.6062 0.1967 0.3261
C17 C 0.284(3) 0.116(2) 0.4193(13)
H17 H 0.3245 0.1329 0.4553
C18 C 0.192(3) 0.030(2) 0.3567(14)
H18 H 0.1492 -0.0174 0.3355
C19 C 0.557(2) -0.006(3) 0.3473(15)
H19 H 0.5250 -0.0651 0.3405
C20 C 1.6215(18) 0.2997(14) 0.4471(11)
H20 H 1.5740 0.2507 0.4520
N1 N 0.3743(17) -0.1233(14) 0.4545(9)
N2 N 0.4151(16) -0.2154(12) 0.4473(9)
N3 N 0.5608(15) -0.1198(11) 0.4591(8)
N4 N 0.6392(16) 0.0187(12) 0.3920(9)
N5 N 0.670(2) 0.1051(15) 0.3867(10)
N6 N 0.7086(17) 0.0454(13) 0.5220(9)
N7 N 0.7552(15) 0.1343(13) 0.5173(9)
N8 N 0.8947(16) 0.2137(12) 0.3876(9)
N9 N 0.9354(17) 0.3017(13) 0.3822(10)
N10 N 1.0835(15) 0.4521(12) 0.4369(8)
N11 N 1.2665(16) 0.4656(12) 0.4344(9)
N12 N 1.5857(16) 0.3900(12) 0.4374(8)
N13 N 0.2439(17) -0.2774(13) 0.5065(9)
N14 N 0.2067(16) -0.1937(11) 0.5112(8)
N15 N 0.197(2) -0.2705(17) 0.5864(12)
N16 N 0.3861(17) -0.3784(12) 0.3780(9)
N17 N 0.682(2) 0.1331(17) 0.5917(12)
N18 N 0.9162(16) 0.0616(12) 0.4568(8)
N19 N 0.933(2) 0.2253(18) 0.3041(11)
N20 N 0.446(2) -0.3853(16) 0.3000(11)
N21 N 0.4394(17) -0.4613(13) 0.3786(8)
N22 N 0.2327(16) 0.0264(14) 0.4078(9)
N23 N 0.526(2) 0.0702(17) 0.3126(11)
N24 N 0.8751(16) -0.0321(12) 0.4589(8)
N25 N 1.0633(15) -0.0399(13) 0.4619(9)
N26 N 0.217(3) 0.113(2) 0.3352(11)
N27 N 0.271(3) 0.169(2) 0.3802(14)
N28 N 1.7306(18) 0.2920(13) 0.4485(9)
N29 N 1.7686(15) 0.3739(11) 0.4393(9)
N30 N 1.2225(15) 0.5513(13) 0.4387(9)
O1 O 0.1921(13) 0.2849(11) 0.6695(7)
O2 O 0.3499(13) 0.1504(11) 0.6838(8)
O3 O 1.358(3) 0.337(2) 0.3547(13)
O4 O 0.4046(13) 0.3237(9) 0.6636(6)
O5 O 0.931(2) 0.5016(19) 0.5014(13)
O6 O 0.3586(11) 0.2780(10) 0.7621(6)
O7 O 0.468(2) -0.4188(17) 0.5050(12)
O8 O 0.1986(15) 0.4329(12) 0.7516(7)
O9 O 0.0494(15) 0.3912(11) 0.5978(8)
O10 O -0.0081(14) 0.2131(12) 0.6159(8)
O11 O 0.2774(15) 0.3328(10) 0.8430(8)
O12 O 0.4317(15) 0.2021(11) 0.8578(8)
O13 O 0.4063(15) 0.4725(13) 0.7441(8)
O14 O 0.5647(17) 0.4507(11) 0.6874(9)
O15 O 0.4914(13) 0.3708(11) 0.8380(8)
O16 O 0.5931(16) 0.1850(13) 0.6852(9)
O17 O 0.5431(15) 0.1424(11) 0.7794(8)
O18 O 0.2924(15) 0.0964(12) 0.7872(7)
O19 O 0.4211(15) -0.0017(11) 0.7356(7)
O20 O 0.1723(13) 0.1516(10) 0.5722(7)
O21 O 0.3890(13) 0.1885(9) 0.5687(7)
O22 O 0.2292(13) 0.3275(10) 0.5557(7)
O23 O 0.0246(16) 0.5227(14) 0.6754(8)
O24 O 0.4216(15) 0.6065(12) 0.6659(9)
O25 O 0.6522(18) 0.0099(13) 0.7290(10)
O26 O 0.7502(16) 0.3361(13) 0.6939(9)
O27 O 0.5973(15) 0.3152(12) 0.7651(7)
O28 O 0.2995(15) 0.0060(12) 0.5342(8)
O29 O 0.6644(15) 0.2413(12) 0.8756(8)
O30 O 0.5634(13) 0.3213(12) 0.6076(8)
O31 O 0.4694(15) 0.0440(13) 0.6370(7)
O32 O 0.2471(15) -0.0021(11) 0.6414(8)
O33 O 0.0063(16) 0.3411(13) 0.6996(9)
O34 O 0.1206(14) 0.0986(13) 0.6964(7)
O35 O -0.0956(17) 0.1664(13) 0.7056(10)
O36 O 0.3957(17) 0.4579(13) 0.5892(10)
O37 O 0.2063(16) -0.0777(11) 0.7386(8)
O38 O -0.0029(16) 0.2735(13) 0.5056(8)
O39 O 0.4203(14) 0.3439(13) 0.4972(8)
O40 O 0.1295(13) 0.2255(10) 0.7714(7)
O41 O 0.2222(16) 0.1707(12) 0.8861(8)
O42 O 0.3393(16) 0.5173(13) 0.8462(9)
O43 O 0.2441(15) 0.4790(12) 0.6569(7)
O44 O 0.7920(13) -0.1732(12) 0.5294(8)
Si1 Si 0.3237(5) 0.2598(4) 0.6949(3)
Cu1 Cu 0.2193(2) -0.08302(17) 0.46140(12)
Cu2 Cu 0.3170(2) -0.32921(17) 0.44329(12)
Cu3 Cu 0.7146(2) -0.06819(17) 0.45901(12)
Cu4 Cu 0.8219(2) 0.17289(17) 0.45284(12)
Cu5 Cu 0.9321(2) 0.40457(19) 0.43908(13)
Cu6 Cu 1.4307(2) 0.43535(17) 0.43685(12)
W1 W 0.60738(7) 0.32242(6) 0.68719(4)
W2 W 0.54212(8) 0.25209(7) 0.82299(4)
W3 W 0.34341(8) 0.42417(6) 0.80361(4)
W4 W 0.52975(7) 0.07703(6) 0.71054(4)
W5 W 0.26555(8) 0.20593(6) 0.82618(4)
W6 W 0.10730(7) 0.43043(6) 0.67619(4)
W7 W 0.09669(13) 0.26821(12) 0.57042(7)
W8 W 0.40394(8) 0.48883(6) 0.66585(4)
W9 W 0.39482(16) 0.31909(13) 0.56546(8)
W10 W 0.30991(14) 0.08292(11) 0.59102(7)
W11 W 0.03419(7) 0.20791(7) 0.69510(4)
W12 W 0.25917(8) 0.02416(6) 0.71845(4)
N21_2 N 1.4394(17) 0.5387(13) 0.3786(8)
N25_2 N 0.0633(15) -0.0399(13) 0.4619(9)
N28_2 N 0.7306(18) 0.2920(13) 0.4485(9)
N29_2 N 0.7686(15) 0.3739(11) 0.4393(9)
N30_2 N 0.2225(15) -0.4487(13) 0.4387(9)
O29A O 0.1644(15) -0.2413(12) 0.3756(8)
O38_2 O 0.9971(16) 0.2735(13) 0.5056(8)
O39_2 O 1.4203(14) 0.3439(13) 0.4972(8)
O41A O 0.7222(16) -0.1707(12) 0.3861(8)
Cu1_2 Cu 1.2193(2) -0.08302(17) 0.46140(12)
Cu2_2 Cu 1.3170(2) 0.67079(17) 0.44329(12)
Cu2A Cu 0.8170(2) 0.32921(17) 0.94329(12)
Cu3A Cu 0.2146(2) 0.06819(17) 0.95901(12)
Cu4_2 Cu 1.8219(2) 0.17289(17) 0.45284(12)
Cu5_2 Cu -0.0679(2) 0.40457(19) 0.43908(13)
Cu5_3 Cu 1.9321(2) 0.40457(19) 0.43908(13)
Cu6_2 Cu 0.4307(2) -0.56465(17) 0.43685(12)
Cu6_3 Cu 0.4307(2) 0.43535(17) 0.43685(12)
O45 O 0.334(3) -0.1227(19) 0.3087(13)
O46 O 0.795(3) 0.398(3) 0.5881(18)
O47 O 1.158(3) 0.456(2) 0.3009(15)
O48 O -0.030(4) -0.033(3) 0.606(2)
O49 O 0.376(3) 0.053(2) 0.2102(13)
O50 O 0.653(3) 0.3590(19) 0.2987(13)
O51 O 0.422(7) -0.147(5) 0.587(3)
O52 O 0.168(3) -0.268(2) 0.6947(15)
loop_
_geom_bond_atom_site_label_1
_geom_bond_atom_site_label_2
_geom_bond_site_symmetry_1
_geom_bond_site_symmetry_2
C1 H1 1_555 1_555
C2 H2 1_555 1_555
C3 H3 1_555 1_555
C4 H4 1_555 1_555
C5 H5 1_555 1_555
C6 H6 1_555 1_555
C7 H7 1_555 1_555
C8 H8 1_555 1_555
C9 H9 1_555 1_555
C10 H10 1_555 1_555
C11 H11 1_555 1_555
C12 H12 1_555 1_555
C13 H13 1_555 1_555
C14 H14 1_555 1_555
C15 H15 1_555 1_555
C16 H16 1_555 1_555
C17 H17 1_555 1_555
C18 H18 1_555 1_555
C19 H19 1_555 1_555
C20 H20 1_555 1_555
N1 C1 1_555 1_555
N2 C15 1_555 1_555
N3 C1 1_555 1_555
N4 C19 1_555 1_555
N5 C16 1_555 1_555
N6 C8 1_555 1_555
N7 C14 1_555 1_555
N8 C2 1_555 1_555
N9 C5 1_555 1_555
N10 C3 1_555 1_555
N11 C4 1_555 1_555
N12 C11 1_555 1_555
N13 C6 1_555 1_555
N14 C7 1_555 1_555
N15 C6 1_555 1_555
N16 C9 1_555 1_555
N17 C8 1_555 1_555
N18 C12 1_555 1_555
N19 C2 1_555 1_555
N20 C9 1_555 1_555
N21 C10 1_555 1_555
N22 C17 1_555 1_555
N23 C16 1_555 1_555
N24 C13 1_555 1_555
N25 C12 1_555 1_555
N26 C18 1_555 1_555
N27 C17 1_555 1_555
N28 C20 1_555 1_555
N29 C11 1_555 1_555
N30 C3 1_555 1_555
O1 Si1 1_555 1_555
O2 Si1 1_555 1_555
O3 Cu6 1_555 1_555
O4 Si1 1_555 1_555
O5 Cu5 1_555 1_555
O6 Si1 1_555 1_555
O7 Cu2 1_555 1_555
O8 W3 1_555 1_555
O9 W6 1_555 1_555
O10 W7 1_555 1_555
O11 W3 1_555 1_555
O12 W2 1_555 1_555
O13 W3 1_555 1_555
O14 W1 1_555 1_555
O15 W2 1_555 1_555
O16 W1 1_555 1_555
O17 W2 1_555 1_555
O18 W5 1_555 1_555
O19 W4 1_555 1_555
O20 W7 1_555 1_555
O21 W9 1_555 1_555
O22 W7 1_555 1_555
O23 W6 1_555 1_555
O24 W8 1_555 1_555
O25 W4 1_555 1_555
O26 W1 1_555 1_555
O27 W1 1_555 1_555
O28 Cu1 1_555 1_555
O29 W2 1_555 1_555
O30 W1 1_555 1_555
O31 W4 1_555 1_555
O32 W10 1_555 1_555
O33 W6 1_555 1_555
O34 W11 1_555 1_555
O35 W11 1_555 1_555
O36 W8 1_555 1_555
O37 W12 1_555 1_555
O38 W7 1_555 1_555
O39 W9 1_555 1_555
O40 W5 1_555 1_555
O41 W5 1_555 1_555
O42 W3 1_555 1_555
O43 W6 1_555 1_555
O44 Cu3 1_555 1_555
Cu1 N1 1_555 1_555
Cu2 N2 1_555 1_555
Cu3 N3 1_555 1_555
Cu4 N5 1_555 1_555
Cu5 N9 1_555 1_555
Cu6 N11 1_555 1_555
W1 O4 1_555 1_555
W2 O6 1_555 1_555
W3 O6 1_555 1_555
W4 O2 1_555 1_555
W5 O6 1_555 1_555
W6 O1 1_555 1_555
W7 O1 1_555 1_555
W8 O4 1_555 1_555
W9 O4 1_555 1_555
W10 O2 1_555 1_555
W11 O1 1_555 1_555
W12 O2 1_555 1_555
N21_2 Cu6 1_555 1_555
N25_2 Cu1 1_555 1_555
N28_2 Cu4 1_555 1_555
N29_2 Cu5 1_555 1_555
N30_2 Cu2 1_555 1_555
O29A Cu2 1_555 1_555
O38_2 Cu5 1_555 1_555
O39_2 Cu6 1_555 1_555
O41A Cu3 1_555 1_555
Cu1_2 N25 1_555 1_555
Cu2_2 N30 1_555 1_555
Cu2A O29 1_555 1_555
Cu3A O41 1_555 1_555
Cu4_2 N28 1_555 1_555
Cu5_2 O38 1_555 1_555
Cu5_3 N29 1_555 1_555
Cu6_2 N21 1_555 1_555
Cu6_3 O39 1_555 1_555
C4 N10 1_555 1_555
C5 N19 1_555 1_555
C7 N15 1_555 1_555
C10 N20 1_555 1_555
C13 N25 1_555 1_555
C14 N17 1_555 1_555
C15 N3 1_555 1_555
C18 N22 1_555 1_555
C19 N23 1_555 1_555
C20 N12 1_555 1_555
N1 N2 1_555 1_555
N4 N5 1_555 1_555
N4 Cu3 1_555 1_555
N6 N7 1_555 1_555
N6 Cu3 1_555 1_555
N7 Cu4 1_555 1_555
N8 N9 1_555 1_555
N8 Cu4 1_555 1_555
N10 Cu5 1_555 1_555
N11 N30 1_555 1_555
N12 Cu6 1_555 1_555
N13 N14 1_555 1_555
N13 Cu2 1_555 1_555
N14 Cu1 1_555 1_555
N16 N21 1_555 1_555
N16 Cu2 1_555 1_555
N18 N24 1_555 1_555
N18 Cu4 1_555 1_555
N22 Cu1 1_555 1_555
N24 Cu3 1_555 1_555
N26 N27 1_555 1_555
N28 N29 1_555 1_555
O8 W6 1_555 1_555
O9 W7 1_555 1_555
O10 W11 1_555 1_555
O11 W5 1_555 1_555
O12 W5 1_555 1_555
O13 W8 1_555 1_555
O14 W8 1_555 1_555
O15 W3 1_555 1_555
O16 W4 1_555 1_555
O17 W4 1_555 1_555
O18 W12 1_555 1_555
O19 W12 1_555 1_555
O20 W10 1_555 1_555
O21 W10 1_555 1_555
O22 W9 1_555 1_555
O27 W2 1_555 1_555
O28 W10 1_555 1_555
O30 W9 1_555 1_555
O31 W10 1_555 1_555
O32 W12 1_555 1_555
O33 W11 1_555 1_555
O34 W12 1_555 1_555
O36 W9 1_555 1_555
O40 W11 1_555 1_555
O43 W8 1_555 1_555
N28_2 N29_2 1_555 1_555

#END
