
#######################################################################
#
#                 Cambridge Crystallographic Data Centre
#                                CCDC 
#
#######################################################################
#
# If this CIF has been generated from an entry in the Cambridge 
# Structural Database, then it will include bibliographic, chemical, 
# crystal, experimental, refinement or atomic coordinate data resulting 
# from the CCDC's data processing and validation procedures.
#
#######################################################################

data_TUDMEL
_chemical_formula_moiety         '(C38 H58 N10 Ni2 O8)n,14n(H2 O1)'
_chemical_name_systematic        
"catena-[(\m~4~-1,1'-Biphenyl-3,3',5,5'-tetracarboxylato-O,O',O'',O''')-(\m~2~-1,4-bis(1,3,5,8,12-pentaazacyclotetradecan-3-yl)butane)-di-nickel(ii) tetradecahydrate]"
_symmetry_cell_setting           monoclinic
_symmetry_space_group_name_H-M   'C 2/c'
_symmetry_Int_Tables_number      15
_space_group_name_Hall           '-C 2yc'
loop_
_symmetry_equiv_pos_site_id
_symmetry_equiv_pos_as_xyz
1 x,y,z
2 -x,y,1/2-z
3 1/2+x,1/2+y,z
4 1/2-x,1/2+y,1/2-z
5 -x,-y,-z
6 x,-y,1/2+z
7 1/2-x,1/2-y,-z
8 1/2+x,1/2-y,1/2+z
_cell_length_a                   25.1189(12)
_cell_length_b                   16.3750(9)
_cell_length_c                   16.6616(10)
_cell_angle_alpha                90
_cell_angle_beta                 125.254(2)
_cell_angle_gamma                90
_cell_volume                     5596.4
_cell_formula_units_Z            4
loop_
_atom_site_label
_atom_site_type_symbol
_atom_site_fract_x
_atom_site_fract_y
_atom_site_fract_z
_atom_site_U_iso_or_equiv
_atom_site_thermal_displace_type
N1 N 0.1721(3) 0.3233(4) 0.6982(6) 0.0429 Uani
H1 H 0.1368 0.35 0.6876 0.0510 Uiso
N2 N 0.3005(4) 0.5008(4) 0.7395(7) 0.0493 Uani
H2 H 0.3349 0.4763 0.7446 0.0590 Uiso
N3 N 0.1857(4) 0.4390(5) 0.5701(7) 0.0632 Uani
H3 H 0.1505 0.4692 0.5545 0.0760 Uiso
N4 N 0.2853(4) 0.3882(5) 0.8683(7) 0.0584 Uani
H4 H 0.3194 0.3548 0.886 0.0700 Uiso
C1 C 0.2664(7) 0.5491(7) 0.6512(12) 0.0958 Uani
H5 H 0.2975 0.5813 0.6478 0.1150 Uiso
H6 H 0.2369 0.5863 0.6524 0.1150 Uiso
C2 C 0.2265(6) 0.4923(7) 0.5573(10) 0.0826 Uani
H7 H 0.1997 0.5253 0.4986 0.0990 Uiso
H8 H 0.2561 0.4601 0.5505 0.0990 Uiso
C3 C 0.1065(4) 0.5941(4) 0.7316(7) 0.0369 Uani
O1 O 0.2058(3) 0.8140(3) 0.7815(5) 0.0424 Uani
C4 C 0.1475(5) 0.2676(6) 0.6158(10) 0.0659 Uani
H9 H 0.1157 0.2313 0.6122 0.0790 Uiso
H10 H 0.1832 0.2345 0.6269 0.0790 Uiso
O2 O 0.1827(3) 0.5095(3) 0.7318(5) 0.0526 Uani
C5 C 0.1284(4) 0.5131(5) 0.7151(8) 0.0495 Uani
O3 O 0.1389(4) 0.8779(4) 0.8061(7) 0.0820 Uani
N5 N 0.3531(4) 0.5093(6) 0.9136(9) 0.0737 Uani
C6 C 0.1596(4) 0.8126(6) 0.7887(8) 0.0522 Uani
O4 O 0.0884(4) 0.4530(4) 0.6852(7) 0.0965 Uani
C7 C 0.3260(5) 0.5538(7) 0.8251(12) 0.0791 Uani
H11 H 0.3593 0.5891 0.8315 0.0950 Uiso
H12 H 0.2911 0.5882 0.8145 0.0950 Uiso
C8 C 0.1167(6) 0.3117(9) 0.5208(11) 0.0934 Uani
H13 H 0.0826 0.3463 0.5127 0.1130 Uiso
H14 H 0.0958 0.2715 0.4685 0.1130 Uiso
C9 C 0.0502(4) 0.5964(5) 0.7293(7) 0.0407 Uani
H15 H 0.0266 0.5485 0.716 0.0490 Uiso
C10 C 0.0640(3) 0.7380(4) 0.7659(6) 0.0325 Uani
H16 H 0.0506 0.786 0.7792 0.0390 Uiso
C11 C 0.1427(4) 0.6648(5) 0.7527(6) 0.0322 Uani
H17 H 0.1816 0.6626 0.758 0.0380 Uiso
C12 C 0.1220(4) 0.7382(5) 0.7660(7) 0.0407 Uani
C13 C 0.0282(3) 0.6662(4) 0.7460(6) 0.0256 Uani
C14 C 0.2025(6) 0.2788(7) 0.7937(10) 0.0771 Uani
H18 H 0.2324 0.2377 0.7998 0.0930 Uiso
H19 H 0.1689 0.2515 0.7955 0.0930 Uiso
C15 C 0.2396(6) 0.3401(7) 0.8800(9) 0.0777 Uani
H20 H 0.2089 0.3764 0.8796 0.0930 Uiso
H21 H 0.2638 0.3109 0.942 0.0930 Uiso
C16 C 0.3111(6) 0.4561(9) 0.9316(10) 0.1005 Uani
H22 H 0.3372 0.4373 0.9992 0.1210 Uiso
H23 H 0.2755 0.4887 0.922 0.1210 Uiso
C17 C 0.1595(7) 0.3642(8) 0.5054(11) 0.0939 Uani
H24 H 0.1346 0.3812 0.4372 0.1120 Uiso
H25 H 0.1959 0.3316 0.5182 0.1120 Uiso
C18 C 0.4130(6) 0.4629(9) 0.9474(13) 0.1293 Uani
H26 H 0.406 0.4279 0.8951 0.1550 Uiso
H27 H 0.425 0.4289 1.0032 0.1550 Uiso
C19 C 0.4694(7) 0.5272(11) 0.9779(15) 0.1532 Uani
H28 H 0.4605 0.5571 0.9211 0.1850 Uiso
H29 H 0.4744 0.5657 1.0261 0.1850 Uiso
Ni1 Ni 0.23657(5) 0.41100(6) 0.71959(10) 0.0407 Uani
N1D N 0.8279(3) 0.6767(4) 1.3018(6) 0.0429 Uani
H1D H 0.8632 0.65 1.3124 0.0510 Uiso
N2D N 0.6995(4) 0.4992(4) 1.2605(7) 0.0493 Uani
H2D H 0.6651 0.5237 1.2554 0.0590 Uiso
N3D N 0.8143(4) 0.5610(5) 1.4299(7) 0.0632 Uani
H3D H 0.8495 0.5308 1.4455 0.0760 Uiso
N4D N 0.7147(4) 0.6118(5) 1.1317(7) 0.0584 Uani
H4D H 0.6806 0.6452 1.114 0.0700 Uiso
C1D C 0.7336(7) 0.4509(7) 1.3488(12) 0.0958 Uani
H5D H 0.7025 0.4187 1.3522 0.1150 Uiso
H6D H 0.7631 0.4137 1.3476 0.1150 Uiso
C2D C 0.7735(6) 0.5077(7) 1.4427(10) 0.0826 Uani
H7D H 0.8003 0.4747 1.5014 0.0990 Uiso
H8D H 0.7439 0.5399 1.4495 0.0990 Uiso
C3A C -0.1065(4) 0.5941(4) 0.7684(7) 0.0369 Uani
O1A O -0.2058(3) 0.8140(3) 0.7185(5) 0.0424 Uani
O1C O 0.2942(3) 0.3140(3) 0.7185(5) 0.0424 Uani
O1G O 0.7058(3) 0.6860(3) 1.2815(5) 0.0424 Uani
C4D C 0.8525(5) 0.7324(6) 1.3842(10) 0.0659 Uani
H9D H 0.8843 0.7687 1.3878 0.0790 Uiso
H10D H 0.8168 0.7655 1.3731 0.0790 Uiso
O2A O -0.1827(3) 0.5095(3) 0.7682(5) 0.0526 Uani
O2D O 0.8173(3) 0.4905(3) 1.2682(5) 0.0526 Uani
C5A C -0.1284(4) 0.5131(5) 0.7849(8) 0.0495 Uani
O3A O -0.1389(4) 0.8779(4) 0.6939(7) 0.0820 Uani
N5D N 0.6469(4) 0.4907(6) 1.0864(9) 0.0737 Uani
C6A C -0.1596(4) 0.8126(6) 0.7113(8) 0.0522 Uani
O4A O -0.0884(4) 0.4530(4) 0.8148(7) 0.0965 Uani
C7D C 0.6740(5) 0.4462(7) 1.1749(12) 0.0791 Uani
H11D H 0.6407 0.4109 1.1685 0.0950 Uiso
H12D H 0.7089 0.4118 1.1855 0.0950 Uiso
C8D C 0.8833(6) 0.6883(9) 1.4792(11) 0.0934 Uani
H13D H 0.9174 0.6537 1.4873 0.1130 Uiso
H14D H 0.9042 0.7285 1.5315 0.1130 Uiso
C9A C -0.0502(4) 0.5964(5) 0.7707(7) 0.0407 Uani
H15A H -0.0266 0.5485 0.784 0.0490 Uiso
C10A C -0.0640(3) 0.7380(4) 0.7341(6) 0.0325 Uani
H16A H -0.0506 0.786 0.7208 0.0390 Uiso
C11A C -0.1427(4) 0.6648(5) 0.7473(6) 0.0322 Uani
H17A H -0.1816 0.6626 0.742 0.0380 Uiso
C12A C -0.1220(4) 0.7382(5) 0.7340(7) 0.0407 Uani
C13A C -0.0282(3) 0.6662(4) 0.7540(6) 0.0256 Uani
C14D C 0.7975(6) 0.7212(7) 1.2063(10) 0.0771 Uani
H18D H 0.7676 0.7623 1.2002 0.0930 Uiso
H19D H 0.8311 0.7485 1.2045 0.0930 Uiso
C15D C 0.7604(6) 0.6599(7) 1.1200(9) 0.0777 Uani
H20D H 0.7911 0.6236 1.1204 0.0930 Uiso
H21D H 0.7362 0.6891 1.058 0.0930 Uiso
C16D C 0.6889(6) 0.5439(9) 1.0684(10) 0.1005 Uani
H22D H 0.6628 0.5627 1.0008 0.1210 Uiso
H23D H 0.7245 0.5113 1.078 0.1210 Uiso
C17D C 0.8405(7) 0.6358(8) 1.4946(11) 0.0939 Uani
H24D H 0.8654 0.6188 1.5628 0.1120 Uiso
H25D H 0.8041 0.6684 1.4818 0.1120 Uiso
C18D C 0.5870(6) 0.5371(9) 1.0526(13) 0.1293 Uani
H26D H 0.594 0.5721 1.1049 0.1550 Uiso
H27D H 0.575 0.5711 0.9968 0.1550 Uiso
C19D C 0.5306(7) 0.4728(11) 1.0221(15) 0.1532 Uani
H28D H 0.5395 0.4429 1.0789 0.1850 Uiso
H29D H 0.5256 0.4343 0.9739 0.1850 Uiso
Ni1D Ni 0.76343(5) 0.58900(6) 1.28041(10) 0.0407 Uani
Ni1A Ni -0.23657(5) 0.41100(6) 0.78041(10) 0.0407 Uani
Ni1C Ni 0.26343(5) 0.91100(6) 0.78041(10) 0.0407 Uani
Ni1B Ni -0.26343(5) 0.91100(6) 0.71959(10) 0.0407 Uani
loop_
_atom_site_aniso_label
_atom_site_aniso_U_11
_atom_site_aniso_U_22
_atom_site_aniso_U_33
_atom_site_aniso_U_23
_atom_site_aniso_U_13
_atom_site_aniso_U_12
N1 0.040(4) 0.035(4) 0.071(7) 0.003(5) 0.042(5) 0.004(3)
N2 0.066(5) 0.020(4) 0.085(7) 0.012(5) 0.057(5) 0.012(4)
N3 0.075(6) 0.062(6) 0.069(7) 0.020(5) 0.051(6) 0.020(5)
N4 0.043(5) 0.062(6) 0.081(8) 0.001(5) 0.042(5) 0.000(4)
C1 0.138(11) 0.039(7) 0.187(17) 0.001(10) 0.138(13) -0.006(8)
C2 0.097(9) 0.058(8) 0.122(13) 0.023(8) 0.080(10) 0.012(7)
C3 0.042 0.015 0.075 0 0.046 0.004
O1 0.038 0.033 0.078 0.012 0.046 0.003
C4 0.058(7) 0.047(7) 0.098(11) -0.006(7) 0.048(7) 0.000(5)
O2 0.044 0.044 0.078 -0.011 0.04 -0.001
C5 0.043 0.031 0.093 -0.005 0.05 -0.006
O3 0.108 0.039 0.157 -0.02 0.11 -0.02
N5 0.056(6) 0.072(7) 0.092(9) -0.013(6) 0.042(6) -0.005(5)
C6 0.05 0.048 0.079 -0.002 0.049 -0.008
O4 0.083 0.055 0.19 -0.031 0.101 -0.008
C7 0.064(8) 0.051(7) 0.126(14) -0.016(9) 0.057(9) -0.001(6)
C8 0.071(8) 0.117(12) 0.084(12) -0.022(10) 0.040(9) 0.002(8)
C9 0.038 0.019 0.077 -0.002 0.04 -0.009
C10 0.027 0.021 0.054 -0.002 0.026 0.001
C11 0.028 0.031 0.048 0.008 0.028 0.005
C12 0.057 0.039 0.055 -0.003 0.049 0
C13 0.011 0.019 0.046 -0.003 0.016 -0.002
C14 0.094(9) 0.062(8) 0.110(12) 0.010(8) 0.079(9) 0.003(7)
C15 0.080(8) 0.102(10) 0.071(10) 0.016(8) 0.055(8) 0.006(7)
C16 0.068(8) 0.134(12) 0.083(12) -0.054(10) 0.034(8) -0.004(9)
C17 0.113(11) 0.077(10) 0.094(12) 0.010(9) 0.061(10) 0.011(8)
C18 0.061(8) 0.132(13) 0.172(18) 0.007(12) 0.054(10) 0.005(9)
C19 0.081(10) 0.167(16) 0.24(2) -0.017(15) 0.109(14) -0.009(10)
Ni1 0.0409(7) 0.0315(7) 0.0623(10) -0.0009(6) 0.0371(7) 0.0016(5)
N1D 0.04 0.035 0.071 0.003 0.042 0.004
N2D 0.066 0.02 0.085 0.012 0.057 0.012
N3D 0.075 0.062 0.069 0.02 0.051 0.02
N4D 0.043 0.062 0.081 0.001 0.042 0
C1D 0.138 0.039 0.187 0.001 0.138 -0.006
C2D 0.097 0.058 0.122 0.023 0.08 0.012
C3A 0.042 0.015 0.075 0 0.046 -0.004
O1A 0.038 0.033 0.078 -0.012 0.046 -0.003
O1C 0.038(3) 0.033(3) 0.078(5) -0.012(3) 0.046(4) -0.003(3)
O1G 0.038 0.033 0.078 -0.012 0.046 -0.003
C4D 0.058 0.047 0.098 -0.006 0.048 0
O2A 0.044 0.044 0.078 0.011 0.04 0.001
O2D 0.044 0.044 0.078 -0.011 0.04 -0.001
C5A 0.043 0.031 0.093 0.005 0.05 0.006
O3A 0.108 0.039 0.157 0.02 0.11 0.02
N5D 0.056 0.072 0.092 -0.013 0.042 -0.005
C6A 0.05 0.048 0.079 0.002 0.049 0.008
O4A 0.083 0.055 0.19 0.031 0.101 0.008
C7D 0.064 0.051 0.126 -0.016 0.057 -0.001
C8D 0.071 0.117 0.084 -0.022 0.04 0.002
C9A 0.038 0.019 0.077 0.002 0.04 0.009
C10A 0.027 0.021 0.054 0.002 0.026 -0.001
C11A 0.028 0.031 0.048 -0.008 0.028 -0.005
C12A 0.057 0.039 0.055 0.003 0.049 0
C13A 0.011 0.019 0.046 0.003 0.016 0.002
C14D 0.094 0.062 0.11 0.01 0.079 0.003
C15D 0.08 0.102 0.071 0.016 0.055 0.006
C16D 0.068 0.134 0.083 -0.054 0.034 -0.004
C17D 0.113 0.077 0.094 0.01 0.061 0.011
C18D 0.061 0.132 0.172 0.007 0.054 0.005
C19D 0.081 0.167 0.24 -0.017 0.109 -0.009
Ni1D 0.0409 0.0315 0.0623 -0.0009 0.0371 0.0016
Ni1A 0.0409 0.0315 0.0623 0.0009 0.0371 -0.0016
Ni1C 0.0409 0.0315 0.0623 0.0009 0.0371 -0.0016
Ni1B 0.0409 0.0315 0.0623 -0.0009 0.0371 0.0016
loop_
_geom_bond_atom_site_label_1
_geom_bond_atom_site_label_2
_geom_bond_site_symmetry_1
_geom_bond_site_symmetry_2
N1 H1 1_555 1_555
N2 H2 1_555 1_555
N3 H3 1_555 1_555
N4 H4 1_555 1_555
C1 N2 1_555 1_555
H5 C1 1_555 1_555
H6 C1 1_555 1_555
C2 N3 1_555 1_555
H7 C2 1_555 1_555
H8 C2 1_555 1_555
C3 C5 1_555 1_555
O1 C6 1_555 1_555
C4 N1 1_555 1_555
H9 C4 1_555 1_555
H10 C4 1_555 1_555
O2 C5 1_555 1_555
C5 O4 1_555 1_555
O3 C6 1_555 1_555
N5 C7 1_555 1_555
C6 C12 1_555 1_555
C7 N2 1_555 1_555
H11 C7 1_555 1_555
H12 C7 1_555 1_555
C8 C4 1_555 1_555
H13 C8 1_555 1_555
H14 C8 1_555 1_555
C9 C3 1_555 1_555
H15 C9 1_555 1_555
C10 H16 1_555 1_555
C11 C3 1_555 1_555
H17 C11 1_555 1_555
C12 C10 1_555 1_555
C13 C9 1_555 1_555
C14 N1 1_555 1_555
H18 C14 1_555 1_555
H19 C14 1_555 1_555
C15 N4 1_555 1_555
H20 C15 1_555 1_555
H21 C15 1_555 1_555
C16 N4 1_555 1_555
H22 C16 1_555 1_555
H23 C16 1_555 1_555
C17 N3 1_555 1_555
H24 C17 1_555 1_555
H25 C17 1_555 1_555
C18 N5 1_555 1_555
H26 C18 1_555 1_555
H27 C18 1_555 1_555
C19 C18 1_555 1_555
H28 C19 1_555 1_555
H29 C19 1_555 1_555
Ni1 N1 1_555 1_555
N1D H1D 1_555 1_555
N2D H2D 1_555 1_555
N3D H3D 1_555 1_555
N4D H4D 1_555 1_555
C1D N2D 1_555 1_555
H5D C1D 1_555 1_555
H6D C1D 1_555 1_555
C2D N3D 1_555 1_555
H7D C2D 1_555 1_555
H8D C2D 1_555 1_555
C3A C5A 1_555 1_555
O1A C6A 1_555 1_555
O1C Ni1 1_555 1_555
O1G Ni1D 1_555 1_555
C4D N1D 1_555 1_555
H9D C4D 1_555 1_555
H10D C4D 1_555 1_555
O2A C5A 1_555 1_555
O2D Ni1D 1_555 1_555
C5A O4A 1_555 1_555
O3A C6A 1_555 1_555
N5D C7D 1_555 1_555
C6A C12A 1_555 1_555
C7D N2D 1_555 1_555
H11D C7D 1_555 1_555
H12D C7D 1_555 1_555
C8D C4D 1_555 1_555
H13D C8D 1_555 1_555
H14D C8D 1_555 1_555
C9A C3A 1_555 1_555
H15A C9A 1_555 1_555
C10A H16A 1_555 1_555
C11A C3A 1_555 1_555
H17A C11A 1_555 1_555
C12A C10A 1_555 1_555
C13A C13 1_555 1_555
C14D N1D 1_555 1_555
H18D C14D 1_555 1_555
H19D C14D 1_555 1_555
C15D N4D 1_555 1_555
H20D C15D 1_555 1_555
H21D C15D 1_555 1_555
C16D N4D 1_555 1_555
H22D C16D 1_555 1_555
H23D C16D 1_555 1_555
C17D N3D 1_555 1_555
H24D C17D 1_555 1_555
H25D C17D 1_555 1_555
C18D N5D 1_555 1_555
H26D C18D 1_555 1_555
H27D C18D 1_555 1_555
C19D C19 1_555 1_555
H28D C19D 1_555 1_555
H29D C19D 1_555 1_555
Ni1D N1D 1_555 1_555
Ni1A O2A 1_555 1_555
Ni1C O1 1_555 1_555
Ni1B O1A 1_555 1_555
N2 Ni1 1_555 1_555
N3 Ni1 1_555 1_555
N4 Ni1 1_555 1_555
C1 C2 1_555 1_555
O2 Ni1 1_555 1_555
N5 C16 1_555 1_555
C8 C17 1_555 1_555
C10 C13 1_555 1_555
C11 C12 1_555 1_555
C14 C15 1_555 1_555
N2D Ni1D 1_555 1_555
N3D Ni1D 1_555 1_555
N4D Ni1D 1_555 1_555
C1D C2D 1_555 1_555
N5D C16D 1_555 1_555
C8D C17D 1_555 1_555
C9A C13A 1_555 1_555
C10A C13A 1_555 1_555
C11A C12A 1_555 1_555
C14D C15D 1_555 1_555
C18D C19D 1_555 1_555

#END
