
#######################################################################
#
#                 Cambridge Crystallographic Data Centre
#                                CCDC 
#
#######################################################################
#
# If this CIF has been generated from an entry in the Cambridge 
# Structural Database, then it will include bibliographic, chemical, 
# crystal, experimental, refinement or atomic coordinate data resulting 
# from the CCDC's data processing and validation procedures.
#
#######################################################################

data_VUKRIE
_chemical_formula_moiety         '(C30 H24 N2 Ni2 O8)n'
_chemical_name_systematic        
catena-[(\m-1,4-diazabicyclo[2.2.2]octane)-bis(\m-naphthalene-2,6-dicarboxylato)-di-nickel]
_symmetry_cell_setting           triclinic
_symmetry_space_group_name_H-M   'P 1'
_symmetry_Int_Tables_number      1
_space_group_name_Hall           'P 1'
loop_
_symmetry_equiv_pos_site_id
_symmetry_equiv_pos_as_xyz
1 x,y,z
_cell_length_a                   6.9472
_cell_length_b                   8.1805
_cell_length_c                   12.1722
_cell_angle_alpha                91.1412
_cell_angle_beta                 103.8734
_cell_angle_gamma                104.5498
_cell_volume                     647.678
_exptl_crystal_colour            yellow
_cell_formula_units_Z            1
loop_
_atom_site_label
_atom_site_type_symbol
_atom_site_fract_x
_atom_site_fract_y
_atom_site_fract_z
_atom_site_U_iso_or_equiv
_atom_site_thermal_displace_type
Ni1 Ni 0.10565 0.01741 0.61757 0.0500 Uiso
Ni2 Ni 0.28701 0.35476 0.61443 0.0500 Uiso
N1 N -0.12350 -0.17390 0.60548 0.0500 Uiso
N2 N -0.45210 -0.46026 0.60270 0.0500 Uiso
C1 C -0.13931 -0.22715 0.72099 0.0500 Uiso
C2 C -0.11521 -0.33085 0.54150 0.0500 Uiso
C3 C -0.32422 -0.39175 0.71950 0.0500 Uiso
C4 C -0.51524 -0.31162 0.55285 0.0500 Uiso
C5 C -0.30540 -0.49320 0.53767 0.0500 Uiso
C6 C -0.32766 -0.14999 0.55213 0.0500 Uiso
H1 H -0.38493 -0.53263 0.44673 0.0500 Uiso
H2 H -0.24900 -0.60228 0.56997 0.0500 Uiso
H3 H -0.33517 -0.12260 0.46248 0.0500 Uiso
H4 H -0.34701 -0.03635 0.59726 0.0500 Uiso
H5 H -0.26240 -0.49288 0.76056 0.0500 Uiso
H6 H -0.41972 -0.35807 0.77319 0.0500 Uiso
H7 H -0.61468 -0.27127 0.60109 0.0500 Uiso
H8 H -0.60908 -0.35153 0.46409 0.0500 Uiso
H9 H -0.16105 -0.12103 0.77249 0.0500 Uiso
H10 H 0.00435 -0.25441 0.76511 0.0500 Uiso
H11 H 0.02773 -0.36346 0.58063 0.0500 Uiso
H12 H -0.10873 -0.30473 0.45288 0.0500 Uiso
O1 O 0.53677 0.19302 0.67477 0.0500 Uiso
O2 O 0.34580 -0.07326 0.66815 0.0500 Uiso
O3 O 0.94486 0.09158 1.45967 0.0500 Uiso
O4 O 1.13563 0.35642 1.46590 0.0500 Uiso
C7 C 0.98597 0.23076 1.41202 0.0500 Uiso
C8 C 0.49610 0.05281 0.72187 0.0500 Uiso
C9 C 0.88347 0.23020 1.28517 0.0500 Uiso
C10 C 0.90907 0.37886 1.22773 0.0500 Uiso
C11 C 0.84467 0.37279 1.10766 0.0500 Uiso
C12 C 0.75552 0.21714 1.03955 0.0500 Uiso
C13 C 0.72651 0.06647 1.09429 0.0500 Uiso
C14 C 0.78878 0.07389 1.21563 0.0500 Uiso
C15 C 0.63710 -0.08916 1.02621 0.0500 Uiso
C16 C 0.57242 -0.09522 0.90616 0.0500 Uiso
C17 C 0.59870 0.05332 0.84868 0.0500 Uiso
C18 C 0.69377 0.20963 0.91817 0.0500 Uiso
H13 H 0.98477 0.50021 1.27564 0.0500 Uiso
H14 H 0.86906 0.49066 1.06767 0.0500 Uiso
H15 H 0.77052 -0.04400 1.25526 0.0500 Uiso
H16 H 0.61249 -0.20698 1.06621 0.0500 Uiso
H17 H 0.49599 -0.21643 0.85826 0.0500 Uiso
H18 H 0.71327 0.32742 0.87841 0.0500 Uiso
O5 O 0.22852 0.40947 0.74845 0.0500 Uiso
O6 O 0.06876 0.13274 0.73368 0.0500 Uiso
O7 O 0.38823 0.21050 1.51618 0.0500 Uiso
O8 O 0.22757 -0.06609 1.49996 0.0500 Uiso
C19 C 0.31907 0.06666 1.45665 0.0500 Uiso
C20 C 0.13810 0.27766 0.79281 0.0500 Uiso
C21 C 0.15539 0.27419 0.92075 0.0500 Uiso
C22 C 0.23226 0.42127 0.99717 0.0500 Uiso
C23 C 0.28431 0.40927 1.11619 0.0500 Uiso
C24 C 0.26807 0.24956 1.16286 0.0500 Uiso
C25 C 0.19169 0.10115 1.08868 0.0500 Uiso
C26 C 0.13299 0.11485 0.97003 0.0500 Uiso
C27 C 0.17614 -0.05900 1.13437 0.0500 Uiso
C28 C 0.22887 -0.07232 1.25278 0.0500 Uiso
C29 C 0.30335 0.07393 1.32959 0.0500 Uiso
C30 C 0.32484 0.23526 1.28189 0.0500 Uiso
H19 H 0.25839 0.54557 0.96500 0.0500 Uiso
H20 H 0.34348 0.52563 1.17188 0.0500 Uiso
H21 H 0.07633 -0.00112 0.91626 0.0500 Uiso
H22 H 0.11747 -0.17496 1.07822 0.0500 Uiso
H23 H 0.20436 -0.19719 1.28431 0.0500 Uiso
H24 H 0.37773 0.35142 1.33749 0.0500 Uiso
Ni1_2 Ni 0.10565 0.01741 1.61757 0.0500 Uiso
Ni1_3 Ni 1.10565 0.01741 1.61757 0.0500 Uiso
Ni2_2 Ni -0.71299 -0.64524 0.61443 0.0500 Uiso
Ni2_3 Ni 0.28701 0.35476 1.61443 0.0500 Uiso
Ni2_4 Ni 1.28701 0.35476 1.61443 0.0500 Uiso
N2_2 N 0.54790 0.53974 0.60270 0.0500 Uiso
O3_2 O -0.05514 0.09158 0.45967 0.0500 Uiso
O4_2 O 0.13563 0.35642 0.46590 0.0500 Uiso
O7_2 O 0.38823 0.21050 0.51618 0.0500 Uiso
O8_2 O 0.22757 -0.06609 0.49996 0.0500 Uiso
loop_
_geom_bond_atom_site_label_1
_geom_bond_atom_site_label_2
_geom_bond_site_symmetry_1
_geom_bond_site_symmetry_2
Ni1 N1 1_555 1_555
Ni2 O1 1_555 1_555
N1 C1 1_555 1_555
N2 C3 1_555 1_555
C1 C3 1_555 1_555
C2 N1 1_555 1_555
C3 H5 1_555 1_555
C4 N2 1_555 1_555
C5 N2 1_555 1_555
C6 N1 1_555 1_555
H1 C5 1_555 1_555
H2 C5 1_555 1_555
H3 C6 1_555 1_555
H4 C6 1_555 1_555
H6 C3 1_555 1_555
H7 C4 1_555 1_555
H8 C4 1_555 1_555
H9 C1 1_555 1_555
H10 C1 1_555 1_555
H11 C2 1_555 1_555
H12 C2 1_555 1_555
O1 C8 1_555 1_555
O2 Ni1 1_555 1_555
O3 C7 1_555 1_555
O4 C7 1_555 1_555
C7 C9 1_555 1_555
C8 O2 1_555 1_555
C9 C10 1_555 1_555
C10 C11 1_555 1_555
C11 C12 1_555 1_555
C12 C13 1_555 1_555
C13 C14 1_555 1_555
C14 C9 1_555 1_555
C15 C13 1_555 1_555
C16 C15 1_555 1_555
C17 C8 1_555 1_555
C18 C12 1_555 1_555
H13 C10 1_555 1_555
H14 C11 1_555 1_555
H15 C14 1_555 1_555
H16 C15 1_555 1_555
H17 C16 1_555 1_555
H18 C18 1_555 1_555
O5 Ni2 1_555 1_555
O6 Ni1 1_555 1_555
O7 C19 1_555 1_555
O8 C19 1_555 1_555
C19 C29 1_555 1_555
C20 O5 1_555 1_555
C21 C20 1_555 1_555
C22 C21 1_555 1_555
C23 C22 1_555 1_555
C24 C23 1_555 1_555
C25 C24 1_555 1_555
C26 C21 1_555 1_555
C27 C25 1_555 1_555
C28 C27 1_555 1_555
C29 C28 1_555 1_555
C30 C24 1_555 1_555
H19 C22 1_555 1_555
H20 C23 1_555 1_555
H21 C26 1_555 1_555
H22 C27 1_555 1_555
H23 C28 1_555 1_555
H24 C30 1_555 1_555
Ni1_2 O8 1_555 1_555
Ni1_3 O3 1_555 1_555
Ni2_2 N2 1_555 1_555
Ni2_3 O7 1_555 1_555
Ni2_4 O4 1_555 1_555
N2_2 Ni2 1_555 1_555
O3_2 Ni1 1_555 1_555
O4_2 Ni2 1_555 1_555
O7_2 Ni2 1_555 1_555
O8_2 Ni1 1_555 1_555
C2 C5 1_555 1_555
C4 C6 1_555 1_555
C16 C17 1_555 1_555
C17 C18 1_555 1_555
O6 C20 1_555 1_555
C25 C26 1_555 1_555
C29 C30 1_555 1_555

#END
