
#######################################################################
#
#                 Cambridge Crystallographic Data Centre
#                                CCDC 
#
#######################################################################
#
# If this CIF has been generated from an entry in the Cambridge 
# Structural Database, then it will include bibliographic, chemical, 
# crystal, experimental, refinement or atomic coordinate data resulting 
# from the CCDC's data processing and validation procedures.
#
#######################################################################

data_ALANAD
_chemical_formula_moiety         
'(C70 H58 N10 O30 Zn4)n,12n(C3 H7 N1 O1),8n(H2 O1)'
_chemical_name_systematic        
"catena-((\m~8~-N,N'-bis(3,5-Dicarboxylatophenyl)pyromellitic di-imide)-(\m~6~-N,N'-bis(3,5-dicarboxylatophenyl)pyromellitic di-imide)-hexakis(dimethylformamide)-tetra-zinc(ii) dimethylformamide solvate octahydrate)"
_symmetry_cell_setting           orthorhombic
_symmetry_space_group_name_H-M   'I c a b'
_symmetry_Int_Tables_number      73
_space_group_name_Hall           '-I 2a 2b'
loop_
_symmetry_equiv_pos_site_id
_symmetry_equiv_pos_as_xyz
1 x,y,z
2 1/2-x,-y,z
3 x,1/2-y,-z
4 1/2-x,1/2+y,-z
5 1/2+x,1/2+y,1/2+z
6 -x,1/2-y,1/2+z
7 1/2+x,-y,1/2-z
8 -x,y,1/2-z
9 -x,-y,-z
10 1/2+x,y,-z
11 -x,1/2+y,z
12 1/2+x,1/2-y,z
13 1/2-x,1/2-y,1/2-z
14 x,1/2+y,1/2-z
15 1/2-x,y,1/2+z
16 x,-y,1/2+z
_cell_length_a                   18.199(3)
_cell_length_b                   20.125(4)
_cell_length_c                   69.8204(14)
_cell_angle_alpha                90
_cell_angle_beta                 90
_cell_angle_gamma                90
_cell_volume                     25572.1
_exptl_crystal_colour            'pale yellow'
_exptl_crystal_description       plates
_cell_formula_units_Z            8
loop_
_atom_site_label
_atom_site_type_symbol
_atom_site_fract_x
_atom_site_fract_y
_atom_site_fract_z
_atom_site_U_iso_or_equiv
_atom_site_thermal_displace_type
Zn1 Zn 0.02804(3) 0.22554(3) 0.118207(9) 0.0363 Uani
Zn2 Zn 0.05301(3) 0.11792(3) 0.155631(9) 0.0401 Uani
O1 O 0.0457(2) 0.0750(2) 0.12887(6) 0.0543 Uani
O2 O 0.0309(2) 0.14136(18) 0.10343(6) 0.0477 Uani
O3 O -0.0183(3) -0.1603(2) 0.12353(6) 0.0670 Uani
O4 O -0.0139(2) -0.21013(19) 0.09596(6) 0.0570 Uani
O5 O -0.0800 0.0710 0.0446 0.2120 Uani
O6 O 0.0775 -0.1032 0.0401 0.2687 Uani
O7 O -0.0734(2) 0.2142(2) 0.12934(5) 0.0490 Uani
O8 O -0.0511(2) 0.1556(2) 0.15639(6) 0.0500 Uani
O9 O -0.3434(2) 0.2571(2) 0.11943(6) 0.0633 Uani
O10 O -0.4112(2) 0.28565(18) 0.14427(6) 0.0470 Uani
O11 O -0.1446(3) 0.3127(3) 0.20723(7) 0.0870 Uani
O12 O -0.3416(3) 0.1716(3) 0.20711(7) 0.0833 Uani
O13 O 0.0601(3) 0.1523(3) 0.18408(7) 0.0780 Uani
O14 O 0.0170(2) 0.0256(3) 0.16679(7) 0.0713 Uani
O15 O 0.1603(2) 0.0879(2) 0.15852(7) 0.0623 Uani
C1 C 0.0107(3) -0.0371(3) 0.10728(8) 0.0460 Uani
H1 H 0.0135 -0.0417 0.1205 0.0550 Uiso
C2 C 0.0194(3) 0.0259(3) 0.09917(8) 0.0423 Uani
C3 C 0.0327(3) 0.0865(3) 0.11156(8) 0.0420 Uani
C4 C 0.0162(3) 0.0317(3) 0.07939(8) 0.0477 Uani
H2 H 0.0230 0.0729 0.0736 0.0570 Uiso
C5 C 0.0028(3) -0.0238(3) 0.06825(8) 0.0503 Uani
C6 C -0.0054(3) -0.0858(3) 0.07644(9) 0.0540 Uani
H3 H -0.0132 -0.1230 0.0688 0.0650 Uiso
C7 C -0.0017(3) -0.0918(3) 0.09632(8) 0.0450 Uani
C8 C -0.0119(3) -0.1577(3) 0.10600(9) 0.0470 Uani
C9 C -0.0337 0.0315 0.0371 0.7183 Uani
C10 C -0.0213 0.0179 0.0184 0.2777 Uani
C11 C -0.0496 0.0579 0.0008 0.3300 Uani
H4 H -0.0851 0.0911 0.0010 0.3970 Uiso
C12 C 0.0090 -0.0327 0.0167 0.2240 Uani
C13 C 0.0387 -0.0572 0.0356 0.7107 Uani
C14 C -0.2198(3) 0.2310(3) 0.14204(8) 0.0390 Uani
H5 H -0.2138 0.2302 0.1288 0.0470 Uiso
C15 C -0.1626(3) 0.2137(3) 0.15384(8) 0.0377 Uani
C16 C -0.0891(3) 0.1913(3) 0.14585(9) 0.0393 Uani
C17 C -0.1706(3) 0.2156(3) 0.17368(8) 0.0407 Uani
H6 H -0.1320 0.2029 0.1816 0.0490 Uiso
C18 C -0.2360(3) 0.2366(3) 0.18139(9) 0.0500 Uani
C19 C -0.2951(3) 0.2535(3) 0.16960(8) 0.0433 Uani
H7 H -0.3395 0.2670 0.1749 0.0520 Uiso
C20 C -0.2871(3) 0.2499(3) 0.15000(8) 0.0397 Uani
C21 C -0.3497(3) 0.2661(3) 0.13701(10) 0.0447 Uani
C22 C -0.1940(4) 0.2794(3) 0.21305(9) 0.0597 Uani
C23 C -0.2189(3) 0.2680(3) 0.23304(9) 0.0547 Uani
C24 C -0.1880(4) 0.2947(3) 0.25003(10) 0.0630 Uani
H8 H -0.1477 0.3232 0.2500 0.0760 Uiso
C25 C -0.2769(3) 0.2254(3) 0.23324(9) 0.0540 Uani
C26 C -0.2936(4) 0.2062(4) 0.21287(10) 0.0597 Uani
C27 C 0.0363(13) 0.1611(16) 0.19469(17) 0.3667 Uani
H9 H -0.0123 0.1568 0.1908 0.4420 Uiso
C28 C 0.1052(19) 0.1455(14) 0.2254(4) 0.4500 Uani
H10 H 0.1163 0.1020 0.2206 0.6740 Uiso
H11 H 0.0948 0.1430 0.2389 0.6740 Uiso
H12 H 0.1465 0.1743 0.2234 0.6740 Uiso
C29 C 0.0214(9) 0.2332(10) 0.2180(2) 0.2137 Uani
H13 H -0.0181 0.2531 0.2109 0.3190 Uiso
H14 H 0.0661 0.2569 0.2155 0.3190 Uiso
H15 H 0.0104 0.2352 0.2315 0.3190 Uiso
C30 C -0.0363(8) -0.0033(6) 0.15990(17) 0.1777 Uani
H16 H -0.0631 0.0241 0.1518 0.2130 Uiso
C31 C -0.0163(6) -0.1039(8) 0.17331(19) 0.2157 Uani
H17 H -0.0365 -0.1478 0.1745 0.3260 Uiso
H18 H -0.0125 -0.0841 0.1858 0.3260 Uiso
H19 H 0.0316 -0.1065 0.1676 0.3260 Uiso
C32 C -0.1338(7) -0.0783(7) 0.15305(17) 0.1707 Uani
H20 H -0.1454 -0.1240 0.1556 0.2560 Uiso
H21 H -0.1321 -0.0713 0.1395 0.2560 Uiso
H22 H -0.1708 -0.0503 0.1586 0.2560 Uiso
C33 C 0.2090(6) 0.0875(3) 0.14603(12) 0.0783 Uani
H23 H 0.1942 0.0904 0.1333 0.0950 Uiso
C34 C 0.3047(5) 0.0823(5) 0.16956(16) 0.1273 Uani
H24 H 0.3572 0.0789 0.1702 0.1920 Uiso
H25 H 0.2829 0.0449 0.1759 0.1920 Uiso
H26 H 0.2892 0.1226 0.1757 0.1920 Uiso
C35 C 0.3299(6) 0.0819(5) 0.13310(17) 0.1510 Uani
H27 H 0.3798 0.0781 0.1373 0.2260 Uiso
H28 H 0.3240 0.1223 0.1259 0.2260 Uiso
H29 H 0.3178 0.0446 0.1251 0.2260 Uiso
N1 N 0.0009(3) -0.0178(3) 0.04788(7) 0.0653 Uani
N2 N -0.2430(3) 0.2414(3) 0.20178(7) 0.0503 Uani
N3 N 0.0282(16) 0.1773(9) 0.2134(2) 0.2890 Uani
N4 N -0.0651(5) -0.0628(5) 0.16109(16) 0.1377 Uani
N5 N 0.2814(4) 0.0832(3) 0.14954(14) 0.0927 Uani
Zn1H Zn -0.02804(3) -0.22554(3) -0.118207(9) 0.0363 Uani
Zn1J Zn -0.02804(3) -0.27446(3) 0.118207(9) 0.0363 Uani
Zn1K Zn -0.47196(3) 0.27446(3) 0.118207(9) 0.0363 Uani
Zn1B Zn 0.02804(3) 0.27446(3) -0.118207(9) 0.0363 Uani
Zn1G Zn -0.02804(3) 0.22554(3) 0.381793(9) 0.0363 Uani
Zn1L Zn -0.52804(3) 0.27446(3) 0.381793(9) 0.0363 Uani
Zn2H Zn -0.05301(3) -0.11792(3) -0.155631(9) 0.0401 Uani
Zn2K Zn -0.44699(3) 0.38208(3) 0.155631(9) 0.0401 Uani
Zn2G Zn -0.05301(3) 0.11792(3) 0.344369(9) 0.0401 Uani
Zn2L Zn -0.55301(3) 0.38208(3) 0.344369(9) 0.0401 Uani
O1H O -0.0457(2) -0.0750(2) -0.12887(6) 0.0543 Uani
O2H O -0.0309(2) -0.14136(18) -0.10343(6) 0.0477 Uani
O3H O 0.0183(3) 0.1603(2) -0.12353(6) 0.0670 Uani
O3J O 0.0183(3) 0.3397(2) 0.12353(6) 0.0670 Uani
O3B O -0.0183(3) -0.3397(2) -0.12353(6) 0.0670 Uani
O4H O 0.0139(2) 0.21013(19) -0.09596(6) 0.0570 Uani
O4J O 0.0139(2) 0.28987(19) 0.09596(6) 0.0570 Uani
O4B O -0.0139(2) -0.28987(19) -0.09596(6) 0.0570 Uani
O5H O 0.0800 -0.0710 -0.0446 0.2120 Uani
O6H O -0.0775 0.1032 -0.0401 0.2687 Uani
O7L O -0.4266(2) 0.2858(2) 0.37066(5) 0.0490 Uani
O7H O 0.0734(2) -0.2142(2) -0.12934(5) 0.0490 Uani
O8L O -0.4489(2) 0.3444(2) 0.34361(6) 0.0500 Uani
O8H O 0.0511(2) -0.1556(2) -0.15639(6) 0.0500 Uani
O9L O -0.1566(2) 0.2429(2) 0.38057(6) 0.0633 Uani
O9K O 0.1566(2) 0.2429(2) 0.11943(6) 0.0633 Uani
O9C O -0.1566(2) -0.2429(2) -0.11943(6) 0.0633 Uani
O10L O -0.0888(2) 0.21435(18) 0.35573(6) 0.0470 Uani
O10K O 0.0888(2) 0.21435(18) 0.14427(6) 0.0470 Uani
O10C O -0.0888(2) -0.21435(18) -0.14427(6) 0.0470 Uani
O11L O -0.3554(3) 0.1873(3) 0.29277(7) 0.0870 Uani
O12L O -0.1584(3) 0.3284(3) 0.29289(7) 0.0833 Uani
O13H O -0.0601(3) -0.1523(3) -0.18408(7) 0.0780 Uani
O14H O -0.0170(2) -0.0256(3) -0.16679(7) 0.0713 Uani
O15H O -0.1603(2) -0.0879(2) -0.15852(7) 0.0623 Uani
C1H C -0.0107(3) 0.0371(3) -0.10728(8) 0.0460 Uani
H1H H -0.0135 0.0417 -0.1205 0.0550 Uiso
C2H C -0.0194(3) -0.0259(3) -0.09917(8) 0.0423 Uani
C3H C -0.0327(3) -0.0865(3) -0.11156(8) 0.0420 Uani
C4H C -0.0162(3) -0.0317(3) -0.07939(8) 0.0477 Uani
H2H H -0.0230 -0.0729 -0.0736 0.0570 Uiso
C5H C -0.0028(3) 0.0238(3) -0.06825(8) 0.0503 Uani
C6H C 0.0054(3) 0.0858(3) -0.07644(9) 0.0540 Uani
H3H H 0.0132 0.1230 -0.0688 0.0650 Uiso
C7H C 0.0017(3) 0.0918(3) -0.09632(8) 0.0450 Uani
C8H C 0.0119(3) 0.1577(3) -0.10600(9) 0.0470 Uani
C9H C 0.0337 -0.0315 -0.0371 0.7183 Uani
C10H C 0.0213 -0.0179 -0.0184 0.2777 Uani
C11H C 0.0496 -0.0579 -0.0008 0.3300 Uani
H4H H 0.0851 -0.0911 -0.0010 0.3970 Uiso
C12H C -0.0090 0.0327 -0.0167 0.2240 Uani
C13H C -0.0387 0.0572 -0.0356 0.7107 Uani
C14L C -0.2802(3) 0.2690(3) 0.35796(8) 0.0390 Uani
H5L H -0.2862 0.2698 0.3712 0.0470 Uiso
C15L C -0.3374(3) 0.2863(3) 0.34616(8) 0.0377 Uani
C16L C -0.4109(3) 0.3087(3) 0.35415(9) 0.0393 Uani
C17L C -0.3294(3) 0.2844(3) 0.32632(8) 0.0407 Uani
H6L H -0.3680 0.2971 0.3184 0.0490 Uiso
C18L C -0.2640(3) 0.2634(3) 0.31861(9) 0.0500 Uani
C19L C -0.2049(3) 0.2465(3) 0.33040(8) 0.0433 Uani
H7L H -0.1605 0.2330 0.3251 0.0520 Uiso
C20L C -0.2129(3) 0.2501(3) 0.35000(8) 0.0397 Uani
C21L C -0.1503(3) 0.2339(3) 0.36299(10) 0.0447 Uani
C22L C -0.3060(4) 0.2206(3) 0.28695(9) 0.0597 Uani
C23L C -0.2811(3) 0.2320(3) 0.26696(9) 0.0547 Uani
C24L C -0.3120(4) 0.2053(3) 0.24997(10) 0.0630 Uani
H8L H -0.3523 0.1768 0.2500 0.0760 Uiso
C25L C -0.2231(3) 0.2746(3) 0.26676(9) 0.0540 Uani
C26L C -0.2064(4) 0.2938(4) 0.28713(10) 0.0597 Uani
C27H C -0.0363(13) -0.1611(16) -0.19469(17) 0.3667 Uani
H9H H 0.0123 -0.1568 -0.1908 0.4420 Uiso
C28H C -0.1052(19) -0.1455(14) -0.2254(4) 0.4500 Uani
H10H H -0.1163 -0.1020 -0.2206 0.6740 Uiso
H11H H -0.0948 -0.1430 -0.2389 0.6740 Uiso
H12H H -0.1465 -0.1743 -0.2234 0.6740 Uiso
C29H C -0.0214(9) -0.2332(10) -0.2180(2) 0.2137 Uani
H13H H 0.0181 -0.2531 -0.2109 0.3190 Uiso
H14H H -0.0661 -0.2569 -0.2155 0.3190 Uiso
H15H H -0.0104 -0.2352 -0.2315 0.3190 Uiso
C30H C 0.0363(8) 0.0033(6) -0.15990(17) 0.1777 Uani
H16H H 0.0631 -0.0241 -0.1518 0.2130 Uiso
C31H C 0.0163(6) 0.1039(8) -0.17331(19) 0.2157 Uani
H17H H 0.0365 0.1478 -0.1745 0.3260 Uiso
H18H H 0.0125 0.0841 -0.1858 0.3260 Uiso
H19H H -0.0316 0.1065 -0.1676 0.3260 Uiso
C32H C 0.1338(7) 0.0783(7) -0.15305(17) 0.1707 Uani
H20H H 0.1454 0.1240 -0.1556 0.2560 Uiso
H21H H 0.1321 0.0713 -0.1395 0.2560 Uiso
H22H H 0.1708 0.0503 -0.1586 0.2560 Uiso
C33H C -0.2090(6) -0.0875(3) -0.14603(12) 0.0783 Uani
H23H H -0.1942 -0.0904 -0.1333 0.0950 Uiso
C34H C -0.3047(5) -0.0823(5) -0.16956(16) 0.1273 Uani
H24H H -0.3572 -0.0789 -0.1702 0.1920 Uiso
H25H H -0.2829 -0.0449 -0.1759 0.1920 Uiso
H26H H -0.2892 -0.1226 -0.1757 0.1920 Uiso
C35H C -0.3299(6) -0.0819(5) -0.13310(17) 0.1510 Uani
H27H H -0.3798 -0.0781 -0.1373 0.2260 Uiso
H28H H -0.3240 -0.1223 -0.1259 0.2260 Uiso
H29H H -0.3178 -0.0446 -0.1251 0.2260 Uiso
N1H N -0.0009(3) 0.0178(3) -0.04788(7) 0.0653 Uani
N2L N -0.2570(3) 0.2586(3) 0.29822(7) 0.0503 Uani
N3H N -0.0282(16) -0.1773(9) -0.2134(2) 0.2890 Uani
N4H N 0.0651(5) 0.0628(5) -0.16109(16) 0.1377 Uani
N5H N -0.2814(4) -0.0832(3) -0.14954(14) 0.0927 Uani
loop_
_atom_site_aniso_label
_atom_site_aniso_U_11
_atom_site_aniso_U_22
_atom_site_aniso_U_33
_atom_site_aniso_U_23
_atom_site_aniso_U_13
_atom_site_aniso_U_12
Zn1 0.0471(4) 0.0304(3) 0.0313(3) 0.0023(3) -0.0017(3) 0.0002(3)
Zn2 0.0415(4) 0.0445(4) 0.0343(4) 0.0015(3) -0.0016(3) 0.0036(3)
O1 0.087(3) 0.040(2) 0.036(3) -0.005(2) -0.004(2) 0.001(2)
O2 0.075(3) 0.027(2) 0.041(2) 0.0070(18) 0.002(2) -0.0038(19)
O3 0.112(4) 0.045(3) 0.044(3) 0.015(2) 0.004(3) -0.005(3)
O4 0.085(3) 0.029(2) 0.057(3) 0.006(2) 0.005(2) -0.009(2)
O5 0.288(11) 0.237(12) 0.111(7) -0.035(7) -0.039(7) -0.058(9)
O6 0.435(17) 0.226(13) 0.145(9) 0.092(8) 0.004(10) -0.067(12)
O7 0.051(3) 0.063(3) 0.033(2) 0.006(2) 0.0087(19) 0.002(2)
O8 0.044(2) 0.056(3) 0.050(3) 0.016(2) 0.008(2) 0.018(2)
O9 0.064(3) 0.077(3) 0.049(3) -0.002(3) -0.015(2) 0.011(2)
O10 0.050(3) 0.038(2) 0.053(3) -0.004(2) -0.005(2) 0.0002(19)
O11 0.101(4) 0.113(5) 0.047(3) -0.005(3) 0.013(3) -0.053(3)
O12 0.086(4) 0.108(4) 0.056(3) -0.025(3) 0.001(3) -0.041(3)
O13 0.093(4) 0.102(4) 0.039(3) -0.008(3) 0.003(3) -0.026(3)
O14 0.076(3) 0.063(3) 0.075(4) 0.029(3) 0.004(3) -0.012(3)
O15 0.058(3) 0.058(3) 0.071(4) 0.004(3) 0.001(2) 0.014(2)
C1 0.068(4) 0.040(3) 0.030(3) 0.004(3) 0.004(3) 0.001(3)
C2 0.066(4) 0.029(3) 0.032(3) 0.001(3) 0.000(3) -0.010(3)
C3 0.048(4) 0.041(3) 0.037(3) -0.001(3) 0.006(3) -0.001(3)
C4 0.076(4) 0.039(3) 0.028(3) 0.005(3) -0.003(3) -0.010(3)
C5 0.091(4) 0.040(3) 0.020(3) 0.001(3) 0.002(3) 0.002(3)
C6 0.093(5) 0.028(3) 0.041(4) 0.001(3) 0.001(3) -0.001(3)
C7 0.076(4) 0.030(3) 0.029(3) 0.005(3) 0.000(3) 0.000(3)
C8 0.060(4) 0.033(3) 0.048(4) 0.006(3) 0.004(3) -0.001(3)
C9 2.00(13) 0.139(14) 0.016(5) -0.003(7) -0.04(2) -0.43(4)
C10 0.75(4) 0.059(7) 0.024(4) 0.003(5) -0.077(11) 0.014(13)
C11 0.77(4) 0.106(10) 0.114(12) 0.022(11) -0.067(19) 0.045(18)
C12 0.59(3) 0.059(6) 0.023(4) 0.000(4) 0.011(10) -0.016(12)
C13 2.00(13) 0.085(10) 0.047(8) 0.030(8) -0.20(3) -0.22(3)
C14 0.045(4) 0.035(3) 0.037(3) 0.002(3) 0.002(3) -0.003(3)
C15 0.048(4) 0.033(3) 0.032(3) -0.002(3) -0.002(3) 0.001(2)
C16 0.038(4) 0.034(3) 0.046(4) -0.014(3) -0.003(3) -0.004(3)
C17 0.034(3) 0.048(4) 0.040(3) 0.001(3) 0.000(3) 0.008(3)
C18 0.056(4) 0.056(4) 0.038(4) 0.000(3) -0.009(3) 0.004(3)
C19 0.039(3) 0.048(4) 0.043(3) 0.004(3) 0.004(3) 0.002(3)
C20 0.037(4) 0.039(3) 0.043(3) -0.002(3) 0.001(3) 0.005(3)
C21 0.041(4) 0.031(3) 0.062(4) 0.000(3) -0.005(3) 0.000(3)
C22 0.081(5) 0.068(5) 0.030(3) -0.005(3) 0.003(3) -0.009(4)
C23 0.063(4) 0.068(5) 0.033(3) 0.001(3) 0.000(3) -0.013(4)
C24 0.082(5) 0.064(4) 0.043(4) 0.000(3) 0.007(4) -0.015(4)
C25 0.052(4) 0.072(5) 0.038(4) -0.004(3) 0.005(3) -0.008(3)
C26 0.062(5) 0.077(5) 0.040(4) -0.003(4) 0.010(3) 0.007(4)
C27 0.37(3) 0.71(5) 0.020(6) -0.019(15) 0.002(11) -0.05(3)
C28 0.63(6) 0.28(3) 0.44(5) 0.11(3) -0.17(4) -0.12(3)
C29 0.220(17) 0.27(2) 0.151(16) 0.049(16) -0.059(13) -0.135(17)
C30 0.299(17) 0.113(9) 0.121(10) -0.045(8) 0.145(11) -0.114(10)
C31 0.131(9) 0.31(2) 0.206(14) 0.205(15) 0.074(9) 0.099(11)
C32 0.143(11) 0.210(15) 0.159(13) -0.040(10) 0.012(9) -0.057(10)
C33 0.115(8) 0.044(4) 0.076(6) -0.010(4) 0.007(5) 0.008(4)
C34 0.080(6) 0.136(9) 0.166(11) -0.071(9) -0.038(7) 0.038(6)
C35 0.133(9) 0.132(10) 0.188(13) 0.022(9) 0.068(9) 0.046(8)
N1 0.134(5) 0.040(3) 0.022(3) 0.000(2) 0.003(3) -0.010(3)
N2 0.053(3) 0.067(4) 0.031(3) -0.006(3) 0.001(2) 0.006(3)
N3 0.59(4) 0.173(16) 0.104(11) -0.010(11) 0.119(17) 0.03(2)
N4 0.112(7) 0.118(8) 0.183(10) -0.030(7) 0.052(7) -0.045(6)
N5 0.048(5) 0.064(4) 0.166(9) -0.009(5) 0.006(5) 0.017(3)
Zn1H 0.0471 0.0304 0.0313 0.0023 -0.0017 0.0002
Zn1J 0.0471 0.0304 0.0313 0.0023 0.0017 -0.0002
Zn1K 0.0471 0.0304 0.0313 -0.0023 -0.0017 -0.0002
Zn1B 0.0471 0.0304 0.0313 0.0023 0.0017 -0.0002
Zn1G 0.0471 0.0304 0.0313 -0.0023 -0.0017 -0.0002
Zn1L 0.0471 0.0304 0.0313 0.0023 -0.0017 0.0002
Zn2H 0.0415 0.0445 0.0343 0.0015 -0.0016 0.0036
Zn2K 0.0415 0.0445 0.0343 -0.0015 -0.0016 -0.0036
Zn2G 0.0415 0.0445 0.0343 -0.0015 -0.0016 -0.0036
Zn2L 0.0415 0.0445 0.0343 0.0015 -0.0016 0.0036
O1H 0.087 0.04 0.036 -0.005 -0.004 0.001
O2H 0.075 0.027 0.041 0.007 0.002 -0.0038
O3H 0.112 0.045 0.044 0.015 0.004 -0.005
O3J 0.112 0.045 0.044 0.015 -0.004 0.005
O3B 0.112 0.045 0.044 0.015 -0.004 0.005
O4H 0.085 0.029 0.057 0.006 0.005 -0.009
O4J 0.085 0.029 0.057 0.006 -0.005 0.009
O4B 0.085 0.029 0.057 0.006 -0.005 0.009
O5H 0.288 0.237 0.111 -0.035 -0.039 -0.058
O6H 0.435 0.226 0.145 0.092 0.004 -0.067
O7L 0.051 0.063 0.033 0.006 0.0087 0.002
O7H 0.051 0.063 0.033 0.006 0.0087 0.002
O8L 0.044 0.056 0.05 0.016 0.008 0.018
O8H 0.044 0.056 0.05 0.016 0.008 0.018
O9L 0.064 0.077 0.049 -0.002 -0.015 0.011
O9K 0.064 0.077 0.049 0.002 -0.015 -0.011
O9C 0.064 0.077 0.049 0.002 -0.015 -0.011
O10L 0.05 0.038 0.053 -0.004 -0.005 0.0002
O10K 0.05 0.038 0.053 0.004 -0.005 -0.0002
O10C 0.05 0.038 0.053 0.004 -0.005 -0.0002
O11L 0.101 0.113 0.047 -0.005 0.013 -0.053
O12L 0.086 0.108 0.056 -0.025 0.001 -0.041
O13H 0.093 0.102 0.039 -0.008 0.003 -0.026
O14H 0.076 0.063 0.075 0.029 0.004 -0.012
O15H 0.058 0.058 0.071 0.004 0.001 0.014
C1H 0.068 0.04 0.03 0.004 0.004 0.001
C2H 0.066 0.029 0.032 0.001 0 -0.01
C3H 0.048 0.041 0.037 -0.001 0.006 -0.001
C4H 0.076 0.039 0.028 0.005 -0.003 -0.01
C5H 0.091 0.04 0.02 0.001 0.002 0.002
C6H 0.093 0.028 0.041 0.001 0.001 -0.001
C7H 0.076 0.03 0.029 0.005 0 0
C8H 0.06 0.033 0.048 0.006 0.004 -0.001
C9H 2 0.139 0.016 -0.003 -0.04 -0.43
C10H 0.75 0.059 0.024 0.003 -0.077 0.014
C11H 0.77 0.106 0.114 0.022 -0.067 0.045
C12H 0.59 0.059 0.023 0 0.011 -0.016
C13H 2 0.085 0.047 0.03 -0.2 -0.22
C14L 0.045 0.035 0.037 0.002 0.002 -0.003
C15L 0.048 0.033 0.032 -0.002 -0.002 0.001
C16L 0.038 0.034 0.046 -0.014 -0.003 -0.004
C17L 0.034 0.048 0.04 0.001 0 0.008
C18L 0.056 0.056 0.038 0 -0.009 0.004
C19L 0.039 0.048 0.043 0.004 0.004 0.002
C20L 0.037 0.039 0.043 -0.002 0.001 0.005
C21L 0.041 0.031 0.062 0 -0.005 0
C22L 0.081 0.068 0.03 -0.005 0.003 -0.009
C23L 0.063 0.068 0.033 0.001 0 -0.013
C24L 0.082 0.064 0.043 0 0.007 -0.015
C25L 0.052 0.072 0.038 -0.004 0.005 -0.008
C26L 0.062 0.077 0.04 -0.003 0.01 0.007
C27H 0.37 0.71 0.02 -0.019 0.002 -0.05
C28H 0.63 0.28 0.44 0.11 -0.17 -0.12
C29H 0.22 0.27 0.151 0.049 -0.059 -0.135
C30H 0.299 0.113 0.121 -0.045 0.145 -0.114
C31H 0.131 0.31 0.206 0.205 0.074 0.099
C32H 0.143 0.21 0.159 -0.04 0.012 -0.057
C33H 0.115 0.044 0.076 -0.01 0.007 0.008
C34H 0.08 0.136 0.166 -0.071 -0.038 0.038
C35H 0.133 0.132 0.188 0.022 0.068 0.046
N1H 0.134 0.04 0.022 0 0.003 -0.01
N2L 0.053 0.067 0.031 -0.006 0.001 0.006
N3H 0.59 0.173 0.104 -0.01 0.119 0.03
N4H 0.112 0.118 0.183 -0.03 0.052 -0.045
N5H 0.048 0.064 0.166 -0.009 0.006 0.017
loop_
_geom_bond_atom_site_label_1
_geom_bond_atom_site_label_2
_geom_bond_site_symmetry_1
_geom_bond_site_symmetry_2
Zn1 O2 1_555 1_555
Zn2 O1 1_555 1_555
O1 C3 1_555 1_555
O2 C3 1_555 1_555
O3 C8 1_555 1_555
O4 C8 1_555 1_555
O5 C9 1_555 1_555
O6 C13 1_555 1_555
O7 Zn1 1_555 1_555
O8 Zn2 1_555 1_555
O9 C21 1_555 1_555
O10 C21 1_555 1_555
O11 C22 1_555 1_555
O12 C26 1_555 1_555
O13 Zn2 1_555 1_555
O14 Zn2 1_555 1_555
O15 Zn2 1_555 1_555
C1 H1 1_555 1_555
C2 C1 1_555 1_555
C3 C2 1_555 1_555
C4 C2 1_555 1_555
H2 C4 1_555 1_555
C5 C4 1_555 1_555
C6 C5 1_555 1_555
H3 C6 1_555 1_555
C7 C1 1_555 1_555
C8 C7 1_555 1_555
C9 C10 1_555 1_555
C10 C11 1_555 1_555
C11 H4 1_555 1_555
C12 C10 1_555 1_555
C13 C12 1_555 1_555
C14 H5 1_555 1_555
C15 C14 1_555 1_555
C16 O7 1_555 1_555
C17 C15 1_555 1_555
H6 C17 1_555 1_555
C18 C17 1_555 1_555
C19 C18 1_555 1_555
H7 C19 1_555 1_555
C20 C14 1_555 1_555
C21 C20 1_555 1_555
C22 C23 1_555 1_555
C23 C24 1_555 1_555
C24 H8 1_555 1_555
C25 C23 1_555 1_555
C26 C25 1_555 1_555
C27 O13 1_555 1_555
H9 C27 1_555 1_555
C28 H10 1_555 1_555
H11 C28 1_555 1_555
H12 C28 1_555 1_555
C29 H13 1_555 1_555
H14 C29 1_555 1_555
H15 C29 1_555 1_555
C30 O14 1_555 1_555
H16 C30 1_555 1_555
C31 H17 1_555 1_555
H18 C31 1_555 1_555
H19 C31 1_555 1_555
C32 H20 1_555 1_555
H21 C32 1_555 1_555
H22 C32 1_555 1_555
C33 O15 1_555 1_555
H23 C33 1_555 1_555
C34 H24 1_555 1_555
H25 C34 1_555 1_555
H26 C34 1_555 1_555
C35 H27 1_555 1_555
H28 C35 1_555 1_555
H29 C35 1_555 1_555
N1 C5 1_555 1_555
N2 C18 1_555 1_555
N3 C27 1_555 1_555
N4 C30 1_555 1_555
N5 C33 1_555 1_555
Zn1H O2H 1_555 1_555
Zn1J O3 1_555 1_555
Zn1K O9 1_555 1_555
Zn1B O3H 1_555 1_555
Zn1G O9L 1_555 1_555
Zn1L O7L 1_555 1_555
Zn2H O1H 1_555 1_555
Zn2K O10 1_555 1_555
Zn2G O10L 1_555 1_555
Zn2L O8L 1_555 1_555
O1H C3H 1_555 1_555
O2H C3H 1_555 1_555
O3H C8H 1_555 1_555
O3J Zn1 1_555 1_555
O3B Zn1H 1_555 1_555
O4H Zn1B 1_555 1_555
O4J Zn1 1_555 1_555
O4B Zn1H 1_555 1_555
O5H C9H 1_555 1_555
O6H C13H 1_555 1_555
O7L C16L 1_555 1_555
O7H Zn1H 1_555 1_555
O8L C16L 1_555 1_555
O8H Zn2H 1_555 1_555
O9L C21L 1_555 1_555
O9K Zn1 1_555 1_555
O9C Zn1H 1_555 1_555
O10L Zn1G 1_555 1_555
O10K Zn1 1_555 1_555
O10C Zn1H 1_555 1_555
O11L C22L 1_555 1_555
O12L C26L 1_555 1_555
O13H Zn2H 1_555 1_555
O14H Zn2H 1_555 1_555
O15H Zn2H 1_555 1_555
C1H H1H 1_555 1_555
C2H C1H 1_555 1_555
C3H C2H 1_555 1_555
C4H C2H 1_555 1_555
H2H C4H 1_555 1_555
C5H C4H 1_555 1_555
C6H C5H 1_555 1_555
H3H C6H 1_555 1_555
C7H C1H 1_555 1_555
C8H O4H 1_555 1_555
C9H C10H 1_555 1_555
C10H C11H 1_555 1_555
C11H C12 1_555 1_555
H4H C11H 1_555 1_555
C12H C11 1_555 1_555
C13H C12H 1_555 1_555
C14L H5L 1_555 1_555
C15L C14L 1_555 1_555
C16L C15L 1_555 1_555
C17L C15L 1_555 1_555
H6L C17L 1_555 1_555
C18L C17L 1_555 1_555
C19L C18L 1_555 1_555
H7L C19L 1_555 1_555
C20L C14L 1_555 1_555
C21L O10L 1_555 1_555
C22L C23L 1_555 1_555
C23L C24L 1_555 1_555
C24L C25 1_555 1_555
H8L C24L 1_555 1_555
C25L C24 1_555 1_555
C26L C25L 1_555 1_555
C27H O13H 1_555 1_555
H9H C27H 1_555 1_555
C28H H10H 1_555 1_555
H11H C28H 1_555 1_555
H12H C28H 1_555 1_555
C29H H13H 1_555 1_555
H14H C29H 1_555 1_555
H15H C29H 1_555 1_555
C30H O14H 1_555 1_555
H16H C30H 1_555 1_555
C31H H17H 1_555 1_555
H18H C31H 1_555 1_555
H19H C31H 1_555 1_555
C32H H20H 1_555 1_555
H21H C32H 1_555 1_555
H22H C32H 1_555 1_555
C33H O15H 1_555 1_555
H23H C33H 1_555 1_555
C34H H24H 1_555 1_555
H25H C34H 1_555 1_555
H26H C34H 1_555 1_555
C35H H27H 1_555 1_555
H28H C35H 1_555 1_555
H29H C35H 1_555 1_555
N1H C5H 1_555 1_555
N2L C18L 1_555 1_555
N3H C27H 1_555 1_555
N4H C30H 1_555 1_555
N5H C33H 1_555 1_555
Zn2 O10K 1_555 1_555
O4 Zn1J 1_555 1_555
O8 C16 1_555 1_555
O10 Zn1K 1_555 1_555
C6 C7 1_555 1_555
C9 N1 1_555 1_555
C13 N1 1_555 1_555
C15 C16 1_555 1_555
C19 C20 1_555 1_555
C22 N2 1_555 1_555
C26 N2 1_555 1_555
C28 N3 1_555 1_555
C29 N3 1_555 1_555
C31 N4 1_555 1_555
C32 N4 1_555 1_555
C34 N5 1_555 1_555
C35 N5 1_555 1_555
Zn2H O10C 1_555 1_555
C6H C7H 1_555 1_555
C7H C8H 1_555 1_555
C9H N1H 1_555 1_555
C10H C12H 1_555 1_555
C13H N1H 1_555 1_555
C19L C20L 1_555 1_555
C20L C21L 1_555 1_555
C22L N2L 1_555 1_555
C23L C25L 1_555 1_555
C26L N2L 1_555 1_555
C28H N3H 1_555 1_555
C29H N3H 1_555 1_555
C31H N4H 1_555 1_555
C32H N4H 1_555 1_555
C34H N5H 1_555 1_555
C35H N5H 1_555 1_555

#END
