
#######################################################################
#
#                 Cambridge Crystallographic Data Centre
#                                CCDC 
#
#######################################################################
#
# If this CIF has been generated from an entry in the Cambridge 
# Structural Database, then it will include bibliographic, chemical, 
# crystal, experimental, refinement or atomic coordinate data resulting 
# from the CCDC's data processing and validation procedures.
#
#######################################################################

data_IKURIP01
_chemical_formula_moiety         '(C32 H24 N2 O8 Rh2)n,3n(C1 O2)'
_chemical_name_systematic        
'catena-(tetrakis(\m~2~-benzoato)-(\m~2~-pyrazine)-di-rhodium(ii) tris(carbon dioxide) clathrate)'
_symmetry_cell_setting           triclinic
_symmetry_space_group_name_H-M   'P -1'
_symmetry_Int_Tables_number      2
_space_group_name_Hall           '-P 1'
loop_
_symmetry_equiv_pos_site_id
_symmetry_equiv_pos_as_xyz
1 x,y,z
2 -x,-y,-z
_cell_length_a                   9.541(2)
_cell_length_b                   10.300(2)
_cell_length_c                   11.038(2)
_cell_angle_alpha                70.192(4)
_cell_angle_beta                 66.179(4)
_cell_angle_gamma                63.002(4)
_cell_volume                     867.939
_exptl_crystal_colour            red
_exptl_crystal_description       plate
_cell_formula_units_Z            1
loop_
_atom_site_label
_atom_site_type_symbol
_atom_site_fract_x
_atom_site_fract_y
_atom_site_fract_z
C1 C 0.6717(5) 0.2446(5) 0.4222(5)
C2 C 0.7704(5) 0.0962(5) 0.3833(5)
C3 C 0.9403(6) 0.0365(5) 0.3597(5)
H1 H 0.9934 0.0897 0.3692
C4 C 1.0328(6) -0.1027(6) 0.3218(5)
H2 H 1.1486 -0.1446 0.3069
C5 C 0.9550(6) -0.1788(6) 0.3062(5)
H3 H 1.0183 -0.2720 0.2785
C6 C 0.7850(6) -0.1199(6) 0.3306(5)
H4 H 0.7320 -0.1728 0.3203
C7 C 0.6932(6) 0.0170(6) 0.3701(5)
H5 H 0.5769 0.0569 0.3884
C8 C 0.5369(5) 0.6400(5) 0.2496(5)
C9 C 0.5572(6) 0.7190(6) 0.1069(5)
C10 C 0.6748(6) 0.7855(6) 0.0402(6)
H6 H 0.7416 0.7814 0.0870
C11 C 0.6947(7) 0.8565(7) -0.0921(6)
H7 H 0.7733 0.9031 -0.1355
C12 C 0.6008(7) 0.8607(7) -0.1628(6)
H8 H 0.6150 0.9090 -0.2547
C13 C 0.4847(7) 0.7926(8) -0.0969(6)
H9 H 0.4204 0.7945 -0.1449
C14 C 0.4623(7) 0.7231(6) 0.0359(6)
H10 H 0.3824 0.6779 0.0795
C15 C 0.1438(5) 0.4321(5) 0.4153(5)
H11 H 0.2448 0.3820 0.3549
C16 C -0.0016(5) 0.4418(5) 0.4088(5)
H12 H 0.0004 0.4009 0.3426
N1 N 0.1465(4) 0.4916(4) 0.5049(4)
O1 O 0.7489(4) 0.3094(4) 0.4358(3)
O2 O 0.5168(4) 0.2956(4) 0.4405(3)
O3 O 0.6433(4) 0.6184(4) 0.3030(3)
O4 O 0.4134(4) 0.6007(4) 0.3086(3)
Rh1 Rh 0.37715(4) 0.49260(4) 0.50297(3)
C1A C 0.3283(5) 0.7554(5) 0.5778(5)
C2A C 0.2296(5) 0.9038(5) 0.6167(5)
C3A C 0.0597(6) 0.9635(5) 0.6403(5)
H1A H 0.0066 0.9103 0.6308
C4A C -0.0328(6) 1.1027(6) 0.6782(5)
H2A H -0.1486 1.1446 0.6931
C5A C 0.0450(6) 1.1788(6) 0.6938(5)
H3A H -0.0183 1.2720 0.7215
C6A C 0.2150(6) 1.1199(6) 0.6694(5)
H4A H 0.2680 1.1728 0.6797
C7A C 0.3068(6) 0.9830(6) 0.6299(5)
H5A H 0.4231 0.9431 0.6116
C8A C 0.4631(5) 0.3600(5) 0.7504(5)
C9A C 0.4428(6) 0.2810(6) 0.8931(5)
C10A C 0.3252(6) 0.2145(6) 0.9598(6)
H6A H 0.2584 0.2186 0.9130
C11A C 0.3053(7) 0.1435(7) 1.0921(6)
H7A H 0.2267 0.0969 1.1355
C12A C 0.3992(7) 0.1393(7) 1.1628(6)
H8A H 0.3850 0.0910 1.2547
C13A C 0.5153(7) 0.2074(8) 1.0969(6)
H9A H 0.5796 0.2055 1.1449
C14A C 0.5377(7) 0.2769(6) 0.9641(6)
H10A H 0.6176 0.3221 0.9205
C15A C -0.1438(5) 0.5679(5) 0.5847(5)
H11A H -0.2448 0.6180 0.6451
C16A C 0.0016(5) 0.5582(5) 0.5912(5)
H12A H -0.0004 0.5991 0.6574
N1A N -0.1465(4) 0.5084(4) 0.4951(4)
N1A_2 N 0.8535(4) 0.5084(4) 0.4951(4)
O1A O 0.2511(4) 0.6906(4) 0.5642(3)
O2A O 0.4832(4) 0.7044(4) 0.5595(3)
O3A O 0.3567(4) 0.3816(4) 0.6970(3)
O4A O 0.5866(4) 0.3993(4) 0.6914(3)
Rh1A Rh 0.62285(4) 0.50740(4) 0.49703(3)
Rh1A_2 Rh -0.37715(4) 0.50740(4) 0.49703(3)
C17 C 0.1319(10) 0.5779(9) 0.9927(7)
O5 O 0.1000(7) 0.6032(7) 0.8946(6)
O6 O 0.1599(7) 0.5530(6) 1.0914(6)
C18 C 0.0000 1.0000 1.0000
O7 O 0.0196(7) 0.8909(6) 0.9789(5)
O7A O -0.0196(7) 1.1091(6) 1.0211(5)
loop_
_geom_bond_atom_site_label_1
_geom_bond_atom_site_label_2
_geom_bond_site_symmetry_1
_geom_bond_site_symmetry_2
C1 C2 1_555 1_555
C2 C3 1_555 1_555
C3 H1 1_555 1_555
C4 C3 1_555 1_555
H2 C4 1_555 1_555
C5 C4 1_555 1_555
H3 C5 1_555 1_555
C6 C5 1_555 1_555
H4 C6 1_555 1_555
C7 C2 1_555 1_555
H5 C7 1_555 1_555
C8 C9 1_555 1_555
C9 C10 1_555 1_555
C10 H6 1_555 1_555
C11 C10 1_555 1_555
H7 C11 1_555 1_555
C12 C11 1_555 1_555
H8 C12 1_555 1_555
C13 C12 1_555 1_555
H9 C13 1_555 1_555
C14 C9 1_555 1_555
H10 C14 1_555 1_555
C15 H11 1_555 1_555
C16 C15 1_555 1_555
H12 C16 1_555 1_555
C17 O5 1_555 1_555
C18 O7 1_555 1_555
N1 C15 1_555 1_555
O1 C1 1_555 1_555
O2 C1 1_555 1_555
O3 C8 1_555 1_555
O4 C8 1_555 1_555
O6 C17 1_555 1_555
Rh1 N1 1_555 1_555
C1A C2A 1_555 1_555
C2A C3A 1_555 1_555
C3A H1A 1_555 1_555
C4A C3A 1_555 1_555
H2A C4A 1_555 1_555
C5A C4A 1_555 1_555
H3A C5A 1_555 1_555
C6A C5A 1_555 1_555
H4A C6A 1_555 1_555
C7A C2A 1_555 1_555
H5A C7A 1_555 1_555
C8A C9A 1_555 1_555
C9A C10A 1_555 1_555
C10A H6A 1_555 1_555
C11A C10A 1_555 1_555
H7A C11A 1_555 1_555
C12A C11A 1_555 1_555
H8A C12A 1_555 1_555
C13A C12A 1_555 1_555
H9A C13A 1_555 1_555
C14A C9A 1_555 1_555
H10A C14A 1_555 1_555
C15A H11A 1_555 1_555
C16A N1 1_555 1_555
H12A C16A 1_555 1_555
N1A C16 1_555 1_555
N1A_2 Rh1A 1_555 1_555
O1A Rh1 1_555 1_555
O2A C1A 1_555 1_555
O3A Rh1 1_555 1_555
O4A C8A 1_555 1_555
O7A C18 1_555 1_555
Rh1A O1 1_555 1_555
Rh1A_2 N1A 1_555 1_555
C6 C7 1_555 1_555
C13 C14 1_555 1_555
O2 Rh1 1_555 1_555
O3 Rh1A 1_555 1_555
O4 Rh1 1_555 1_555
Rh1 Rh1A 1_555 1_555
C1A O1A 1_555 1_555
C6A C7A 1_555 1_555
C8A O3A 1_555 1_555
C13A C14A 1_555 1_555
C15A C16A 1_555 1_555
C15A N1A 1_555 1_555
O2A Rh1A 1_555 1_555
O4A Rh1A 1_555 1_555

#END
