
#######################################################################
#
#                 Cambridge Crystallographic Data Centre
#                                CCDC 
#
#######################################################################
#
# If this CIF has been generated from an entry in the Cambridge 
# Structural Database, then it will include bibliographic, chemical, 
# crystal, experimental, refinement or atomic coordinate data resulting 
# from the CCDC's data processing and validation procedures.
#
#######################################################################

data_LUSWOM01
_chemical_formula_moiety         '(C34 H28 Cu2 N2 O8)n'
_chemical_name_systematic        
catena-(tetrakis(\m~2~-benzoato)-(\m~2~-2,3-dimethylpyrazine)-di-copper(ii))
_symmetry_cell_setting           triclinic
_symmetry_space_group_name_H-M   'P -1'
_symmetry_Int_Tables_number      2
_space_group_name_Hall           '-P 1'
loop_
_symmetry_equiv_pos_site_id
_symmetry_equiv_pos_as_xyz
1 x,y,z
2 -x,-y,-z
_cell_length_a                   10.2611(6)
_cell_length_b                   10.4184(6)
_cell_length_c                   15.6335(9)
_cell_angle_alpha                81.1410(10)
_cell_angle_beta                 82.3020(10)
_cell_angle_gamma                87.7220(10)
_cell_volume                     1636.16
_exptl_crystal_colour            blue
_exptl_crystal_description       plate
_cell_formula_units_Z            2
loop_
_atom_site_label
_atom_site_type_symbol
_atom_site_fract_x
_atom_site_fract_y
_atom_site_fract_z
_atom_site_U_iso_or_equiv
_atom_site_thermal_displace_type
C1 C 0.4106(3) 0.7020(2) 0.55997(16) 0.0182 Uani
C2 C 0.3581(2) 0.8203(2) 0.59760(16) 0.0178 Uani
C3 C 0.3476(3) 0.9379(2) 0.54343(17) 0.0202 Uani
H1 H 0.3787 0.9449 0.4829 0.0240 Uiso
C4 C 0.2913(3) 1.0457(3) 0.57784(18) 0.0247 Uani
H2 H 0.2844 1.1265 0.5410 0.0300 Uiso
C5 C 0.2455(3) 1.0347(3) 0.66604(18) 0.0262 Uani
H3 H 0.2040 1.1075 0.6890 0.0310 Uiso
C6 C 0.2593(3) 0.9193(3) 0.72101(18) 0.0264 Uani
H4 H 0.2299 0.9134 0.7817 0.0320 Uiso
C7 C 0.3166(3) 0.8119(3) 0.68690(17) 0.0225 Uani
H5 H 0.3276 0.7325 0.7245 0.0270 Uiso
C8 C 0.7153(3) 0.5404(2) 0.55158(17) 0.0212 Uani
C9 C 0.8348(3) 0.5722(3) 0.5879(2) 0.0271 Uani
C10 C 0.8424(3) 0.5367(3) 0.6763(2) 0.0362 Uani
H6 H 0.7742 0.4877 0.7124 0.0440 Uiso
C11 C 0.9494(4) 0.5725(4) 0.7121(3) 0.0491 Uani
H7 H 0.9543 0.5496 0.7729 0.0590 Uiso
C12 C 1.0490(4) 0.6421(4) 0.6587(3) 0.0536 Uani
H8 H 1.1224 0.6669 0.6831 0.0650 Uiso
C13 C 1.0433(4) 0.6759(4) 0.5703(3) 0.0488 Uani
H9 H 1.1131 0.7223 0.5341 0.0590 Uiso
C14 C 0.9356(3) 0.6420(3) 0.5348(3) 0.0355 Uani
H10 H 0.9305 0.6663 0.4742 0.0430 Uiso
C15 C 0.1116(3) 0.0426(2) 1.12759(16) 0.0169 Uani
C16 C 0.1761(3) 0.0755(2) 1.20151(16) 0.0179 Uani
C17 C 0.1244(3) 0.0329(3) 1.28733(17) 0.0244 Uani
H11 H 0.0482 -0.0190 1.2996 0.0290 Uiso
C18 C 0.1839(3) 0.0660(3) 1.35538(18) 0.0275 Uani
H12 H 0.1480 0.0372 1.4141 0.0330 Uiso
C19 C 0.2953(3) 0.1408(3) 1.33778(18) 0.0267 Uani
H13 H 0.3361 0.1629 1.3845 0.0320 Uiso
C20 C 0.3477(3) 0.1838(3) 1.25217(19) 0.0268 Uani
H14 H 0.4243 0.2352 1.2403 0.0320 Uiso
C21 C 0.2883(3) 0.1516(3) 1.18395(18) 0.0226 Uani
H15 H 0.3240 0.1814 1.1253 0.0270 Uiso
C22 C -0.1336(3) 0.2075(2) 1.01313(15) 0.0166 Uani
C23 C -0.2117(3) 0.3302(2) 1.02572(16) 0.0177 Uani
C24 C -0.1600(3) 0.4498(3) 0.98738(19) 0.0242 Uani
H16 H -0.0770 0.4538 0.9520 0.0290 Uiso
C25 C -0.2299(3) 0.5638(3) 1.0010(2) 0.0316 Uani
H17 H -0.1943 0.6457 0.9752 0.0380 Uiso
C26 C -0.3508(3) 0.5577(3) 1.0518(2) 0.0324 Uani
H18 H -0.3985 0.6356 1.0608 0.0390 Uiso
C27 C -0.4031(3) 0.4388(3) 1.0899(2) 0.0315 Uani
H19 H -0.4865 0.4351 1.1248 0.0380 Uiso
C28 C -0.3334(3) 0.3247(3) 1.07679(18) 0.0254 Uani
H20 H -0.3691 0.2430 1.1028 0.0300 Uiso
C29 C 0.2513(3) 0.3517(2) 0.72669(16) 0.0185 Uani
H21 H 0.2098 0.4201 0.6920 0.0220 Uiso
C30 C 0.1795(3) 0.2841(2) 0.79931(16) 0.0174 Uani
H22 H 0.0886 0.3044 0.8122 0.0210 Uiso
C31 C 0.3636(3) 0.1661(2) 0.83326(15) 0.0156 Uani
C32 C 0.4365(3) 0.2307(2) 0.75668(16) 0.0172 Uani
C33 C 0.4303(3) 0.0691(3) 0.89543(17) 0.0231 Uani
H23 H 0.3687 0.0425 0.9482 0.0350 Uiso
H24 H 0.5071 0.1087 0.9112 0.0350 Uiso
H25 H 0.4587 -0.0071 0.8675 0.0350 Uiso
C34 C 0.5784(3) 0.1960(3) 0.73211(19) 0.0274 Uani
H26 H 0.6112 0.2472 0.6759 0.0410 Uiso
H27 H 0.5869 0.1033 0.7273 0.0410 Uiso
H28 H 0.6298 0.2150 0.7770 0.0410 Uiso
Cu1 Cu 0.46098(3) 0.42822(3) 0.574926(19) 0.0170 Uani
Cu2 Cu 0.08966(3) 0.06753(3) 0.945388(18) 0.0140 Uani
N1 N 0.3793(2) 0.32291(19) 0.70397(13) 0.0177 Uani
N2 N 0.2352(2) 0.18986(19) 0.85236(13) 0.0157 Uani
O1 O 0.4635(2) 0.71742(17) 0.48198(12) 0.0249 Uani
O2 O 0.3965(2) 0.59469(18) 0.60965(12) 0.0275 Uani
O3 O 0.6338(2) 0.4671(2) 0.60155(13) 0.0292 Uani
O4 O 0.7023(2) 0.5904(2) 0.47428(13) 0.0268 Uani
O5 O 0.01092(19) -0.02764(18) 1.14554(11) 0.0212 Uani
O6 O 0.16274(19) 0.08880(18) 1.05144(11) 0.0209 Uani
O7 O -0.02777(19) 0.21835(17) 0.96182(12) 0.0218 Uani
O8 O -0.17938(18) 0.10276(16) 1.05604(12) 0.0200 Uani
Cu1A Cu 0.53902(3) 0.57178(3) 0.425074(19) 0.0170 Uani
Cu2A Cu -0.08966(3) -0.06753(3) 1.054612(18) 0.0140 Uani
O1A O 0.5365(2) 0.28258(17) 0.51802(12) 0.0249 Uani
O4A O 0.2977(2) 0.4096(2) 0.52572(13) 0.0268 Uani
O5A O -0.01092(19) 0.02764(18) 0.85446(11) 0.0212 Uani
O8A O 0.17938(18) -0.10276(16) 0.94396(12) 0.0200 Uani
loop_
_atom_site_aniso_label
_atom_site_aniso_U_11
_atom_site_aniso_U_22
_atom_site_aniso_U_33
_atom_site_aniso_U_23
_atom_site_aniso_U_13
_atom_site_aniso_U_12
C1 0.0184 0.0174 0.017 -0.0001 0.0013 0.0009
C2 0.0164 0.0192 0.0173 -0.0045 0.0013 -0.0007
C3 0.0235 0.0186 0.0172 -0.0017 0.0013 -0.001
C4 0.0306 0.0174 0.0249 -0.0028 -0.0006 0.002
C5 0.0312 0.0236 0.0252 -0.0122 -0.0002 0.0027
C6 0.0316 0.0283 0.0189 -0.0083 0.0042 -0.0023
C7 0.0252 0.0233 0.018 -0.002 -0.0002 -0.0009
C8 0.0245 0.0143 0.0237 -0.0056 0.0026 0.0035
C9 0.0246 0.0181 0.039 -0.0067 -0.0041 0.0027
C10 0.0318 0.0312 0.048 -0.0086 -0.0119 0.0031
C11 0.049 0.043 0.062 -0.011 -0.03 0.0068
C12 0.036 0.035 0.099 -0.019 -0.031 -0.0024
C13 0.0268 0.0369 0.084 -0.0113 -0.0083 -0.0042
C14 0.0245 0.0266 0.055 -0.0087 -0.0004 -0.0006
C15 0.0206 0.0129 0.0156 -0.001 0.0003 0.0041
C16 0.0209 0.0163 0.0159 -0.0024 -0.0013 0.0048
C17 0.0215 0.0326 0.0175 -0.0019 0.0012 -0.0017
C18 0.0274 0.0393 0.015 -0.0036 -0.0013 0.0018
C19 0.031 0.0277 0.0229 -0.0058 -0.0082 0.0045
C20 0.0286 0.0232 0.0289 -0.0012 -0.0066 -0.0036
C21 0.0266 0.0199 0.0196 0.0009 -0.0014 0
C22 0.0225 0.015 0.0115 -0.0009 -0.0005 0.0006
C23 0.024 0.0148 0.0146 -0.0031 -0.0027 0.001
C24 0.0253 0.0178 0.0281 -0.0009 -0.0022 0.001
C25 0.0361 0.0133 0.0454 -0.0021 -0.0088 0.0011
C26 0.0381 0.0216 0.0403 -0.0121 -0.0103 0.0109
C27 0.0325 0.0274 0.0334 -0.0077 0.0016 0.0082
C28 0.0287 0.0178 0.027 -0.0016 0.0026 0.0037
C29 0.0226(13) 0.0125(11) 0.0160(11) 0.0042(9) 0.0057(10) 0.0028(9)
C30 0.0193(12) 0.0159(11) 0.0144(11) -0.0015(9) 0.0065(9) 0.0008(9)
C31 0.0211(12) 0.0120(10) 0.0122(10) -0.0005(8) 0.0022(9) -0.0017(9)
C32 0.0180(12) 0.0146(11) 0.0165(11) 0.0004(9) 0.0041(9) -0.0003(9)
C33 0.0227(13) 0.0244(13) 0.0184(12) 0.0061(10) 0.0005(10) -0.0001(11)
C34 0.0230(14) 0.0257(14) 0.0262(14) 0.0076(11) 0.0090(11) 0.0047(11)
Cu1 0.02015(17) 0.01347(15) 0.01368(15) 0.00176(11) 0.00647(12) 0.00079(12)
Cu2 0.01876(16) 0.01118(14) 0.00972(14) 0.00086(10) 0.00376(11) -0.00078(11)
N1 0.0222(11) 0.0121(9) 0.0151(10) 0.0013(8) 0.0070(8) 0.0003(8)
N2 0.0209(11) 0.0122(9) 0.0122(9) -0.0006(7) 0.0035(8) -0.0004(8)
O1 0.0363 0.0157 0.017 0.001 0.0114 0.0041
O2 0.0428 0.0167 0.0174 0.0008 0.0113 0.0032
O3 0.0269 0.0315 0.0254 0.0084 -0.0023 -0.0083
O4 0.0232 0.0301 0.023 0.0035 0.0036 -0.0036
O5 0.0241 0.0252 0.0129 0.0003 0.0003 -0.0056
O6 0.0263 0.0221 0.0125 -0.0001 0.0023 -0.0057
O7 0.0262 0.0141 0.0204 0.0019 0.008 0.001
O8 0.0242 0.0124 0.0196 0.0012 0.0066 0.0008
Cu1A 0.02015 0.01347 0.01368 0.00176 0.00647 0.00079
Cu2A 0.01876 0.01118 0.00972 0.00086 0.00376 -0.00078
O1A 0.0363(11) 0.0157(9) 0.0170(9) 0.0010(7) 0.0114(8) 0.0041(8)
O4A 0.0232(10) 0.0301(11) 0.0230(10) 0.0035(8) 0.0036(8) -0.0036(8)
O5A 0.0241(10) 0.0252(10) 0.0129(8) 0.0003(7) 0.0003(7) -0.0056(8)
O8A 0.0242(10) 0.0124(8) 0.0196(9) 0.0012(7) 0.0066(7) 0.0008(7)
loop_
_geom_bond_atom_site_label_1
_geom_bond_atom_site_label_2
_geom_bond_site_symmetry_1
_geom_bond_site_symmetry_2
C1 C2 1_555 1_555
C2 C3 1_555 1_555
C3 H1 1_555 1_555
C4 C3 1_555 1_555
H2 C4 1_555 1_555
C5 C4 1_555 1_555
H3 C5 1_555 1_555
C6 C5 1_555 1_555
H4 C6 1_555 1_555
C7 C2 1_555 1_555
H5 C7 1_555 1_555
C8 C9 1_555 1_555
C9 C10 1_555 1_555
C10 H6 1_555 1_555
C11 C10 1_555 1_555
H7 C11 1_555 1_555
C12 C11 1_555 1_555
H8 C12 1_555 1_555
C13 C12 1_555 1_555
H9 C13 1_555 1_555
C14 C9 1_555 1_555
H10 C14 1_555 1_555
C15 C16 1_555 1_555
C16 C17 1_555 1_555
C17 H11 1_555 1_555
C18 C17 1_555 1_555
H12 C18 1_555 1_555
C19 C18 1_555 1_555
H13 C19 1_555 1_555
C20 C19 1_555 1_555
H14 C20 1_555 1_555
C21 C16 1_555 1_555
H15 C21 1_555 1_555
C22 C23 1_555 1_555
C23 C24 1_555 1_555
C24 H16 1_555 1_555
C25 C24 1_555 1_555
H17 C25 1_555 1_555
C26 C25 1_555 1_555
H18 C26 1_555 1_555
C27 C26 1_555 1_555
H19 C27 1_555 1_555
C28 C23 1_555 1_555
H20 C28 1_555 1_555
C29 H21 1_555 1_555
C30 C29 1_555 1_555
H22 C30 1_555 1_555
C31 C32 1_555 1_555
C32 C34 1_555 1_555
C33 C31 1_555 1_555
H23 C33 1_555 1_555
H24 C33 1_555 1_555
H25 C33 1_555 1_555
C34 H26 1_555 1_555
H27 C34 1_555 1_555
H28 C34 1_555 1_555
Cu1 N1 1_555 1_555
Cu2 N2 1_555 1_555
N1 C29 1_555 1_555
N2 C30 1_555 1_555
O1 C1 1_555 1_555
O2 C1 1_555 1_555
O3 C8 1_555 1_555
O4 C8 1_555 1_555
O5 C15 1_555 1_555
O6 C15 1_555 1_555
O7 C22 1_555 1_555
O8 C22 1_555 1_555
Cu1A Cu1 1_555 1_555
Cu2A Cu2 1_555 1_555
O1A Cu1 1_555 1_555
O4A Cu1 1_555 1_555
O5A Cu2 1_555 1_555
O8A Cu2 1_555 1_555
C6 C7 1_555 1_555
C13 C14 1_555 1_555
C20 C21 1_555 1_555
C27 C28 1_555 1_555
C31 N2 1_555 1_555
C32 N1 1_555 1_555
Cu1 O2 1_555 1_555
Cu1 O3 1_555 1_555
Cu2 O6 1_555 1_555
Cu2 O7 1_555 1_555
O1 Cu1A 1_555 1_555
O4 Cu1A 1_555 1_555
O5 Cu2A 1_555 1_555
O8 Cu2A 1_555 1_555

#END
