
#######################################################################
#
#                 Cambridge Crystallographic Data Centre
#                                CCDC 
#
#######################################################################
#
# If this CIF has been generated from an entry in the Cambridge 
# Structural Database, then it will include bibliographic, chemical, 
# crystal, experimental, refinement or atomic coordinate data resulting 
# from the CCDC's data processing and validation procedures.
#
#######################################################################

data_GEYFIB
_chemical_name_common            HNUST-1
_chemical_formula_moiety         '(C24 H16 Cu2 N2 O12)n'
_chemical_name_systematic        
"catena-[(\m~8~-5,5'-(Benzene-1,4-diylbis(carbonylimino))dibenzene-1,3-dicarboxylato)-diaqua-di-copper(ii) unknown solvate]"
_symmetry_cell_setting           rhombohedral
_symmetry_space_group_name_H-M   'R -3 m'
_symmetry_Int_Tables_number      166
_space_group_name_Hall           '-P 3* 2'
loop_
_symmetry_equiv_pos_site_id
_symmetry_equiv_pos_as_xyz
1 x,y,z
2 y,z,x
3 -x,-z,-y
4 z,x,y
5 -z,-y,-x
6 -y,-x,-z
7 -x,-y,-z
8 -y,-z,-x
9 x,z,y
10 -z,-x,-y
11 z,y,x
12 y,x,z
_cell_length_a                   20.3883(13)
_cell_length_b                   20.3883(13)
_cell_length_c                   20.3883(13)
_cell_angle_alpha                54.956(4)
_cell_angle_beta                 54.956(4)
_cell_angle_gamma                54.956(4)
_cell_volume                     5289.35
_exptl_crystal_colour            blue
_exptl_crystal_description       polyhedra
_cell_formula_units_Z            3
loop_
_atom_site_label
_atom_site_type_symbol
_atom_site_fract_x
_atom_site_fract_y
_atom_site_fract_z
Cu1 Cu 0.498462(14) 0.06642(2) -0.501538(14)
O1 O 0.37522(12) 0.11441(12) -0.47982(14)
O2 O 0.37794(12) 0.00115(12) -0.47543(15)
O3 O 0.50152(15) 0.1682(2) -0.49848(15)
C1 C 0.34154(18) 0.07522(16) -0.47457(18)
C2 C 0.25012(18) 0.12234(17) -0.4695(2)
C3 C 0.2113(2) 0.0846(2) -0.4686(3)
H1 H 0.2405 0.0282 -0.4666
C4 C 0.20536(15) 0.20536(15) -0.4685(3)
H2 H 0.2306 0.2306 -0.4671
C5 C 0.1291(2) 0.1291(2) -0.4706(4)
N1 N 0.09109(19) 0.09109(19) -0.4734(4)
H3 H 0.1294 0.0464 -0.4867
C6 C 0.0361(7) 0.1127(8) -0.4964(3)
O4 O -0.0166(6) 0.1875(5) -0.5007(3)
C7 C 0.0307(6) 0.0580(5) -0.5169(3)
C8 C -0.0477(6) 0.0919(5) -0.5238(3)
C9 C -0.0675(6) 0.0449(5) -0.5350(3)
C10 C -0.0090(6) -0.0358(5) -0.5393(3)
O1E O -0.11441(12) -0.37522(12) -0.52018(14)
O2E O -0.00115(12) -0.37794(12) -0.52457(15)
C1E C -0.07522(16) -0.34154(18) -0.52543(18)
C2E C -0.12234(17) -0.25012(18) -0.5305(2)
C3E C -0.0846(2) -0.2113(2) -0.5314(3)
H1E H -0.0282 -0.2405 -0.5334
C4E C -0.20536(15) -0.20536(15) -0.5315(3)
H2E H -0.2306 -0.2306 -0.5329
C5E C -0.1291(2) -0.1291(2) -0.5294(4)
N1E N -0.09109(19) -0.09109(19) -0.5266(4)
H3E H -0.0464 -0.1294 -0.5133
C6E C -0.1127(8) -0.0361(7) -0.5036(3)
O4E O -0.1875(5) 0.0166(6) -0.4993(3)
C7E C -0.0580(5) -0.0307(6) -0.4831(3)
C8E C -0.0919(5) 0.0477(6) -0.4762(3)
C9E C -0.0449(5) 0.0675(6) -0.4650(3)
C10E C 0.0358(5) 0.0090(6) -0.4607(3)
O1F O -0.37522(12) -0.11441(12) -0.52018(14)
O2F O -0.37794(12) -0.00115(12) -0.52457(15)
C1F C -0.34154(18) -0.07522(16) -0.52543(18)
C2F C -0.25012(18) -0.12234(17) -0.5305(2)
C3F C -0.2113(2) -0.0846(2) -0.5314(3)
H1F H -0.2405 -0.0282 -0.5334
H3F H -0.1294 -0.0464 -0.5133
C6F C -0.0361(7) -0.1127(8) -0.5036(3)
O4F O 0.0166(6) -0.1875(5) -0.4993(3)
C7F C -0.0307(6) -0.0580(5) -0.4831(3)
C8F C 0.0477(6) -0.0919(5) -0.4762(3)
C9F C 0.0675(6) -0.0449(5) -0.4650(3)
C10F C 0.0090(6) 0.0358(5) -0.4607(3)
O1K O 0.11441(12) 0.37522(12) -0.47982(14)
O2K O 0.00115(12) 0.37794(12) -0.47543(15)
C1K C 0.07522(16) 0.34154(18) -0.47457(18)
C2K C 0.12234(17) 0.25012(18) -0.4695(2)
C3K C 0.0846(2) 0.2113(2) -0.4686(3)
H1K H 0.0282 0.2405 -0.4666
H3K H 0.0464 0.1294 -0.4867
C6K C 0.1127(8) 0.0361(7) -0.4964(3)
O4K O 0.1875(5) -0.0166(6) -0.5007(3)
C7K C 0.0580(5) 0.0307(6) -0.5169(3)
C8K C 0.0919(5) -0.0477(6) -0.5238(3)
C9K C 0.0449(5) -0.0675(6) -0.5350(3)
C10K C -0.0358(5) -0.0090(6) -0.5393(3)
Cu1A Cu 0.06642(2) 0.498462(14) -0.501538(14)
O3A O 0.1682(2) 0.50152(15) -0.49848(15)
Cu1_2 Cu -0.501538(14) 0.06642(2) -0.501538(14)
Cu1A_2 Cu 0.06642(2) -0.501538(14) -0.501538(14)
Cu1D Cu -0.498462(14) -0.06642(2) -0.498462(14)
Cu1D_2 Cu 0.501538(14) -0.06642(2) -0.498462(14)
Cu1E Cu -0.06642(2) -0.498462(14) -0.498462(14)
Cu1E_2 Cu -0.06642(2) 0.501538(14) -0.498462(14)
O1A O 0.11441(12) 0.52018(14) -0.62478(12)
O1J O 0.52018(14) 0.11441(12) -0.62478(12)
O2D O 0.47543(15) -0.00115(12) -0.37794(12)
O2E_2 O -0.00115(12) 0.62206(12) -0.52457(15)
O2F_2 O 0.62206(12) -0.00115(12) -0.52457(15)
O2G O -0.00115(12) 0.47543(15) -0.37794(12)
C11? C 0.0188(9) 0.1031(6) -0.4626(6)
O5? O -0.0528(13) 0.1619(11) -0.4255(11)
H4? H 0.1143 0.0362 -0.4532
H5? H -0.0869 0.1459 -0.5210
H6? H -0.1200 0.0676 -0.5397
H7? H 0.1086 -0.1237 -0.5352
H8? H 0.1417 -0.0454 -0.5165
C12? C 0.0893(6) -0.0227(5) -0.5212(3)
C13? C -0.0694(6) 0.0697(5) -0.4676(3)
loop_
_geom_bond_atom_site_label_1
_geom_bond_atom_site_label_2
_geom_bond_site_symmetry_1
_geom_bond_site_symmetry_2
Cu1 O1 1_555 1_555
O1 C1 1_555 1_555
O2 C1 1_555 1_555
O3 Cu1 1_555 1_555
C1 C2 1_555 1_555
C2 C3 1_555 1_555
C3 H1 1_555 1_555
C4 C2 1_555 1_555
H2 C4 1_555 1_555
C5 C3 1_555 1_555
N1 C5 1_555 1_555
H3 N1 1_555 1_555
C6 N1 1_555 1_555
O4 C6 1_555 1_555
C7 C6 1_555 1_555
C8 C7 1_555 1_555
C9 C8 1_555 1_555
C10 C9 1_555 1_555
O1E C1E 1_555 1_555
O2E C1E 1_555 1_555
C1E C2E 1_555 1_555
C2E C3E 1_555 1_555
C3E H1E 1_555 1_555
C4E C2E 1_555 1_555
H2E C4E 1_555 1_555
C5E C3E 1_555 1_555
N1E C5E 1_555 1_555
H3E N1E 1_555 1_555
C6E C10 1_555 1_555
O4E C6E 1_555 1_555
C7E C9 1_555 1_555
C8E C8 1_555 1_555
C9E C7 1_555 1_555
C10E C6 1_555 1_555
O1F C1F 1_555 1_555
O2F C1F 1_555 1_555
C1F C2F 1_555 1_555
C2F C4E 1_555 1_555
C3F C5E 1_555 1_555
H1F C3F 1_555 1_555
H3F N1E 1_555 1_555
C6F C10 1_555 1_555
O4F H3E 1_555 1_555
C7F C9 1_555 1_555
C8F C10 1_555 1_555
C9F C7 1_555 1_555
C10F C6 1_555 1_555
O1K C1K 1_555 1_555
O2K C1K 1_555 1_555
C1K C2K 1_555 1_555
C2K C4 1_555 1_555
C3K C5 1_555 1_555
H1K C3K 1_555 1_555
H3K N1 1_555 1_555
C6K N1 1_555 1_555
O4K H3 1_555 1_555
C7K C6 1_555 1_555
C8K C10E 1_555 1_555
C9K C10 1_555 1_555
C10K C9 1_555 1_555
Cu1A O1K 1_555 1_555
O3A Cu1A 1_555 1_555
Cu1_2 O2F 1_555 1_555
Cu1A_2 O2E 1_555 1_555
Cu1D O1F 1_555 1_555
Cu1D_2 Cu1 1_555 1_555
Cu1E O1E 1_555 1_555
Cu1E_2 O2K 1_555 1_555
O1A Cu1A 1_555 1_555
O1J Cu1 1_555 1_555
O2D Cu1 1_555 1_555
O2E_2 Cu1A 1_555 1_555
O2F_2 Cu1 1_555 1_555
O2G Cu1A 1_555 1_555
O2 Cu1D_2 1_555 1_555
H3 C6K 1_555 1_555
C6 H3K 1_555 1_555
C6 C6K 1_555 1_555
O4 H3K 1_555 1_555
C7 C10E 1_555 1_555
C7 C10F 1_555 1_555
C7 C6K 1_555 1_555
C8 C9E 1_555 1_555
C8 C10F 1_555 1_555
C9 C8E 1_555 1_555
C10 C7E 1_555 1_555
C10 C7F 1_555 1_555
N1E C6E 1_555 1_555
N1E C6F 1_555 1_555
H3E C6F 1_555 1_555
C6E C7E 1_555 1_555
C6E H3F 1_555 1_555
C6E C6F 1_555 1_555
C6E C7F 1_555 1_555
C6E C10K 1_555 1_555
O4E H3F 1_555 1_555
C7E C8E 1_555 1_555
C7E C6F 1_555 1_555
C7E C9K 1_555 1_555
C7E C10K 1_555 1_555
C8E C9E 1_555 1_555
C8E C10K 1_555 1_555
C9E C10E 1_555 1_555
C9E C10F 1_555 1_555
C9E C7K 1_555 1_555
C10E C9F 1_555 1_555
C10E C6K 1_555 1_555
C10E C7K 1_555 1_555
C2F C3F 1_555 1_555
C6F O4F 1_555 1_555
C6F C7F 1_555 1_555
C6F C10K 1_555 1_555
C7F C8F 1_555 1_555
C7F C9K 1_555 1_555
C7F C10K 1_555 1_555
C8F C9F 1_555 1_555
C8F C8K 1_555 1_555
C8F C9K 1_555 1_555
C9F C10F 1_555 1_555
C9F C7K 1_555 1_555
C9F C8K 1_555 1_555
C10F C6K 1_555 1_555
C10F C7K 1_555 1_555
C2K C3K 1_555 1_555
C6K O4K 1_555 1_555
C6K C7K 1_555 1_555
C7K C8K 1_555 1_555
C8K C9K 1_555 1_555
C9K C10K 1_555 1_555
Cu1A Cu1E_2 1_555 1_555
Cu1_2 Cu1D 1_555 1_555
Cu1A_2 Cu1E 1_555 1_555

#END
