
#######################################################################
#
#                 Cambridge Crystallographic Data Centre
#                                CCDC 
#
#######################################################################
#
# If this CIF has been generated from an entry in the Cambridge 
# Structural Database, then it will include bibliographic, chemical, 
# crystal, experimental, refinement or atomic coordinate data resulting 
# from the CCDC's data processing and validation procedures.
#
#######################################################################

data_OYODIQ
_chemical_formula_moiety         '(C18 H18 N6 O7 Zn4)n'
_chemical_name_systematic        
catena-(tris(\m~4~-3,5-dimethyl-1H-pyrazole-4-carboxylato)-(\m~4~-oxo)-tetra-zinc(ii))
_symmetry_cell_setting           cubic
_symmetry_space_group_name_H-M   'F m -3 m'
_symmetry_Int_Tables_number      225
_space_group_name_Hall           '-F 4 2 3'
loop_
_symmetry_equiv_pos_site_id
_symmetry_equiv_pos_as_xyz
1 x,y,z
2 -y,x,z
3 x,-y,-z
4 z,x,y
5 -x,-y,z
6 y,x,-z
7 -x,z,y
8 y,-x,z
9 -x,y,-z
10 -z,-x,y
11 -y,-x,-z
12 x,-z,y
13 z,-x,-y
14 -x,-z,-y
15 -z,x,-y
16 x,z,-y
17 y,z,x
18 z,-y,x
19 -z,y,x
20 z,y,-x
21 y,-z,-x
22 -z,-y,-x
23 -y,z,-x
24 -y,-z,x
25 x,1/2+y,1/2+z
26 -y,1/2+x,1/2+z
27 x,1/2-y,1/2-z
28 z,1/2+x,1/2+y
29 -x,1/2-y,1/2+z
30 y,1/2+x,1/2-z
31 -x,1/2+z,1/2+y
32 y,1/2-x,1/2+z
33 -x,1/2+y,1/2-z
34 -z,1/2-x,1/2+y
35 -y,1/2-x,1/2-z
36 x,1/2-z,1/2+y
37 z,1/2-x,1/2-y
38 -x,1/2-z,1/2-y
39 -z,1/2+x,1/2-y
40 x,1/2+z,1/2-y
41 y,1/2+z,1/2+x
42 z,1/2-y,1/2+x
43 -z,1/2+y,1/2+x
44 z,1/2+y,1/2-x
45 y,1/2-z,1/2-x
46 -z,1/2-y,1/2-x
47 -y,1/2+z,1/2-x
48 -y,1/2-z,1/2+x
49 1/2+x,y,1/2+z
50 1/2-y,x,1/2+z
51 1/2+x,-y,1/2-z
52 1/2+z,x,1/2+y
53 1/2-x,-y,1/2+z
54 1/2+y,x,1/2-z
55 1/2-x,z,1/2+y
56 1/2+y,-x,1/2+z
57 1/2-x,y,1/2-z
58 1/2-z,-x,1/2+y
59 1/2-y,-x,1/2-z
60 1/2+x,-z,1/2+y
61 1/2+z,-x,1/2-y
62 1/2-x,-z,1/2-y
63 1/2-z,x,1/2-y
64 1/2+x,z,1/2-y
65 1/2+y,z,1/2+x
66 1/2+z,-y,1/2+x
67 1/2-z,y,1/2+x
68 1/2+z,y,1/2-x
69 1/2+y,-z,1/2-x
70 1/2-z,-y,1/2-x
71 1/2-y,z,1/2-x
72 1/2-y,-z,1/2+x
73 1/2+x,1/2+y,z
74 1/2-y,1/2+x,z
75 1/2+x,1/2-y,-z
76 1/2+z,1/2+x,y
77 1/2-x,1/2-y,z
78 1/2+y,1/2+x,-z
79 1/2-x,1/2+z,y
80 1/2+y,1/2-x,z
81 1/2-x,1/2+y,-z
82 1/2-z,1/2-x,y
83 1/2-y,1/2-x,-z
84 1/2+x,1/2-z,y
85 1/2+z,1/2-x,-y
86 1/2-x,1/2-z,-y
87 1/2-z,1/2+x,-y
88 1/2+x,1/2+z,-y
89 1/2+y,1/2+z,x
90 1/2+z,1/2-y,x
91 1/2-z,1/2+y,x
92 1/2+z,1/2+y,-x
93 1/2+y,1/2-z,-x
94 1/2-z,1/2-y,-x
95 1/2-y,1/2+z,-x
96 1/2-y,1/2-z,x
97 -x,-y,-z
98 y,-x,-z
99 -x,y,z
100 -z,-x,-y
101 x,y,-z
102 -y,-x,z
103 x,-z,-y
104 -y,x,-z
105 x,-y,z
106 z,x,-y
107 y,x,z
108 -x,z,-y
109 -z,x,y
110 x,z,y
111 z,-x,y
112 -x,-z,y
113 -y,-z,-x
114 -z,y,-x
115 z,-y,-x
116 -z,-y,x
117 -y,z,x
118 z,y,x
119 y,-z,x
120 y,z,-x
121 -x,1/2-y,1/2-z
122 y,1/2-x,1/2-z
123 -x,1/2+y,1/2+z
124 -z,1/2-x,1/2-y
125 x,1/2+y,1/2-z
126 -y,1/2-x,1/2+z
127 x,1/2-z,1/2-y
128 -y,1/2+x,1/2-z
129 x,1/2-y,1/2+z
130 z,1/2+x,1/2-y
131 y,1/2+x,1/2+z
132 -x,1/2+z,1/2-y
133 -z,1/2+x,1/2+y
134 x,1/2+z,1/2+y
135 z,1/2-x,1/2+y
136 -x,1/2-z,1/2+y
137 -y,1/2-z,1/2-x
138 -z,1/2+y,1/2-x
139 z,1/2-y,1/2-x
140 -z,1/2-y,1/2+x
141 -y,1/2+z,1/2+x
142 z,1/2+y,1/2+x
143 y,1/2-z,1/2+x
144 y,1/2+z,1/2-x
145 1/2-x,-y,1/2-z
146 1/2+y,-x,1/2-z
147 1/2-x,y,1/2+z
148 1/2-z,-x,1/2-y
149 1/2+x,y,1/2-z
150 1/2-y,-x,1/2+z
151 1/2+x,-z,1/2-y
152 1/2-y,x,1/2-z
153 1/2+x,-y,1/2+z
154 1/2+z,x,1/2-y
155 1/2+y,x,1/2+z
156 1/2-x,z,1/2-y
157 1/2-z,x,1/2+y
158 1/2+x,z,1/2+y
159 1/2+z,-x,1/2+y
160 1/2-x,-z,1/2+y
161 1/2-y,-z,1/2-x
162 1/2-z,y,1/2-x
163 1/2+z,-y,1/2-x
164 1/2-z,-y,1/2+x
165 1/2-y,z,1/2+x
166 1/2+z,y,1/2+x
167 1/2+y,-z,1/2+x
168 1/2+y,z,1/2-x
169 1/2-x,1/2-y,-z
170 1/2+y,1/2-x,-z
171 1/2-x,1/2+y,z
172 1/2-z,1/2-x,-y
173 1/2+x,1/2+y,-z
174 1/2-y,1/2-x,z
175 1/2+x,1/2-z,-y
176 1/2-y,1/2+x,-z
177 1/2+x,1/2-y,z
178 1/2+z,1/2+x,-y
179 1/2+y,1/2+x,z
180 1/2-x,1/2+z,-y
181 1/2-z,1/2+x,y
182 1/2+x,1/2+z,y
183 1/2+z,1/2-x,y
184 1/2-x,1/2-z,y
185 1/2-y,1/2-z,-x
186 1/2-z,1/2+y,-x
187 1/2+z,1/2-y,-x
188 1/2-z,1/2-y,x
189 1/2-y,1/2+z,x
190 1/2+z,1/2+y,x
191 1/2+y,1/2-z,x
192 1/2+y,1/2+z,-x
_cell_length_a                   20.15806(27)
_cell_length_b                   20.15806(27)
_cell_length_c                   20.15806(27)
_cell_angle_alpha                90
_cell_angle_beta                 90
_cell_angle_gamma                90
_cell_volume                     8191.17
_exptl_crystal_colour            white
_exptl_crystal_description       plate
_cell_formula_units_Z            8
loop_
_atom_site_label
_atom_site_type_symbol
_atom_site_fract_x
_atom_site_fract_y
_atom_site_fract_z
Zn1 Zn 0.305651(45) 0.194349(45) 0.194349(45)
O1 O 0.25000 0.25000 0.25000
C1 C 0.505475 0.25000 0.25000
C2 C 0.454870 0.211400 0.211400
N1 N 0.390700 0.226150 0.226150
C3 C 0.431560 0.25000 0.25000
O2 O 0.400555 0.212027 0.212027
C4 C 0.477710 0.161700 0.161700
H1 H 0.505190 0.183995 0.123863
H2 H 0.441430 0.148820 0.134510
H3 H 0.488528 0.134844 0.180671
Zn1P Zn 0.194349(45) 0.194349(45) 0.305651(45)
Zn1Z Zn 0.305651(45) 0.305651(45) 0.305651(45)
Zn1F Zn 0.694349(45) 0.194349(45) 0.194349(45)
Zn1C Zn 0.194349(45) 0.305651(45) 0.194349(45)
Zn1KA Zn 0.694349(45) 0.305651(45) 0.305651(45)
Zn1O Zn 0.305651(45) 0.194349(45) -0.194349(45)
Zn1E Zn 0.194349(45) 0.305651(45) -0.194349(45)
Zn1K Zn 0.305651(45) -0.194349(45) 0.194349(45)
Zn1Q Zn 0.194349(45) -0.194349(45) 0.305651(45)
Zn1A Zn 0.805651(45) 0.305651(45) 0.194349(45)
Zn1R Zn 0.805651(45) 0.194349(45) 0.305651(45)
Zn1S Zn 0.194349(45) 0.194349(45) 0.694349(45)
Zn1IA Zn 0.305651(45) 0.305651(45) 0.694349(45)
Zn1R_2 Zn -0.194349(45) 0.194349(45) 0.305651(45)
Zn1A_2 Zn -0.194349(45) 0.305651(45) 0.194349(45)
Zn1MA Zn 0.305651(45) 0.694349(45) 0.305651(45)
Zn1G Zn 0.194349(45) 0.694349(45) 0.194349(45)
Zn1D Zn 0.694349(45) -0.194349(45) 0.194349(45)
Zn1W Zn 0.805651(45) -0.194349(45) 0.305651(45)
Zn1H Zn 0.694349(45) 0.194349(45) -0.194349(45)
Zn1N Zn 0.805651(45) 0.305651(45) -0.194349(45)
O1A O 0.75000 0.25000 0.25000
C1F C 0.494525 0.25000 0.25000
C1RA C 0.25000 0.25000 -0.005475
C1OA C 0.25000 0.25000 0.005475
C1JA C 0.25000 -0.005475 0.25000
C1CA C 0.25000 0.005475 0.25000
C1P C 0.25000 0.25000 0.505475
C1S C 0.25000 0.25000 0.494525
C1DB C -0.005475 0.25000 0.25000
C1KB C 0.005475 0.25000 0.25000
C1C C 0.25000 0.505475 0.25000
C1G C 0.25000 0.494525 0.25000
C1HA C 0.75000 -0.005475 0.25000
C1LA C 0.75000 0.005475 0.25000
C1SA C 0.75000 0.25000 -0.005475
C1UA C 0.75000 0.25000 0.005475
C2F C 0.545130 0.211400 0.211400
C2Z C 0.454870 0.288600 0.288600
C2KA C 0.545130 0.288600 0.288600
C2RB C 0.288600 0.211400 0.045130
C2NB C 0.288600 0.211400 -0.045130
C2RA C 0.211400 0.288600 0.045130
C2OA C 0.211400 0.288600 -0.045130
C2CC C 0.288600 0.045130 0.211400
C2UB C 0.288600 -0.045130 0.211400
C2JA C 0.211400 0.045130 0.288600
C2CA C 0.211400 -0.045130 0.288600
C2P C 0.211400 0.211400 0.454870
C2DB C 0.045130 0.211400 0.288600
C2QC C 0.288600 0.288600 0.454870
C2JB C 0.288600 0.454870 0.288600
C2AC C 0.711400 0.045130 0.211400
C2OB C 0.711400 0.211400 0.045130
C2XB C 0.045130 0.288600 0.211400
C2C C 0.211400 0.454870 0.211400
C2HA C 0.788600 0.045130 0.288600
C2SA C 0.788600 0.288600 0.045130
C2S C 0.211400 0.211400 0.545130
C2OC C 0.288600 0.288600 0.545130
C2KB C -0.045130 0.211400 0.288600
C2EC C -0.045130 0.288600 0.211400
C2FB C 0.288600 0.545130 0.288600
C2G C 0.211400 0.545130 0.211400
C2WB C 0.711400 -0.045130 0.211400
C2LA C 0.788600 -0.045130 0.288600
C2LB C 0.711400 0.211400 -0.045130
C2UA C 0.788600 0.288600 -0.045130
N1Z N 0.390700 0.273850 0.273850
N1F N 0.609300 0.226150 0.226150
N1KA N 0.609300 0.273850 0.273850
N1RB N 0.273850 0.226150 0.109300
N1RA N 0.226150 0.273850 0.109300
N1NB N 0.273850 0.226150 -0.109300
N1OA N 0.226150 0.273850 -0.109300
N1CC N 0.273850 0.109300 0.226150
N1JA N 0.226150 0.109300 0.273850
N1UB N 0.273850 -0.109300 0.226150
N1CA N 0.226150 -0.109300 0.273850
N1P N 0.226150 0.226150 0.390700
N1DB N 0.109300 0.226150 0.273850
N1QC N 0.273850 0.273850 0.390700
N1JB N 0.273850 0.390700 0.273850
N1AC N 0.726150 0.109300 0.226150
N1OB N 0.726150 0.226150 0.109300
N1XB N 0.109300 0.273850 0.226150
N1C N 0.226150 0.390700 0.226150
N1HA N 0.773850 0.109300 0.273850
N1SA N 0.773850 0.273850 0.109300
N1S N 0.226150 0.226150 0.609300
N1OC N 0.273850 0.273850 0.609300
N1KB N -0.109300 0.226150 0.273850
N1EC N -0.109300 0.273850 0.226150
N1FB N 0.273850 0.609300 0.273850
N1G N 0.226150 0.609300 0.226150
N1WB N 0.726150 -0.109300 0.226150
N1LA N 0.773850 -0.109300 0.273850
N1LB N 0.726150 0.226150 -0.109300
N1UA N 0.773850 0.273850 -0.109300
C3F C 0.568440 0.25000 0.25000
C3RA C 0.25000 0.25000 0.068440
C3OA C 0.25000 0.25000 -0.068440
C3JA C 0.25000 0.068440 0.25000
C3CA C 0.25000 -0.068440 0.25000
C3P C 0.25000 0.25000 0.431560
C3DB C 0.068440 0.25000 0.25000
C3C C 0.25000 0.431560 0.25000
C3HA C 0.75000 0.068440 0.25000
C3SA C 0.75000 0.25000 0.068440
C3S C 0.25000 0.25000 0.568440
C3KB C -0.068440 0.25000 0.25000
C3G C 0.25000 0.568440 0.25000
C3LA C 0.75000 -0.068440 0.25000
C3UA C 0.75000 0.25000 -0.068440
O2F O 0.599445 0.212027 0.212027
O2KA O 0.599445 0.287973 0.287973
O2Z O 0.400555 0.287973 0.287973
O2RB O 0.287973 0.212027 0.099445
O2NB O 0.287973 0.212027 -0.099445
O2OA O 0.212027 0.287973 -0.099445
O2RA O 0.212027 0.287973 0.099445
O2CC O 0.287973 0.099445 0.212027
O2UB O 0.287973 -0.099445 0.212027
O2CA O 0.212027 -0.099445 0.287973
O2JA O 0.212027 0.099445 0.287973
O2P O 0.212027 0.212027 0.400555
O2DB O 0.099445 0.212027 0.287973
O2QC O 0.287973 0.287973 0.400555
O2JB O 0.287973 0.400555 0.287973
O2AC O 0.712027 0.099445 0.212027
O2OB O 0.712027 0.212027 0.099445
O2XB O 0.099445 0.287973 0.212027
O2C O 0.212027 0.400555 0.212027
O2HA O 0.787973 0.099445 0.287973
O2SA O 0.787973 0.287973 0.099445
O2S O 0.212027 0.212027 0.599445
O2OC O 0.287973 0.287973 0.599445
O2KB O -0.099445 0.212027 0.287973
O2EC O -0.099445 0.287973 0.212027
O2FB O 0.287973 0.599445 0.287973
O2G O 0.212027 0.599445 0.212027
O2WB O 0.712027 -0.099445 0.212027
O2LA O 0.787973 -0.099445 0.287973
O2LB O 0.712027 0.212027 -0.099445
O2UA O 0.787973 0.287973 -0.099445
C4KA C 0.522290 0.338300 0.338300
C4Z C 0.477710 0.338300 0.338300
C4F C 0.522290 0.161700 0.161700
C4RB C 0.338300 0.161700 0.022290
C4OA C 0.161700 0.338300 -0.022290
C4RA C 0.161700 0.338300 0.022290
C4NB C 0.338300 0.161700 -0.022290
C4CC C 0.338300 0.022290 0.161700
C4CA C 0.161700 -0.022290 0.338300
C4JA C 0.161700 0.022290 0.338300
C4UB C 0.338300 -0.022290 0.161700
C4P C 0.161700 0.161700 0.477710
C4DB C 0.022290 0.161700 0.338300
C4QC C 0.338300 0.338300 0.477710
C4JB C 0.338300 0.477710 0.338300
C4AC C 0.661700 0.022290 0.161700
C4OB C 0.661700 0.161700 0.022290
C4S C 0.161700 0.161700 0.522290
C4KB C -0.022290 0.161700 0.338300
C4XB C 0.022290 0.338300 0.161700
C4OC C 0.338300 0.338300 0.522290
C4FB C 0.338300 0.522290 0.338300
C4C C 0.161700 0.477710 0.161700
C4WB C 0.661700 -0.022290 0.161700
C4HA C 0.838300 0.022290 0.338300
C4LB C 0.661700 0.161700 -0.022290
C4SA C 0.838300 0.338300 0.022290
C4EC C -0.022290 0.338300 0.161700
C4G C 0.161700 0.522290 0.161700
C4LA C 0.838300 -0.022290 0.338300
C4UA C 0.838300 0.338300 -0.022290
H1KA H 0.494810 0.376137 0.316005
H1F H 0.494810 0.123863 0.183995
H1TC H 0.494810 0.183995 0.123863
H1ED H 0.505190 0.123863 0.183995
H1Z H 0.505190 0.316005 0.376137
H1VD H 0.505190 0.376137 0.316005
H1PD H 0.494810 0.316005 0.376137
H1RB H 0.316005 0.123863 -0.005190
H1OA H 0.123863 0.316005 0.005190
H1NB H 0.376137 0.183995 0.005190
H1HF H 0.316005 0.123863 0.005190
H1EF H 0.376137 0.183995 -0.005190
H1RA H 0.183995 0.376137 -0.005190
H1HE H 0.123863 0.316005 -0.005190
H1LE H 0.183995 0.376137 0.005190
H1CC H 0.376137 -0.005190 0.183995
H1CA H 0.183995 0.005190 0.376137
H1UB H 0.316005 0.005190 0.123863
H1XF H 0.376137 0.005190 0.183995
H1QF H 0.316005 -0.005190 0.123863
H1JA H 0.123863 -0.005190 0.316005
H1QD H 0.183995 -0.005190 0.376137
H1YD H 0.123863 0.005190 0.316005
H1P H 0.183995 0.123863 0.505190
H1S H 0.123863 0.183995 0.494810
H1MD H 0.123863 0.183995 0.505190
H1OD H 0.183995 0.123863 0.494810
H1DB H -0.005190 0.183995 0.376137
H1KB H 0.005190 0.123863 0.316005
H1YE H -0.005190 0.123863 0.316005
H1RE H 0.005190 0.183995 0.376137
H1QC H 0.316005 0.376137 0.505190
H1OC H 0.376137 0.316005 0.494810
H1EG H 0.376137 0.316005 0.505190
H1BG H 0.316005 0.376137 0.494810
H1JB H 0.376137 0.505190 0.316005
H1FB H 0.316005 0.494810 0.376137
H1UE H 0.316005 0.505190 0.376137
H1QE H 0.376137 0.494810 0.316005
H1AC H 0.683995 -0.005190 0.123863
H1WB H 0.623863 0.005190 0.183995
H1ZF H 0.623863 -0.005190 0.183995
H1VF H 0.683995 0.005190 0.123863
H1OB H 0.623863 0.183995 -0.005190
H1LB H 0.683995 0.123863 0.005190
H1KF H 0.683995 0.123863 -0.005190
H1IF H 0.623863 0.183995 0.005190
H1XB H -0.005190 0.316005 0.123863
H1EC H 0.005190 0.376137 0.183995
H1AG H -0.005190 0.376137 0.183995
H1TF H 0.005190 0.316005 0.123863
H1C H 0.123863 0.505190 0.183995
H1G H 0.183995 0.494810 0.123863
H1BD H 0.183995 0.505190 0.123863
H1FD H 0.123863 0.494810 0.183995
H1HA H 0.816005 -0.005190 0.376137
H1LA H 0.876137 0.005190 0.316005
H1SD H 0.876137 -0.005190 0.316005
H1WD H 0.816005 0.005190 0.376137
H1SA H 0.876137 0.316005 -0.005190
H1UA H 0.816005 0.376137 0.005190
H1FE H 0.816005 0.376137 -0.005190
H1IE H 0.876137 0.316005 0.005190
H2ED H 0.441430 0.134510 0.148820
H2F H 0.558570 0.134510 0.148820
H2TC H 0.558570 0.148820 0.134510
H2KA H 0.558570 0.365490 0.351180
H2PD H 0.558570 0.351180 0.365490
H2Z H 0.441430 0.351180 0.365490
H2VD H 0.441430 0.365490 0.351180
H2RB H 0.351180 0.134510 0.058570
H2EF H 0.365490 0.148820 0.058570
H2NB H 0.365490 0.148820 -0.058570
H2HF H 0.351180 0.134510 -0.058570
H2OA H 0.134510 0.351180 -0.058570
H2LE H 0.148820 0.365490 -0.058570
H2RA H 0.148820 0.365490 0.058570
H2HE H 0.134510 0.351180 0.058570
H2CC H 0.365490 0.058570 0.148820
H2QF H 0.351180 0.058570 0.134510
H2UB H 0.351180 -0.058570 0.134510
H2XF H 0.365490 -0.058570 0.148820
H2CA H 0.148820 -0.058570 0.365490
H2YD H 0.134510 -0.058570 0.351180
H2JA H 0.134510 0.058570 0.351180
H2QD H 0.148820 0.058570 0.365490
H2P H 0.148820 0.134510 0.441430
H2MD H 0.134510 0.148820 0.441430
H2DB H 0.058570 0.148820 0.365490
H2YE H 0.058570 0.134510 0.351180
H2QC H 0.351180 0.365490 0.441430
H2EG H 0.365490 0.351180 0.441430
H2JB H 0.365490 0.441430 0.351180
H2UE H 0.351180 0.441430 0.365490
H2AC H 0.648820 0.058570 0.134510
H2ZF H 0.634510 0.058570 0.148820
H2OB H 0.634510 0.148820 0.058570
H2KF H 0.648820 0.134510 0.058570
H2S H 0.134510 0.148820 0.558570
H2OD H 0.148820 0.134510 0.558570
H2KB H -0.058570 0.134510 0.351180
H2RE H -0.058570 0.148820 0.365490
H2XB H 0.058570 0.351180 0.134510
H2AG H 0.058570 0.365490 0.148820
H2OC H 0.365490 0.351180 0.558570
H2BG H 0.351180 0.365490 0.558570
H2FB H 0.351180 0.558570 0.365490
H2QE H 0.365490 0.558570 0.351180
H2C H 0.134510 0.441430 0.148820
H2BD H 0.148820 0.441430 0.134510
H2WB H 0.634510 -0.058570 0.148820
H2VF H 0.648820 -0.058570 0.134510
H2HA H 0.851180 0.058570 0.365490
H2SD H 0.865490 0.058570 0.351180
H2LB H 0.648820 0.134510 -0.058570
H2IF H 0.634510 0.148820 -0.058570
H2SA H 0.865490 0.351180 0.058570
H2FE H 0.851180 0.365490 0.058570
H2EC H -0.058570 0.365490 0.148820
H2TF H -0.058570 0.351180 0.134510
H2G H 0.148820 0.558570 0.134510
H2FD H 0.134510 0.558570 0.148820
H2LA H 0.865490 -0.058570 0.351180
H2WD H 0.851180 -0.058570 0.365490
H2UA H 0.851180 0.365490 -0.058570
H2IE H 0.865490 0.351180 -0.058570
H3F H 0.511472 0.180671 0.134844
H3TC H 0.511472 0.134844 0.180671
H3ED H 0.488528 0.180671 0.134844
H3KA H 0.511472 0.319329 0.365156
H3Z H 0.488528 0.365156 0.319329
H3VD H 0.488528 0.319329 0.365156
H3PD H 0.511472 0.365156 0.319329
H3RB H 0.365156 0.180671 0.011472
H3NB H 0.319329 0.134844 -0.011472
H3HF H 0.365156 0.180671 -0.011472
H3EF H 0.319329 0.134844 0.011472
H3OA H 0.180671 0.365156 -0.011472
H3RA H 0.134844 0.319329 0.011472
H3HE H 0.180671 0.365156 0.011472
H3LE H 0.134844 0.319329 -0.011472
H3CC H 0.319329 0.011472 0.134844
H3UB H 0.365156 -0.011472 0.180671
H3XF H 0.319329 -0.011472 0.134844
H3QF H 0.365156 0.011472 0.180671
H3CA H 0.134844 -0.011472 0.319329
H3JA H 0.180671 0.011472 0.365156
H3QD H 0.134844 0.011472 0.319329
H3YD H 0.180671 -0.011472 0.365156
H3P H 0.134844 0.180671 0.488528
H3S H 0.180671 0.134844 0.511472
H3MD H 0.180671 0.134844 0.488528
H3OD H 0.134844 0.180671 0.511472
H3DB H 0.011472 0.134844 0.319329
H3KB H -0.011472 0.180671 0.365156
H3YE H 0.011472 0.180671 0.365156
H3RE H -0.011472 0.134844 0.319329
H3QC H 0.365156 0.319329 0.488528
H3OC H 0.319329 0.365156 0.511472
H3EG H 0.319329 0.365156 0.488528
H3BG H 0.365156 0.319329 0.511472
H3JB H 0.319329 0.488528 0.365156
H3FB H 0.365156 0.511472 0.319329
H3UE H 0.365156 0.488528 0.319329
H3QE H 0.319329 0.511472 0.365156
H3AC H 0.634844 0.011472 0.180671
H3WB H 0.680671 -0.011472 0.134844
H3ZF H 0.680671 0.011472 0.134844
H3VF H 0.634844 -0.011472 0.180671
H3OB H 0.680671 0.134844 0.011472
H3LB H 0.634844 0.180671 -0.011472
H3KF H 0.634844 0.180671 0.011472
H3IF H 0.680671 0.134844 -0.011472
H3XB H 0.011472 0.365156 0.180671
H3EC H -0.011472 0.319329 0.134844
H3AG H 0.011472 0.319329 0.134844
H3TF H -0.011472 0.365156 0.180671
H3C H 0.180671 0.488528 0.134844
H3G H 0.134844 0.511472 0.180671
H3BD H 0.134844 0.488528 0.180671
H3FD H 0.180671 0.511472 0.134844
H3HA H 0.865156 0.011472 0.319329
H3LA H 0.819329 -0.011472 0.365156
H3SD H 0.819329 0.011472 0.365156
H3WD H 0.865156 -0.011472 0.319329
H3SA H 0.819329 0.365156 0.011472
H3UA H 0.865156 0.319329 -0.011472
H3FE H 0.865156 0.319329 0.011472
H3IE H 0.819329 0.365156 -0.011472
loop_
_geom_bond_atom_site_label_1
_geom_bond_atom_site_label_2
_geom_bond_site_symmetry_1
_geom_bond_site_symmetry_2
Zn1 O1 1_555 1_555
O1 Zn1P 1_555 1_555
C1 C2 1_555 1_555
C2 N1 1_555 1_555
N1 Zn1 1_555 1_555
C3 C1 1_555 1_555
O2 Zn1 1_555 1_555
C4 C2 1_555 1_555
H1 C4 1_555 1_555
H2 C4 1_555 1_555
H3 C4 1_555 1_555
Zn1P N1JA 1_555 1_555
Zn1Z O1 1_555 1_555
Zn1F O1A 1_555 1_555
Zn1C O1 1_555 1_555
Zn1KA O1A 1_555 1_555
Zn1O N1NB 1_555 1_555
Zn1E N1OA 1_555 1_555
Zn1K N1UB 1_555 1_555
Zn1Q N1CA 1_555 1_555
Zn1A O1A 1_555 1_555
Zn1R O1A 1_555 1_555
Zn1S N1S 1_555 1_555
Zn1IA N1OC 1_555 1_555
Zn1R_2 N1KB 1_555 1_555
Zn1A_2 N1EC 1_555 1_555
Zn1MA N1FB 1_555 1_555
Zn1G N1G 1_555 1_555
Zn1D N1WB 1_555 1_555
Zn1W N1LA 1_555 1_555
Zn1H N1LB 1_555 1_555
Zn1N N1UA 1_555 1_555
C1F C1 1_555 1_555
C1RA C1OA 1_555 1_555
C1OA C2RB 1_555 1_555
C1JA C1CA 1_555 1_555
C1CA C2CC 1_555 1_555
C1P C1S 1_555 1_555
C1S C2P 1_555 1_555
C1DB C1KB 1_555 1_555
C1KB C2DB 1_555 1_555
C1C C1G 1_555 1_555
C1G C2JB 1_555 1_555
C1HA C1LA 1_555 1_555
C1LA C2AC 1_555 1_555
C1SA C1UA 1_555 1_555
C1UA C2OB 1_555 1_555
C2F C1 1_555 1_555
C2Z C1 1_555 1_555
C2KA C1 1_555 1_555
C2RB C1RA 1_555 1_555
C2NB C1RA 1_555 1_555
C2RA C1RA 1_555 1_555
C2OA C1RA 1_555 1_555
C2CC C1JA 1_555 1_555
C2UB C1JA 1_555 1_555
C2JA C1JA 1_555 1_555
C2CA C1JA 1_555 1_555
C2P C1P 1_555 1_555
C2DB C1DB 1_555 1_555
C2QC C1P 1_555 1_555
C2JB C1C 1_555 1_555
C2AC C1HA 1_555 1_555
C2OB C1SA 1_555 1_555
C2XB C1DB 1_555 1_555
C2C C1C 1_555 1_555
C2HA C1HA 1_555 1_555
C2SA C1SA 1_555 1_555
C2S C1P 1_555 1_555
C2OC C1P 1_555 1_555
C2KB C1DB 1_555 1_555
C2EC C1DB 1_555 1_555
C2FB C1C 1_555 1_555
C2G C1C 1_555 1_555
C2WB C1HA 1_555 1_555
C2LA C1HA 1_555 1_555
C2LB C1SA 1_555 1_555
C2UA C1SA 1_555 1_555
N1Z N1 1_555 1_555
N1F Zn1F 1_555 1_555
N1KA Zn1KA 1_555 1_555
N1RB Zn1 1_555 1_555
N1RA Zn1C 1_555 1_555
N1NB C2NB 1_555 1_555
N1OA C2OA 1_555 1_555
N1CC Zn1 1_555 1_555
N1JA C2JA 1_555 1_555
N1UB C2UB 1_555 1_555
N1CA C2CA 1_555 1_555
N1P Zn1P 1_555 1_555
N1DB Zn1P 1_555 1_555
N1QC Zn1Z 1_555 1_555
N1JB Zn1Z 1_555 1_555
N1AC Zn1F 1_555 1_555
N1OB Zn1F 1_555 1_555
N1XB Zn1C 1_555 1_555
N1C Zn1C 1_555 1_555
N1HA Zn1R 1_555 1_555
N1SA Zn1A 1_555 1_555
N1S C2S 1_555 1_555
N1OC C2OC 1_555 1_555
N1KB C2KB 1_555 1_555
N1EC C2EC 1_555 1_555
N1FB C2FB 1_555 1_555
N1G C2G 1_555 1_555
N1WB C2WB 1_555 1_555
N1LA C2LA 1_555 1_555
N1LB C2LB 1_555 1_555
N1UA C2UA 1_555 1_555
C3F C1 1_555 1_555
C3RA C1RA 1_555 1_555
C3OA C1RA 1_555 1_555
C3JA C1JA 1_555 1_555
C3CA C1JA 1_555 1_555
C3P C1P 1_555 1_555
C3DB C1DB 1_555 1_555
C3C C1C 1_555 1_555
C3HA C1HA 1_555 1_555
C3SA C1SA 1_555 1_555
C3S C1P 1_555 1_555
C3KB C1DB 1_555 1_555
C3G C1C 1_555 1_555
C3LA C1HA 1_555 1_555
C3UA C1SA 1_555 1_555
O2F Zn1F 1_555 1_555
O2KA Zn1KA 1_555 1_555
O2Z C3 1_555 1_555
O2RB Zn1 1_555 1_555
O2NB Zn1O 1_555 1_555
O2OA Zn1E 1_555 1_555
O2RA Zn1C 1_555 1_555
O2CC Zn1 1_555 1_555
O2UB Zn1K 1_555 1_555
O2CA Zn1Q 1_555 1_555
O2JA Zn1P 1_555 1_555
O2P Zn1P 1_555 1_555
O2DB Zn1P 1_555 1_555
O2QC Zn1Z 1_555 1_555
O2JB Zn1Z 1_555 1_555
O2AC Zn1F 1_555 1_555
O2OB Zn1F 1_555 1_555
O2XB Zn1C 1_555 1_555
O2C Zn1C 1_555 1_555
O2HA Zn1R 1_555 1_555
O2SA Zn1A 1_555 1_555
O2S Zn1S 1_555 1_555
O2OC Zn1IA 1_555 1_555
O2KB Zn1R_2 1_555 1_555
O2EC Zn1A_2 1_555 1_555
O2FB Zn1MA 1_555 1_555
O2G Zn1G 1_555 1_555
O2WB Zn1D 1_555 1_555
O2LA Zn1W 1_555 1_555
O2LB Zn1H 1_555 1_555
O2UA Zn1N 1_555 1_555
C4KA C2KA 1_555 1_555
C4Z C2Z 1_555 1_555
C4F C4 1_555 1_555
C4RB C2RB 1_555 1_555
C4OA C2OA 1_555 1_555
C4RA C2RA 1_555 1_555
C4NB C2NB 1_555 1_555
C4CC C2CC 1_555 1_555
C4CA C2CA 1_555 1_555
C4JA C2JA 1_555 1_555
C4UB C2UB 1_555 1_555
C4P C2P 1_555 1_555
C4DB C2DB 1_555 1_555
C4QC C2QC 1_555 1_555
C4JB C2JB 1_555 1_555
C4AC C2AC 1_555 1_555
C4OB C2OB 1_555 1_555
C4S C2S 1_555 1_555
C4KB C2KB 1_555 1_555
C4XB C2XB 1_555 1_555
C4OC C2OC 1_555 1_555
C4FB C2FB 1_555 1_555
C4C C2C 1_555 1_555
C4WB C2WB 1_555 1_555
C4HA C2HA 1_555 1_555
C4LB C2LB 1_555 1_555
C4SA C2SA 1_555 1_555
C4EC C2EC 1_555 1_555
C4G C2G 1_555 1_555
C4LA C2LA 1_555 1_555
C4UA C2UA 1_555 1_555
H1KA C4KA 1_555 1_555
H1F C4 1_555 1_555
H1TC C4 1_555 1_555
H1ED C4 1_555 1_555
H1Z C4KA 1_555 1_555
H1VD C4KA 1_555 1_555
H1PD C4KA 1_555 1_555
H1RB C4RB 1_555 1_555
H1OA C4OA 1_555 1_555
H1NB C4RB 1_555 1_555
H1HF C4RB 1_555 1_555
H1EF C4RB 1_555 1_555
H1RA C4OA 1_555 1_555
H1HE C4OA 1_555 1_555
H1LE C4OA 1_555 1_555
H1CC C4CC 1_555 1_555
H1CA C4CA 1_555 1_555
H1UB C4CC 1_555 1_555
H1XF C4CC 1_555 1_555
H1QF C4CC 1_555 1_555
H1JA C4CA 1_555 1_555
H1QD C4CA 1_555 1_555
H1YD C4CA 1_555 1_555
H1P C4P 1_555 1_555
H1S C4P 1_555 1_555
H1MD C4P 1_555 1_555
H1OD C4P 1_555 1_555
H1DB C4DB 1_555 1_555
H1KB C4DB 1_555 1_555
H1YE C4DB 1_555 1_555
H1RE C4DB 1_555 1_555
H1QC C4QC 1_555 1_555
H1OC C4QC 1_555 1_555
H1EG C4QC 1_555 1_555
H1BG C4QC 1_555 1_555
H1JB C4JB 1_555 1_555
H1FB C4JB 1_555 1_555
H1UE C4JB 1_555 1_555
H1QE C4JB 1_555 1_555
H1AC C4AC 1_555 1_555
H1WB C4AC 1_555 1_555
H1ZF C4AC 1_555 1_555
H1VF C4AC 1_555 1_555
H1OB C4OB 1_555 1_555
H1LB C4OB 1_555 1_555
H1KF C4OB 1_555 1_555
H1IF C4OB 1_555 1_555
H1XB C4XB 1_555 1_555
H1EC C4XB 1_555 1_555
H1AG C4XB 1_555 1_555
H1TF C4XB 1_555 1_555
H1C C4C 1_555 1_555
H1G C4C 1_555 1_555
H1BD C4C 1_555 1_555
H1FD C4C 1_555 1_555
H1HA C4HA 1_555 1_555
H1LA C4HA 1_555 1_555
H1SD C4HA 1_555 1_555
H1WD C4HA 1_555 1_555
H1SA C4SA 1_555 1_555
H1UA C4SA 1_555 1_555
H1FE C4SA 1_555 1_555
H1IE C4SA 1_555 1_555
H2ED C4 1_555 1_555
H2F C4F 1_555 1_555
H2TC C4F 1_555 1_555
H2KA C4KA 1_555 1_555
H2PD C4KA 1_555 1_555
H2Z C4Z 1_555 1_555
H2VD C4Z 1_555 1_555
H2RB C4RB 1_555 1_555
H2EF C4RB 1_555 1_555
H2NB C4NB 1_555 1_555
H2HF C4NB 1_555 1_555
H2OA C4OA 1_555 1_555
H2LE C4OA 1_555 1_555
H2RA C4RA 1_555 1_555
H2HE C4RA 1_555 1_555
H2CC C4CC 1_555 1_555
H2QF C4CC 1_555 1_555
H2UB C4UB 1_555 1_555
H2XF C4UB 1_555 1_555
H2CA C4CA 1_555 1_555
H2YD C4CA 1_555 1_555
H2JA C4JA 1_555 1_555
H2QD C4JA 1_555 1_555
H2P C4P 1_555 1_555
H2MD C4P 1_555 1_555
H2DB C4DB 1_555 1_555
H2YE C4DB 1_555 1_555
H2QC C4QC 1_555 1_555
H2EG C4QC 1_555 1_555
H2JB C4JB 1_555 1_555
H2UE C4JB 1_555 1_555
H2AC C4AC 1_555 1_555
H2ZF C4AC 1_555 1_555
H2OB C4OB 1_555 1_555
H2KF C4OB 1_555 1_555
H2S C4S 1_555 1_555
H2OD C4S 1_555 1_555
H2KB C4KB 1_555 1_555
H2RE C4KB 1_555 1_555
H2XB C4XB 1_555 1_555
H2AG C4XB 1_555 1_555
H2OC C4OC 1_555 1_555
H2BG C4OC 1_555 1_555
H2FB C4FB 1_555 1_555
H2QE C4FB 1_555 1_555
H2C C4C 1_555 1_555
H2BD C4C 1_555 1_555
H2WB C4WB 1_555 1_555
H2VF C4WB 1_555 1_555
H2HA C4HA 1_555 1_555
H2SD C4HA 1_555 1_555
H2LB C4LB 1_555 1_555
H2IF C4LB 1_555 1_555
H2SA C4SA 1_555 1_555
H2FE C4SA 1_555 1_555
H2EC C4EC 1_555 1_555
H2TF C4EC 1_555 1_555
H2G C4G 1_555 1_555
H2FD C4G 1_555 1_555
H2LA C4LA 1_555 1_555
H2WD C4LA 1_555 1_555
H2UA C4UA 1_555 1_555
H2IE C4UA 1_555 1_555
H3F C4 1_555 1_555
H3TC C4 1_555 1_555
H3ED C4 1_555 1_555
H3KA C4KA 1_555 1_555
H3Z C4KA 1_555 1_555
H3VD C4KA 1_555 1_555
H3PD C4KA 1_555 1_555
H3RB C4RB 1_555 1_555
H3NB C4RB 1_555 1_555
H3HF C4RB 1_555 1_555
H3EF C4RB 1_555 1_555
H3OA C4OA 1_555 1_555
H3RA C4OA 1_555 1_555
H3HE C4OA 1_555 1_555
H3LE C4OA 1_555 1_555
H3CC C4CC 1_555 1_555
H3UB C4CC 1_555 1_555
H3XF C4CC 1_555 1_555
H3QF C4CC 1_555 1_555
H3CA C4CA 1_555 1_555
H3JA C4CA 1_555 1_555
H3QD C4CA 1_555 1_555
H3YD C4CA 1_555 1_555
H3P C4P 1_555 1_555
H3S C4P 1_555 1_555
H3MD C4P 1_555 1_555
H3OD C4P 1_555 1_555
H3DB C4DB 1_555 1_555
H3KB C4DB 1_555 1_555
H3YE C4DB 1_555 1_555
H3RE C4DB 1_555 1_555
H3QC C4QC 1_555 1_555
H3OC C4QC 1_555 1_555
H3EG C4QC 1_555 1_555
H3BG C4QC 1_555 1_555
H3JB C4JB 1_555 1_555
H3FB C4JB 1_555 1_555
H3UE C4JB 1_555 1_555
H3QE C4JB 1_555 1_555
H3AC C4AC 1_555 1_555
H3WB C4AC 1_555 1_555
H3ZF C4AC 1_555 1_555
H3VF C4AC 1_555 1_555
H3OB C4OB 1_555 1_555
H3LB C4OB 1_555 1_555
H3KF C4OB 1_555 1_555
H3IF C4OB 1_555 1_555
H3XB C4XB 1_555 1_555
H3EC C4XB 1_555 1_555
H3AG C4XB 1_555 1_555
H3TF C4XB 1_555 1_555
H3C C4C 1_555 1_555
H3G C4C 1_555 1_555
H3BD C4C 1_555 1_555
H3FD C4C 1_555 1_555
H3HA C4HA 1_555 1_555
H3LA C4HA 1_555 1_555
H3SD C4HA 1_555 1_555
H3WD C4HA 1_555 1_555
H3SA C4SA 1_555 1_555
H3UA C4SA 1_555 1_555
H3FE C4SA 1_555 1_555
H3IE C4SA 1_555 1_555
C2 C3 1_555 1_555
C2 O2 1_555 1_555
C2 C1F 1_555 1_555
N1 C3 1_555 1_555
N1 O2 1_555 1_555
C3 O2 1_555 1_555
C3 C1F 1_555 1_555
C3 C2Z 1_555 1_555
C3 N1Z 1_555 1_555
H1 C4F 1_555 1_555
H1 H1TC 1_555 1_555
H1 H3F 1_555 1_555
H1 H3ED 1_555 1_555
H2 H2ED 1_555 1_555
H3 C4F 1_555 1_555
H3 H1F 1_555 1_555
H3 H1ED 1_555 1_555
H3 H3TC 1_555 1_555
Zn1Z N1Z 1_555 1_555
Zn1Z O2Z 1_555 1_555
C1F C2F 1_555 1_555
C1F C2Z 1_555 1_555
C1F C2KA 1_555 1_555
C1F C3F 1_555 1_555
C1OA C2NB 1_555 1_555
C1OA C2RA 1_555 1_555
C1OA C2OA 1_555 1_555
C1OA C3RA 1_555 1_555
C1OA C3OA 1_555 1_555
C1CA C2UB 1_555 1_555
C1CA C2JA 1_555 1_555
C1CA C2CA 1_555 1_555
C1CA C3JA 1_555 1_555
C1CA C3CA 1_555 1_555
C1S C2QC 1_555 1_555
C1S C2S 1_555 1_555
C1S C2OC 1_555 1_555
C1S C3P 1_555 1_555
C1S C3S 1_555 1_555
C1KB C2XB 1_555 1_555
C1KB C2KB 1_555 1_555
C1KB C2EC 1_555 1_555
C1KB C3DB 1_555 1_555
C1KB C3KB 1_555 1_555
C1G C2C 1_555 1_555
C1G C2FB 1_555 1_555
C1G C2G 1_555 1_555
C1G C3C 1_555 1_555
C1G C3G 1_555 1_555
C1LA C2HA 1_555 1_555
C1LA C2WB 1_555 1_555
C1LA C2LA 1_555 1_555
C1LA C3HA 1_555 1_555
C1LA C3LA 1_555 1_555
C1UA C2SA 1_555 1_555
C1UA C2LB 1_555 1_555
C1UA C2UA 1_555 1_555
C1UA C3SA 1_555 1_555
C1UA C3UA 1_555 1_555
C2F N1F 1_555 1_555
C2F C3F 1_555 1_555
C2F O2F 1_555 1_555
C2F C4F 1_555 1_555
C2Z N1Z 1_555 1_555
C2Z O2Z 1_555 1_555
C2KA N1KA 1_555 1_555
C2KA C3F 1_555 1_555
C2KA O2KA 1_555 1_555
C2RB N1RB 1_555 1_555
C2RB C3RA 1_555 1_555
C2RB O2RB 1_555 1_555
C2NB C3OA 1_555 1_555
C2NB O2NB 1_555 1_555
C2RA N1RA 1_555 1_555
C2RA C3RA 1_555 1_555
C2RA O2RA 1_555 1_555
C2OA C3OA 1_555 1_555
C2OA O2OA 1_555 1_555
C2CC N1CC 1_555 1_555
C2CC C3JA 1_555 1_555
C2CC O2CC 1_555 1_555
C2UB C3CA 1_555 1_555
C2UB O2UB 1_555 1_555
C2JA C3JA 1_555 1_555
C2JA O2JA 1_555 1_555
C2CA C3CA 1_555 1_555
C2CA O2CA 1_555 1_555
C2P N1P 1_555 1_555
C2P C3P 1_555 1_555
C2P O2P 1_555 1_555
C2DB N1DB 1_555 1_555
C2DB C3DB 1_555 1_555
C2DB O2DB 1_555 1_555
C2QC N1QC 1_555 1_555
C2QC C3P 1_555 1_555
C2QC O2QC 1_555 1_555
C2JB N1JB 1_555 1_555
C2JB C3C 1_555 1_555
C2JB O2JB 1_555 1_555
C2AC N1AC 1_555 1_555
C2AC C3HA 1_555 1_555
C2AC O2AC 1_555 1_555
C2OB N1OB 1_555 1_555
C2OB C3SA 1_555 1_555
C2OB O2OB 1_555 1_555
C2XB N1XB 1_555 1_555
C2XB C3DB 1_555 1_555
C2XB O2XB 1_555 1_555
C2C N1C 1_555 1_555
C2C C3C 1_555 1_555
C2C O2C 1_555 1_555
C2HA N1HA 1_555 1_555
C2HA C3HA 1_555 1_555
C2HA O2HA 1_555 1_555
C2SA N1SA 1_555 1_555
C2SA C3SA 1_555 1_555
C2SA O2SA 1_555 1_555
C2S C3S 1_555 1_555
C2S O2S 1_555 1_555
C2OC C3S 1_555 1_555
C2OC O2OC 1_555 1_555
C2KB C3KB 1_555 1_555
C2KB O2KB 1_555 1_555
C2EC C3KB 1_555 1_555
C2EC O2EC 1_555 1_555
C2FB C3G 1_555 1_555
C2FB O2FB 1_555 1_555
C2G C3G 1_555 1_555
C2G O2G 1_555 1_555
C2WB C3LA 1_555 1_555
C2WB O2WB 1_555 1_555
C2LA C3LA 1_555 1_555
C2LA O2LA 1_555 1_555
C2LB C3UA 1_555 1_555
C2LB O2LB 1_555 1_555
C2UA C3UA 1_555 1_555
C2UA O2UA 1_555 1_555
N1Z O2Z 1_555 1_555
N1F N1KA 1_555 1_555
N1F C3F 1_555 1_555
N1F O2F 1_555 1_555
N1KA C3F 1_555 1_555
N1KA O2KA 1_555 1_555
N1RB N1RA 1_555 1_555
N1RB C3RA 1_555 1_555
N1RB O2RB 1_555 1_555
N1RA C3RA 1_555 1_555
N1RA O2RA 1_555 1_555
N1NB N1OA 1_555 1_555
N1NB C3OA 1_555 1_555
N1NB O2NB 1_555 1_555
N1OA C3OA 1_555 1_555
N1OA O2OA 1_555 1_555
N1CC N1JA 1_555 1_555
N1CC C3JA 1_555 1_555
N1CC O2CC 1_555 1_555
N1JA C3JA 1_555 1_555
N1JA O2JA 1_555 1_555
N1UB N1CA 1_555 1_555
N1UB C3CA 1_555 1_555
N1UB O2UB 1_555 1_555
N1CA C3CA 1_555 1_555
N1CA O2CA 1_555 1_555
N1P N1QC 1_555 1_555
N1P C3P 1_555 1_555
N1P O2P 1_555 1_555
N1DB N1XB 1_555 1_555
N1DB C3DB 1_555 1_555
N1DB O2DB 1_555 1_555
N1QC C3P 1_555 1_555
N1QC O2QC 1_555 1_555
N1JB N1C 1_555 1_555
N1JB C3C 1_555 1_555
N1JB O2JB 1_555 1_555
N1AC N1HA 1_555 1_555
N1AC C3HA 1_555 1_555
N1AC O2AC 1_555 1_555
N1OB N1SA 1_555 1_555
N1OB C3SA 1_555 1_555
N1OB O2OB 1_555 1_555
N1XB C3DB 1_555 1_555
N1XB O2XB 1_555 1_555
N1C C3C 1_555 1_555
N1C O2C 1_555 1_555
N1HA C3HA 1_555 1_555
N1HA O2HA 1_555 1_555
N1SA C3SA 1_555 1_555
N1SA O2SA 1_555 1_555
N1S N1OC 1_555 1_555
N1S C3S 1_555 1_555
N1S O2S 1_555 1_555
N1OC C3S 1_555 1_555
N1OC O2OC 1_555 1_555
N1KB N1EC 1_555 1_555
N1KB C3KB 1_555 1_555
N1KB O2KB 1_555 1_555
N1EC C3KB 1_555 1_555
N1EC O2EC 1_555 1_555
N1FB N1G 1_555 1_555
N1FB C3G 1_555 1_555
N1FB O2FB 1_555 1_555
N1G C3G 1_555 1_555
N1G O2G 1_555 1_555
N1WB N1LA 1_555 1_555
N1WB C3LA 1_555 1_555
N1WB O2WB 1_555 1_555
N1LA C3LA 1_555 1_555
N1LA O2LA 1_555 1_555
N1LB N1UA 1_555 1_555
N1LB C3UA 1_555 1_555
N1LB O2LB 1_555 1_555
N1UA C3UA 1_555 1_555
N1UA O2UA 1_555 1_555
C3F O2F 1_555 1_555
C3F O2KA 1_555 1_555
C3RA O2RB 1_555 1_555
C3RA O2RA 1_555 1_555
C3OA O2NB 1_555 1_555
C3OA O2OA 1_555 1_555
C3JA O2CC 1_555 1_555
C3JA O2JA 1_555 1_555
C3CA O2UB 1_555 1_555
C3CA O2CA 1_555 1_555
C3P O2P 1_555 1_555
C3P O2QC 1_555 1_555
C3DB O2DB 1_555 1_555
C3DB O2XB 1_555 1_555
C3C O2JB 1_555 1_555
C3C O2C 1_555 1_555
C3HA O2AC 1_555 1_555
C3HA O2HA 1_555 1_555
C3SA O2OB 1_555 1_555
C3SA O2SA 1_555 1_555
C3S O2S 1_555 1_555
C3S O2OC 1_555 1_555
C3KB O2KB 1_555 1_555
C3KB O2EC 1_555 1_555
C3G O2FB 1_555 1_555
C3G O2G 1_555 1_555
C3LA O2WB 1_555 1_555
C3LA O2LA 1_555 1_555
C3UA O2LB 1_555 1_555
C3UA O2UA 1_555 1_555
C4KA C4Z 1_555 1_555
C4Z H1KA 1_555 1_555
C4Z H1Z 1_555 1_555
C4Z H1VD 1_555 1_555
C4Z H1PD 1_555 1_555
C4Z H3KA 1_555 1_555
C4Z H3Z 1_555 1_555
C4Z H3VD 1_555 1_555
C4Z H3PD 1_555 1_555
C4F H1F 1_555 1_555
C4F H1TC 1_555 1_555
C4F H1ED 1_555 1_555
C4F H3F 1_555 1_555
C4F H3TC 1_555 1_555
C4F H3ED 1_555 1_555
C4RB C4NB 1_555 1_555
C4OA C4RA 1_555 1_555
C4RA H1OA 1_555 1_555
C4RA H1RA 1_555 1_555
C4RA H1HE 1_555 1_555
C4RA H1LE 1_555 1_555
C4RA H3OA 1_555 1_555
C4RA H3RA 1_555 1_555
C4RA H3HE 1_555 1_555
C4RA H3LE 1_555 1_555
C4NB H1RB 1_555 1_555
C4NB H1NB 1_555 1_555
C4NB H1HF 1_555 1_555
C4NB H1EF 1_555 1_555
C4NB H3RB 1_555 1_555
C4NB H3NB 1_555 1_555
C4NB H3HF 1_555 1_555
C4NB H3EF 1_555 1_555
C4CC C4UB 1_555 1_555
C4CA C4JA 1_555 1_555
C4JA H1CA 1_555 1_555
C4JA H1JA 1_555 1_555
C4JA H1QD 1_555 1_555
C4JA H1YD 1_555 1_555
C4JA H3CA 1_555 1_555
C4JA H3JA 1_555 1_555
C4JA H3QD 1_555 1_555
C4JA H3YD 1_555 1_555
C4UB H1CC 1_555 1_555
C4UB H1UB 1_555 1_555
C4UB H1XF 1_555 1_555
C4UB H1QF 1_555 1_555
C4UB H3CC 1_555 1_555
C4UB H3UB 1_555 1_555
C4UB H3XF 1_555 1_555
C4UB H3QF 1_555 1_555
C4P C4S 1_555 1_555
C4DB C4KB 1_555 1_555
C4QC C4OC 1_555 1_555
C4JB C4FB 1_555 1_555
C4AC C4WB 1_555 1_555
C4OB C4LB 1_555 1_555
C4S H1P 1_555 1_555
C4S H1S 1_555 1_555
C4S H1MD 1_555 1_555
C4S H1OD 1_555 1_555
C4S H3P 1_555 1_555
C4S H3S 1_555 1_555
C4S H3MD 1_555 1_555
C4S H3OD 1_555 1_555
C4KB H1DB 1_555 1_555
C4KB H1KB 1_555 1_555
C4KB H1YE 1_555 1_555
C4KB H1RE 1_555 1_555
C4KB H3DB 1_555 1_555
C4KB H3KB 1_555 1_555
C4KB H3YE 1_555 1_555
C4KB H3RE 1_555 1_555
C4XB C4EC 1_555 1_555
C4OC H1QC 1_555 1_555
C4OC H1OC 1_555 1_555
C4OC H1EG 1_555 1_555
C4OC H1BG 1_555 1_555
C4OC H3QC 1_555 1_555
C4OC H3OC 1_555 1_555
C4OC H3EG 1_555 1_555
C4OC H3BG 1_555 1_555
C4FB H1JB 1_555 1_555
C4FB H1FB 1_555 1_555
C4FB H1UE 1_555 1_555
C4FB H1QE 1_555 1_555
C4FB H3JB 1_555 1_555
C4FB H3FB 1_555 1_555
C4FB H3UE 1_555 1_555
C4FB H3QE 1_555 1_555
C4C C4G 1_555 1_555
C4WB H1AC 1_555 1_555
C4WB H1WB 1_555 1_555
C4WB H1ZF 1_555 1_555
C4WB H1VF 1_555 1_555
C4WB H3AC 1_555 1_555
C4WB H3WB 1_555 1_555
C4WB H3ZF 1_555 1_555
C4WB H3VF 1_555 1_555
C4HA C4LA 1_555 1_555
C4LB H1OB 1_555 1_555
C4LB H1LB 1_555 1_555
C4LB H1KF 1_555 1_555
C4LB H1IF 1_555 1_555
C4LB H3OB 1_555 1_555
C4LB H3LB 1_555 1_555
C4LB H3KF 1_555 1_555
C4LB H3IF 1_555 1_555
C4SA C4UA 1_555 1_555
C4EC H1XB 1_555 1_555
C4EC H1EC 1_555 1_555
C4EC H1AG 1_555 1_555
C4EC H1TF 1_555 1_555
C4EC H3XB 1_555 1_555
C4EC H3EC 1_555 1_555
C4EC H3AG 1_555 1_555
C4EC H3TF 1_555 1_555
C4G H1C 1_555 1_555
C4G H1G 1_555 1_555
C4G H1BD 1_555 1_555
C4G H1FD 1_555 1_555
C4G H3C 1_555 1_555
C4G H3G 1_555 1_555
C4G H3BD 1_555 1_555
C4G H3FD 1_555 1_555
C4LA H1HA 1_555 1_555
C4LA H1LA 1_555 1_555
C4LA H1SD 1_555 1_555
C4LA H1WD 1_555 1_555
C4LA H3HA 1_555 1_555
C4LA H3LA 1_555 1_555
C4LA H3SD 1_555 1_555
C4LA H3WD 1_555 1_555
C4UA H1SA 1_555 1_555
C4UA H1UA 1_555 1_555
C4UA H1FE 1_555 1_555
C4UA H1IE 1_555 1_555
C4UA H3SA 1_555 1_555
C4UA H3UA 1_555 1_555
C4UA H3FE 1_555 1_555
C4UA H3IE 1_555 1_555
H1KA H1VD 1_555 1_555
H1KA H3Z 1_555 1_555
H1KA H3PD 1_555 1_555
H1F H1ED 1_555 1_555
H1F H3TC 1_555 1_555
H1TC H3F 1_555 1_555
H1TC H3ED 1_555 1_555
H1ED H3TC 1_555 1_555
H1Z H1PD 1_555 1_555
H1Z H3KA 1_555 1_555
H1Z H3VD 1_555 1_555
H1VD H3Z 1_555 1_555
H1VD H3PD 1_555 1_555
H1PD H3KA 1_555 1_555
H1PD H3VD 1_555 1_555
H1RB H1HF 1_555 1_555
H1RB H3NB 1_555 1_555
H1RB H3EF 1_555 1_555
H1OA H1HE 1_555 1_555
H1OA H3RA 1_555 1_555
H1OA H3LE 1_555 1_555
H1NB H1EF 1_555 1_555
H1NB H3RB 1_555 1_555
H1NB H3HF 1_555 1_555
H1HF H3NB 1_555 1_555
H1HF H3EF 1_555 1_555
H1EF H3RB 1_555 1_555
H1EF H3HF 1_555 1_555
H1RA H1LE 1_555 1_555
H1RA H3OA 1_555 1_555
H1RA H3HE 1_555 1_555
H1HE H3RA 1_555 1_555
H1HE H3LE 1_555 1_555
H1LE H3OA 1_555 1_555
H1LE H3HE 1_555 1_555
H1CC H1XF 1_555 1_555
H1CC H3UB 1_555 1_555
H1CC H3QF 1_555 1_555
H1CA H1QD 1_555 1_555
H1CA H3JA 1_555 1_555
H1CA H3YD 1_555 1_555
H1UB H1QF 1_555 1_555
H1UB H3CC 1_555 1_555
H1UB H3XF 1_555 1_555
H1XF H3UB 1_555 1_555
H1XF H3QF 1_555 1_555
H1QF H3CC 1_555 1_555
H1QF H3XF 1_555 1_555
H1JA H1YD 1_555 1_555
H1JA H3CA 1_555 1_555
H1JA H3QD 1_555 1_555
H1QD H3JA 1_555 1_555
H1QD H3YD 1_555 1_555
H1YD H3CA 1_555 1_555
H1YD H3QD 1_555 1_555
H1P H1OD 1_555 1_555
H1P H3S 1_555 1_555
H1P H3MD 1_555 1_555
H1S H1MD 1_555 1_555
H1S H3P 1_555 1_555
H1S H3OD 1_555 1_555
H1MD H3P 1_555 1_555
H1MD H3OD 1_555 1_555
H1OD H3S 1_555 1_555
H1OD H3MD 1_555 1_555
H1DB H1RE 1_555 1_555
H1DB H3KB 1_555 1_555
H1DB H3YE 1_555 1_555
H1KB H1YE 1_555 1_555
H1KB H3DB 1_555 1_555
H1KB H3RE 1_555 1_555
H1YE H3DB 1_555 1_555
H1YE H3RE 1_555 1_555
H1RE H3KB 1_555 1_555
H1RE H3YE 1_555 1_555
H1QC H1BG 1_555 1_555
H1QC H3OC 1_555 1_555
H1QC H3EG 1_555 1_555
H1OC H1EG 1_555 1_555
H1OC H3QC 1_555 1_555
H1OC H3BG 1_555 1_555
H1EG H3QC 1_555 1_555
H1EG H3BG 1_555 1_555
H1BG H3OC 1_555 1_555
H1BG H3EG 1_555 1_555
H1JB H1QE 1_555 1_555
H1JB H3FB 1_555 1_555
H1JB H3UE 1_555 1_555
H1FB H1UE 1_555 1_555
H1FB H3JB 1_555 1_555
H1FB H3QE 1_555 1_555
H1UE H3JB 1_555 1_555
H1UE H3QE 1_555 1_555
H1QE H3FB 1_555 1_555
H1QE H3UE 1_555 1_555
H1AC H1VF 1_555 1_555
H1AC H3WB 1_555 1_555
H1AC H3ZF 1_555 1_555
H1WB H1ZF 1_555 1_555
H1WB H3AC 1_555 1_555
H1WB H3VF 1_555 1_555
H1ZF H3AC 1_555 1_555
H1ZF H3VF 1_555 1_555
H1VF H3WB 1_555 1_555
H1VF H3ZF 1_555 1_555
H1OB H1IF 1_555 1_555
H1OB H3LB 1_555 1_555
H1OB H3KF 1_555 1_555
H1LB H1KF 1_555 1_555
H1LB H3OB 1_555 1_555
H1LB H3IF 1_555 1_555
H1KF H3OB 1_555 1_555
H1KF H3IF 1_555 1_555
H1IF H3LB 1_555 1_555
H1IF H3KF 1_555 1_555
H1XB H1TF 1_555 1_555
H1XB H3EC 1_555 1_555
H1XB H3AG 1_555 1_555
H1EC H1AG 1_555 1_555
H1EC H3XB 1_555 1_555
H1EC H3TF 1_555 1_555
H1AG H3XB 1_555 1_555
H1AG H3TF 1_555 1_555
H1TF H3EC 1_555 1_555
H1TF H3AG 1_555 1_555
H1C H1FD 1_555 1_555
H1C H3G 1_555 1_555
H1C H3BD 1_555 1_555
H1G H1BD 1_555 1_555
H1G H3C 1_555 1_555
H1G H3FD 1_555 1_555
H1BD H3C 1_555 1_555
H1BD H3FD 1_555 1_555
H1FD H3G 1_555 1_555
H1FD H3BD 1_555 1_555
H1HA H1WD 1_555 1_555
H1HA H3LA 1_555 1_555
H1HA H3SD 1_555 1_555
H1LA H1SD 1_555 1_555
H1LA H3HA 1_555 1_555
H1LA H3WD 1_555 1_555
H1SD H3HA 1_555 1_555
H1SD H3WD 1_555 1_555
H1WD H3LA 1_555 1_555
H1WD H3SD 1_555 1_555
H1SA H1IE 1_555 1_555
H1SA H3UA 1_555 1_555
H1SA H3FE 1_555 1_555
H1UA H1FE 1_555 1_555
H1UA H3SA 1_555 1_555
H1UA H3IE 1_555 1_555
H1FE H3SA 1_555 1_555
H1FE H3IE 1_555 1_555
H1IE H3UA 1_555 1_555
H1IE H3FE 1_555 1_555
H2F H2TC 1_555 1_555
H2KA H2PD 1_555 1_555
H2Z H2VD 1_555 1_555
H2RB H2EF 1_555 1_555
H2NB H2HF 1_555 1_555
H2OA H2LE 1_555 1_555
H2RA H2HE 1_555 1_555
H2CC H2QF 1_555 1_555
H2UB H2XF 1_555 1_555
H2CA H2YD 1_555 1_555
H2JA H2QD 1_555 1_555
H2P H2MD 1_555 1_555
H2DB H2YE 1_555 1_555
H2QC H2EG 1_555 1_555
H2JB H2UE 1_555 1_555
H2AC H2ZF 1_555 1_555
H2OB H2KF 1_555 1_555
H2S H2OD 1_555 1_555
H2KB H2RE 1_555 1_555
H2XB H2AG 1_555 1_555
H2OC H2BG 1_555 1_555
H2FB H2QE 1_555 1_555
H2C H2BD 1_555 1_555
H2WB H2VF 1_555 1_555
H2HA H2SD 1_555 1_555
H2LB H2IF 1_555 1_555
H2SA H2FE 1_555 1_555
H2EC H2TF 1_555 1_555
H2G H2FD 1_555 1_555
H2LA H2WD 1_555 1_555
H2UA H2IE 1_555 1_555
H3F H3ED 1_555 1_555
H3KA H3VD 1_555 1_555
H3Z H3PD 1_555 1_555
H3RB H3HF 1_555 1_555
H3NB H3EF 1_555 1_555
H3OA H3HE 1_555 1_555
H3RA H3LE 1_555 1_555
H3CC H3XF 1_555 1_555
H3UB H3QF 1_555 1_555
H3CA H3QD 1_555 1_555
H3JA H3YD 1_555 1_555
H3P H3OD 1_555 1_555
H3S H3MD 1_555 1_555
H3DB H3RE 1_555 1_555
H3KB H3YE 1_555 1_555
H3QC H3BG 1_555 1_555
H3OC H3EG 1_555 1_555
H3JB H3QE 1_555 1_555
H3FB H3UE 1_555 1_555
H3AC H3VF 1_555 1_555
H3WB H3ZF 1_555 1_555
H3OB H3IF 1_555 1_555
H3LB H3KF 1_555 1_555
H3XB H3TF 1_555 1_555
H3EC H3AG 1_555 1_555
H3C H3FD 1_555 1_555
H3G H3BD 1_555 1_555
H3HA H3WD 1_555 1_555
H3LA H3SD 1_555 1_555
H3SA H3IE 1_555 1_555
H3UA H3FE 1_555 1_555

#END
