
#######################################################################
#
#                 Cambridge Crystallographic Data Centre
#                                CCDC 
#
#######################################################################
#
# If this CIF has been generated from an entry in the Cambridge 
# Structural Database, then it will include bibliographic, chemical, 
# crystal, experimental, refinement or atomic coordinate data resulting 
# from the CCDC's data processing and validation procedures.
#
#######################################################################

data_XADCOW
_chemical_formula_moiety         '(C24 H15 Fe3 O15)n,3.25n(C3 H7 N1 O1)'
_chemical_name_systematic        
'catena-(tris((\m~4~-Benzene-1,4-dicarboxylato)-(\m~3~-hydroxo))-tri-iron dimethylformamide solvate)'
_symmetry_cell_setting           orthorhombic
_symmetry_space_group_name_H-M   'C m c m'
_symmetry_Int_Tables_number      63
_space_group_name_Hall           '-C 2c 2'
loop_
_symmetry_equiv_pos_site_id
_symmetry_equiv_pos_as_xyz
1 x,y,z
2 -x,-y,1/2+z
3 -x,y,1/2-z
4 x,-y,-z
5 1/2+x,1/2+y,z
6 1/2-x,1/2-y,1/2+z
7 1/2-x,1/2+y,1/2-z
8 1/2+x,1/2-y,-z
9 -x,-y,-z
10 x,y,1/2-z
11 x,-y,1/2+z
12 -x,y,z
13 1/2-x,1/2-y,-z
14 1/2+x,1/2+y,1/2-z
15 1/2+x,1/2-y,1/2+z
16 1/2-x,1/2+y,z
_cell_length_a                   21.3011(12)
_cell_length_b                   36.873(2)
_cell_length_c                   6.8883(3)
_cell_angle_alpha                90
_cell_angle_beta                 90
_cell_angle_gamma                90
_cell_volume                     5410.32
_exptl_crystal_colour            yellow
_exptl_crystal_description       needle
_cell_formula_units_Z            3
loop_
_atom_site_label
_atom_site_type_symbol
_atom_site_fract_x
_atom_site_fract_y
_atom_site_fract_z
Fe1 Fe 0.0000 0.0000 0.5000
Fe2 Fe 0.2500 0.2500 0.5000
O1 O 0.3380(2) 0.23803(16) 0.5878(7)
O2 O 0.0634(3) 0.03713(13) 0.5869(7)
O3 O 0.2229(3) 0.20022(14) 0.5867(7)
O4 O 0.0000 0.0199(4) 0.2500
O5 O 0.2712(4) 0.2273(2) 0.2500
C1 C 0.3638(5) 0.2370(3) 0.7500
C2 C 0.4351(4) 0.2339(3) 0.7500
C3 C 0.4680(3) 0.2337(3) 0.5780(12)
H1 H 0.4464 0.2336 0.4607
C4 C 0.0791(5) 0.0494(3) 0.7500
C5 C 0.1177(5) 0.0840(3) 0.7500
C6 C 0.1349(4) 0.0999(2) 0.9216(11)
H2 H 0.1249 0.0886 1.0382
C7 C 0.1667(5) 0.1325(2) 0.9239(11)
H3 H 0.1784 0.1428 1.0415
C8 C 0.1813(6) 0.1498(3) 0.7500
C9 C 0.2107(5) 0.1873(3) 0.7500
Fe1A Fe 0.0000 0.0000 0.0000
Fe1A_2 Fe 0.0000 0.0000 1.0000
Fe2E Fe 0.2500 0.2500 1.0000
Fe2E_2 Fe 0.2500 0.2500 0.0000
Fe2G Fe 0.7500 0.2500 0.5000
Fe2B Fe 0.7500 0.2500 1.0000
Fe2D Fe -0.2500 -0.2500 0.5000
Fe2A Fe -0.2500 -0.2500 0.0000
O1I O 0.3380(2) 0.23803(16) 0.9122(7)
O1K O 0.6620(2) 0.23803(16) 0.5878(7)
O1B O 0.6620(2) 0.23803(16) 0.9122(7)
O1L O 0.1620(2) 0.26197(16) 0.4122(7)
O1E O 0.1620(2) 0.26197(16) 1.0878(7)
O2I O 0.0634(3) 0.03713(13) 0.9131(7)
O2H O -0.0634(3) -0.03713(13) 0.4131(7)
O2A O -0.0634(3) -0.03713(13) 0.0869(7)
O2K O -0.0634(3) 0.03713(13) 0.5869(7)
O2C O 0.0634(3) -0.03713(13) 0.4131(7)
O3I O 0.2229(3) 0.20022(14) 0.9133(7)
O3H O -0.2229(3) -0.20022(14) 0.4133(7)
O3A O -0.2229(3) -0.20022(14) 0.0867(7)
O3L O 0.2771(3) 0.29978(14) 0.4133(7)
O3E O 0.2771(3) 0.29978(14) 1.0867(7)
O4A O 0.0000 -0.0199(4) 0.7500
O5E O 0.2288(4) 0.2727(2) 0.7500
O5_2 O 0.2712(4) 0.2273(2) 1.2500
C1B C 0.6362(5) 0.2370(3) 0.7500
C2B C 0.5649(4) 0.2339(3) 0.7500
C3K C 0.5320(3) 0.2337(3) 0.5780(12)
C3B C 0.5320(3) 0.2337(3) 0.9220(12)
C3I C 0.4680(3) 0.2337(3) 0.9220(12)
H1B H 0.5536 0.2336 1.0393
H1I H 0.4464 0.2336 1.0393
H1K H 0.5536 0.2336 0.4607
C4A C -0.0791(5) -0.0494(3) 0.2500
C5A C -0.1177(5) -0.0840(3) 0.2500
C6I C 0.1349(4) 0.0999(2) 0.5784(11)
C6H C -0.1349(4) -0.0999(2) 0.0784(11)
C6A C -0.1349(4) -0.0999(2) 0.4216(11)
H2I H 0.1249 0.0886 0.4618
H2H H -0.1249 -0.0886 -0.0382
H2A H -0.1249 -0.0886 0.5382
C7I C 0.1667(5) 0.1325(2) 0.5761(11)
C7H C -0.1667(5) -0.1325(2) 0.0761(11)
C7A C -0.1667(5) -0.1325(2) 0.4239(11)
H3I H 0.1784 0.1428 0.4585
H3H H -0.1784 -0.1428 -0.0415
H3A H -0.1784 -0.1428 0.5415
C8A C -0.1813(6) -0.1498(3) 0.2500
C9A C -0.2107(5) -0.1873(3) 0.2500
loop_
_geom_bond_atom_site_label_1
_geom_bond_atom_site_label_2
_geom_bond_site_symmetry_1
_geom_bond_site_symmetry_2
Fe1 O2 1_555 1_555
Fe2 O1 1_555 1_555
O1 C1 1_555 1_555
O2 C4 1_555 1_555
O3 Fe2 1_555 1_555
O4 Fe1 1_555 1_555
O5 Fe2 1_555 1_555
C1 C2 1_555 1_555
C2 C3 1_555 1_555
C3 H1 1_555 1_555
C4 C5 1_555 1_555
C5 C6 1_555 1_555
C6 H2 1_555 1_555
C7 C6 1_555 1_555
H3 C7 1_555 1_555
C8 C7 1_555 1_555
C9 O3 1_555 1_555
Fe1A O4 1_555 1_555
Fe1A_2 O2I 1_555 1_555
Fe2E O1I 1_555 1_555
Fe2E_2 O5 1_555 1_555
Fe2G O1K 1_555 1_555
Fe2B O1B 1_555 1_555
Fe2D O3H 1_555 1_555
Fe2A O3A 1_555 1_555
O1I C1 1_555 1_555
O1K C1B 1_555 1_555
O1B C1B 1_555 1_555
O1L Fe2 1_555 1_555
O1E Fe2E 1_555 1_555
O2I C4 1_555 1_555
O2H Fe1 1_555 1_555
O2A Fe1A 1_555 1_555
O2K Fe1 1_555 1_555
O2C Fe1 1_555 1_555
O3I C9 1_555 1_555
O3H C9A 1_555 1_555
O3A C9A 1_555 1_555
O3L Fe2 1_555 1_555
O3E Fe2E 1_555 1_555
O4A Fe1 1_555 1_555
O5E Fe2 1_555 1_555
O5_2 Fe2E 1_555 1_555
C1B C2B 1_555 1_555
C2B C3K 1_555 1_555
C3K C3 1_555 1_555
C3B C2B 1_555 1_555
C3I C2 1_555 1_555
H1B C3B 1_555 1_555
H1I C3I 1_555 1_555
H1K C3K 1_555 1_555
C4A O2H 1_555 1_555
C5A C4A 1_555 1_555
C6I C5 1_555 1_555
C6H C5A 1_555 1_555
C6A C5A 1_555 1_555
H2I C6I 1_555 1_555
H2H C6H 1_555 1_555
H2A C6A 1_555 1_555
C7I C8 1_555 1_555
C7H C6H 1_555 1_555
C7A C6A 1_555 1_555
H3I C7I 1_555 1_555
H3H C7H 1_555 1_555
H3A C7A 1_555 1_555
C8A C7H 1_555 1_555
C9A C8A 1_555 1_555
C8 C9 1_555 1_555
Fe1A_2 O4A 1_555 1_555
Fe2E O3I 1_555 1_555
Fe2E O5E 1_555 1_555
O2A C4A 1_555 1_555
C3B C3I 1_555 1_555
C6I C7I 1_555 1_555
C7A C8A 1_555 1_555

#END
