
#######################################################################
#
#                 Cambridge Crystallographic Data Centre
#                                CCDC 
#
#######################################################################
#
# If this CIF has been generated from an entry in the Cambridge 
# Structural Database, then it will include bibliographic, chemical, 
# crystal, experimental, refinement or atomic coordinate data resulting 
# from the CCDC's data processing and validation procedures.
#
#######################################################################

data_GUVZEE
_chemical_formula_moiety         '(C8 H2 Fe2 O10)n,1.96n(O2)'
_chemical_name_systematic        
'catena-[(\m~8~-2,5-Dioxidoterephthalato)-bis(dioxygen)-di-iron(ii) dioxygen]'
_symmetry_cell_setting           rhombohedral
_symmetry_space_group_name_H-M   'R -3'
_symmetry_Int_Tables_number      148
_space_group_name_Hall           '-R 3'
loop_
_symmetry_equiv_pos_site_id
_symmetry_equiv_pos_as_xyz
1 x,y,z
2 -y,x-y,z
3 -x+y,-x,z
4 1/3+x,2/3+y,2/3+z
5 1/3-y,2/3+x-y,2/3+z
6 1/3-x+y,2/3-x,2/3+z
7 2/3+x,1/3+y,1/3+z
8 2/3-y,1/3+x-y,1/3+z
9 2/3-x+y,1/3-x,1/3+z
10 -x,-y,-z
11 y,-x+y,-z
12 x-y,x,-z
13 2/3-x,1/3-y,1/3-z
14 2/3+y,1/3-x+y,1/3-z
15 2/3+x-y,1/3+x,1/3-z
16 1/3-x,2/3-y,2/3-z
17 1/3+y,2/3-x+y,2/3-z
18 1/3+x-y,2/3+x,2/3-z
_cell_length_a                   25.5177(9)
_cell_length_b                   25.5177
_cell_length_c                   6.9661(4)
_cell_angle_alpha                90
_cell_angle_beta                 90
_cell_angle_gamma                120
_cell_volume                     3928.29
_cell_formula_units_Z            9
loop_
_atom_site_label
_atom_site_type_symbol
_atom_site_fract_x
_atom_site_fract_y
_atom_site_fract_z
_atom_site_U_iso_or_equiv
_atom_site_thermal_displace_type
Fe1 Fe 0.38873(29) 0.35262(31) 0.1477(10) 0.0093 Uiso
O1 O 0.3182(6) 0.2951(5) 0.3500(16) 0.0190 Uiso
O2 O 0.3068(5) 0.2318(6) 0.5894(17) 0.0267 Uiso
O3 O 0.3545(5) 0.2758(5) 0.0009(16) 0.0093 Uiso
C1 C 0.3189(5) 0.2489(5) 0.4144(13) 0.0091 Uiso
C2 C 0.3276(5) 0.2071(5) 0.2780(16) 0.0099 Uiso
C3 C 0.3444(5) 0.2224(5) 0.0839(15) 0.0201 Uiso
C4 C 0.3512(4) 0.1806(5) -0.0277(12) 0.0166 Uiso
H1 H 0.3596(9) 0.1861(8) -0.1755(22) 0.0129 Uiso
O4 O 0.4409(6) 0.3301(6) 0.3225(20) 0.0106 Uiso
O5 O 0.4764(6) 0.3683(6) 0.2045(17) 0.0116 Uiso
O1L O 0.3485(6) 0.0382(5) -0.0167(16) 0.0190 Uiso
O2L O 0.3599(5) 0.1015(6) -0.2561(17) 0.0267 Uiso
O3L O 0.3122(5) 0.0575(5) 0.3324(16) 0.0093 Uiso
C1L C 0.3478(5) 0.0844(5) -0.0811(13) 0.0091 Uiso
C2L C 0.3391(5) 0.1262(5) 0.0553(16) 0.0099 Uiso
C3L C 0.3223(5) 0.1109(5) 0.2494(15) 0.0201 Uiso
C4L C 0.3155(4) 0.1527(5) 0.3610(12) 0.0166 Uiso
H1L H 0.3071(9) 0.1472(8) 0.5088(22) 0.0129 Uiso
Fe1J Fe 0.35262(31) -0.03611(42) -0.1477(10) 0.0093 Uiso
O4J O 0.3301(6) -0.1108(8) -0.3225(20) 0.0106 Uiso
O5J O 0.3683(6) -0.1081(8) -0.2045(17) 0.0116 Uiso
Fe1E Fe 0.29722(42) 0.27794(29) -0.1856(10) 0.0093 Uiso
Fe1E_2 Fe 0.29722(42) 0.27794(29) 0.8144(10) 0.0093 Uiso
Fe1L Fe 0.27794(29) -0.01929(31) 0.1856(10) 0.0093 Uiso
Fe1G Fe 0.31405(31) 0.36944(42) 0.4810(10) 0.0093 Uiso
Fe1Q Fe 0.36944(42) 0.05540(29) -0.4810(10) 0.0093 Uiso
Fe1Q_2 Fe 0.36944(42) 0.05540(29) 0.5190(10) 0.0093 Uiso
O1J O 0.2951(5) -0.0231(8) -0.3500(16) 0.0190 Uiso
O1E O 0.3102(8) 0.3485(6) 0.0167(16) 0.0190 Uiso
O2G O 0.4349(6) 0.4083(8) -0.0773(17) 0.0267 Uiso
O2Q O 0.4083(8) -0.0265(5) 0.0773(17) 0.0267 Uiso
O3J O 0.2758(5) -0.0787(7) -0.0009(16) 0.0093 Uiso
O3G O 0.3909(5) 0.4120(7) 0.3342(16) 0.0093 Uiso
O3Q O 0.4120(7) 0.0212(5) -0.3342(16) 0.0093 Uiso
O6 O 0.5134(6) 0.6747(7) 0.2470(20) 0.0384 Uiso
O7 O 0.5295(7) 0.7244(6) 0.3087(26) 0.0612 Uiso
O8 O 0.059(4) 0.1362(25) 0.967(11) 0.0549 Uiso
O9 O 0.081(13) 0.183(5) 0.879(28) 0.4494 Uiso
loop_
_geom_bond_atom_site_label_1
_geom_bond_atom_site_label_2
_geom_bond_site_symmetry_1
_geom_bond_site_symmetry_2
Fe1 O1 1_555 1_555
O1 C1 1_555 1_555
O2 C1 1_555 1_555
O3 Fe1 1_555 1_555
C1 C2 1_555 1_555
C2 C3 1_555 1_555
C3 O3 1_555 1_555
C4 C3 1_555 1_555
H1 C4 1_555 1_555
O4 Fe1 1_555 1_555
O5 Fe1 1_555 1_555
O6 O7 1_555 1_555
O8 O9 1_555 1_555
O1L C1L 1_555 1_555
O2L C1L 1_555 1_555
O3L C3L 1_555 1_555
C1L C2L 1_555 1_555
C2L C4 1_555 1_555
C3L C2L 1_555 1_555
C4L C2 1_555 1_555
H1L C4L 1_555 1_555
Fe1J O1L 1_555 1_555
O4J Fe1J 1_555 1_555
O5J Fe1J 1_555 1_555
Fe1E O3 1_555 1_555
Fe1E_2 O2 1_555 1_555
Fe1L O1L 1_555 1_555
Fe1G O1 1_555 1_555
Fe1Q O2L 1_555 1_555
Fe1Q_2 O3L 1_555 1_555
O1J Fe1J 1_555 1_555
O1E Fe1 1_555 1_555
O2G Fe1 1_555 1_555
O2Q Fe1J 1_555 1_555
O3J Fe1J 1_555 1_555
O3G Fe1 1_555 1_555
O3Q Fe1J 1_555 1_555
O4 O5 1_555 1_555
O3L Fe1L 1_555 1_555
C3L C4L 1_555 1_555
O4J O5J 1_555 1_555
Fe1E O1E 1_555 1_555
Fe1L O3J 1_555 1_555
Fe1G O3G 1_555 1_555
Fe1Q O1J 1_555 1_555
Fe1Q O3Q 1_555 1_555

#END
