
#######################################################################
#
#                 Cambridge Crystallographic Data Centre
#                                CCDC 
#
#######################################################################
#
# If this CIF has been generated from an entry in the Cambridge 
# Structural Database, then it will include bibliographic, chemical, 
# crystal, experimental, refinement or atomic coordinate data resulting 
# from the CCDC's data processing and validation procedures.
#
#######################################################################

data_DIWMON
_chemical_formula_moiety         '(C114 H118 N10 O46 Sr6)n,2n(C3 H7 N1 O1)'
_chemical_name_systematic        
"catena-(bis(\m~6~-2,2'-dihydroxybiphenyl-4,4'-dicarboxylato)-tetrakis(\m~4~-2,2'-dihydroxybiphenyl-4,4'-dicarboxylato)-bis(\m~2~-N,N-dimethylformamide)-octakis(N,N-dimethylformamide)-hexa-strontium N,N-dimethylformamide solvate)"
_symmetry_cell_setting           orthorhombic
_symmetry_space_group_name_H-M   'P b c n'
_symmetry_Int_Tables_number      60
_space_group_name_Hall           '-P 2n 2ab'
loop_
_symmetry_equiv_pos_site_id
_symmetry_equiv_pos_as_xyz
1 x,y,z
2 1/2-x,1/2-y,1/2+z
3 1/2+x,1/2-y,-z
4 -x,y,1/2-z
5 -x,-y,-z
6 1/2+x,1/2+y,1/2-z
7 1/2-x,1/2+y,z
8 x,-y,1/2+z
_cell_length_a                   27.3062(14)
_cell_length_b                   19.4347(9)
_cell_length_c                   31.177(2)
_cell_angle_alpha                90
_cell_angle_beta                 90
_cell_angle_gamma                90
_cell_volume                     16545.3
_exptl_crystal_colour            colorless
_exptl_crystal_description       block
_cell_formula_units_Z            4
loop_
_atom_site_label
_atom_site_type_symbol
_atom_site_fract_x
_atom_site_fract_y
_atom_site_fract_z
Sr1 Sr 0.211529(17) 0.42002(2) 0.173916(17)
Sr2 Sr 0.290878(16) 0.26572(2) 0.198695(14)
Sr3 Sr 0.228054(16) 0.09955(2) 0.149478(16)
C1 C 0.3247(2) 0.2424(3) 0.43481(17)
C2 C 0.3716(2) 0.2508(3) 0.41910(18)
C3 C 0.3803(2) 0.2555(3) 0.37588(17)
H1 H 0.4130 0.2611 0.3661
C4 C 0.3431(2) 0.2524(3) 0.34616(17)
C5 C 0.2957(2) 0.2465(4) 0.3611(2)
H2 H 0.2692 0.2456 0.3414
C6 C 0.2866(2) 0.2417(4) 0.4043(2)
H3 H 0.2537 0.2379 0.4140
O1 O 0.41126(18) 0.2557(3) 0.44587(16)
H4 H 0.4147 0.2186 0.4594
C7 C 0.3536(2) 0.2578(3) 0.29877(17)
O2 O 0.39700(15) 0.26758(18) 0.28739(12)
O3 O 0.31834(17) 0.2517(2) 0.27350(13)
C8 C 0.3125(2) 0.2352(3) 0.48183(19)
C9 C 0.3291(2) 0.2800(3) 0.51323(17)
C10 C 0.31270(19) 0.2753(3) 0.55477(16)
H5 H 0.3235 0.3077 0.5755
C11 C 0.2803(2) 0.2232(3) 0.56669(17)
C12 C 0.2650(3) 0.1764(3) 0.5360(2)
H6 H 0.2441 0.1396 0.5440
C13 C 0.2799(3) 0.1830(4) 0.4943(2)
H7 H 0.2679 0.1517 0.4734
O4 O 0.36201(14) 0.33010(19) 0.50147(11)
H8 H 0.3688 0.3546 0.5229
C14 C 0.2603(2) 0.2225(3) 0.61111(17)
O5 O 0.25883(14) 0.27764(17) 0.63149(11)
O6 O 0.24499(13) 0.16679(17) 0.62714(11)
C15 C 0.42991(18) 0.5049(3) 0.30133(16)
C16 C 0.41860(19) 0.4370(3) 0.28904(16)
C17 C 0.37924(19) 0.4225(3) 0.26278(16)
H9 H 0.3734 0.3764 0.2541
C18 C 0.34786(18) 0.4746(2) 0.24884(15)
C19 C 0.3576(2) 0.5418(3) 0.26182(17)
H10 H 0.3362 0.5778 0.2532
C20 C 0.3976(2) 0.5567(3) 0.28706(17)
H11 H 0.4036 0.6031 0.2951
O7 O 0.44862(15) 0.38570(18) 0.30345(13)
H12 H 0.4369 0.3474 0.2965
C21 C 0.30490(18) 0.4580(3) 0.22114(15)
O8 O 0.29504(12) 0.39542(16) 0.21309(11)
O9 O 0.27961(12) 0.50701(16) 0.20633(11)
C22 C 0.47403(19) 0.5228(3) 0.32733(16)
C23 C 0.46947(19) 0.5640(3) 0.36413(17)
C24 C 0.51179(19) 0.5847(3) 0.38653(17)
H13 H 0.5083 0.6124 0.4115
C25 C 0.55813(17) 0.5659(2) 0.37321(16)
C26 C 0.56261(19) 0.5255(3) 0.33669(16)
H14 H 0.5941 0.5126 0.3267
C27 C 0.5208(2) 0.5038(3) 0.31467(17)
H15 H 0.5245 0.4751 0.2902
O10 O 0.42390(13) 0.5836(2) 0.37845(14)
H16 H 0.4023 0.5677 0.3620
C28 C 0.60268(18) 0.5909(2) 0.39778(17)
O11 O 0.64323(12) 0.59364(16) 0.37868(11)
O12 O 0.59515(13) 0.6088(2) 0.43598(11)
C29 C 0.4753(2) 0.0672(3) 0.2400(3)
C30 C 0.4438(2) 0.1206(3) 0.2499(3)
C31 C 0.3984(2) 0.1271(3) 0.2291(2)
H17 H 0.3774 0.1645 0.2359
C32 C 0.38412(19) 0.0793(3) 0.1988(2)
C33 C 0.4150(2) 0.0247(3) 0.1879(2)
H18 H 0.4056 -0.0080 0.1668
C34 C 0.4605(2) 0.0194(3) 0.2090(3)
H19 H 0.4817 -0.0176 0.2019
O13 O 0.45815(19) 0.1646(2) 0.2815(2)
H20 H 0.4405 0.2000 0.2810
C35 C 0.33436(19) 0.0869(2) 0.17857(19)
O14 O 0.31038(12) 0.14167(17) 0.18598(12)
O15 O 0.31708(11) 0.03866(15) 0.15683(12)
C36 C 0.0270(2) 0.2517(3) 0.2443(2)
C37 C 0.0578(2) 0.3067(3) 0.2544(3)
C38 C 0.1066(2) 0.3048(3) 0.2434(2)
H21 H 0.1264 0.3441 0.2488
C39 C 0.1279(2) 0.2469(3) 0.22449(19)
C40 C 0.09697(19) 0.1918(3) 0.21470(18)
H22 H 0.1101 0.1518 0.2014
C41 C 0.0470(2) 0.1948(3) 0.22423(19)
H23 H 0.0264 0.1572 0.2168
O16 O 0.0400(2) 0.3638(2) 0.2756(2)
H24 H 0.0247 0.3888 0.2583
C42 C 0.1818(2) 0.2445(3) 0.21503(18)
O17 O 0.20282(12) 0.30267(17) 0.21204(12)
O18 O 0.20287(12) 0.18869(17) 0.21161(12)
O19 O 0.22521(13) -0.02191(17) 0.11496(12)
C43 C 0.1873(2) -0.0532(3) 0.10627(18)
H25 H 0.1728 -0.0801 0.1283
N1 N 0.16502(19) -0.0522(2) 0.06843(16)
C44 C 0.1849(3) -0.0110(4) 0.0337(2)
H26 H 0.1588 0.0173 0.0213
H27 H 0.1984 -0.0413 0.0116
H28 H 0.2108 0.0189 0.0448
C45 C 0.1181(3) -0.0896(4) 0.0614(3)
H29 H 0.1115 -0.1196 0.0861
H30 H 0.1206 -0.1176 0.0354
H31 H 0.0914 -0.0564 0.0583
O20 O 0.17865(17) 0.4550(2) 0.24622(15)
C46 C 0.1667(9) 0.4842(6) 0.2739(5)
H32 H 0.1402 0.4566 0.2836
N2 N 0.1659(4) 0.5302(5) 0.3003(3)
C47 C 0.1284(8) 0.5530(12) 0.3360(5)
H33 H 0.1415 0.5927 0.3516
H34 H 0.1230 0.5149 0.3560
H35 H 0.0972 0.5657 0.3225
C48 C 0.2179(5) 0.5617(7) 0.2995(5)
H36 H 0.2422 0.5254 0.3043
H37 H 0.2207 0.5965 0.3221
H38 H 0.2237 0.5832 0.2715
O21 O 0.3663(2) 0.2856(3) 0.1578(3)
C49 C 0.4092(5) 0.2699(8) 0.1644(5)
H39 H 0.4228 0.2869 0.1904
C50 C 0.4765(3) 0.1913(5) 0.1312(3)
H40 H 0.4636 0.1483 0.1193
H41 H 0.4958 0.1812 0.1570
H42 H 0.4974 0.2139 0.1099
C51 C 0.3976(6) 0.2124(12) 0.1098(8)
H43 H 0.3689 0.2423 0.1126
H44 H 0.3882 0.1647 0.1157
H45 H 0.4106 0.2158 0.0806
O22 O 0.27002(16) 0.1080(2) 0.07443(14)
C52 C 0.2964(5) 0.1550(8) 0.0611(6)
H46 H 0.3106 0.1811 0.0837
N3 N 0.3091(8) 0.1767(8) 0.0241(8)
C53 C 0.2869(14) 0.1365(14) -0.0129(9)
H47 H 0.2632 0.1032 -0.0016
H48 H 0.3129 0.1120 -0.0283
H49 H 0.2704 0.1682 -0.0325
C54 C 0.3419(9) 0.2270(11) 0.0138(8)
H50 H 0.3284 0.2558 -0.0091
H51 H 0.3725 0.2059 0.0041
H52 H 0.3484 0.2554 0.0392
O23 O 0.13650(19) 0.3839(3) 0.1334(2)
N4 N 0.0650(9) 0.3272(14) 0.1109(12)
N5 N 0.4371(3) 0.2352(4) 0.1420(3)
C55 C 0.1105(5) 0.3320(7) 0.1285(6)
H53 H 0.1243 0.2901 0.1385
C56 C 0.0426(7) 0.2592(8) 0.1061(7)
H54 H 0.0346 0.2514 0.0758
H55 H 0.0126 0.2570 0.1233
H56 H 0.0656 0.2238 0.1159
C57 C 0.0313(9) 0.3864(15) 0.1144(14)
H57 H 0.0001 0.3750 0.1005
H58 H 0.0458 0.4265 0.1003
H59 H 0.0255 0.3969 0.1447
C29C C 0.5247(2) 0.0672(3) 0.2600(3)
C30C C 0.5562(2) 0.1206(3) 0.2501(3)
C31C C 0.6016(2) 0.1271(3) 0.2709(2)
H17C H 0.6226 0.1645 0.2641
C32C C 0.61588(19) 0.0793(3) 0.3012(2)
C33C C 0.5850(2) 0.0247(3) 0.3121(2)
H18C H 0.5944 -0.0080 0.3332
C34C C 0.5395(2) 0.0194(3) 0.2910(3)
H19C H 0.5183 -0.0176 0.2981
O13C O 0.54185(19) 0.1646(2) 0.2185(2)
H20C H 0.5595 0.2000 0.2190
C35C C 0.66564(19) 0.0869(2) 0.32143(19)
O14C O 0.68962(12) 0.14167(17) 0.31402(12)
O15C O 0.68292(11) 0.03866(15) 0.34317(12)
C36C C -0.0270(2) 0.2517(3) 0.2557(2)
C37C C -0.0578(2) 0.3067(3) 0.2456(3)
C38C C -0.1066(2) 0.3048(3) 0.2566(2)
H21C H -0.1264 0.3441 0.2512
C39C C -0.1279(2) 0.2469(3) 0.27551(19)
C40C C -0.09697(19) 0.1918(3) 0.28530(18)
H22C H -0.1101 0.1518 0.2986
C41C C -0.0470(2) 0.1948(3) 0.27577(19)
H23C H -0.0264 0.1572 0.2832
O16C O -0.0400(2) 0.3638(2) 0.2244(2)
H24C H -0.0247 0.3888 0.2417
C42C C -0.1818(2) 0.2445(3) 0.28497(18)
O17C O -0.20282(12) 0.30267(17) 0.28796(12)
O18C O -0.20287(12) 0.18869(17) 0.28839(12)
Sr1C Sr -0.211529(17) 0.42002(2) 0.326084(17)
Sr2C Sr -0.290878(16) 0.26572(2) 0.301305(14)
Sr3C Sr -0.228054(16) 0.09955(2) 0.350522(16)
C1C C -0.3247(2) 0.2424(3) 0.06519(17)
C2C C -0.3716(2) 0.2508(3) 0.08090(18)
C3C C -0.3803(2) 0.2555(3) 0.12412(17)
H1C H -0.4130 0.2611 0.1339
C4C C -0.3431(2) 0.2524(3) 0.15384(17)
C5C C -0.2957(2) 0.2465(4) 0.1389(2)
H2C H -0.2692 0.2456 0.1586
C6C C -0.2866(2) 0.2417(4) 0.0957(2)
H3C H -0.2537 0.2379 0.0860
O1C O -0.41126(18) 0.2557(3) 0.05413(16)
H4C H -0.4147 0.2186 0.0406
C7C C -0.3536(2) 0.2578(3) 0.20123(17)
O2C O -0.39700(15) 0.26758(18) 0.21261(12)
O3C O -0.31834(17) 0.2517(2) 0.22650(13)
C8C C -0.3125(2) 0.2352(3) 0.01817(19)
C9C C -0.3291(2) 0.2800(3) -0.01323(17)
C10C C -0.31270(19) 0.2753(3) -0.05477(16)
H5C H -0.3235 0.3077 -0.0755
C11C C -0.2803(2) 0.2232(3) -0.06669(17)
C12C C -0.2650(3) 0.1764(3) -0.0360(2)
H6C H -0.2441 0.1396 -0.0440
C13C C -0.2799(3) 0.1830(4) 0.0057(2)
H7C H -0.2679 0.1517 0.0266
O4C O -0.36201(14) 0.33010(19) -0.00147(11)
H8C H -0.3688 0.3546 -0.0229
C14C C -0.2603(2) 0.2225(3) -0.11111(17)
O5C O -0.25883(14) 0.27764(17) -0.13149(11)
O6C O -0.24499(13) 0.16679(17) -0.12714(11)
C15C C -0.42991(18) 0.5049(3) 0.19867(16)
C16C C -0.41860(19) 0.4370(3) 0.21096(16)
C17C C -0.37924(19) 0.4225(3) 0.23722(16)
H9C H -0.3734 0.3764 0.2459
C18C C -0.34786(18) 0.4746(2) 0.25116(15)
C19C C -0.3576(2) 0.5418(3) 0.23818(17)
H10C H -0.3362 0.5778 0.2468
C20C C -0.3976(2) 0.5567(3) 0.21294(17)
H11C H -0.4036 0.6031 0.2049
O7C O -0.44862(15) 0.38570(18) 0.19655(13)
H12C H -0.4369 0.3474 0.2035
C21C C -0.30490(18) 0.4580(3) 0.27886(15)
O8C O -0.29504(12) 0.39542(16) 0.28691(11)
O9C O -0.27961(12) 0.50701(16) 0.29367(11)
C22C C -0.47403(19) 0.5228(3) 0.17267(16)
C23C C -0.46947(19) 0.5640(3) 0.13587(17)
C24C C -0.51179(19) 0.5847(3) 0.11347(17)
H13C H -0.5083 0.6124 0.0885
C25C C -0.55813(17) 0.5659(2) 0.12679(16)
C26C C -0.56261(19) 0.5255(3) 0.16331(16)
H14C H -0.5941 0.5126 0.1733
C27C C -0.5208(2) 0.5038(3) 0.18533(17)
H15C H -0.5245 0.4751 0.2098
O10C O -0.42390(13) 0.5836(2) 0.12155(14)
H16C H -0.4023 0.5677 0.1380
C28C C -0.60268(18) 0.5909(2) 0.10222(17)
O11C O -0.64323(12) 0.59364(16) 0.12132(11)
O12C O -0.59515(13) 0.6088(2) 0.06402(11)
O19C O -0.22521(13) -0.02191(17) 0.38504(12)
C43C C -0.1873(2) -0.0532(3) 0.39373(18)
H25C H -0.1728 -0.0801 0.3717
N1C N -0.16502(19) -0.0522(2) 0.43157(16)
C44C C -0.1849(3) -0.0110(4) 0.4663(2)
H26C H -0.1588 0.0173 0.4787
H27C H -0.1984 -0.0413 0.4884
H28C H -0.2108 0.0189 0.4552
C45C C -0.1181(3) -0.0896(4) 0.4386(3)
H29C H -0.1115 -0.1196 0.4139
H30C H -0.1206 -0.1176 0.4646
H31C H -0.0914 -0.0564 0.4417
O20C O -0.17865(17) 0.4550(2) 0.25378(15)
C46C C -0.1667(9) 0.4842(6) 0.2261(5)
H32C H -0.1402 0.4566 0.2164
N2C N -0.1659(4) 0.5302(5) 0.1997(3)
C47C C -0.1284(8) 0.5530(12) 0.1640(5)
H33C H -0.1415 0.5927 0.1484
H34C H -0.1230 0.5149 0.1440
H35C H -0.0972 0.5657 0.1775
C48C C -0.2179(5) 0.5617(7) 0.2005(5)
H36C H -0.2422 0.5254 0.1957
H37C H -0.2207 0.5965 0.1779
H38C H -0.2237 0.5832 0.2285
O21C O -0.3663(2) 0.2856(3) 0.3422(3)
C49C C -0.4092(5) 0.2699(8) 0.3356(5)
H39C H -0.4228 0.2869 0.3096
C50C C -0.4765(3) 0.1913(5) 0.3688(3)
H40C H -0.4636 0.1483 0.3807
H41C H -0.4958 0.1812 0.3430
H42C H -0.4974 0.2139 0.3901
C51C C -0.3976(6) 0.2124(12) 0.3902(8)
H43C H -0.3689 0.2423 0.3874
H44C H -0.3882 0.1647 0.3843
H45C H -0.4106 0.2158 0.4194
O22C O -0.27002(16) 0.1080(2) 0.42557(14)
C52C C -0.2964(5) 0.1550(8) 0.4389(6)
H46C H -0.3106 0.1811 0.4163
N3C N -0.3091(8) 0.1767(8) 0.4759(8)
C53C C -0.2869(14) 0.1365(14) 0.5129(9)
H47C H -0.2632 0.1032 0.5016
H48C H -0.3129 0.1120 0.5283
H49C H -0.2704 0.1682 0.5325
C54C C -0.3419(9) 0.2270(11) 0.4862(8)
H50C H -0.3284 0.2558 0.5091
H51C H -0.3725 0.2059 0.4959
H52C H -0.3484 0.2554 0.4608
O23C O -0.13650(19) 0.3839(3) 0.3666(2)
N4C N -0.0650(9) 0.3272(14) 0.3891(12)
N5C N -0.4371(3) 0.2352(4) 0.3580(3)
C55C C -0.1105(5) 0.3320(7) 0.3715(6)
H53C H -0.1243 0.2901 0.3615
C56C C -0.0426(7) 0.2592(8) 0.3939(7)
H54C H -0.0346 0.2514 0.4242
H55C H -0.0126 0.2570 0.3767
H56C H -0.0656 0.2238 0.3841
C57C C -0.0313(9) 0.3864(15) 0.3856(14)
H57C H -0.0001 0.3750 0.3995
H58C H -0.0458 0.4265 0.3997
H59C H -0.0255 0.3969 0.3553
Sr1A Sr 0.288471(17) 0.07998(2) 0.673916(17)
Sr1B Sr -0.288471(17) 0.07998(2) -0.173916(17)
Sr1E Sr -0.288471(17) -0.07998(2) 0.326084(17)
Sr1E_2 Sr 0.711529(17) -0.07998(2) 0.326084(17)
Sr1F Sr 0.288471(17) -0.07998(2) 0.173916(17)
Sr2A Sr 0.209122(16) 0.23428(2) 0.698695(14)
Sr2B Sr -0.209122(16) 0.23428(2) -0.198695(14)
Sr2C_2 Sr 0.709122(16) 0.26572(2) 0.301305(14)
Sr3A Sr 0.271946(16) 0.40045(2) 0.649478(16)
Sr3B Sr -0.271946(16) 0.40045(2) -0.149478(16)
Sr3C_2 Sr 0.771946(16) 0.09955(2) 0.350522(16)
Sr3E Sr -0.271946(16) 0.59955(2) 0.350522(16)
Sr3E_2 Sr 0.728054(16) 0.59955(2) 0.350522(16)
Sr3F Sr -0.728054(16) 0.59955(2) 0.149478(16)
Sr3F_2 Sr 0.271946(16) 0.59955(2) 0.149478(16)
O5A O 0.24117(14) 0.22236(17) 0.13149(11)
O5B O -0.24117(14) 0.22236(17) 0.36851(11)
O6A O 0.25501(13) 0.33321(17) 0.12714(11)
O6B O -0.25501(13) 0.33321(17) 0.37286(11)
O9E O -0.22039(12) 0.00701(16) 0.29367(11)
O9F O 0.22039(12) 0.00701(16) 0.20633(11)
O11E O 0.14323(12) 0.09364(16) 0.12132(11)
O11F O -0.14323(12) 0.09364(16) 0.37868(11)
O14C_2 O -0.31038(12) 0.14167(17) 0.31402(12)
O15C_2 O -0.31708(11) 0.03866(15) 0.34317(12)
O15E O -0.18292(11) 0.53866(15) 0.34317(12)
O15F O 0.18292(11) 0.53866(15) 0.15683(12)
O19E O -0.27479(13) 0.47809(17) 0.38504(12)
O19F O 0.27479(13) 0.47809(17) 0.11496(12)
O24 O 0.0205(8) -0.1893(11) 0.0225(6)
C58 C 0.0050(8) -0.1398(11) 0.0157(3)
H60 H 0.0088 -0.1207 -0.0121
N6 N -0.0201(3) -0.1036(4) 0.0462(2)
C59 C -0.0097(3) -0.1153(5) 0.0906(2)
H61 H 0.0123 -0.1549 0.0934
H62 H -0.0402 -0.1246 0.1060
H63 H 0.0061 -0.0744 0.1027
C60 C -0.0500(7) -0.0494(7) 0.0353(4)
H64 H -0.0411 -0.0326 0.0067
H65 H -0.0459 -0.0122 0.0563
H66 H -0.0842 -0.0647 0.0352
C61? C 0.3914(6) 0.2456(8) 0.1383(5)
H67? H 0.3750 0.2183 0.1175
C62? C 0.4595(5) 0.2863(7) 0.1803(4)
H68? H 0.4333 0.3159 0.1914
H69? H 0.4857 0.3149 0.1683
H70? H 0.4726 0.2581 0.2037
C63? C 0.2971(6) 0.0677(9) 0.0560(6)
H71? H 0.3017 0.0239 0.0689
N7? N 0.3212(6) 0.0797(9) 0.0190(5)
C64? C 0.3209(11) 0.1467(13) 0.0021(8)
H72? H 0.3089 0.1456 -0.0275
H73? H 0.3543 0.1653 0.0026
H74? H 0.2995 0.1759 0.0196
C65? C 0.3532(8) 0.0158(9) 0.0087(11)
H75? H 0.3719 0.0241 -0.0176
H76? H 0.3320 -0.0245 0.0047
H77? H 0.3758 0.0073 0.0326
H78? H 0.3479 -0.0195 0.0307
H79? H 0.3878 0.0291 0.0084
H80? H 0.3440 -0.0027 -0.0194
C66? C 0.0552(15) 0.3248(17) 0.1330(9)
H81? H 0.0784 0.3291 0.1568
H82? H 0.0361 0.2824 0.1365
H83? H 0.0330 0.3645 0.1329
C67? C 0.1204(7) 0.3635(11) 0.0987(7)
H84? H 0.1368 0.3777 0.0734
N8? N 0.0807(8) 0.3223(11) 0.0944(7)
C68? C 0.0566(7) 0.2934(11) 0.0574(6)
H85? H 0.0221 0.3077 0.0571
H86? H 0.0584 0.2431 0.0586
H87? H 0.0727 0.3098 0.0312
H88? H 0.0996 0.5228 0.3352
H89? H 0.1182 0.6006 0.3308
H90? H 0.1439 0.5498 0.3642
H91? H 0.0475 0.4240 0.1298
H92? H 0.0018 0.3724 0.1301
H93? H 0.0221 0.4021 0.0856
loop_
_geom_bond_atom_site_label_1
_geom_bond_atom_site_label_2
_geom_bond_site_symmetry_1
_geom_bond_site_symmetry_2
Sr1 O8 1_555 1_555
Sr2 O3 1_555 1_555
Sr3 O14 1_555 1_555
C1 C2 1_555 1_555
C2 C3 1_555 1_555
C3 H1 1_555 1_555
C4 C3 1_555 1_555
C5 C4 1_555 1_555
H2 C5 1_555 1_555
C6 C1 1_555 1_555
H3 C6 1_555 1_555
O1 C2 1_555 1_555
H4 O1 1_555 1_555
C7 C4 1_555 1_555
O2 C7 1_555 1_555
O3 C7 1_555 1_555
C8 C1 1_555 1_555
C9 C8 1_555 1_555
C10 C9 1_555 1_555
H5 C10 1_555 1_555
C11 C10 1_555 1_555
C12 C11 1_555 1_555
H6 C12 1_555 1_555
C13 C8 1_555 1_555
H7 C13 1_555 1_555
O4 C9 1_555 1_555
H8 O4 1_555 1_555
C14 C11 1_555 1_555
O5 C14 1_555 1_555
O6 C14 1_555 1_555
C15 C16 1_555 1_555
C16 C17 1_555 1_555
C17 H9 1_555 1_555
C18 C17 1_555 1_555
C19 C18 1_555 1_555
H10 C19 1_555 1_555
C20 C15 1_555 1_555
H11 C20 1_555 1_555
O7 C16 1_555 1_555
H12 O7 1_555 1_555
C21 C18 1_555 1_555
O8 Sr2 1_555 1_555
O9 Sr1 1_555 1_555
C22 C15 1_555 1_555
C23 C22 1_555 1_555
C24 C23 1_555 1_555
H13 C24 1_555 1_555
C25 C24 1_555 1_555
C26 C25 1_555 1_555
H14 C26 1_555 1_555
C27 C22 1_555 1_555
H15 C27 1_555 1_555
O10 C23 1_555 1_555
H16 O10 1_555 1_555
C28 C25 1_555 1_555
O11 C28 1_555 1_555
O12 C28 1_555 1_555
C29 C30 1_555 1_555
C30 C31 1_555 1_555
C31 H17 1_555 1_555
C32 C31 1_555 1_555
C33 C32 1_555 1_555
H18 C33 1_555 1_555
C34 C29 1_555 1_555
H19 C34 1_555 1_555
O13 C30 1_555 1_555
H20 O13 1_555 1_555
C35 C32 1_555 1_555
O14 Sr2 1_555 1_555
O15 Sr3 1_555 1_555
C36 C37 1_555 1_555
C37 C38 1_555 1_555
C38 H21 1_555 1_555
C39 C38 1_555 1_555
C40 C39 1_555 1_555
H22 C40 1_555 1_555
C41 C36 1_555 1_555
H23 C41 1_555 1_555
O16 C37 1_555 1_555
H24 O16 1_555 1_555
C42 C39 1_555 1_555
O17 Sr1 1_555 1_555
O18 Sr2 1_555 1_555
O19 Sr3 1_555 1_555
C43 O19 1_555 1_555
H25 C43 1_555 1_555
N1 C43 1_555 1_555
C44 N1 1_555 1_555
H26 C44 1_555 1_555
H27 C44 1_555 1_555
H28 C44 1_555 1_555
C45 N1 1_555 1_555
H29 C45 1_555 1_555
H30 C45 1_555 1_555
H31 C45 1_555 1_555
O20 Sr1 1_555 1_555
C46 O20 1_555 1_555
H32 C46 1_555 1_555
N2 C46 1_555 1_555
C47 N2 1_555 1_555
H33 C47 1_555 1_555
H34 C47 1_555 1_555
H35 C47 1_555 1_555
C48 N2 1_555 1_555
H36 C48 1_555 1_555
H37 C48 1_555 1_555
H38 C48 1_555 1_555
O21 Sr2 1_555 1_555
C49 O21 1_555 1_555
H39 C49 1_555 1_555
C50 H40 1_555 1_555
H41 C50 1_555 1_555
H42 C50 1_555 1_555
C51 H43 1_555 1_555
H44 C51 1_555 1_555
H45 C51 1_555 1_555
O22 Sr3 1_555 1_555
C52 O22 1_555 1_555
H46 C52 1_555 1_555
N3 C52 1_555 1_555
C53 N3 1_555 1_555
H47 C53 1_555 1_555
H48 C53 1_555 1_555
H49 C53 1_555 1_555
C54 N3 1_555 1_555
H50 C54 1_555 1_555
H51 C54 1_555 1_555
H52 C54 1_555 1_555
O23 Sr1 1_555 1_555
N4 C55 1_555 1_555
N5 C49 1_555 1_555
C55 O23 1_555 1_555
H53 C55 1_555 1_555
C56 N4 1_555 1_555
H54 C56 1_555 1_555
H55 C56 1_555 1_555
H56 C56 1_555 1_555
C57 N4 1_555 1_555
H57 C57 1_555 1_555
H58 C57 1_555 1_555
H59 C57 1_555 1_555
O24 C58 1_555 1_555
C58 H60 1_555 1_555
N6 C58 1_555 1_555
C59 N6 1_555 1_555
H61 C59 1_555 1_555
H62 C59 1_555 1_555
H63 C59 1_555 1_555
C60 N6 1_555 1_555
H64 C60 1_555 1_555
H65 C60 1_555 1_555
H66 C60 1_555 1_555
C29C C29 1_555 1_555
C30C C29C 1_555 1_555
C31C C30C 1_555 1_555
H17C C31C 1_555 1_555
C32C C31C 1_555 1_555
C33C C32C 1_555 1_555
H18C C33C 1_555 1_555
C34C C29C 1_555 1_555
H19C C34C 1_555 1_555
O13C C30C 1_555 1_555
H20C O13C 1_555 1_555
C35C C32C 1_555 1_555
O14C C35C 1_555 1_555
O15C C35C 1_555 1_555
C36C C36 1_555 1_555
C37C C36C 1_555 1_555
C38C C37C 1_555 1_555
H21C C38C 1_555 1_555
C39C C38C 1_555 1_555
C40C C39C 1_555 1_555
H22C C40C 1_555 1_555
C41C C36C 1_555 1_555
H23C C41C 1_555 1_555
O16C C37C 1_555 1_555
H24C O16C 1_555 1_555
C42C C39C 1_555 1_555
O17C C42C 1_555 1_555
O18C C42C 1_555 1_555
Sr1C O17C 1_555 1_555
Sr2C O17C 1_555 1_555
Sr3C O18C 1_555 1_555
C1C C2C 1_555 1_555
C2C C3C 1_555 1_555
C3C H1C 1_555 1_555
C4C C3C 1_555 1_555
C5C C4C 1_555 1_555
H2C C5C 1_555 1_555
C6C C1C 1_555 1_555
H3C C6C 1_555 1_555
O1C C2C 1_555 1_555
H4C O1C 1_555 1_555
C7C C4C 1_555 1_555
O2C C7C 1_555 1_555
O3C Sr2C 1_555 1_555
C8C C1C 1_555 1_555
C9C C8C 1_555 1_555
C10C C9C 1_555 1_555
H5C C10C 1_555 1_555
C11C C10C 1_555 1_555
C12C C11C 1_555 1_555
H6C C12C 1_555 1_555
C13C C8C 1_555 1_555
H7C C13C 1_555 1_555
O4C C9C 1_555 1_555
H8C O4C 1_555 1_555
C14C C11C 1_555 1_555
O5C C14C 1_555 1_555
O6C C14C 1_555 1_555
C15C C16C 1_555 1_555
C16C C17C 1_555 1_555
C17C H9C 1_555 1_555
C18C C17C 1_555 1_555
C19C C18C 1_555 1_555
H10C C19C 1_555 1_555
C20C C15C 1_555 1_555
H11C C20C 1_555 1_555
O7C C16C 1_555 1_555
H12C O7C 1_555 1_555
C21C C18C 1_555 1_555
O8C Sr1C 1_555 1_555
O9C Sr1C 1_555 1_555
C22C C15C 1_555 1_555
C23C C22C 1_555 1_555
C24C C23C 1_555 1_555
H13C C24C 1_555 1_555
C25C C24C 1_555 1_555
C26C C25C 1_555 1_555
H14C C26C 1_555 1_555
C27C C22C 1_555 1_555
H15C C27C 1_555 1_555
O10C C23C 1_555 1_555
H16C O10C 1_555 1_555
C28C C25C 1_555 1_555
O11C C28C 1_555 1_555
O12C C28C 1_555 1_555
O19C Sr3C 1_555 1_555
C43C O19C 1_555 1_555
H25C C43C 1_555 1_555
N1C C43C 1_555 1_555
C44C N1C 1_555 1_555
H26C C44C 1_555 1_555
H27C C44C 1_555 1_555
H28C C44C 1_555 1_555
C45C N1C 1_555 1_555
H29C C45C 1_555 1_555
H30C C45C 1_555 1_555
H31C C45C 1_555 1_555
O20C Sr1C 1_555 1_555
C46C O20C 1_555 1_555
H32C C46C 1_555 1_555
N2C C46C 1_555 1_555
C47C N2C 1_555 1_555
H33C C47C 1_555 1_555
H34C C47C 1_555 1_555
H35C C47C 1_555 1_555
C48C N2C 1_555 1_555
H36C C48C 1_555 1_555
H37C C48C 1_555 1_555
H38C C48C 1_555 1_555
O21C Sr2C 1_555 1_555
C49C O21C 1_555 1_555
H39C C49C 1_555 1_555
C50C H40C 1_555 1_555
H41C C50C 1_555 1_555
H42C C50C 1_555 1_555
C51C H43C 1_555 1_555
H44C C51C 1_555 1_555
H45C C51C 1_555 1_555
O22C Sr3C 1_555 1_555
C52C O22C 1_555 1_555
H46C C52C 1_555 1_555
N3C C52C 1_555 1_555
C53C N3C 1_555 1_555
H47C C53C 1_555 1_555
H48C C53C 1_555 1_555
H49C C53C 1_555 1_555
C54C N3C 1_555 1_555
H50C C54C 1_555 1_555
H51C C54C 1_555 1_555
H52C C54C 1_555 1_555
O23C Sr1C 1_555 1_555
N4C C55C 1_555 1_555
N5C C49C 1_555 1_555
C55C O23C 1_555 1_555
H53C C55C 1_555 1_555
C56C N4C 1_555 1_555
H54C C56C 1_555 1_555
H55C C56C 1_555 1_555
H56C C56C 1_555 1_555
C57C N4C 1_555 1_555
H57C C57C 1_555 1_555
H58C C57C 1_555 1_555
H59C C57C 1_555 1_555
Sr1A O6 1_555 1_555
Sr1B O6C 1_555 1_555
Sr1E O19C 1_555 1_555
Sr1E_2 O15C 1_555 1_555
Sr1F O15 1_555 1_555
Sr2A O5 1_555 1_555
Sr2B O5C 1_555 1_555
Sr2C_2 O14C 1_555 1_555
Sr3A O5 1_555 1_555
Sr3B O5C 1_555 1_555
Sr3C_2 O14C 1_555 1_555
Sr3E O9C 1_555 1_555
Sr3E_2 O11 1_555 1_555
Sr3F O11C 1_555 1_555
Sr3F_2 O9 1_555 1_555
O5A Sr2 1_555 1_555
O5B Sr2C 1_555 1_555
O6A Sr1 1_555 1_555
O6B Sr1C 1_555 1_555
O9E Sr3C 1_555 1_555
O9F Sr3 1_555 1_555
O11E Sr3 1_555 1_555
O11F Sr3C 1_555 1_555
O14C_2 Sr2C 1_555 1_555
O15C_2 Sr3C 1_555 1_555
O15E Sr1C 1_555 1_555
O15F Sr1 1_555 1_555
O19E Sr1C 1_555 1_555
O19F Sr1 1_555 1_555
Sr2 O17 1_555 1_555
Sr2 O6A 1_555 1_555
Sr3 O18 1_555 1_555
Sr3 O5A 1_555 1_555
C5 C6 1_555 1_555
C12 C13 1_555 1_555
O6 Sr2A 1_555 1_555
C19 C20 1_555 1_555
C21 O8 1_555 1_555
C21 O9 1_555 1_555
C26 C27 1_555 1_555
C33 C34 1_555 1_555
C35 O14 1_555 1_555
C35 O15 1_555 1_555
C40 C41 1_555 1_555
C42 O17 1_555 1_555
C42 O18 1_555 1_555
O19 Sr1F 1_555 1_555
C50 N5 1_555 1_555
C51 N5 1_555 1_555
C33C C34C 1_555 1_555
O15C Sr3C_2 1_555 1_555
C40C C41C 1_555 1_555
O18C Sr2C 1_555 1_555
Sr2C O8C 1_555 1_555
Sr2C O6B 1_555 1_555
Sr3C O5B 1_555 1_555
Sr3C O14C_2 1_555 1_555
C5C C6C 1_555 1_555
C7C O3C 1_555 1_555
C12C C13C 1_555 1_555
O6C Sr2B 1_555 1_555
C19C C20C 1_555 1_555
C21C O8C 1_555 1_555
C21C O9C 1_555 1_555
C26C C27C 1_555 1_555
C50C N5C 1_555 1_555
C51C N5C 1_555 1_555
Sr1E O9E 1_555 1_555
Sr1E O15C_2 1_555 1_555
Sr1F O9F 1_555 1_555
Sr3E O15E 1_555 1_555
Sr3E O19E 1_555 1_555
Sr3F_2 O15F 1_555 1_555
Sr3F_2 O19F 1_555 1_555

#END
