
#######################################################################
#
#                 Cambridge Crystallographic Data Centre
#                                CCDC 
#
#######################################################################
#
# If this CIF has been generated from an entry in the Cambridge 
# Structural Database, then it will include bibliographic, chemical, 
# crystal, experimental, refinement or atomic coordinate data resulting 
# from the CCDC's data processing and validation procedures.
#
#######################################################################

data_COKJOD
_chemical_formula_moiety         '(C25 H13 O14 Sm2 1-)n,n(C2 H8 N1 1+)'
_chemical_name_systematic        
'catena-[dimethylammonium (\m-formato)-tris(\m-isophthalato)-di-samarium]'
_symmetry_cell_setting           triclinic
_symmetry_space_group_name_H-M   'P -1'
_symmetry_Int_Tables_number      2
_space_group_name_Hall           '-P 1'
loop_
_symmetry_equiv_pos_site_id
_symmetry_equiv_pos_as_xyz
1 x,y,z
2 -x,-y,-z
_cell_length_a                   8.3911(2)
_cell_length_b                   10.5518(3)
_cell_length_c                   17.4632(5)
_cell_angle_alpha                98.993(3)
_cell_angle_beta                 97.112(2)
_cell_angle_gamma                100.424(3)
_cell_volume                     1483.48
_exptl_crystal_colour            'light yellow'
_exptl_crystal_description       block
_cell_formula_units_Z            2
loop_
_atom_site_label
_atom_site_type_symbol
_atom_site_fract_x
_atom_site_fract_y
_atom_site_fract_z
Sm1 Sm 0.521363(19) 0.137859(16) 0.296433(9)
Sm2 Sm 1.034631(18) 0.190852(15) 0.237465(8)
C1 C 1.0259(4) 0.4417(3) 0.19563(19)
C2 C 1.0276(4) 0.5714(3) 0.1714(2)
C3 C 1.1226(4) 0.6848(3) 0.21756(19)
H1 H 1.1840 0.6803 0.2648
C4 C 1.1277(4) 0.8055(3) 0.19442(18)
C5 C 1.0347(4) 0.8113(3) 0.1243(2)
H2 H 1.0354 0.8918 0.1088
C6 C 0.9403(5) 0.6978(4) 0.0769(2)
H3 H 0.8798 0.7021 0.0294
C7 C 0.9366(4) 0.5786(4) 0.1008(2)
H4 H 0.8728 0.5027 0.0693
C8 C 1.2413(4) 0.9227(3) 0.24236(19)
C9 C 0.8391(4) 0.0017(3) 0.35876(18)
C10 C 0.8725(4) -0.0939(3) 0.41111(17)
C11 C 0.9980(4) -0.1622(4) 0.4022(2)
H5 H 1.0618 -0.1498 0.3630
C12 C 1.0278(5) -0.2482(4) 0.4512(2)
H6 H 1.1101 -0.2953 0.4440
C13 C 0.9373(5) -0.2656(4) 0.5110(2)
H7 H 0.9595 -0.3231 0.5443
C14 C 0.8128(4) -0.1967(3) 0.52119(18)
C15 C 0.7802(4) -0.1129(3) 0.47042(17)
H8 H 0.6949 -0.0686 0.4762
C16 C 0.7187(5) -0.2090(3) 0.58747(19)
C17 C 0.6883(4) -0.0001(3) 0.13666(18)
C18 C 0.5984(4) -0.0941(3) 0.06496(18)
C19 C 0.4344(4) -0.1515(4) 0.0626(2)
H9 H 0.3837 -0.1341 0.1064
C20 C 0.3469(4) -0.2336(4) -0.0039(2)
H10 H 0.2378 -0.2724 -0.0048
C21 C 0.4204(4) -0.2588(4) -0.0697(2)
H11 H 0.3598 -0.3126 -0.1151
C22 C 0.5836(4) -0.2045(3) -0.06822(17)
C23 C 0.6726(4) -0.1210(3) -0.00053(17)
H12 H 0.7822 -0.0832 0.0005
C24 C 0.6606(4) -0.2295(3) -0.14022(18)
C25 C 0.7858(4) 0.3723(4) 0.3378(2)
H13 H 0.8669 0.4482 0.3512
O1 O 1.1248(3) 0.4349(2) 0.25617(13)
O2 O 0.9286(3) 0.3426(2) 0.15765(13)
O3 O 1.3586(3) 0.9101(2) 0.29022(14)
O4 O 1.2254(3) 1.0374(2) 0.23106(13)
O5 O 0.8376(3) 0.0455(2) 0.14082(13)
O6 O 0.6047(3) 0.0289(3) 0.18983(13)
O7 O 0.8135(3) -0.2125(2) -0.13194(13)
O8 O 0.5674(3) -0.2675(2) -0.20657(12)
O9 O 0.7100(3) 0.0457(2) 0.36471(13)
O10 O 0.9389(3) 0.0311(2) 0.31374(13)
O11 O 0.5898(3) -0.1650(3) 0.58519(14)
O12 O 0.7721(3) -0.2606(3) 0.64359(13)
O13 O 0.8169(3) 0.2739(2) 0.29827(14)
O14 O 0.6514(3) 0.3740(2) 0.36017(14)
Sm1_2 Sm 1.521363(19) 1.137859(16) 0.296433(9)
Sm1A Sm 0.478637(19) -0.137859(16) -0.296433(9)
Sm1A_2 Sm 0.478637(19) -0.137859(16) 0.703567(9)
Sm2_2 Sm 1.034631(18) 1.190852(15) 0.237465(8)
Sm2A Sm 0.965369(18) -0.190852(15) -0.237465(8)
Sm2A_2 Sm 0.965369(18) -0.190852(15) 0.762535(8)
O3_2 O 0.3586(3) -0.0899(2) 0.29022(14)
O4_2 O 0.2254(3) 0.0374(2) 0.23106(13)
O4_3 O 1.2254(3) 0.0374(2) 0.23106(13)
O7A O 1.1865(3) 0.2125(2) 0.13194(13)
O8A O 0.4326(3) 0.2675(2) 0.20657(12)
O11A O 0.4102(3) 0.1650(3) 0.41481(14)
O12A O 1.2279(3) 0.2606(3) 0.35641(13)
C26 C 1.5384(8) 0.6154(7) 0.2625(6)
H14 H 1.5134 0.5684 0.2093
H15 H 1.6536 0.6266 0.2809
H16 H 1.5097 0.6998 0.2646
C27 C 1.4395(9) 0.6129(7) 0.3928(5)
H17 H 1.3878 0.6861 0.3889
H18 H 1.5490 0.6435 0.4209
H19 H 1.3777 0.5541 0.4203
N1 N 1.4456(5) 0.5421(4) 0.3119(3)
H20 H 1.4881 0.4708 0.3168
H21 H 1.3419 0.5137 0.2867
loop_
_geom_bond_atom_site_label_1
_geom_bond_atom_site_label_2
_geom_bond_site_symmetry_1
_geom_bond_site_symmetry_2
Sm1 O6 1_555 1_555
Sm2 O1 1_555 1_555
C1 C2 1_555 1_555
C2 C3 1_555 1_555
C3 H1 1_555 1_555
C4 C3 1_555 1_555
C5 C4 1_555 1_555
H2 C5 1_555 1_555
C6 C5 1_555 1_555
H3 C6 1_555 1_555
C7 C2 1_555 1_555
H4 C7 1_555 1_555
C8 C4 1_555 1_555
C9 C10 1_555 1_555
C10 C11 1_555 1_555
C11 H5 1_555 1_555
C12 C11 1_555 1_555
H6 C12 1_555 1_555
C13 C12 1_555 1_555
H7 C13 1_555 1_555
C14 C13 1_555 1_555
C15 C10 1_555 1_555
H8 C15 1_555 1_555
C16 C14 1_555 1_555
C17 C18 1_555 1_555
C18 C19 1_555 1_555
C19 H9 1_555 1_555
C20 C19 1_555 1_555
H10 C20 1_555 1_555
C21 C20 1_555 1_555
H11 C21 1_555 1_555
C22 C21 1_555 1_555
C23 C18 1_555 1_555
H12 C23 1_555 1_555
C24 C22 1_555 1_555
C25 H13 1_555 1_555
O1 C1 1_555 1_555
O2 Sm2 1_555 1_555
O3 C8 1_555 1_555
O4 C8 1_555 1_555
O5 Sm2 1_555 1_555
O6 C17 1_555 1_555
O7 C24 1_555 1_555
O8 C24 1_555 1_555
O9 Sm1 1_555 1_555
O10 Sm2 1_555 1_555
O11 C16 1_555 1_555
O12 C16 1_555 1_555
O13 Sm1 1_555 1_555
O14 Sm1 1_555 1_555
C26 H14 1_555 1_555
H15 C26 1_555 1_555
H16 C26 1_555 1_555
C27 H17 1_555 1_555
H18 C27 1_555 1_555
H19 C27 1_555 1_555
N1 C26 1_555 1_555
H20 N1 1_555 1_555
H21 N1 1_555 1_555
Sm1_2 O3 1_555 1_555
Sm1A O8 1_555 1_555
Sm1A_2 O11 1_555 1_555
Sm2_2 O4 1_555 1_555
Sm2A O7 1_555 1_555
Sm2A_2 O12 1_555 1_555
O3_2 Sm1 1_555 1_555
O4_2 Sm1 1_555 1_555
O4_3 Sm2 1_555 1_555
O7A Sm2 1_555 1_555
O8A Sm1 1_555 1_555
O11A Sm1 1_555 1_555
O12A Sm2 1_555 1_555
Sm2 O13 1_555 1_555
C1 O2 1_555 1_555
C6 C7 1_555 1_555
C9 O9 1_555 1_555
C9 O10 1_555 1_555
C14 C15 1_555 1_555
C17 O5 1_555 1_555
C22 C23 1_555 1_555
C25 O13 1_555 1_555
C25 O14 1_555 1_555
O4 Sm1_2 1_555 1_555
C27 N1 1_555 1_555

#END
