
#######################################################################
#
#                 Cambridge Crystallographic Data Centre
#                                CCDC 
#
#######################################################################
#
# If this CIF has been generated from an entry in the Cambridge 
# Structural Database, then it will include bibliographic, chemical, 
# crystal, experimental, refinement or atomic coordinate data resulting 
# from the CCDC's data processing and validation procedures.
#
#######################################################################

data_DAHCAS
_chemical_formula_moiety         
'(C120 H72 Cd6 N18 Na2 O24 4-)n,6n(C2 H8 N1 1+),2n(C2 H6 N1 1-),3n(C3 H7 N1 O1),3n(H2 O1)'
_chemical_name_systematic        
"catena-(hexakis(Dimethylammonium) bis(dimethylamide) tris(\m~4~-biphenyl-4,4'-dicarboxylato)-hexakis(\m~3~-benzotriazolato)-tris(\m~2~-biphenyl-4,4'-dicarboxylato)-hexa-cadmium-di-sodium dimethylformamide solvate trihydrate)"
_symmetry_cell_setting           hexagonal
_symmetry_space_group_name_H-M   'P 63 2 2'
_symmetry_Int_Tables_number      182
_space_group_name_Hall           'P 6c 2c'
loop_
_symmetry_equiv_pos_site_id
_symmetry_equiv_pos_as_xyz
1 x,y,z
2 x-y,x,1/2+z
3 -y,x-y,z
4 -x,-y,1/2+z
5 -x+y,-x,z
6 y,-x+y,1/2+z
7 -y,-x,1/2-z
8 x-y,-y,-z
9 x,x-y,1/2-z
10 y,x,-z
11 -x+y,y,1/2-z
12 -x,-x+y,-z
_cell_length_a                   18.643(3)
_cell_length_b                   18.643(3)
_cell_length_c                   24.945(5)
_cell_angle_alpha                90
_cell_angle_beta                 90
_cell_angle_gamma                120
_cell_volume                     7508.37
_exptl_crystal_colour            colorless
_exptl_crystal_description       block
_cell_formula_units_Z            2
loop_
_atom_site_label
_atom_site_type_symbol
_atom_site_fract_x
_atom_site_fract_y
_atom_site_fract_z
O1 O 0.2888(3) 1.0000 0.0000
N5 N 0.0000 0.8129(19) 1.0000
C24 C -0.017(3) 0.778(2) 0.9458(10)
H20 H -0.0004 0.7983 0.9100
H21 H -0.0131 0.7290 0.9509
H22 H -0.0736 0.7645 0.9513
H24 H -0.0292 0.8404 0.9874
C24K C 0.017(3) 0.795(4) 1.0542(10)
H20K H 0.0004 0.7987 1.0900
H21K H 0.0131 0.7421 1.0491
H22K H 0.0736 0.8381 1.0487
H24K H 0.0292 0.8696 1.0126
Cd1 Cd 0.80800(3) 0.54846(3) -0.562258(19)
Na1 Na 0.6667 0.3333 -0.51369(10)
O2 O 0.7493(5) 0.4667(3) -0.47674(17)
O3 O 0.8334(6) 0.5994(3) -0.47681(18)
O4 O 0.9221(6) 0.6828(4) -0.5809(2)
O5 O 0.8411(7) 0.6180(5) -0.6464(3)
N1 N 0.6126(4) 0.1593(3) -0.5891(2)
N2 N 0.5857(4) 0.2089(3) -0.5708(2)
N3 N 0.5089(5) 0.1837(3) -0.5894(2)
C1 C 0.7880(7) 0.5333(4) -0.4525(2)
C2 C 0.7814(7) 0.5345(4) -0.3926(2)
C3 C 0.8366(7) 0.6029(4) -0.3635(3)
H1 H 0.8791 0.6500 -0.3814
C4 C 0.8300(7) 0.6028(4) -0.3075(2)
H2 H 0.8681 0.6507 -0.2880
C5 C 0.7705(6) 0.5359(3) -0.2798(2)
C6 C 0.7147(6) 0.4687(3) -0.3103(2)
H3 H 0.6714 0.4217 -0.2928
C7 C 0.7208(7) 0.4687(4) -0.3661(2)
H4 H 0.6818 0.4217 -0.3858
C8 C 0.9012(8) 0.6811(6) -0.6264(3)
C9 C 0.9516(6) 0.7529(5) -0.6641(3)
C10 C 1.0005(8) 0.8330(6) -0.6433(3)
H5 H 0.9997 0.8435 -0.6061
C11 C 1.0496(8) 0.8959(5) -0.6779(3)
H6 H 1.0823 0.9505 -0.6643
C12 C 1.0527(6) 0.8816(4) -0.7325(3)
C13 C 1.0010(6) 0.8041(5) -0.7520(3)
H7 H 1.0005 0.7947 -0.7895
C14 C 0.9490(6) 0.7386(5) -0.7190(3)
H8 H 0.9126 0.6854 -0.7335
C15 C 0.5527(6) 0.0987(4) -0.6196(3)
C16 C 0.5497(8) 0.0318(5) -0.6466(3)
H9 H 0.5953 0.0224 -0.6468
C17 C 0.4767(11) -0.0202(7) -0.6732(5)
H10 H 0.4709 -0.0678 -0.6911
C18 C 0.4110(11) -0.0038(7) -0.6743(4)
H11 H 0.3628 -0.0392 -0.6944
C19 C 0.4141(9) 0.0604(5) -0.6477(3)
H12 H 0.3680 0.0691 -0.6478
C20 C 0.4870(8) 0.1142(5) -0.6198(3)
Cd1J Cd 0.74046(4) 0.54846(3) 0.062258(19)
Cd1B Cd 0.45154(3) 0.25954(4) -0.562258(19)
Cd1F Cd 0.45154(3) 0.19200(3) 0.062258(19)
Cd1D Cd 0.74046(4) 0.19200(3) -0.562258(19)
Cd1H Cd 0.80800(3) 0.25954(4) 0.062258(19)
Cd1F_2 Cd 1.45154(3) 1.19200(3) -0.937742(19)
Cd1D_2 Cd 0.74046(4) 1.19200(3) 0.437742(19)
Cd1H_2 Cd -0.19200(3) 0.25954(4) -0.937742(19)
Na1J Na 0.6666 0.3333 0.01369(10)
O2J O 0.7174(6) 0.4667(3) -0.02326(17)
O2B O 0.5333(3) 0.2826(6) -0.47674(17)
O2F O 0.5333(3) 0.2507(5) -0.02326(17)
O2D O 0.7174(6) 0.2507(5) -0.47674(17)
O2H O 0.7493(5) 0.2826(6) -0.02326(17)
O3J O 0.7660(7) 0.5994(3) -0.02319(18)
O3B O 0.4006(3) 0.2340(7) -0.47681(18)
O3F O 0.4006(3) 0.1666(6) -0.02319(18)
O3D O 0.7660(7) 0.1666(6) -0.47681(18)
O3H O 0.8334(6) 0.2340(7) -0.02319(18)
O4F O 1.3172(4) 1.0779(6) -0.9191(2)
O4J O 0.7607(7) 0.6828(4) 0.0809(2)
O4D O 0.7607(7) 1.0779(6) 0.4191(2)
O4B O 0.3172(4) 0.2393(7) -0.5809(2)
O4H O -0.0779(6) 0.2393(7) -0.9191(2)
O4F_2 O 0.3172(4) 0.0779(6) 0.0809(2)
O4D_2 O 0.7607(7) 0.0779(6) -0.5809(2)
O4H_2 O 0.9221(6) 0.2393(7) 0.0809(2)
O5F O 1.3820(5) 1.1589(7) -0.8536(3)
O5J O 0.7769(9) 0.6180(5) 0.1464(3)
O5D O 0.7769(9) 1.1589(7) 0.3536(3)
O5B O 0.3820(5) 0.2231(9) -0.6464(3)
O5H O -0.1589(7) 0.2231(9) -0.8536(3)
O5F_2 O 0.3820(5) 0.1589(7) 0.1464(3)
O5D_2 O 0.7769(9) 0.1589(7) -0.6464(3)
O5H_2 O 0.8411(7) 0.2231(9) 0.1464(3)
N1B N 0.8407(3) 0.4533(5) -0.5891(2)
N1D N 0.5467(5) 0.3874(4) -0.5891(2)
N1J N 0.5467(5) 0.1593(3) 0.0891(2)
N1H N 0.6126(4) 0.4533(5) 0.0891(2)
N1F N 0.8407(3) 0.3874(4) 0.0891(2)
N2B N 0.7911(3) 0.3768(5) -0.5708(2)
N2D N 0.6232(5) 0.4143(4) -0.5708(2)
N2J N 0.6232(5) 0.2089(3) 0.0708(2)
N2H N 0.5857(4) 0.3768(5) 0.0708(2)
N2F N 0.7911(3) 0.4143(4) 0.0708(2)
N3B N 0.8163(3) 0.3252(6) -0.5894(2)
N3D N 0.6748(6) 0.4911(5) -0.5894(2)
N3J N 0.6748(6) 0.1837(3) 0.0894(2)
N3H N 0.5089(5) 0.3252(6) 0.0894(2)
N3F N 0.8163(3) 0.4911(5) 0.0894(2)
C1J C 0.7453(8) 0.5333(4) -0.0475(2)
C1B C 0.4667(4) 0.2547(8) -0.4525(2)
C1F C 0.4667(4) 0.2120(7) -0.0475(2)
C1D C 0.7453(8) 0.2120(7) -0.4525(2)
C1H C 0.7880(7) 0.2547(8) -0.0475(2)
C2J C 0.7531(8) 0.5345(4) -0.1074(2)
C2B C 0.4655(4) 0.2469(8) -0.3926(2)
C2F C 0.4655(4) 0.2186(7) -0.1074(2)
C2D C 0.7531(8) 0.2186(7) -0.3926(2)
C2H C 0.7814(7) 0.2469(8) -0.1074(2)
C3J C 0.7663(8) 0.6029(4) -0.1365(3)
C3B C 0.3971(4) 0.2337(8) -0.3635(3)
C3F C 0.3971(4) 0.1634(7) -0.1365(3)
C3D C 0.7663(8) 0.1634(7) -0.3635(3)
C3H C 0.8366(7) 0.2337(8) -0.1365(3)
H1J H 0.7709 0.6500 -0.1186
H1B H 0.3500 0.2291 -0.3814
H1F H 0.3500 0.1209 -0.1186
H1D H 0.7709 0.1209 -0.3814
H1H H 0.8791 0.2291 -0.1186
C4J C 0.7728(8) 0.6028(4) -0.1925(2)
C4B C 0.3972(4) 0.2272(8) -0.3075(2)
C4F C 0.3972(4) 0.1700(7) -0.1925(2)
C4D C 0.7728(8) 0.1700(7) -0.3075(2)
C4H C 0.8300(7) 0.2272(8) -0.1925(2)
H2J H 0.7826 0.6507 -0.2120
H2B H 0.3493 0.2174 -0.2880
H2F H 0.3493 0.1319 -0.2120
H2D H 0.7826 0.1319 -0.2880
H2H H 0.8681 0.2174 -0.2120
C5J C 0.7654(7) 0.5359(3) -0.2202(2)
C5B C 0.4641(3) 0.2346(7) -0.2798(2)
C5F C 0.4641(3) 0.2295(6) -0.2202(2)
C5D C 0.7654(7) 0.2295(6) -0.2798(2)
C5H C 0.7705(6) 0.2346(7) -0.2202(2)
C6J C 0.7540(7) 0.4687(3) -0.1897(2)
C6B C 0.5313(3) 0.2460(7) -0.3103(2)
C6F C 0.5313(3) 0.2853(6) -0.1897(2)
C6D C 0.7540(7) 0.2853(6) -0.3103(2)
C6H C 0.7147(6) 0.2460(7) -0.1897(2)
H3J H 0.7503 0.4217 -0.2072
H3B H 0.5783 0.2497 -0.2928
H3F H 0.5783 0.3286 -0.2072
H3D H 0.7503 0.3286 -0.2928
H3H H 0.6714 0.2497 -0.2072
C7J C 0.7479(8) 0.4687(4) -0.1339(2)
C7B C 0.5313(4) 0.2521(8) -0.3661(2)
C7F C 0.5313(4) 0.2792(7) -0.1339(2)
C7D C 0.7479(8) 0.2792(7) -0.3661(2)
C7H C 0.7208(7) 0.2521(8) -0.1339(2)
H4J H 0.7399 0.4217 -0.1142
H4B H 0.5783 0.2601 -0.3858
H4F H 0.5783 0.3182 -0.1142
H4D H 0.7399 0.3182 -0.3858
H4H H 0.6818 0.2601 -0.1142
C8F C 1.3189(6) 1.0988(8) -0.8736(3)
C8J C 0.7799(10) 0.6811(6) 0.1264(3)
C8D C 0.7799(10) 1.0988(8) 0.3736(3)
C8B C 0.3189(6) 0.2201(10) -0.6264(3)
C8H C -0.0988(8) 0.2201(10) -0.8736(3)
C9F C 1.2471(5) 1.0484(6) -0.8359(3)
C9J C 0.8013(8) 0.7529(5) 0.1641(3)
C9D C 0.8013(8) 1.0484(6) 0.3359(3)
C9B C 0.2471(5) 0.1987(8) -0.6641(3)
C9H C -0.0484(6) 0.1987(8) -0.8359(3)
C10F C 1.1670(6) 0.9995(8) -0.8567(3)
C10J C 0.8325(10) 0.8330(6) 0.1433(3)
C10D C 0.8325(10) 0.9995(8) 0.3567(3)
C10B C 0.1670(6) 0.1675(10) -0.6433(3)
C10H C 0.0005(8) 0.1675(10) -0.8567(3)
H5F H 1.1565 1.0003 -0.8939
H5J H 0.8438 0.8435 0.1061
H5D H 0.8438 1.0003 0.3939
H5B H 0.1565 0.1562 -0.6061
H5H H -0.0003 0.1562 -0.8939
C11F C 1.1041(5) 0.9504(8) -0.8221(3)
C11J C 0.8463(9) 0.8959(5) 0.1779(3)
C11D C 0.8463(9) 0.9504(8) 0.3221(3)
C11B C 0.1041(5) 0.1537(9) -0.6779(3)
C11H C 0.0496(8) 0.1537(9) -0.8221(3)
H6F H 1.0495 0.9177 -0.8357
H6J H 0.8682 0.9505 0.1643
H6D H 0.8682 0.9177 0.3357
H6B H 0.0495 0.1318 -0.6643
H6H H 0.0823 0.1318 -0.8357
C12F C 1.1184(4) 0.9473(6) -0.7675(3)
C12J C 0.8289(7) 0.8816(4) 0.2325(3)
C12D C 0.8289(7) 0.9473(6) 0.2675(3)
C12B C 0.1184(4) 0.1711(7) -0.7325(3)
C12H C 0.0527(6) 0.1711(7) -0.7675(3)
C13F C 1.1959(5) 0.9990(6) -0.7480(3)
C13J C 0.8031(8) 0.8041(5) 0.2520(3)
C13D C 0.8031(8) 0.9990(6) 0.2480(3)
C13B C 0.1959(5) 0.1969(8) -0.7520(3)
C13H C 0.0010(6) 0.1969(8) -0.7480(3)
H7F H 1.2053 0.9995 -0.7105
H7J H 0.7942 0.7947 0.2895
H7D H 0.7942 0.9995 0.2105
H7B H 0.2053 0.2058 -0.7895
H7H H 0.0005 0.2058 -0.7105
C14F C 1.2614(5) 1.0510(6) -0.7810(3)
C14J C 0.7896(8) 0.7386(5) 0.2190(3)
C14D C 0.7896(8) 1.0510(6) 0.2810(3)
C14B C 0.2614(5) 0.2104(8) -0.7190(3)
C14H C -0.0510(6) 0.2104(8) -0.7810(3)
H8F H 1.3146 1.0874 -0.7665
H8J H 0.7728 0.6854 0.2335
H8D H 0.7728 1.0874 0.2665
H8B H 0.3146 0.2272 -0.7335
H8H H -0.0874 0.2272 -0.7665
C15B C 0.9013(4) 0.4540(7) -0.6196(3)
C15D C 0.5460(7) 0.4473(6) -0.6196(3)
C15J C 0.5460(7) 0.0987(4) 0.1196(3)
C15H C 0.5527(6) 0.4540(7) 0.1196(3)
C15F C 0.9013(4) 0.4473(6) 0.1196(3)
C16B C 0.9682(5) 0.5179(9) -0.6466(3)
C16D C 0.4821(9) 0.4503(8) -0.6466(3)
C16J C 0.4821(9) 0.0318(5) 0.1466(3)
C16H C 0.5497(8) 0.5179(9) 0.1466(3)
C16F C 0.9682(5) 0.4503(8) 0.1466(3)
H9B H 0.9776 0.5729 -0.6468
H9D H 0.4271 0.4047 -0.6468
H9J H 0.4271 0.0224 0.1468
H9H H 0.5953 0.5729 0.1468
H9F H 0.9776 0.4047 0.1468
C17B C 1.0202(7) 0.4969(13) -0.6732(5)
C17D C 0.5031(13) 0.5233(11) -0.6732(5)
C17J C 0.5031(13) -0.0202(7) 0.1732(5)
C17H C 0.4767(11) 0.4969(13) 0.1732(5)
C17F C 1.0202(7) 0.5233(11) 0.1732(5)
H10B H 1.0678 0.5387 -0.6911
H10D H 0.4613 0.5291 -0.6911
H10J H 0.4613 -0.0678 0.1911
H10H H 0.4709 0.5387 0.1911
H10F H 1.0678 0.5291 0.1911
C18B C 1.0038(7) 0.4148(13) -0.6743(4)
C18D C 0.5852(13) 0.5890(11) -0.6743(4)
C18J C 0.5852(13) -0.0038(7) 0.1743(4)
C18H C 0.4110(11) 0.4148(13) 0.1743(4)
C18F C 1.0038(7) 0.5890(11) 0.1743(4)
H11B H 1.0392 0.4020 -0.6944
H11D H 0.5980 0.6372 -0.6944
H11J H 0.5980 -0.0392 0.1944
H11H H 0.3628 0.4020 0.1944
H11F H 1.0392 0.6372 0.1944
C19B C 0.9396(5) 0.3537(10) -0.6477(3)
C19D C 0.6463(10) 0.5859(9) -0.6477(3)
C19J C 0.6463(10) 0.0604(5) 0.1477(3)
C19H C 0.4141(9) 0.3537(10) 0.1477(3)
C19F C 0.9396(5) 0.5859(9) 0.1477(3)
H12B H 0.9309 0.2989 -0.6478
H12D H 0.7011 0.6320 -0.6478
H12J H 0.7011 0.0691 0.1478
H12H H 0.3680 0.2989 0.1478
H12F H 0.9309 0.6320 0.1478
C20B C 0.8858(5) 0.3728(9) -0.6198(3)
C20D C 0.6272(9) 0.5130(8) -0.6198(3)
C20J C 0.6272(9) 0.1142(5) 0.1198(3)
C20H C 0.4870(8) 0.3728(9) 0.1198(3)
C20F C 0.8858(5) 0.5130(8) 0.1198(3)
O6? O 0.4101(10) 0.0000 1.0000
N4? N 0.5273(9) 0.0000 1.0000
C21? C 0.4809(12) 0.0363(16) 0.9806(11)
H13? H 0.4992 0.0784 0.9535
C22? C 0.501(2) -0.0722(13) 1.0338(10)
H14? H 0.4432 -0.0984 1.0424
H15? H 0.5123 -0.1113 1.0160
H16? H 0.5331 -0.0535 1.0661
C23? C 0.6091(12) 0.0514(18) 0.9768(12)
H17? H 0.6110 0.0942 0.9544
H18? H 0.6463 0.0760 1.0065
H19? H 0.6254 0.0183 0.9564
C25? C 0.0851(12) 0.8824(13) 1.0058(17)
H23? H 0.1221 0.9262 1.0292
H25? H 0.0897 0.8341 1.0122
loop_
_geom_bond_atom_site_label_1
_geom_bond_atom_site_label_2
_geom_bond_site_symmetry_1
_geom_bond_site_symmetry_2
Cd1 O2 1_555 1_555
Na1 O2 1_555 1_555
O2 C1 1_555 1_555
O3 Cd1 1_555 1_555
O4 Cd1 1_555 1_555
O5 Cd1 1_555 1_555
N1 N2 1_555 1_555
N2 Na1 1_555 1_555
N3 N2 1_555 1_555
C1 O3 1_555 1_555
C2 C1 1_555 1_555
C3 C2 1_555 1_555
H1 C3 1_555 1_555
C4 C3 1_555 1_555
H2 C4 1_555 1_555
C5 C4 1_555 1_555
C6 C5 1_555 1_555
H3 C6 1_555 1_555
C7 C2 1_555 1_555
H4 C7 1_555 1_555
C8 O4 1_555 1_555
C9 C8 1_555 1_555
C10 C9 1_555 1_555
H5 C10 1_555 1_555
C11 C10 1_555 1_555
H6 C11 1_555 1_555
C12 C11 1_555 1_555
C13 C12 1_555 1_555
H7 C13 1_555 1_555
C14 C9 1_555 1_555
H8 C14 1_555 1_555
C15 N1 1_555 1_555
C16 C15 1_555 1_555
H9 C16 1_555 1_555
C17 C16 1_555 1_555
H10 C17 1_555 1_555
C18 C17 1_555 1_555
H11 C18 1_555 1_555
C19 C18 1_555 1_555
H12 C19 1_555 1_555
C20 N3 1_555 1_555
N5 C24 1_555 1_555
C24 H20 1_555 1_555
H21 C24 1_555 1_555
H22 C24 1_555 1_555
H24 N5 1_555 1_555
Cd1J O2J 1_555 1_555
Cd1B N3 1_555 1_555
Cd1F O2F 1_555 1_555
Cd1D N1 1_555 1_555
Cd1H O2H 1_555 1_555
Cd1F_2 O4F 1_555 1_555
Cd1D_2 O4D 1_555 1_555
Cd1H_2 O4H 1_555 1_555
Na1J O2J 1_555 1_555
O2J C1J 1_555 1_555
O2B Na1 1_555 1_555
O2F Na1J 1_555 1_555
O2D Na1 1_555 1_555
O2H Na1J 1_555 1_555
O3J Cd1J 1_555 1_555
O3B Cd1B 1_555 1_555
O3F Cd1F 1_555 1_555
O3D Cd1D 1_555 1_555
O3H Cd1H 1_555 1_555
O4F C8F 1_555 1_555
O4J Cd1J 1_555 1_555
O4D C8D 1_555 1_555
O4B Cd1B 1_555 1_555
O4H C8H 1_555 1_555
O4F_2 Cd1F 1_555 1_555
O4D_2 Cd1D 1_555 1_555
O4H_2 Cd1H 1_555 1_555
O5F Cd1F_2 1_555 1_555
O5J Cd1J 1_555 1_555
O5D Cd1D_2 1_555 1_555
O5B Cd1B 1_555 1_555
O5H Cd1H_2 1_555 1_555
O5F_2 Cd1F 1_555 1_555
O5D_2 Cd1D 1_555 1_555
O5H_2 Cd1H 1_555 1_555
N1B Cd1 1_555 1_555
N1D Cd1B 1_555 1_555
N1J Cd1F 1_555 1_555
N1H Cd1J 1_555 1_555
N1F Cd1H 1_555 1_555
N2B Na1 1_555 1_555
N2D Na1 1_555 1_555
N2J Na1J 1_555 1_555
N2H Na1J 1_555 1_555
N2F Na1J 1_555 1_555
N3B Cd1D 1_555 1_555
N3D Cd1 1_555 1_555
N3J Cd1H 1_555 1_555
N3H Cd1F 1_555 1_555
N3F Cd1J 1_555 1_555
C1J O3J 1_555 1_555
C1B O2B 1_555 1_555
C1F O2F 1_555 1_555
C1D O2D 1_555 1_555
C1H O2H 1_555 1_555
C2J C1J 1_555 1_555
C2B C1B 1_555 1_555
C2F C1F 1_555 1_555
C2D C1D 1_555 1_555
C2H C1H 1_555 1_555
C3J C2J 1_555 1_555
C3B C2B 1_555 1_555
C3F C2F 1_555 1_555
C3D C2D 1_555 1_555
C3H C2H 1_555 1_555
H1J C3J 1_555 1_555
H1B C3B 1_555 1_555
H1F C3F 1_555 1_555
H1D C3D 1_555 1_555
H1H C3H 1_555 1_555
C4J C3J 1_555 1_555
C4B C3B 1_555 1_555
C4F C3F 1_555 1_555
C4D C3D 1_555 1_555
C4H C3H 1_555 1_555
H2J C4J 1_555 1_555
H2B C4B 1_555 1_555
H2F C4F 1_555 1_555
H2D C4D 1_555 1_555
H2H C4H 1_555 1_555
C5J C5 1_555 1_555
C5B C4B 1_555 1_555
C5F C4F 1_555 1_555
C5D C4D 1_555 1_555
C5H C4H 1_555 1_555
C6J C5J 1_555 1_555
C6B C5B 1_555 1_555
C6F C5F 1_555 1_555
C6D C5D 1_555 1_555
C6H C5H 1_555 1_555
H3J C6J 1_555 1_555
H3B C6B 1_555 1_555
H3F C6F 1_555 1_555
H3D C6D 1_555 1_555
H3H C6H 1_555 1_555
C7J C2J 1_555 1_555
C7B C2B 1_555 1_555
C7F C2F 1_555 1_555
C7D C2D 1_555 1_555
C7H C2H 1_555 1_555
H4J C7J 1_555 1_555
H4B C7B 1_555 1_555
H4F C7F 1_555 1_555
H4D C7D 1_555 1_555
H4H C7H 1_555 1_555
C8F O5F 1_555 1_555
C8J O4J 1_555 1_555
C8D O5D 1_555 1_555
C8B O4B 1_555 1_555
C8H O5H 1_555 1_555
C9F C8F 1_555 1_555
C9J C8J 1_555 1_555
C9D C8D 1_555 1_555
C9B C8B 1_555 1_555
C9H C8H 1_555 1_555
C10F C9F 1_555 1_555
C10J C9J 1_555 1_555
C10D C9D 1_555 1_555
C10B C9B 1_555 1_555
C10H C9H 1_555 1_555
H5F C10F 1_555 1_555
H5J C10J 1_555 1_555
H5D C10D 1_555 1_555
H5B C10B 1_555 1_555
H5H C10H 1_555 1_555
C11F C10F 1_555 1_555
C11J C10J 1_555 1_555
C11D C10D 1_555 1_555
C11B C10B 1_555 1_555
C11H C10H 1_555 1_555
H6F C11F 1_555 1_555
H6J C11J 1_555 1_555
H6D C11D 1_555 1_555
H6B C11B 1_555 1_555
H6H C11H 1_555 1_555
C12F C12 1_555 1_555
C12J C11J 1_555 1_555
C12D C11D 1_555 1_555
C12B C11B 1_555 1_555
C12H C11H 1_555 1_555
C13F C12F 1_555 1_555
C13J C12J 1_555 1_555
C13D C12D 1_555 1_555
C13B C12B 1_555 1_555
C13H C12H 1_555 1_555
H7F C13F 1_555 1_555
H7J C13J 1_555 1_555
H7D C13D 1_555 1_555
H7B C13B 1_555 1_555
H7H C13H 1_555 1_555
C14F C9F 1_555 1_555
C14J C9J 1_555 1_555
C14D C9D 1_555 1_555
C14B C9B 1_555 1_555
C14H C9H 1_555 1_555
H8F C14F 1_555 1_555
H8J C14J 1_555 1_555
H8D C14D 1_555 1_555
H8B C14B 1_555 1_555
H8H C14H 1_555 1_555
C15B N1B 1_555 1_555
C15D N1D 1_555 1_555
C15J N1J 1_555 1_555
C15H N1H 1_555 1_555
C15F N1F 1_555 1_555
C16B C15B 1_555 1_555
C16D C15D 1_555 1_555
C16J C15J 1_555 1_555
C16H C15H 1_555 1_555
C16F C15F 1_555 1_555
H9B C16B 1_555 1_555
H9D C16D 1_555 1_555
H9J C16J 1_555 1_555
H9H C16H 1_555 1_555
H9F C16F 1_555 1_555
C17B C16B 1_555 1_555
C17D C16D 1_555 1_555
C17J C16J 1_555 1_555
C17H C16H 1_555 1_555
C17F C16F 1_555 1_555
H10B C17B 1_555 1_555
H10D C17D 1_555 1_555
H10J C17J 1_555 1_555
H10H C17H 1_555 1_555
H10F C17F 1_555 1_555
C18B C17B 1_555 1_555
C18D C17D 1_555 1_555
C18J C17J 1_555 1_555
C18H C17H 1_555 1_555
C18F C17F 1_555 1_555
H11B C18B 1_555 1_555
H11D C18D 1_555 1_555
H11J C18J 1_555 1_555
H11H C18H 1_555 1_555
H11F C18F 1_555 1_555
C19B C18B 1_555 1_555
C19D C18D 1_555 1_555
C19J C18J 1_555 1_555
C19H C18H 1_555 1_555
C19F C18F 1_555 1_555
H12B C19B 1_555 1_555
H12D C19D 1_555 1_555
H12J C19J 1_555 1_555
H12H C19H 1_555 1_555
H12F C19F 1_555 1_555
C20B N3B 1_555 1_555
C20D N3D 1_555 1_555
C20J N3J 1_555 1_555
C20H N3H 1_555 1_555
C20F N3F 1_555 1_555
C24K N5 1_555 1_555
H20K C24K 1_555 1_555
H21K C24K 1_555 1_555
H22K C24K 1_555 1_555
H24K N5 1_555 1_555
O5 C8 1_555 1_555
C6 C7 1_555 1_555
C13 C14 1_555 1_555
C15 C20 1_555 1_555
C19 C20 1_555 1_555
Cd1B O2B 1_555 1_555
Cd1D O2D 1_555 1_555
O3B C1B 1_555 1_555
O3F C1F 1_555 1_555
O3D C1D 1_555 1_555
O3H C1H 1_555 1_555
O5J C8J 1_555 1_555
O5B C8B 1_555 1_555
N1B N2B 1_555 1_555
N1D N2D 1_555 1_555
N1J N2J 1_555 1_555
N1H N2H 1_555 1_555
N1F N2F 1_555 1_555
N2B N3B 1_555 1_555
N2D N3D 1_555 1_555
N2J N3J 1_555 1_555
N2H N3H 1_555 1_555
N2F N3F 1_555 1_555
C4J C5J 1_555 1_555
C5B C5F 1_555 1_555
C5D C5H 1_555 1_555
C6J C7J 1_555 1_555
C6B C7B 1_555 1_555
C6F C7F 1_555 1_555
C6D C7D 1_555 1_555
C6H C7H 1_555 1_555
C11F C12F 1_555 1_555
C12J C12D 1_555 1_555
C12B C12H 1_555 1_555
C13F C14F 1_555 1_555
C13J C14J 1_555 1_555
C13D C14D 1_555 1_555
C13B C14B 1_555 1_555
C13H C14H 1_555 1_555
C15B C20B 1_555 1_555
C15D C20D 1_555 1_555
C15J C20J 1_555 1_555
C15H C20H 1_555 1_555
C15F C20F 1_555 1_555
C19B C20B 1_555 1_555
C19D C20D 1_555 1_555
C19J C20J 1_555 1_555
C19H C20H 1_555 1_555
C19F C20F 1_555 1_555

#END
