
#######################################################################
#
#                 Cambridge Crystallographic Data Centre
#                                CCDC 
#
#######################################################################
#
# If this CIF has been generated from an entry in the Cambridge 
# Structural Database, then it will include bibliographic, chemical, 
# crystal, experimental, refinement or atomic coordinate data resulting 
# from the CCDC's data processing and validation procedures.
#
#######################################################################

data_HAWZEM
_chemical_formula_moiety         '(C12 H8 Cu1 N2 O4)n,n(C3 H7 N1 O1)'
_chemical_name_systematic        
'catena-((\m~3~-isonicotinato)-(\m~2~-isonicotinato)-copper(ii) N,N-dimethylformamide solvate)'
_symmetry_cell_setting           monoclinic
_symmetry_space_group_name_H-M   'P 21/c'
_symmetry_Int_Tables_number      14
_space_group_name_Hall           '-P 2ybc'
loop_
_symmetry_equiv_pos_site_id
_symmetry_equiv_pos_as_xyz
1 x,y,z
2 -x,1/2+y,1/2-z
3 -x,-y,-z
4 x,1/2-y,1/2+z
_cell_length_a                   11.6755(3)
_cell_length_b                   12.2521(2)
_cell_length_c                   12.6399(8)
_cell_angle_alpha                90
_cell_angle_beta                 118.308(3)
_cell_angle_gamma                90
_cell_volume                     1591.9
_exptl_crystal_colour            blue
_exptl_crystal_description       sheet
_cell_formula_units_Z            4
loop_
_atom_site_label
_atom_site_type_symbol
_atom_site_fract_x
_atom_site_fract_y
_atom_site_fract_z
_atom_site_U_iso_or_equiv
_atom_site_thermal_displace_type
Cu1 Cu 0.28858(4) 0.03562(3) 0.46738(3) 0.0180 Uani
O1 O 0.4193(2) 0.0436(2) 0.3758(2) 0.0322 Uani
O2 O 0.6190(2) 0.06407(19) 0.3967(2) 0.0283 Uani
O3 O 0.1607(2) 0.13287(18) 0.34204(19) 0.0265 Uani
O4 O 0.0320(2) 0.1048(2) 0.4245(2) 0.0407 Uani
N1 N -0.1893(3) 0.4051(2) 0.1282(2) 0.0212 Uani
N2 N 0.3603(3) 0.3373(2) 0.0807(2) 0.0237 Uani
C1 C 0.0582(3) 0.1491(3) 0.3515(3) 0.0272 Uani
C2 C 0.4987(3) 0.0858(3) 0.3502(3) 0.0223 Uani
C3 C -0.0238(3) 0.2733(3) 0.1683(3) 0.0285 Uani
H1 H 0.0357 0.2426 0.1476 0.0340 Uiso
C4 C 0.4518(3) 0.1731(3) 0.2539(3) 0.0225 Uani
C5 C 0.3348(4) 0.2247(4) 0.2214(4) 0.0463 Uani
H2 H 0.2837 0.2046 0.2565 0.0550 Uiso
C6 C 0.2945(4) 0.3064(4) 0.1362(4) 0.0479 Uani
H3 H 0.2165 0.3416 0.1168 0.0570 Uiso
C7 C -0.1036(3) 0.3567(3) 0.1014(3) 0.0289 Uani
H4 H -0.0978 0.3807 0.0343 0.0340 Uiso
C8 C -0.0332(3) 0.2352(3) 0.2679(3) 0.0235 Uani
C9 C -0.1989(4) 0.3675(3) 0.2228(3) 0.0357 Uani
H5 H -0.2581 0.4002 0.2426 0.0430 Uiso
C10 C 0.5200(4) 0.2053(3) 0.1965(3) 0.0397 Uani
H6 H 0.5991 0.1722 0.2152 0.0480 Uiso
C11 C 0.4716(4) 0.2873(3) 0.1102(3) 0.0395 Uani
H7 H 0.5194 0.3077 0.0719 0.0480 Uiso
C12 C -0.1248(4) 0.2823(3) 0.2920(3) 0.0373 Uani
H8 H -0.1368 0.2566 0.3552 0.0450 Uiso
Cu1B Cu 0.71142(4) -0.03562(3) 0.53262(3) 0.0180 Uani
Cu1A Cu -0.28858(4) 0.53562(3) 0.03262(3) 0.0180 Uani
Cu1C Cu 0.28858(4) 0.46438(3) -0.03262(3) 0.0180 Uani
O2B O 0.3810(2) -0.06407(19) 0.6033(2) 0.0283 Uani
N1A N 0.1893(3) -0.0949(2) 0.3718(2) 0.0212 Uani
N2C N 0.3603(3) 0.1627(2) 0.5807(2) 0.0237 Uani
C13 C 0.6838(8) 0.1000(10) -0.0400(12) 0.2095 Uani
H9 H 0.6990 0.1289 -0.1003 0.2510 Uiso
N3 N 0.7550(5) 0.0149(4) 0.0496(5) 0.0792 Uani
C14 C 0.7345(9) -0.0380(6) 0.1399(8) 0.1464 Uani
H10 H 0.8035 -0.0892 0.1827 0.2200 Uiso
H11 H 0.6528 -0.0760 0.1027 0.2200 Uiso
H12 H 0.7334 0.0154 0.1949 0.2200 Uiso
C15 C 0.8663(7) -0.0037(6) 0.0305(9) 0.1541 Uani
H13 H 0.9213 -0.0583 0.0856 0.2320 Uiso
H14 H 0.9143 0.0631 0.0436 0.2320 Uiso
H15 H 0.8371 -0.0281 -0.0504 0.2320 Uiso
O5 O 0.6136(12) 0.1183(9) -0.0174(9) 0.2690 Uiso
loop_
_atom_site_aniso_label
_atom_site_aniso_U_11
_atom_site_aniso_U_22
_atom_site_aniso_U_33
_atom_site_aniso_U_23
_atom_site_aniso_U_13
_atom_site_aniso_U_12
Cu1 0.0183(2) 0.0131(2) 0.0182(2) -0.00037(16) 0.00512(16) 0.00037(17)
O1 0.0305(13) 0.0361(15) 0.0328(14) 0.0136(11) 0.0173(12) 0.0037(12)
O2 0.0222(12) 0.0264(13) 0.0291(13) 0.0093(10) 0.0063(11) 0.0018(10)
O3 0.0211 0.0279 0.0283 0.0097 0.01 0.0076
O4 0.0446 0.0452 0.0424 0.025 0.0289 0.0183
N1 0.0227 0.0174 0.0221 0.0003 0.0096 0.0024
N2 0.0268(15) 0.0178(14) 0.0236(15) 0.0041(12) 0.0097(13) 0.0005(13)
C1 0.0281 0.0237 0.0252 0.0046 0.0088 0.0051
C2 0.0246(19) 0.0184(17) 0.0185(17) -0.0011(14) 0.0057(15) 0.0004(15)
C3 0.0297 0.028 0.032 0.0054 0.018 0.0098
C4 0.0218(17) 0.0189(17) 0.0223(17) 0.0037(14) 0.0068(14) -0.0026(15)
C5 0.039(2) 0.058(3) 0.054(3) 0.036(2) 0.032(2) 0.021(2)
C6 0.034(2) 0.058(3) 0.060(3) 0.037(2) 0.029(2) 0.026(2)
C7 0.035 0.0268 0.0266 0.0086 0.016 0.0058
C8 0.0238 0.0218 0.0241 0.0051 0.0107 0.0034
C9 0.035 0.041 0.039 0.0149 0.0239 0.0175
C10 0.030(2) 0.043(2) 0.051(2) 0.025(2) 0.0232(19) 0.0199(19)
C11 0.036(2) 0.039(2) 0.054(3) 0.024(2) 0.030(2) 0.0103(19)
C12 0.039 0.044 0.038 0.0238 0.0257 0.0182
Cu1B 0.0183 0.0131 0.0182 -0.00037 0.00512 0.00037
Cu1A 0.0183 0.0131 0.0182 0.00037 0.00512 -0.00037
Cu1C 0.0183 0.0131 0.0182 0.00037 0.00512 -0.00037
O2B 0.0222 0.0264 0.0291 0.0093 0.0063 0.0018
N1A 0.0227(14) 0.0174(14) 0.0221(14) -0.0003(12) 0.0096(12) -0.0024(12)
N2C 0.0268 0.0178 0.0236 -0.0041 0.0097 -0.0005
C13 0.099(7) 0.228(13) 0.275(14) -0.089(12) 0.067(8) 0.071(8)
N3 0.071(3) 0.059(3) 0.096(4) 0.009(3) 0.030(3) 0.018(3)
C14 0.150(8) 0.132(8) 0.162(8) 0.059(6) 0.078(7) 0.006(6)
C15 0.080(5) 0.139(7) 0.201(10) -0.037(7) 0.032(6) 0.043(5)
loop_
_geom_bond_atom_site_label_1
_geom_bond_atom_site_label_2
_geom_bond_site_symmetry_1
_geom_bond_site_symmetry_2
Cu1 O1 1_555 1_555
O1 C2 1_555 1_555
O2 C2 1_555 1_555
O3 Cu1 1_555 1_555
O4 C1 1_555 1_555
N1 C7 1_555 1_555
N2 C6 1_555 1_555
C1 O3 1_555 1_555
C2 C4 1_555 1_555
C3 H1 1_555 1_555
C4 C5 1_555 1_555
C5 H2 1_555 1_555
C6 C5 1_555 1_555
H3 C6 1_555 1_555
C7 C3 1_555 1_555
H4 C7 1_555 1_555
C8 C1 1_555 1_555
C9 N1 1_555 1_555
H5 C9 1_555 1_555
C10 C4 1_555 1_555
H6 C10 1_555 1_555
C11 N2 1_555 1_555
H7 C11 1_555 1_555
C12 C8 1_555 1_555
H8 C12 1_555 1_555
C13 H9 1_555 1_555
N3 C13 1_555 1_555
C14 N3 1_555 1_555
H10 C14 1_555 1_555
H11 C14 1_555 1_555
H12 C14 1_555 1_555
C15 N3 1_555 1_555
H13 C15 1_555 1_555
H14 C15 1_555 1_555
H15 C15 1_555 1_555
O5 C13 1_555 1_555
Cu1B O2 1_555 1_555
Cu1A N1 1_555 1_555
Cu1C N2 1_555 1_555
O2B Cu1 1_555 1_555
N1A Cu1 1_555 1_555
N2C Cu1 1_555 1_555
C3 C8 1_555 1_555
C9 C12 1_555 1_555
C10 C11 1_555 1_555

#END
