
#######################################################################
#
#                 Cambridge Crystallographic Data Centre
#                                CCDC 
#
#######################################################################
#
# If this CIF has been generated from an entry in the Cambridge 
# Structural Database, then it will include bibliographic, chemical, 
# crystal, experimental, refinement or atomic coordinate data resulting 
# from the CCDC's data processing and validation procedures.
#
#######################################################################

data_IGINIX
_chemical_formula_moiety         '(C17 H13 N3 O9 Zn2)n,1.5n(C3 H7 N1 O1)'
_chemical_name_systematic        
'catena-[bis(\m-pyridine-2,5-dicarboxylato)-(N,N-dimethylformamide)-di-zinc N,N-dimethylformamide solvate]'
_symmetry_cell_setting           monoclinic
_symmetry_space_group_name_H-M   'P 21/n'
_symmetry_Int_Tables_number      14
_space_group_name_Hall           '-P 2yn'
loop_
_symmetry_equiv_pos_site_id
_symmetry_equiv_pos_as_xyz
1 x,y,z
2 1/2-x,1/2+y,1/2-z
3 -x,-y,-z
4 1/2+x,1/2-y,1/2+z
_cell_length_a                   14.0003(3)
_cell_length_b                   12.1692(2)
_cell_length_c                   14.6711(3)
_cell_angle_alpha                90
_cell_angle_beta                 105.867(2)
_cell_angle_gamma                90
_cell_volume                     2404.32
_exptl_crystal_colour            colorless
_exptl_crystal_description       prism
_cell_formula_units_Z            4
loop_
_atom_site_label
_atom_site_type_symbol
_atom_site_fract_x
_atom_site_fract_y
_atom_site_fract_z
_atom_site_U_iso_or_equiv
_atom_site_thermal_displace_type
Zn1 Zn 0.35037(2) 0.52140(3) 0.65771(2) 0.0116 Uani
Zn2 Zn 0.19539(2) 0.74271(2) 0.57481(2) 0.0102 Uani
O1 O 0.20978(15) 0.56795(16) 0.59683(13) 0.0125 Uani
O2 O 0.17537(19) 0.41115(18) 0.51503(16) 0.0274 Uani
O3 O -0.17637(15) 0.71376(16) 0.17490(13) 0.0147 Uani
O4 O -0.10361(17) 0.86364(17) 0.25475(15) 0.0197 Uani
O5 O 0.32892(15) 0.40174(16) 0.75069(14) 0.0154 Uani
O6 O 0.39140(15) 0.24611(16) 0.82697(13) 0.0137 Uani
O7 O 0.71226(16) 0.26643(17) 0.52288(14) 0.0162 Uani
O8 O 0.61254(19) 0.4068(2) 0.45719(17) 0.0287 Uani
O9 O 0.15546(15) 0.90057(16) 0.52613(14) 0.0142 Uani
N1 N 0.07964(17) 0.67905(19) 0.46227(15) 0.0115 Uani
N2 N 0.46331(19) 0.4075(2) 0.65702(17) 0.0164 Uani
N3 N 0.1847(2) 1.0846(2) 0.53813(19) 0.0211 Uani
C1 C 0.0804(2) 0.5691(2) 0.45302(19) 0.0131 Uani
C2 C 0.0147(2) 0.5141(2) 0.3790(2) 0.0182 Uani
H1 H 0.0149 0.4362 0.3756 0.0220 Uiso
C3 C -0.0515(2) 0.5756(2) 0.3101(2) 0.0182 Uani
H2 H -0.0975 0.5401 0.2589 0.0220 Uiso
C4 C -0.0498(2) 0.6892(2) 0.31682(19) 0.0145 Uani
C5 C 0.0164(2) 0.7376(2) 0.39546(19) 0.0135 Uani
H3 H 0.0164 0.8153 0.4016 0.0160 Uiso
C6 C 0.1603(2) 0.5083(2) 0.5262(2) 0.0156 Uani
C7 C -0.1165(2) 0.7610(2) 0.2426(2) 0.0139 Uani
C8 C 0.4622(2) 0.3166(2) 0.70909(19) 0.0146 Uani
C9 C 0.5232(2) 0.2276(3) 0.7070(2) 0.0208 Uani
H4 H 0.5231 0.1654 0.7460 0.0250 Uiso
C10 C 0.5851(2) 0.2306(3) 0.6464(2) 0.0208 Uani
H5 H 0.6268 0.1699 0.6432 0.0250 Uiso
C11 C 0.5848(2) 0.3231(2) 0.5913(2) 0.0168 Uani
C12 C 0.5251(2) 0.4110(2) 0.6018(2) 0.0189 Uani
H6 H 0.5284 0.4769 0.5680 0.0230 Uiso
C13 C 0.3880(2) 0.3214(2) 0.76761(19) 0.0126 Uani
C14 C 0.6432(2) 0.3319(2) 0.5182(2) 0.0173 Uani
C15 C 0.1996(2) 0.9825(2) 0.5685(2) 0.0164 Uani
H7 H 0.2478 0.9704 0.6273 0.0200 Uiso
C16 C 0.1146(3) 1.1114(3) 0.4474(3) 0.0333 Uani
H8 H 0.1500 1.1158 0.3984 0.0500 Uiso
H9 H 0.0832 1.1823 0.4523 0.0500 Uiso
H10 H 0.0636 1.0542 0.4305 0.0500 Uiso
C17 C 0.2460(3) 1.1734(3) 0.5901(3) 0.0322 Uani
H11 H 0.2798 1.1484 0.6543 0.0480 Uiso
H12 H 0.2039 1.2367 0.5935 0.0480 Uiso
H13 H 0.2954 1.1947 0.5573 0.0480 Uiso
Zn1B Zn 0.64963(2) 0.47860(3) 0.34229(2) 0.0116 Uani
Zn1C Zn -0.14963(2) 0.97860(3) 0.15771(2) 0.0116 Uani
Zn2A Zn 0.30461(2) 0.24271(2) 0.92519(2) 0.0102 Uani
Zn2B Zn 0.80461(2) 0.25729(2) 0.42519(2) 0.0102 Uani
Zn2C Zn -0.30461(2) 0.75729(2) 0.07481(2) 0.0102 Uani
O3C O 0.32363(15) 0.78624(16) 0.67490(13) 0.0147 Uani
O4C O 0.39639(17) 0.63636(17) 0.75475(15) 0.0197 Uani
O6A O 0.10860(15) 0.74611(16) 0.67303(13) 0.0137 Uani
O7B O 0.28774(16) 0.73357(17) 0.47712(14) 0.0162 Uani
O8B O 0.38746(19) 0.5932(2) 0.54281(17) 0.0287 Uani
N4 N 0.3025(3) 0.3932(4) 0.2925(3) 0.0518 Uani
O10 O 0.2203(7) 0.5433(7) 0.2179(6) 0.1124 Uani
C18 C 0.2431(6) 0.4805(8) 0.2892(8) 0.0634 Uani
H14 H 0.2177 0.4955 0.3417 0.0760 Uiso
C19 C 0.3461(5) 0.3621(8) 0.2231(5) 0.0492 Uani
H15 H 0.3165 0.4037 0.1650 0.0740 Uiso
H16 H 0.3353 0.2833 0.2104 0.0740 Uiso
H17 H 0.4175 0.3771 0.2444 0.0740 Uiso
C20 C 0.3211(8) 0.3266(8) 0.3790(6) 0.0785 Uani
H18 H 0.2974 0.2515 0.3625 0.1180 Uiso
H19 H 0.2859 0.3587 0.4218 0.1180 Uiso
H20 H 0.3926 0.3253 0.4103 0.1180 Uiso
O11 O 0.6469(9) -0.0738(17) 0.5475(14) 0.2500 Uiso
N5 N 0.4989(9) -0.0023(10) 0.5016(8) 0.1690 Uiso
C21 C 0.5876(10) -0.0135(14) 0.4944(11) 0.2010 Uiso
H21 H 0.6068 0.0322 0.4367 0.2410 Uiso
C22 C 0.4533(10) -0.0463(12) 0.5683(9) 0.1020 Uiso
H22 H 0.5109 -0.0983 0.6124 0.1540 Uiso
H23 H 0.4310 0.0153 0.6128 0.1540 Uiso
H24 H 0.3886 -0.0968 0.5346 0.1540 Uiso
C23 C 0.4276(15) 0.0798(14) 0.4305(11) 0.1410 Uiso
H25 H 0.3613 0.0366 0.3890 0.2110 Uiso
H26 H 0.4665 0.1132 0.3816 0.2110 Uiso
H27 H 0.4036 0.1485 0.4672 0.2110 Uiso
O11B O 0.3531(9) 0.0738(17) 0.4525(14) 0.2500 Uiso
N5B N 0.5011(9) 0.0023(10) 0.4984(8) 0.1690 Uiso
C21B C 0.4124(10) 0.0135(14) 0.5056(11) 0.2010 Uiso
H21B H 0.3932 -0.0322 0.5633 0.2410 Uiso
C22B C 0.5467(10) 0.0463(12) 0.4317(9) 0.1020 Uiso
H22B H 0.4891 0.0983 0.3876 0.1540 Uiso
H23B H 0.5690 -0.0153 0.3872 0.1540 Uiso
H24B H 0.6114 0.0968 0.4654 0.1540 Uiso
C23B C 0.5724(15) -0.0798(14) 0.5695(11) 0.1410 Uiso
H25B H 0.6387 -0.0366 0.6110 0.2110 Uiso
H26B H 0.5335 -0.1132 0.6184 0.2110 Uiso
H27B H 0.5964 -0.1485 0.5328 0.2110 Uiso
O12? O 0.2021(16) 0.5263(18) 0.2964(16) 0.1050 Uiso
C24? C 0.259(2) 0.419(2) 0.343(2) 0.0890 Uiso
H28? H 0.2566 0.3835 0.3999 0.1060 Uiso
C25? C 0.3338(17) 0.430(2) 0.2022(15) 0.0670 Uiso
H29? H 0.4053 0.4448 0.2196 0.1000 Uiso
H30? H 0.2977 0.4974 0.1762 0.1000 Uiso
H31? H 0.3178 0.3720 0.1544 0.1000 Uiso
C26? C 0.363(2) 0.279(2) 0.325(2) 0.1000 Uiso
H32? H 0.3408 0.2243 0.2750 0.1500 Uiso
H33? H 0.3491 0.2528 0.3834 0.1500 Uiso
H34? H 0.4339 0.2926 0.3366 0.1500 Uiso
loop_
_atom_site_aniso_label
_atom_site_aniso_U_11
_atom_site_aniso_U_22
_atom_site_aniso_U_33
_atom_site_aniso_U_23
_atom_site_aniso_U_13
_atom_site_aniso_U_12
Zn1 0.01227(16) 0.01092(14) 0.01161(15) 0.00146(11) 0.00315(12) 0.00218(12)
Zn2 0.00962(15) 0.00989(14) 0.00958(14) -0.00049(11) 0.00015(11) 0.00051(11)
O1 0.0126(10) 0.0119(9) 0.0114(9) -0.0002(7) 0.0006(7) 0.0005(7)
O2 0.0369(15) 0.0149(10) 0.0232(12) -0.0015(9) -0.0040(10) 0.0084(10)
O3 0.0145(10) 0.0148(9) 0.0117(9) 0.0012(7) -0.0018(8) -0.0014(8)
O4 0.0227(12) 0.0149(10) 0.0161(10) 0.0010(8) -0.0036(8) 0.0006(8)
O5 0.0162(10) 0.0132(9) 0.0181(10) 0.0045(8) 0.0069(8) 0.0025(8)
O6 0.0161(10) 0.0134(9) 0.0123(9) 0.0033(7) 0.0051(8) 0.0013(8)
O7 0.0145(10) 0.0191(10) 0.0159(10) 0.0035(8) 0.0057(8) 0.0047(8)
O8 0.0315(14) 0.0323(13) 0.0298(12) 0.0181(10) 0.0211(11) 0.0201(11)
O9 0.0151(10) 0.0102(9) 0.0150(9) -0.0003(7) 0.0003(8) 0.0005(7)
N1 0.0119(11) 0.0117(10) 0.0092(10) -0.0020(8) -0.0002(8) -0.0015(8)
N2 0.0192(13) 0.0152(11) 0.0163(12) 0.0037(9) 0.0075(10) 0.0039(9)
N3 0.0243(14) 0.0117(11) 0.0229(13) 0.0026(10) -0.0010(11) -0.0010(10)
C1 0.0140(13) 0.0109(12) 0.0127(12) -0.0001(10) 0.0006(10) 0.0006(10)
C2 0.0244(16) 0.0113(12) 0.0163(13) -0.0023(10) 0.0014(12) 0.0010(11)
C3 0.0185(15) 0.0163(13) 0.0162(13) -0.0024(11) -0.0011(11) -0.0019(11)
C4 0.0135(13) 0.0150(13) 0.0129(12) -0.0004(10) 0.0001(10) -0.0002(10)
C5 0.0143(13) 0.0111(12) 0.0138(12) 0.0018(10) 0.0016(10) 0.0017(10)
C6 0.0188(14) 0.0137(12) 0.0123(12) -0.0001(10) 0.0011(11) 0.0013(10)
C7 0.0114(13) 0.0162(13) 0.0139(12) 0.0010(10) 0.0030(10) 0.0012(10)
C8 0.0141(13) 0.0161(13) 0.0133(12) 0.0028(10) 0.0033(10) 0.0018(10)
C9 0.0236(16) 0.0168(13) 0.0250(15) 0.0087(12) 0.0118(13) 0.0071(12)
C10 0.0241(16) 0.0191(14) 0.0225(15) 0.0055(12) 0.0118(13) 0.0068(12)
C11 0.0170(14) 0.0177(13) 0.0167(13) 0.0042(11) 0.0062(11) 0.0026(11)
C12 0.0222(16) 0.0171(13) 0.0194(14) 0.0070(11) 0.0089(12) 0.0044(12)
C13 0.0135(13) 0.0130(12) 0.0106(12) -0.0019(10) 0.0023(10) -0.0023(10)
C14 0.0195(15) 0.0187(14) 0.0159(13) 0.0036(11) 0.0084(12) 0.0029(11)
C15 0.0172(14) 0.0135(12) 0.0168(13) 0.0031(11) 0.0017(11) -0.0008(11)
C16 0.032(2) 0.0215(16) 0.0356(19) 0.0137(15) -0.0092(16) 0.0019(14)
C17 0.039(2) 0.0135(14) 0.038(2) 0.0012(14) 0.0003(17) -0.0082(14)
Zn1B 0.01227 0.01092 0.01161 0.00146 0.00315 0.00218
Zn1C 0.01227 0.01092 0.01161 -0.00146 0.00315 -0.00218
Zn2A 0.00962 0.00989 0.00958 0.00049 0.00015 -0.00051
Zn2B 0.00962 0.00989 0.00958 -0.00049 0.00015 0.00051
Zn2C 0.00962 0.00989 0.00958 0.00049 0.00015 -0.00051
O3C 0.0145 0.0148 0.0117 -0.0012 -0.0018 0.0014
O4C 0.0227 0.0149 0.0161 -0.001 -0.0036 -0.0006
O6A 0.0161 0.0134 0.0123 -0.0033 0.0051 -0.0013
O7B 0.0145 0.0191 0.0159 0.0035 0.0057 0.0047
O8B 0.0315 0.0323 0.0298 0.0181 0.0211 0.0201
N4 0.046(2) 0.070(3) 0.044(2) -0.025(2) 0.0200(19) -0.021(2)
O10 0.129(7) 0.105(6) 0.093(6) 0.009(5) 0.013(5) 0.025(5)
C18 0.037(4) 0.065(5) 0.081(6) -0.030(5) 0.004(4) 0.010(4)
C19 0.035(4) 0.074(6) 0.044(4) -0.018(4) 0.020(3) -0.013(3)
C20 0.113(8) 0.071(6) 0.061(5) -0.004(4) 0.040(5) -0.014(6)
loop_
_geom_bond_atom_site_label_1
_geom_bond_atom_site_label_2
_geom_bond_site_symmetry_1
_geom_bond_site_symmetry_2
Zn1 O1 1_555 1_555
Zn2 O1 1_555 1_555
O1 C6 1_555 1_555
O2 C6 1_555 1_555
O3 C7 1_555 1_555
O4 C7 1_555 1_555
O5 Zn1 1_555 1_555
O6 C13 1_555 1_555
O7 C14 1_555 1_555
O8 C14 1_555 1_555
O9 Zn2 1_555 1_555
N1 Zn2 1_555 1_555
N2 Zn1 1_555 1_555
N3 C15 1_555 1_555
C1 N1 1_555 1_555
C2 C1 1_555 1_555
H1 C2 1_555 1_555
C3 C2 1_555 1_555
H2 C3 1_555 1_555
C4 C3 1_555 1_555
C5 N1 1_555 1_555
H3 C5 1_555 1_555
C6 C1 1_555 1_555
C7 C4 1_555 1_555
C8 N2 1_555 1_555
C9 C8 1_555 1_555
H4 C9 1_555 1_555
C10 C9 1_555 1_555
H5 C10 1_555 1_555
C11 C10 1_555 1_555
C12 N2 1_555 1_555
H6 C12 1_555 1_555
C13 O5 1_555 1_555
C14 C11 1_555 1_555
C15 O9 1_555 1_555
H7 C15 1_555 1_555
C16 N3 1_555 1_555
H8 C16 1_555 1_555
H9 C16 1_555 1_555
H10 C16 1_555 1_555
C17 N3 1_555 1_555
H11 C17 1_555 1_555
H12 C17 1_555 1_555
H13 C17 1_555 1_555
N4 C18 1_555 1_555
O10 C18 1_555 1_555
C18 H14 1_555 1_555
C19 N4 1_555 1_555
H15 C19 1_555 1_555
H16 C19 1_555 1_555
H17 C19 1_555 1_555
C20 N4 1_555 1_555
H18 C20 1_555 1_555
H19 C20 1_555 1_555
H20 C20 1_555 1_555
O11 C21 1_555 1_555
N5 C21 1_555 1_555
C21 H21 1_555 1_555
C22 N5 1_555 1_555
H22 C22 1_555 1_555
H23 C22 1_555 1_555
H24 C22 1_555 1_555
C23 N5 1_555 1_555
H25 C23 1_555 1_555
H26 C23 1_555 1_555
H27 C23 1_555 1_555
Zn1B O8 1_555 1_555
Zn1C O4 1_555 1_555
Zn2A O6 1_555 1_555
Zn2B O7 1_555 1_555
Zn2C O3 1_555 1_555
O3C Zn2 1_555 1_555
O4C Zn1 1_555 1_555
O6A Zn2 1_555 1_555
O7B Zn2 1_555 1_555
O8B Zn1 1_555 1_555
O11B C21B 1_555 1_555
N5B C21B 1_555 1_555
C21B H21B 1_555 1_555
C22B N5B 1_555 1_555
H22B C22B 1_555 1_555
H23B C22B 1_555 1_555
H24B C22B 1_555 1_555
C23B N5B 1_555 1_555
H25B C23B 1_555 1_555
H26B C23B 1_555 1_555
H27B C23B 1_555 1_555
C4 C5 1_555 1_555
C8 C13 1_555 1_555
C11 C12 1_555 1_555

#END
