
#######################################################################
#
#                 Cambridge Crystallographic Data Centre
#                                CCDC 
#
#######################################################################
#
# If this CIF has been generated from an entry in the Cambridge 
# Structural Database, then it will include bibliographic, chemical, 
# crystal, experimental, refinement or atomic coordinate data resulting 
# from the CCDC's data processing and validation procedures.
#
#######################################################################

data_LEQBUG
_chemical_name_common            PCN-921
_chemical_formula_moiety         '(C78 H72 N4 O20 Zn4)n'
_chemical_name_systematic        
"catena-((\m~16~-4',4''',4''''',4'''''''-Ethene-1,1,2,2-tetrayltetrakis(((1,1'-biphenyl)-3,5-dicarboxylate)))-tetrakis(N,N-diethylformamide)-tetra-zinc unknown solvate)"
_symmetry_cell_setting           tetragonal
_symmetry_space_group_name_H-M   'I 4/m m m'
_symmetry_Int_Tables_number      139
_space_group_name_Hall           '-I 4 2'
loop_
_symmetry_equiv_pos_site_id
_symmetry_equiv_pos_as_xyz
1 x,y,z
2 -y,x,z
3 -x,-y,z
4 y,-x,z
5 x,-y,-z
6 -x,y,-z
7 y,x,-z
8 -y,-x,-z
9 1/2+x,1/2+y,1/2+z
10 1/2-y,1/2+x,1/2+z
11 1/2-x,1/2-y,1/2+z
12 1/2+y,1/2-x,1/2+z
13 1/2+x,1/2-y,1/2-z
14 1/2-x,1/2+y,1/2-z
15 1/2+y,1/2+x,1/2-z
16 1/2-y,1/2-x,1/2-z
17 -x,-y,-z
18 y,-x,-z
19 x,y,-z
20 -y,x,-z
21 -x,y,z
22 x,-y,z
23 -y,-x,z
24 y,x,z
25 1/2-x,1/2-y,1/2-z
26 1/2+y,1/2-x,1/2-z
27 1/2+x,1/2+y,1/2-z
28 1/2-y,1/2+x,1/2-z
29 1/2-x,1/2+y,1/2+z
30 1/2+x,1/2-y,1/2+z
31 1/2-y,1/2-x,1/2+z
32 1/2+y,1/2+x,1/2+z
_cell_length_a                   19.38(2)
_cell_length_b                   19.38(2)
_cell_length_c                   35.04(4)
_cell_angle_alpha                90
_cell_angle_beta                 90
_cell_angle_gamma                90
_cell_volume                     13160.5
_exptl_crystal_colour            colorless
_exptl_crystal_description       block
_cell_formula_units_Z            4
_chemical_properties_physical    moisture-sensitive
loop_
_atom_site_label
_atom_site_type_symbol
_atom_site_fract_x
_atom_site_fract_y
_atom_site_fract_z
_atom_site_U_iso_or_equiv
_atom_site_thermal_displace_type
Zn1 Zn 0.21455(2) 0.21455(2) 0.216807(14) 0.0594 Uani
O1 O 0.31679(13) 0.21554(12) 0.20309(7) 0.0798 Uani
O2 O 0.23214(12) 0.12856(12) 0.24795(7) 0.0790 Uani
O3 O 0.17706(16) 0.17706(16) 0.16764(10) 0.1153 Uani
C1 C 0.3699(2) 0.23794(18) 0.21995(11) 0.0650 Uani
C2 C 0.43689(17) 0.22670(16) 0.19985(9) 0.0575 Uani
C3 C 0.5000 0.0762(3) 0.03597(13) 0.0690 Uani
C4 C 0.43752(17) 0.19718(17) 0.16429(9) 0.0663 Uani
H1 H 0.3948 0.1864 0.1524 0.0800 Uiso
C5 C 0.5000 0.2408(2) 0.21730(13) 0.0607 Uani
H2 H 0.5000 0.2608 0.2421 0.0730 Uiso
C6 C 0.5000 0.1484(3) 0.10538(13) 0.0700 Uani
C7 C 0.5000 0.1822(3) 0.14473(13) 0.0670 Uani
C8 C 0.4562(4) 0.1263(4) 0.0439(2) 0.0723 Uani
H3 H 0.4238 0.1384 0.0247 0.0870 Uiso
C9 C 0.5000 0.0342(3) 0.0000 0.0593 Uani
C10 C 0.4535(4) 0.1634(4) 0.0785(2) 0.0850 Uani
H4 H 0.4196 0.1981 0.0826 0.1020 Uiso
O1W O 0.21554(12) 0.31679(13) 0.20309(7) 0.0798 Uani
O2W O 0.12856(12) 0.23214(12) 0.24795(7) 0.0790 Uani
O2O O 0.37144(12) 0.26786(12) 0.25205(7) 0.0790 Uani
C1O C 0.26206(18) 0.1301(2) 0.28005(11) 0.0650 Uani
C2T C 0.56311(17) 0.22670(16) 0.19985(9) 0.0575 Uani
C3E C 0.5000 0.0762(3) -0.03597(13) 0.0690 Uani
C4T C 0.56248(17) 0.19718(17) 0.16429(9) 0.0663 Uani
C8T C 0.5438(4) 0.1263(4) 0.0439(2) 0.0723 Uani
C9B C 0.5000 -0.0342(3) 0.0000 0.0593 Uani
C10T C 0.5465(4) 0.1634(4) 0.0785(2) 0.0850 Uani
C11? C 0.5566(4) 0.0996(4) 0.09641(18) 0.0713 Uani
C12? C 0.5560(4) 0.0627(4) 0.06296(16) 0.0720 Uani
H5? H 0.5936 0.0938 0.1139 0.0850 Uiso
H6? H 0.5907 0.0295 0.0575 0.0860 Uiso
loop_
_atom_site_aniso_label
_atom_site_aniso_U_11
_atom_site_aniso_U_22
_atom_site_aniso_U_33
_atom_site_aniso_U_23
_atom_site_aniso_U_13
_atom_site_aniso_U_12
Zn1 0.0643(3) 0.0643(3) 0.0497(3) -0.0101(2) -0.0101(2) 0.0081(3)
O1 0.0638(15) 0.0995(19) 0.0760(16) -0.0228(14) -0.0005(14) 0.0026(14)
O2 0.097 0.0764 0.0636 0.0065 -0.016 0.0103
O3 0.127(2) 0.127(2) 0.092(3) -0.0514(19) -0.0514(19) 0.025(3)
C1 0.073(3) 0.059(2) 0.063(2) 0.0046(19) 0.010(2) 0.0081(19)
C2 0.066(2) 0.068(2) 0.0386(18) 0.0035(16) 0.0011(16) 0.0043(18)
C3 0.074(4) 0.103(5) 0.030(3) 0.003(3) 0.000 0.000
C4 0.057(2) 0.075(3) 0.067(2) -0.0044(19) -0.0062(18) 0.0050(19)
C5 0.076(4) 0.051(3) 0.055(3) -0.005(2) 0.000 0.000
C6 0.086(4) 0.087(4) 0.037(3) -0.002(3) 0.000 0.000
C7 0.075(4) 0.070(3) 0.056(3) 0.006(3) 0.000 0.000
C8 0.085(5) 0.084(6) 0.048(4) -0.011(4) 0.000(4) 0.000(5)
C9 0.052(4) 0.085(5) 0.041(3) 0.000 0.000 0.000
C10 0.088(6) 0.100(7) 0.067(5) 0.026(5) -0.005(5) 0.021(5)
O1W 0.0995 0.0638 0.076 -0.0005 -0.0228 0.0026
O2W 0.0764 0.097 0.0636 -0.016 0.0065 0.0103
O2O 0.0764(17) 0.097(2) 0.0636(16) -0.0160(14) 0.0065(13) 0.0103(14)
C1O 0.059 0.073 0.063 0.01 0.0046 0.0081
C2T 0.066 0.068 0.0386 0.0035 -0.0011 -0.0043
C3E 0.074 0.103 0.03 -0.003 0 0
C4T 0.057 0.075 0.067 -0.0044 0.0062 -0.005
C8T 0.085 0.084 0.048 -0.011 0 0
C9B 0.052 0.085 0.041 0 0 0
C10T 0.088 0.1 0.067 0.026 0.005 -0.021
C11? 0.067(5) 0.105(6) 0.042(4) -0.015(4) -0.008(3) 0.025(4)
C12? 0.094(6) 0.087(6) 0.035(4) -0.009(4) 0.018(4) 0.004(4)
loop_
_geom_bond_atom_site_label_1
_geom_bond_atom_site_label_2
_geom_bond_site_symmetry_1
_geom_bond_site_symmetry_2
Zn1 O1 1_555 1_555
O1 C1 1_555 1_555
O2 Zn1 1_555 1_555
O3 Zn1 1_555 1_555
C1 C2 1_555 1_555
C2 C4 1_555 1_555
C3 C8 1_555 1_555
C4 H1 1_555 1_555
C5 C2 1_555 1_555
H2 C5 1_555 1_555
C6 C7 1_555 1_555
C7 C4 1_555 1_555
C8 H3 1_555 1_555
C9 C3 1_555 1_555
C10 C6 1_555 1_555
H4 C10 1_555 1_555
O1W Zn1 1_555 1_555
O2W Zn1 1_555 1_555
O2O C1 1_555 1_555
C1O O2 1_555 1_555
C2T C5 1_555 1_555
C3E C9 1_555 1_555
C4T C7 1_555 1_555
C8T C3 1_555 1_555
C9B C9 1_555 1_555
C10T C6 1_555 1_555
C8 C10 1_555 1_555
C2T C4T 1_555 1_555
C8T C10T 1_555 1_555

#END
