
#######################################################################
#
#                 Cambridge Crystallographic Data Centre
#                                CCDC 
#
#######################################################################
#
# If this CIF has been generated from an entry in the Cambridge 
# Structural Database, then it will include bibliographic, chemical, 
# crystal, experimental, refinement or atomic coordinate data resulting 
# from the CCDC's data processing and validation procedures.
#
#######################################################################

data_LEQCAN
_chemical_name_common            PCN-922
_chemical_formula_moiety         '(C70 H56 Cu4 N4 O20)n'
_chemical_name_systematic        
"catena-((\m~16~-4',4''',4''''',4'''''''-Ethene-1,1,2,2-tetrayltetrakis(((1,1'-biphenyl)-3,5-dicarboxylate)))-tetrakis(N,N-dimethylformamide)-tetra-copper unknown solvate)"
_symmetry_cell_setting           tetragonal
_symmetry_space_group_name_H-M   'I 4/m m m'
_symmetry_Int_Tables_number      139
_space_group_name_Hall           '-I 4 2'
loop_
_symmetry_equiv_pos_site_id
_symmetry_equiv_pos_as_xyz
1 x,y,z
2 -y,x,z
3 -x,-y,z
4 y,-x,z
5 x,-y,-z
6 -x,y,-z
7 y,x,-z
8 -y,-x,-z
9 1/2+x,1/2+y,1/2+z
10 1/2-y,1/2+x,1/2+z
11 1/2-x,1/2-y,1/2+z
12 1/2+y,1/2-x,1/2+z
13 1/2+x,1/2-y,1/2-z
14 1/2-x,1/2+y,1/2-z
15 1/2+y,1/2+x,1/2-z
16 1/2-y,1/2-x,1/2-z
17 -x,-y,-z
18 y,-x,-z
19 x,y,-z
20 -y,x,-z
21 -x,y,z
22 x,-y,z
23 -y,-x,z
24 y,x,z
25 1/2-x,1/2-y,1/2-z
26 1/2+y,1/2-x,1/2-z
27 1/2+x,1/2+y,1/2-z
28 1/2-y,1/2+x,1/2-z
29 1/2-x,1/2+y,1/2+z
30 1/2+x,1/2-y,1/2+z
31 1/2-y,1/2-x,1/2+z
32 1/2+y,1/2+x,1/2+z
_cell_length_a                   18.583(16)
_cell_length_b                   18.583(16)
_cell_length_c                   35.68(3)
_cell_angle_alpha                90
_cell_angle_beta                 90
_cell_angle_gamma                90
_cell_volume                     12321.3
_exptl_crystal_colour            green
_exptl_crystal_description       block
_cell_formula_units_Z            4
loop_
_atom_site_label
_atom_site_type_symbol
_atom_site_fract_x
_atom_site_fract_y
_atom_site_fract_z
_atom_site_U_iso_or_equiv
_atom_site_thermal_displace_type
Cu1 Cu 0.21591(5) 0.21591(5) 0.27734(3) 0.0743 Uani
O1 O 0.1315(3) 0.2336(3) 0.24750(15) 0.0840 Uani
O2 O 0.1913(3) 0.2921(3) 0.20074(14) 0.0863 Uani
O3 O 0.1620(3) 0.1620(3) 0.3241(2) 0.1187 Uani
C1 C 0.1350(5) 0.2667(5) 0.2161(3) 0.0973 Uani
C2 C 0.0645(4) 0.2774(4) 0.19806(19) 0.0680 Uani
C3 C 0.0000 0.2642(5) 0.2144(3) 0.0770 Uani
H1 H 0.0000 0.2448 0.2384 0.0930 Uiso
C4 C 0.0625(4) 0.3072(4) 0.1617(2) 0.0813 Uani
H2 H 0.1058 0.3160 0.1495 0.0980 Uiso
C5 C 0.0000 0.3237(6) 0.1436(3) 0.0720 Uani
C6 C 0.0000 0.4690(6) 0.0000 0.0677 Uani
C7 C 0.0539(4) 0.4032(6) 0.0961(2) 0.0850 Uani
H3 H 0.0888 0.4146 0.1139 0.1020 Uiso
C8 C 0.0533(4) 0.4372(5) 0.0616(2) 0.0850 Uani
H4 H 0.0882 0.4714 0.0559 0.1020 Uiso
C9 C 0.0000 0.4200(5) 0.0351(2) 0.0850 Uani
C10 C 0.0000 0.3504(5) 0.1041(2) 0.0850 Uani
Cu1A Cu -0.21591(5) 0.21591(5) 0.27734(3) 0.0743 Uani
Cu1B Cu -0.21591(5) 0.78409(5) 0.27734(3) 0.0743 Uani
Cu1C Cu 0.21591(5) 0.78409(5) 0.27734(3) 0.0743 Uani
Cu1O Cu 0.28409(5) 0.28409(5) 0.22266(3) 0.0743 Uani
Cu1L Cu -0.28409(5) 0.28409(5) 0.22266(3) 0.0743 Uani
Cu1N Cu -0.28409(5) 0.71591(5) 0.22266(3) 0.0743 Uani
Cu1M Cu 0.28409(5) 0.71591(5) 0.22266(3) 0.0743 Uani
Cu1D Cu 0.21591(5) 0.78409(5) -0.27734(3) 0.0743 Uani
Cu1I Cu 0.28409(5) 0.71591(5) -0.22266(3) 0.0743 Uani
Cu1G Cu -0.21591(5) 0.78409(5) -0.27734(3) 0.0743 Uani
Cu1H Cu -0.28409(5) 0.71591(5) -0.22266(3) 0.0743 Uani
Cu1E Cu -0.21591(5) 0.21591(5) -0.27734(3) 0.0743 Uani
Cu1K Cu -0.28409(5) 0.28409(5) -0.22266(3) 0.0743 Uani
Cu1F Cu 0.21591(5) 0.21591(5) -0.27734(3) 0.0743 Uani
Cu1J Cu 0.28409(5) 0.28409(5) -0.22266(3) 0.0743 Uani
O1T O -0.1315(3) 0.2336(3) 0.24750(15) 0.0840 Uani
O1B O -0.1315(3) 0.7664(3) 0.24750(15) 0.0840 Uani
O1U O 0.1315(3) 0.7664(3) 0.24750(15) 0.0840 Uani
O1D O 0.1315(3) 0.7664(3) -0.24750(15) 0.0840 Uani
O1P O -0.1315(3) 0.7664(3) -0.24750(15) 0.0840 Uani
O1E O -0.1315(3) 0.2336(3) -0.24750(15) 0.0840 Uani
O1R O 0.1315(3) 0.2336(3) -0.24750(15) 0.0840 Uani
O1W O 0.2336(3) 0.1315(3) 0.24750(15) 0.0840 Uani
O1A O -0.2336(3) 0.1315(3) 0.24750(15) 0.0840 Uani
O1S O -0.2336(3) 0.1315(3) -0.24750(15) 0.0840 Uani
O1F O 0.2336(3) 0.1315(3) -0.24750(15) 0.0840 Uani
O2T O -0.1913(3) 0.2921(3) 0.20074(14) 0.0863 Uani
O2B O -0.1913(3) 0.7079(3) 0.20074(14) 0.0863 Uani
O2U O 0.1913(3) 0.7079(3) 0.20074(14) 0.0863 Uani
O2D O 0.1913(3) 0.7079(3) -0.20074(14) 0.0863 Uani
O2P O -0.1913(3) 0.7079(3) -0.20074(14) 0.0863 Uani
O2E O -0.1913(3) 0.2921(3) -0.20074(14) 0.0863 Uani
O2R O 0.1913(3) 0.2921(3) -0.20074(14) 0.0863 Uani
O2O O 0.2079(3) 0.3087(3) 0.29926(14) 0.0863 Uani
O2X O 0.3087(3) 0.2079(3) 0.29926(14) 0.0863 Uani
O2Y O -0.2079(3) 0.3087(3) 0.29926(14) 0.0863 Uani
O2L O -0.3087(3) 0.2079(3) 0.29926(14) 0.0863 Uani
O2K O -0.2079(3) 0.3087(3) -0.29926(14) 0.0863 Uani
O2CA O -0.3087(3) 0.2079(3) -0.29926(14) 0.0863 Uani
O2J O 0.3087(3) 0.2079(3) -0.29926(14) 0.0863 Uani
O2DA O 0.2079(3) 0.3087(3) -0.29926(14) 0.0863 Uani
O3A O -0.1620(3) 0.1620(3) 0.3241(2) 0.1187 Uani
O3E O -0.1620(3) 0.1620(3) -0.3241(2) 0.1187 Uani
O3F O 0.1620(3) 0.1620(3) -0.3241(2) 0.1187 Uani
C1T C -0.1350(5) 0.2667(5) 0.2161(3) 0.0973 Uani
C1B C -0.1350(5) 0.7333(5) 0.2161(3) 0.0973 Uani
C1U C 0.1350(5) 0.7333(5) 0.2161(3) 0.0973 Uani
C1D C 0.1350(5) 0.7333(5) -0.2161(3) 0.0973 Uani
C1P C -0.1350(5) 0.7333(5) -0.2161(3) 0.0973 Uani
C1E C -0.1350(5) 0.2667(5) -0.2161(3) 0.0973 Uani
C1R C 0.1350(5) 0.2667(5) -0.2161(3) 0.0973 Uani
C2T C -0.0645(4) 0.2774(4) 0.19806(19) 0.0680 Uani
C2B C -0.0645(4) 0.7226(4) 0.19806(19) 0.0680 Uani
C2U C 0.0645(4) 0.7226(4) 0.19806(19) 0.0680 Uani
C2D C 0.0645(4) 0.7226(4) -0.19806(19) 0.0680 Uani
C2P C -0.0645(4) 0.7226(4) -0.19806(19) 0.0680 Uani
C2E C -0.0645(4) 0.2774(4) -0.19806(19) 0.0680 Uani
C2R C 0.0645(4) 0.2774(4) -0.19806(19) 0.0680 Uani
C3B C 0.0000 0.7358(5) 0.2144(3) 0.0770 Uani
C3D C 0.0000 0.7358(5) -0.2144(3) 0.0770 Uani
C3E C 0.0000 0.2642(5) -0.2144(3) 0.0770 Uani
H1B H 0.0000 0.7552 0.2384 0.0930 Uiso
H1D H 0.0000 0.7552 -0.2384 0.0930 Uiso
H1E H 0.0000 0.2448 -0.2384 0.0930 Uiso
C4T C -0.0625(4) 0.3072(4) 0.1617(2) 0.0813 Uani
C4B C -0.0625(4) 0.6928(4) 0.1617(2) 0.0813 Uani
C4U C 0.0625(4) 0.6928(4) 0.1617(2) 0.0813 Uani
C4D C 0.0625(4) 0.6928(4) -0.1617(2) 0.0813 Uani
C4P C -0.0625(4) 0.6928(4) -0.1617(2) 0.0813 Uani
C4E C -0.0625(4) 0.3072(4) -0.1617(2) 0.0813 Uani
C4R C 0.0625(4) 0.3072(4) -0.1617(2) 0.0813 Uani
H2T H -0.1058 0.3160 0.1495 0.0980 Uiso
H2U H 0.1058 0.6840 0.1495 0.0980 Uiso
H2B H -0.1058 0.6840 0.1495 0.0980 Uiso
H2P H -0.1058 0.6840 -0.1495 0.0980 Uiso
H2D H 0.1058 0.6840 -0.1495 0.0980 Uiso
H2R H 0.1058 0.3160 -0.1495 0.0980 Uiso
H2E H -0.1058 0.3160 -0.1495 0.0980 Uiso
C5B C 0.0000 0.6763(6) 0.1436(3) 0.0720 Uani
C5D C 0.0000 0.6763(6) -0.1436(3) 0.0720 Uani
C5E C 0.0000 0.3237(6) -0.1436(3) 0.0720 Uani
C6B C 0.0000 0.5310(6) 0.0000 0.0677 Uani
C7B C -0.0539(4) 0.5968(6) 0.0961(2) 0.0850 Uani
C7U C 0.0539(4) 0.5968(6) 0.0961(2) 0.0850 Uani
C7D C 0.0539(4) 0.5968(6) -0.0961(2) 0.0850 Uani
C7P C -0.0539(4) 0.5968(6) -0.0961(2) 0.0850 Uani
C7E C -0.0539(4) 0.4032(6) -0.0961(2) 0.0850 Uani
C7R C 0.0539(4) 0.4032(6) -0.0961(2) 0.0850 Uani
C7T C -0.0539(4) 0.4032(6) 0.0961(2) 0.0850 Uani
H3B H -0.0888 0.5854 0.1139 0.1020 Uiso
H3U H 0.0888 0.5854 0.1139 0.1020 Uiso
H3D H 0.0888 0.5854 -0.1139 0.1020 Uiso
H3P H -0.0888 0.5854 -0.1139 0.1020 Uiso
H3E H -0.0888 0.4146 -0.1139 0.1020 Uiso
H3R H 0.0888 0.4146 -0.1139 0.1020 Uiso
H3T H -0.0888 0.4146 0.1139 0.1020 Uiso
C8B C -0.0533(4) 0.5628(5) 0.0616(2) 0.0850 Uani
C8U C 0.0533(4) 0.5628(5) 0.0616(2) 0.0850 Uani
C8D C 0.0533(4) 0.5628(5) -0.0616(2) 0.0850 Uani
C8P C -0.0533(4) 0.5628(5) -0.0616(2) 0.0850 Uani
C8E C -0.0533(4) 0.4372(5) -0.0616(2) 0.0850 Uani
C8R C 0.0533(4) 0.4372(5) -0.0616(2) 0.0850 Uani
C8T C -0.0533(4) 0.4372(5) 0.0616(2) 0.0850 Uani
H4U H 0.0882 0.5286 0.0559 0.1020 Uiso
H4B H -0.0882 0.5286 0.0559 0.1020 Uiso
H4P H -0.0882 0.5286 -0.0559 0.1020 Uiso
H4D H 0.0882 0.5286 -0.0559 0.1020 Uiso
H4R H 0.0882 0.4714 -0.0559 0.1020 Uiso
H4E H -0.0882 0.4714 -0.0559 0.1020 Uiso
H4T H -0.0882 0.4714 0.0559 0.1020 Uiso
C9B C 0.0000 0.5800(5) 0.0351(2) 0.0850 Uani
C9D C 0.0000 0.5800(5) -0.0351(2) 0.0850 Uani
C9E C 0.0000 0.4200(5) -0.0351(2) 0.0850 Uani
C10B C 0.0000 0.6496(5) 0.1041(2) 0.0850 Uani
C10D C 0.0000 0.6496(5) -0.1041(2) 0.0850 Uani
C10E C 0.0000 0.3504(5) -0.1041(2) 0.0850 Uani
C11? C -0.0504(4) 0.3686(6) 0.0433(2) 0.0850 Uani
C12? C -0.0507(4) 0.3342(5) 0.0778(3) 0.0850 Uani
H5? H -0.0849 0.3565 0.0254 0.1020 Uiso
H6? H -0.0858 0.2999 0.0831 0.1020 Uiso
loop_
_atom_site_aniso_label
_atom_site_aniso_U_11
_atom_site_aniso_U_22
_atom_site_aniso_U_33
_atom_site_aniso_U_23
_atom_site_aniso_U_13
_atom_site_aniso_U_12
Cu1 0.0806(7) 0.0806(7) 0.0616(8) 0.0196(5) 0.0196(5) 0.0187(8)
O1 0.091(4) 0.096(4) 0.065(3) 0.025(3) -0.003(3) 0.019(3)
O2 0.073 0.114 0.072 0.041 0.007 0.013
O3 0.138(5) 0.138(5) 0.080(5) 0.030(3) 0.030(3) -0.058(6)
C1 0.089(7) 0.105(8) 0.098(8) -0.058(7) -0.047(6) 0.031(6)
C2 0.088(6) 0.069(5) 0.047(4) -0.004(4) 0.026(4) 0.006(5)
C3 0.096(10) 0.067(8) 0.068(8) -0.038(6) 0.000 0.000
C4 0.085(6) 0.068(6) 0.091(6) -0.030(5) 0.018(5) -0.019(4)
C5 0.030(6) 0.101(9) 0.085(8) -0.002(7) 0.000 0.000
C6 0.062(9) 0.034(8) 0.107(12) 0.000 0.000 0.000
C7 0.108(5) 0.109(5) 0.038(3) 0.017(3) -0.007(4) -0.012(5)
C8 0.108(5) 0.109(5) 0.038(3) 0.017(3) -0.007(4) -0.012(5)
C9 0.108(5) 0.109(5) 0.038(3) 0.017(3) -0.007(4) -0.012(5)
C10 0.108(5) 0.109(5) 0.038(3) 0.017(3) -0.007(4) -0.012(5)
Cu1A 0.0806 0.0806 0.0616 0.0196 -0.0196 -0.0187
Cu1B 0.0806 0.0806 0.0616 -0.0196 -0.0196 0.0187
Cu1C 0.0806 0.0806 0.0616 -0.0196 0.0196 -0.0187
Cu1O 0.0806 0.0806 0.0616 0.0196 0.0196 0.0187
Cu1L 0.0806 0.0806 0.0616 0.0196 -0.0196 -0.0187
Cu1N 0.0806 0.0806 0.0616 -0.0196 -0.0196 0.0187
Cu1M 0.0806 0.0806 0.0616 -0.0196 0.0196 -0.0187
Cu1D 0.0806 0.0806 0.0616 0.0196 -0.0196 -0.0187
Cu1I 0.0806 0.0806 0.0616 0.0196 -0.0196 -0.0187
Cu1G 0.0806 0.0806 0.0616 0.0196 0.0196 0.0187
Cu1H 0.0806 0.0806 0.0616 0.0196 0.0196 0.0187
Cu1E 0.0806 0.0806 0.0616 -0.0196 0.0196 -0.0187
Cu1K 0.0806 0.0806 0.0616 -0.0196 0.0196 -0.0187
Cu1F 0.0806 0.0806 0.0616 -0.0196 -0.0196 0.0187
Cu1J 0.0806 0.0806 0.0616 -0.0196 -0.0196 0.0187
O1T 0.091 0.096 0.065 0.025 0.003 -0.019
O1B 0.091 0.096 0.065 -0.025 0.003 0.019
O1U 0.091 0.096 0.065 -0.025 -0.003 -0.019
O1D 0.091 0.096 0.065 0.025 0.003 -0.019
O1P 0.091 0.096 0.065 0.025 -0.003 0.019
O1E 0.091 0.096 0.065 -0.025 -0.003 -0.019
O1R 0.091 0.096 0.065 -0.025 0.003 0.019
O1W 0.096 0.091 0.065 -0.003 0.025 0.019
O1A 0.096 0.091 0.065 -0.003 -0.025 -0.019
O1S 0.096 0.091 0.065 0.003 0.025 -0.019
O1F 0.096 0.091 0.065 0.003 -0.025 0.019
O2T 0.073 0.114 0.072 0.041 -0.007 -0.013
O2B 0.073 0.114 0.072 -0.041 -0.007 0.013
O2U 0.073 0.114 0.072 -0.041 0.007 -0.013
O2D 0.073 0.114 0.072 0.041 -0.007 -0.013
O2P 0.073 0.114 0.072 0.041 0.007 0.013
O2E 0.073 0.114 0.072 -0.041 0.007 -0.013
O2R 0.073 0.114 0.072 -0.041 -0.007 0.013
O2O 0.114 0.073 0.072 0.007 0.041 0.013
O2X 0.073 0.114 0.072 0.041 0.007 0.013
O2Y 0.114 0.073 0.072 0.007 -0.041 -0.013
O2L 0.073 0.114 0.072 0.041 -0.007 -0.013
O2K 0.114 0.073 0.072 -0.007 0.041 -0.013
O2CA 0.073 0.114 0.072 -0.041 0.007 -0.013
O2J 0.073 0.114 0.072 -0.041 -0.007 0.013
O2DA 0.114 0.073 0.072 -0.007 -0.041 0.013
O3A 0.138 0.138 0.08 0.03 -0.03 0.058
O3E 0.138 0.138 0.08 -0.03 0.03 0.058
O3F 0.138 0.138 0.08 -0.03 -0.03 -0.058
C1T 0.089 0.105 0.098 -0.058 0.047 -0.031
C1B 0.089 0.105 0.098 0.058 0.047 0.031
C1U 0.089 0.105 0.098 0.058 -0.047 -0.031
C1D 0.089 0.105 0.098 -0.058 0.047 -0.031
C1P 0.089 0.105 0.098 -0.058 -0.047 0.031
C1E 0.089 0.105 0.098 0.058 -0.047 -0.031
C1R 0.089 0.105 0.098 0.058 0.047 0.031
C2T 0.088 0.069 0.047 -0.004 -0.026 -0.006
C2B 0.088 0.069 0.047 0.004 -0.026 0.006
C2U 0.088 0.069 0.047 0.004 0.026 -0.006
C2D 0.088 0.069 0.047 -0.004 -0.026 -0.006
C2P 0.088 0.069 0.047 -0.004 0.026 0.006
C2E 0.088 0.069 0.047 0.004 0.026 -0.006
C2R 0.088 0.069 0.047 0.004 -0.026 0.006
C3B 0.096 0.067 0.068 0.038 0 0
C3D 0.096 0.067 0.068 -0.038 0 0
C3E 0.096 0.067 0.068 0.038 0 0
C4T 0.085 0.068 0.091 -0.03 -0.018 0.019
C4B 0.085 0.068 0.091 0.03 -0.018 -0.019
C4U 0.085 0.068 0.091 0.03 0.018 0.019
C4D 0.085 0.068 0.091 -0.03 -0.018 0.019
C4P 0.085 0.068 0.091 -0.03 0.018 -0.019
C4E 0.085 0.068 0.091 0.03 0.018 0.019
C4R 0.085 0.068 0.091 0.03 -0.018 -0.019
C5B 0.03 0.101 0.085 0.002 0 0
C5D 0.03 0.101 0.085 -0.002 0 0
C5E 0.03 0.101 0.085 0.002 0 0
C6B 0.062 0.034 0.107 0 0 0
C7B 0.108 0.109 0.038 -0.017 0.007 -0.012
C7U 0.108 0.109 0.038 -0.017 -0.007 0.012
C7D 0.108 0.109 0.038 0.017 0.007 0.012
C7P 0.108 0.109 0.038 0.017 -0.007 -0.012
C7E 0.108 0.109 0.038 -0.017 -0.007 0.012
C7R 0.108 0.109 0.038 -0.017 0.007 -0.012
C7T 0.108 0.109 0.038 0.017 0.007 0.012
C8B 0.108 0.109 0.038 -0.017 0.007 -0.012
C8U 0.108 0.109 0.038 -0.017 -0.007 0.012
C8D 0.108 0.109 0.038 0.017 0.007 0.012
C8P 0.108 0.109 0.038 0.017 -0.007 -0.012
C8E 0.108 0.109 0.038 -0.017 -0.007 0.012
C8R 0.108 0.109 0.038 -0.017 0.007 -0.012
C8T 0.108 0.109 0.038 0.017 0.007 0.012
C9B 0.108 0.109 0.038 -0.017 0.007 -0.012
C9D 0.108 0.109 0.038 0.017 0.007 0.012
C9E 0.108 0.109 0.038 -0.017 -0.007 0.012
C10B 0.108 0.109 0.038 -0.017 0.007 -0.012
C10D 0.108 0.109 0.038 0.017 0.007 0.012
C10E 0.108 0.109 0.038 -0.017 -0.007 0.012
C11? 0.108(5) 0.109(5) 0.038(3) 0.017(3) -0.007(4) -0.012(5)
C12? 0.108(5) 0.109(5) 0.038(3) 0.017(3) -0.007(4) -0.012(5)
loop_
_geom_bond_atom_site_label_1
_geom_bond_atom_site_label_2
_geom_bond_site_symmetry_1
_geom_bond_site_symmetry_2
Cu1 O1 1_555 1_555
O1 C1 1_555 1_555
O2 C1 1_555 1_555
O3 Cu1 1_555 1_555
C1 C2 1_555 1_555
C2 C3 1_555 1_555
C3 H1 1_555 1_555
C4 C2 1_555 1_555
H2 C4 1_555 1_555
C5 C4 1_555 1_555
C6 C9 1_555 1_555
C7 H3 1_555 1_555
C8 C7 1_555 1_555
H4 C8 1_555 1_555
C9 C8 1_555 1_555
C10 C5 1_555 1_555
Cu1A O1T 1_555 1_555
Cu1B O1B 1_555 1_555
Cu1C O1U 1_555 1_555
Cu1O O2 1_555 1_555
Cu1L O2T 1_555 1_555
Cu1N O2B 1_555 1_555
Cu1M O2U 1_555 1_555
Cu1D O1D 1_555 1_555
Cu1I O2D 1_555 1_555
Cu1G O1P 1_555 1_555
Cu1H O2P 1_555 1_555
Cu1E O1E 1_555 1_555
Cu1K O2E 1_555 1_555
Cu1F O1R 1_555 1_555
Cu1J O2R 1_555 1_555
O1T C1T 1_555 1_555
O1B C1B 1_555 1_555
O1U C1U 1_555 1_555
O1D C1D 1_555 1_555
O1P C1P 1_555 1_555
O1E C1E 1_555 1_555
O1R C1R 1_555 1_555
O1W Cu1 1_555 1_555
O1A Cu1A 1_555 1_555
O1S Cu1E 1_555 1_555
O1F Cu1F 1_555 1_555
O2T C1T 1_555 1_555
O2B C1B 1_555 1_555
O2U C1U 1_555 1_555
O2D C1D 1_555 1_555
O2P C1P 1_555 1_555
O2E C1E 1_555 1_555
O2R C1R 1_555 1_555
O2O Cu1 1_555 1_555
O2X Cu1 1_555 1_555
O2Y Cu1A 1_555 1_555
O2L Cu1A 1_555 1_555
O2K Cu1E 1_555 1_555
O2CA Cu1E 1_555 1_555
O2J Cu1F 1_555 1_555
O2DA Cu1F 1_555 1_555
O3A Cu1A 1_555 1_555
O3E Cu1E 1_555 1_555
O3F Cu1F 1_555 1_555
C1T C2T 1_555 1_555
C1B C2B 1_555 1_555
C1U C2U 1_555 1_555
C1D C2D 1_555 1_555
C1P C2P 1_555 1_555
C1E C2E 1_555 1_555
C1R C2R 1_555 1_555
C2T C3 1_555 1_555
C2B C3B 1_555 1_555
C2U C3B 1_555 1_555
C2D C3D 1_555 1_555
C2P C3D 1_555 1_555
C2E C3E 1_555 1_555
C2R C3E 1_555 1_555
C3B H1B 1_555 1_555
C3D H1D 1_555 1_555
C3E H1E 1_555 1_555
C4T C5 1_555 1_555
C4B C2B 1_555 1_555
C4U C2U 1_555 1_555
C4D C2D 1_555 1_555
C4P C2P 1_555 1_555
C4E C2E 1_555 1_555
C4R C2R 1_555 1_555
H2T C4T 1_555 1_555
H2U C4U 1_555 1_555
H2B C4B 1_555 1_555
H2P C4P 1_555 1_555
H2D C4D 1_555 1_555
H2R C4R 1_555 1_555
H2E C4E 1_555 1_555
C5B C4B 1_555 1_555
C5D C4D 1_555 1_555
C5E C4E 1_555 1_555
C6B C6 1_555 1_555
C7B H3B 1_555 1_555
C7U H3U 1_555 1_555
C7D H3D 1_555 1_555
C7P H3P 1_555 1_555
C7E H3E 1_555 1_555
C7R H3R 1_555 1_555
C7T C10 1_555 1_555
H3T C7T 1_555 1_555
C8B C7B 1_555 1_555
C8U C7U 1_555 1_555
C8D C7D 1_555 1_555
C8P C7P 1_555 1_555
C8E C7E 1_555 1_555
C8R C7R 1_555 1_555
C8T C9 1_555 1_555
H4U C8U 1_555 1_555
H4B C8B 1_555 1_555
H4P C8P 1_555 1_555
H4D C8D 1_555 1_555
H4R C8R 1_555 1_555
H4E C8E 1_555 1_555
H4T C8T 1_555 1_555
C9B C6B 1_555 1_555
C9D C6B 1_555 1_555
C9E C6 1_555 1_555
C10B C5B 1_555 1_555
C10D C5D 1_555 1_555
C10E C5E 1_555 1_555
C7 C10 1_555 1_555
C2T C4T 1_555 1_555
C4U C5B 1_555 1_555
C4P C5D 1_555 1_555
C4R C5E 1_555 1_555
C7B C10B 1_555 1_555
C7U C10B 1_555 1_555
C7D C10D 1_555 1_555
C7P C10D 1_555 1_555
C7E C10E 1_555 1_555
C7R C10E 1_555 1_555
C7T C8T 1_555 1_555
C8B C9B 1_555 1_555
C8U C9B 1_555 1_555
C8D C9D 1_555 1_555
C8P C9D 1_555 1_555
C8E C9E 1_555 1_555
C8R C9E 1_555 1_555

#END
