
#######################################################################
#
#                 Cambridge Crystallographic Data Centre
#                                CCDC 
#
#######################################################################
#
# If this CIF has been generated from an entry in the Cambridge 
# Structural Database, then it will include bibliographic, chemical, 
# crystal, experimental, refinement or atomic coordinate data resulting 
# from the CCDC's data processing and validation procedures.
#
#######################################################################

data_HUJGEA
_chemical_name_common            FJI-H8
_chemical_formula_moiety         '(C46 H22 Cu4 O22)n'
_chemical_name_systematic        
"catena-[(\m-3,3',5,5'-tetrakis(3,5-dicarboxylatophenyl)-4,4'-dimethoxy-1,1'-biphenyl)-tetraaqua-tetra-copper unknown solvate]"
_symmetry_cell_setting           tetragonal
_symmetry_space_group_name_H-M   'P 42/n n m'
_symmetry_Int_Tables_number      134
_space_group_name_Hall           '-P 4ac 2bc'
loop_
_symmetry_equiv_pos_site_id
_symmetry_equiv_pos_as_xyz
1 x,y,z
2 1/2-y,x,1/2+z
3 1/2-x,1/2-y,z
4 y,1/2-x,1/2+z
5 x,1/2-y,1/2-z
6 1/2-x,y,1/2-z
7 y,x,-z
8 1/2-y,1/2-x,-z
9 -x,-y,-z
10 1/2+y,-x,1/2-z
11 1/2+x,1/2+y,-z
12 -y,1/2+x,1/2-z
13 -x,1/2+y,1/2+z
14 1/2+x,-y,1/2+z
15 -y,-x,z
16 1/2+y,1/2+x,z
_cell_length_a                   17.9257(3)
_cell_length_b                   17.9257(3)
_cell_length_c                   28.0627(7)
_cell_angle_alpha                90
_cell_angle_beta                 90
_cell_angle_gamma                90
_cell_volume                     9017.41
_exptl_crystal_colour            'blue green'
_exptl_crystal_description       block
_cell_formula_units_Z            4
loop_
_atom_site_label
_atom_site_type_symbol
_atom_site_fract_x
_atom_site_fract_y
_atom_site_fract_z
Cu1 Cu 0.45944(2) 0.54056(2) 0.47032(2)
Cu2 Cu 0.67568(3) 0.7500 0.2500
O1 O 0.68368(11) 0.68158(12) 0.30319(7)
O2 O 0.80701(11) 0.66571(12) 0.29451(7)
O3 O 0.55194(11) 0.55585(12) 0.43463(7)
O4 O 0.62051(11) 0.48795(12) 0.48556(7)
O5 O 0.88040(15) 0.38040(15) 0.36115(13)
O6 O 0.55675(19) 0.7500 0.2500
O7 O 0.39026(15) 0.60974(15) 0.42657(15)
C1 C 0.74515(16) 0.65254(16) 0.31353(10)
C2 C 0.74428(16) 0.59646(17) 0.35339(10)
C3 C 0.80946(17) 0.55882(18) 0.36568(11)
H1 H 0.8533 0.5661 0.3473
C4 C 0.81114(16) 0.51129(17) 0.40416(11)
C5 C 0.74671(17) 0.50125(16) 0.43051(11)
H2 H 0.7477 0.4690 0.4574
C6 C 0.67994(16) 0.53741(16) 0.41861(10)
C7 C 0.67964(16) 0.58489(16) 0.37951(10)
H3 H 0.6349 0.6096 0.3706
C8 C 0.61205(17) 0.52596(16) 0.44866(10)
C9 C 0.88230(16) 0.47643(17) 0.42127(10)
C10 C 0.91578(17) 0.50977(17) 0.45953(11)
H4 H 0.8938 0.5532 0.4730
C11 C 0.98166(18) 0.48166(18) 0.47946(14)
C12 C 0.91305(18) 0.41305(18) 0.40143(16)
C13 C 0.8254(3) 0.3254(3) 0.3711(3)
H5 H 0.8478 0.2850 0.3898
H6 H 0.8059 0.3053 0.3411
O1G O 0.81842(12) 0.81632(11) 0.69681(7)
O2G O 0.83429(12) 0.69299(11) 0.70549(7)
O3G O 0.94415(12) 0.94806(11) 0.56537(7)
O4G O 1.01205(12) 0.87949(11) 0.51444(7)
O5G O 1.11960(15) 0.61960(15) 0.63885(13)
C1G C 0.84746(16) 0.75485(16) 0.68647(10)
C2G C 0.90354(17) 0.75572(16) 0.64661(10)
C3G C 0.94118(18) 0.69054(17) 0.63432(11)
H1G H 0.9339 0.6467 0.6527
C4G C 0.98871(17) 0.68886(16) 0.59584(11)
C5G C 0.99875(16) 0.75329(17) 0.56949(11)
H2G H 1.0310 0.7523 0.5426
C6G C 0.96259(16) 0.82006(16) 0.58139(10)
C7G C 0.91511(16) 0.82036(16) 0.62049(10)
H3G H 0.8904 0.8651 0.6294
C8G C 0.97404(16) 0.88795(17) 0.55134(10)
C9G C 1.02357(17) 0.61770(16) 0.57873(10)
C10G C 0.99023(17) 0.58422(17) 0.54047(11)
H4G H 0.9468 0.6062 0.5270
C11G C 1.01834(18) 0.51834(18) 0.52054(14)
C12G C 1.08695(18) 0.58695(18) 0.59857(16)
C13G C 1.1746(3) 0.6746(3) 0.6289(3)
H5G H 1.2150 0.6522 0.6102
H6G H 1.1947 0.6941 0.6589
O1H O 1.31632(11) 0.31842(12) 0.69681(7)
O2H O 1.19299(11) 0.33429(12) 0.70549(7)
O3H O 1.44806(11) 0.44415(12) 0.56537(7)
O4H O 1.37949(11) 0.51205(12) 0.51444(7)
C1H C 1.25485(16) 0.34746(16) 0.68647(10)
C2H C 1.25572(16) 0.40354(17) 0.64661(10)
C3H C 1.19054(17) 0.44118(18) 0.63432(11)
H1H H 1.1467 0.4339 0.6527
C4H C 1.18886(16) 0.48871(17) 0.59584(11)
C5H C 1.25329(17) 0.49875(16) 0.56949(11)
H2H H 1.2523 0.5310 0.5426
C6H C 1.32006(16) 0.46259(16) 0.58139(10)
C7H C 1.32036(16) 0.41511(16) 0.62049(10)
H3H H 1.3651 0.3904 0.6294
C8H C 1.38795(17) 0.47404(16) 0.55134(10)
C9H C 1.11770(16) 0.52357(17) 0.57873(10)
C10H C 1.08422(17) 0.49023(17) 0.54047(11)
H4H H 1.1062 0.4468 0.5270
H5H H 1.1522 0.7150 0.6102
O1O O 1.18158(12) 0.18368(11) 0.30319(7)
O2O O 1.16571(12) 0.30701(11) 0.29451(7)
O3O O 1.05585(12) 0.05194(11) 0.43463(7)
O4O O 0.98795(12) 0.12051(11) 0.48556(7)
C1O C 1.15254(16) 0.24515(16) 0.31353(10)
C2O C 1.09646(17) 0.24428(16) 0.35339(10)
C3O C 1.05882(18) 0.30946(17) 0.36568(11)
H1O H 1.0661 0.3533 0.3473
C4O C 1.01129(17) 0.31114(16) 0.40416(11)
C5O C 1.00125(16) 0.24671(17) 0.43051(11)
H2O H 0.9690 0.2477 0.4574
C6O C 1.03741(16) 0.17994(16) 0.41861(10)
C7O C 1.08489(16) 0.17964(16) 0.37951(10)
H3O H 1.1096 0.1349 0.3706
C8O C 1.02596(16) 0.11205(17) 0.44866(10)
C9O C 0.97643(17) 0.38230(16) 0.42127(10)
C10O C 1.00977(17) 0.41578(17) 0.45953(11)
H4O H 1.0532 0.3938 0.4730
H5O H 0.7850 0.3478 0.3898
Cu1B Cu 1.04056(2) -0.04056(2) 0.47032(2)
O7B O 1.10974(15) -0.10974(15) 0.42657(15)
Cu2B Cu 0.82432(3) 0.7500 0.2500
O6B O 0.94325(19) 0.7500 0.2500
Cu1_2 Cu 1.45944(2) 0.54056(2) 0.47032(2)
Cu1B_2 Cu 1.04056(2) 0.95944(2) 0.47032(2)
Cu1F Cu 0.54056(2) 0.45944(2) 0.52968(2)
Cu1F_2 Cu 1.54056(2) 0.45944(2) 0.52968(2)
Cu1G Cu 0.95944(2) 0.04056(2) 0.52968(2)
Cu1G_2 Cu 0.95944(2) 1.04056(2) 0.52968(2)
Cu2A Cu 0.7500 0.67568(3) 0.7500
Cu2C Cu 0.7500 0.82432(3) 0.7500
Cu2H Cu 1.32432(3) 0.2500 0.7500
Cu2I Cu 1.2500 0.32432(3) 0.2500
Cu2J Cu 1.17568(3) 0.2500 0.7500
Cu2K Cu 1.2500 0.17568(3) 0.2500
O1B O 0.81632(11) 0.81842(12) 0.30319(7)
O1D O 0.68368(11) 0.81842(12) 0.19681(7)
O1E O 0.81632(11) 0.68158(12) 0.19681(7)
O2B O 0.69299(11) 0.83429(12) 0.29451(7)
O2D O 0.80701(11) 0.83429(12) 0.20549(7)
O2E O 0.69299(11) 0.66571(12) 0.20549(7)
O3B O 0.94806(11) -0.05585(12) 0.43463(7)
O3N O 0.44415(12) 0.44806(11) 0.43463(7)
O4F O 0.48795(12) 0.62051(11) 0.51444(7)
O4G_2 O 1.01205(12) -0.12051(11) 0.51444(7)
O4H_2 O 0.37949(11) 0.51205(12) 0.51444(7)
O4J O 1.12051(11) -0.01205(12) 0.51444(7)
loop_
_geom_bond_atom_site_label_1
_geom_bond_atom_site_label_2
_geom_bond_site_symmetry_1
_geom_bond_site_symmetry_2
Cu1 O3 1_555 1_555
Cu2 O1 1_555 1_555
O1 C1 1_555 1_555
O2 C1 1_555 1_555
O3 C8 1_555 1_555
O4 C8 1_555 1_555
O5 C12 1_555 1_555
O6 Cu2 1_555 1_555
O7 Cu1 1_555 1_555
C1 C2 1_555 1_555
C2 C3 1_555 1_555
C3 H1 1_555 1_555
C4 C3 1_555 1_555
C5 C4 1_555 1_555
H2 C5 1_555 1_555
C6 C5 1_555 1_555
C7 C2 1_555 1_555
H3 C7 1_555 1_555
C8 C6 1_555 1_555
C9 C4 1_555 1_555
C10 C9 1_555 1_555
H4 C10 1_555 1_555
C11 C10 1_555 1_555
C12 C9 1_555 1_555
C13 O5 1_555 1_555
H5 C13 1_555 1_555
H6 C13 1_555 1_555
O1G C1G 1_555 1_555
O2G C1G 1_555 1_555
O3G C8G 1_555 1_555
O4G C8G 1_555 1_555
O5G C12G 1_555 1_555
C1G C2G 1_555 1_555
C2G C3G 1_555 1_555
C3G H1G 1_555 1_555
C4G C3G 1_555 1_555
C5G C4G 1_555 1_555
H2G C5G 1_555 1_555
C6G C5G 1_555 1_555
C7G C2G 1_555 1_555
H3G C7G 1_555 1_555
C8G C6G 1_555 1_555
C9G C4G 1_555 1_555
C10G C9G 1_555 1_555
H4G C10G 1_555 1_555
C11G C11 1_555 1_555
C12G C9G 1_555 1_555
C13G O5G 1_555 1_555
H5G C13G 1_555 1_555
H6G C13G 1_555 1_555
O1H C1H 1_555 1_555
O2H C1H 1_555 1_555
O3H C8H 1_555 1_555
O4H C8H 1_555 1_555
C1H C2H 1_555 1_555
C2H C3H 1_555 1_555
C3H H1H 1_555 1_555
C4H C3H 1_555 1_555
C5H C4H 1_555 1_555
H2H C5H 1_555 1_555
C6H C5H 1_555 1_555
C7H C2H 1_555 1_555
H3H C7H 1_555 1_555
C8H C6H 1_555 1_555
C9H C12G 1_555 1_555
C10H C11G 1_555 1_555
H4H C10H 1_555 1_555
H5H C13G 1_555 1_555
O1O C1O 1_555 1_555
O2O C1O 1_555 1_555
O3O C8O 1_555 1_555
O4O C8O 1_555 1_555
C1O C2O 1_555 1_555
C2O C3O 1_555 1_555
C3O H1O 1_555 1_555
C4O C3O 1_555 1_555
C5O C4O 1_555 1_555
H2O C5O 1_555 1_555
C6O C5O 1_555 1_555
C7O C2O 1_555 1_555
H3O C7O 1_555 1_555
C8O C6O 1_555 1_555
C9O C12 1_555 1_555
C10O C11 1_555 1_555
H4O C10O 1_555 1_555
H5O C13 1_555 1_555
Cu1B O3O 1_555 1_555
O7B Cu1B 1_555 1_555
Cu2B O2 1_555 1_555
O6B Cu2B 1_555 1_555
Cu1_2 O4H 1_555 1_555
Cu1B_2 O4G 1_555 1_555
Cu1F O4 1_555 1_555
Cu1F_2 O3H 1_555 1_555
Cu1G O4O 1_555 1_555
Cu1G_2 O3G 1_555 1_555
Cu2A O2G 1_555 1_555
Cu2C O1G 1_555 1_555
Cu2H O1H 1_555 1_555
Cu2I O2O 1_555 1_555
Cu2J O2H 1_555 1_555
Cu2K O1O 1_555 1_555
O1B Cu2B 1_555 1_555
O1D Cu2 1_555 1_555
O1E Cu2B 1_555 1_555
O2B Cu2 1_555 1_555
O2D Cu2B 1_555 1_555
O2E Cu2 1_555 1_555
O3B Cu1B 1_555 1_555
O3N Cu1 1_555 1_555
O4F Cu1 1_555 1_555
O4G_2 Cu1B 1_555 1_555
O4H_2 Cu1 1_555 1_555
O4J Cu1B 1_555 1_555
C6 C7 1_555 1_555
C6G C7G 1_555 1_555
C10G C11G 1_555 1_555
C4H C9H 1_555 1_555
C6H C7H 1_555 1_555
C9H C10H 1_555 1_555
C4O C9O 1_555 1_555
C6O C7O 1_555 1_555
C9O C10O 1_555 1_555

#END
