
#######################################################################
#
#                 Cambridge Crystallographic Data Centre
#                                CCDC 
#
#######################################################################
#
# If this CIF has been generated from an entry in the Cambridge 
# Structural Database, then it will include bibliographic, chemical, 
# crystal, experimental, refinement or atomic coordinate data resulting 
# from the CCDC's data processing and validation procedures.
#
#######################################################################

data_NUSXEG
_chemical_name_common            PCN-224FeO!2$
_chemical_formula_moiety         '(C144 H116 Fe3 N12 O70 Zr12)n'
_chemical_name_systematic        
"catena-[tris(\m~9~-4,4',4'',4'''-(Porphyrinato-5,10,15,20-tetrayl)tetrabenzoato)-octakis(\m~3~-hydroxo)-octakis(\m~3~-oxo)-dodecahydroxy-dodeca-aqua-tris(dioxygen)-tri-iron(ii)-dodeca-zirconium unknown solvate]"
_symmetry_cell_setting           cubic
_symmetry_space_group_name_H-M   'I m -3 m'
_symmetry_Int_Tables_number      229
_space_group_name_Hall           '-I 4 2 3'
loop_
_symmetry_equiv_pos_site_id
_symmetry_equiv_pos_as_xyz
1 x,y,z
2 -y,x,z
3 -x,-y,z
4 y,-x,z
5 x,-z,y
6 x,-y,-z
7 x,z,-y
8 z,y,-x
9 -x,y,-z
10 -z,y,x
11 z,x,y
12 y,z,x
13 -y,-z,x
14 z,-x,-y
15 -y,z,-x
16 -z,-x,y
17 -z,x,-y
18 y,-z,-x
19 y,x,-z
20 -y,-x,-z
21 -x,z,y
22 -x,-z,-y
23 z,-y,x
24 -z,-y,-x
25 1/2+x,1/2+y,1/2+z
26 1/2-y,1/2+x,1/2+z
27 1/2-x,1/2-y,1/2+z
28 1/2+y,1/2-x,1/2+z
29 1/2+x,1/2-z,1/2+y
30 1/2+x,1/2-y,1/2-z
31 1/2+x,1/2+z,1/2-y
32 1/2+z,1/2+y,1/2-x
33 1/2-x,1/2+y,1/2-z
34 1/2-z,1/2+y,1/2+x
35 1/2+z,1/2+x,1/2+y
36 1/2+y,1/2+z,1/2+x
37 1/2-y,1/2-z,1/2+x
38 1/2+z,1/2-x,1/2-y
39 1/2-y,1/2+z,1/2-x
40 1/2-z,1/2-x,1/2+y
41 1/2-z,1/2+x,1/2-y
42 1/2+y,1/2-z,1/2-x
43 1/2+y,1/2+x,1/2-z
44 1/2-y,1/2-x,1/2-z
45 1/2-x,1/2+z,1/2+y
46 1/2-x,1/2-z,1/2-y
47 1/2+z,1/2-y,1/2+x
48 1/2-z,1/2-y,1/2-x
49 -x,-y,-z
50 y,-x,-z
51 x,y,-z
52 -y,x,-z
53 -x,z,-y
54 -x,y,z
55 -x,-z,y
56 -z,-y,x
57 x,-y,z
58 z,-y,-x
59 -z,-x,-y
60 -y,-z,-x
61 y,z,-x
62 -z,x,y
63 y,-z,x
64 z,x,-y
65 z,-x,y
66 -y,z,x
67 -y,-x,z
68 y,x,z
69 x,-z,-y
70 x,z,y
71 -z,y,-x
72 z,y,x
73 1/2-x,1/2-y,1/2-z
74 1/2+y,1/2-x,1/2-z
75 1/2+x,1/2+y,1/2-z
76 1/2-y,1/2+x,1/2-z
77 1/2-x,1/2+z,1/2-y
78 1/2-x,1/2+y,1/2+z
79 1/2-x,1/2-z,1/2+y
80 1/2-z,1/2-y,1/2+x
81 1/2+x,1/2-y,1/2+z
82 1/2+z,1/2-y,1/2-x
83 1/2-z,1/2-x,1/2-y
84 1/2-y,1/2-z,1/2-x
85 1/2+y,1/2+z,1/2-x
86 1/2-z,1/2+x,1/2+y
87 1/2+y,1/2-z,1/2+x
88 1/2+z,1/2+x,1/2-y
89 1/2+z,1/2-x,1/2+y
90 1/2-y,1/2+z,1/2+x
91 1/2-y,1/2-x,1/2+z
92 1/2+y,1/2+x,1/2+z
93 1/2+x,1/2-z,1/2-y
94 1/2+x,1/2+z,1/2+y
95 1/2-z,1/2+y,1/2-x
96 1/2+z,1/2+y,1/2+x
_cell_length_a                   38.6484(19)
_cell_length_b                   38.6484(19)
_cell_length_c                   38.6484(19)
_cell_angle_alpha                90
_cell_angle_beta                 90
_cell_angle_gamma                90
_cell_volume                     57729.1
_exptl_crystal_description       cube
_cell_formula_units_Z            4
loop_
_atom_site_label
_atom_site_type_symbol
_atom_site_fract_x
_atom_site_fract_y
_atom_site_fract_z
_atom_site_U_iso_or_equiv
_atom_site_thermal_displace_type
O1 O 0.21738(6) 0.21738(6) 0.21738(6) 0.0368 Uani
O2 O 0.28976(9) 0.23492(9) 0.23492(9) 0.0376 Uani
N1 N 0.5000 0.25017(10) 0.05216(6) 0.0634 Uani
C1 C 0.40964(5) 0.2500 0.09036(5) 0.0653 Uani
C2 C 0.48266(5) 0.24697(9) 0.10889(5) 0.0705 Uani
H1 H 0.4681 0.2457 0.1286 0.0850 Uiso
C3 C 0.47169(5) 0.24923(9) 0.07357(5) 0.0643 Uani
C4 C 0.35887(5) 0.2500 0.14113(5) 0.0703 Uani
C5 C 0.39090(7) 0.22023(10) 0.09672(7) 0.0779 Uani
H2 H 0.3954 0.1999 0.0837 0.0940 Uiso
C6 C 0.36523(7) 0.22010(10) 0.12241(7) 0.0785 Uani
H3 H 0.3523 0.1997 0.1269 0.0940 Uiso
C7 C 0.43720(5) 0.2500 0.06280(5) 0.0655 Uani
Zr1 Zr 0.26622(2) 0.20159(2) 0.20159(2) 0.0373 Uani
O3 O 0.31463(5) 0.22219(6) 0.17251(5) 0.0926 Uani
C8 C 0.33142(6) 0.2500 0.16858(6) 0.0839 Uani
Fe1 Fe 0.5000 0.26364(5) 0.0000 0.0673 Uani
O4 O 0.2454(2) 0.1514(2) 0.1902(4) 0.2200 Uani
O5 O 0.5000 0.3099(3) 0.0000 0.0817 Uani
O6 O 0.4860(16) 0.324(2) -0.0219(12) 0.0907 Uani
N1UA N 0.44784(6) 0.24983(10) 0.0000 0.0634 Uani
C2UA C 0.39111(5) 0.25303(9) 0.01734(5) 0.0705 Uani
H1UA H 0.3714 0.2543 0.0319 0.0850 Uiso
C3UA C 0.42643(5) 0.25077(9) 0.02831(5) 0.0643 Uani
C5UA C 0.40328(7) 0.27977(10) 0.10910(7) 0.0779 Uani
H2UA H 0.4163 0.3001 0.1046 0.0940 Uiso
C6UA C 0.37759(7) 0.27990(10) 0.13477(7) 0.0785 Uani
H3UA H 0.3731 0.3003 0.1477 0.0940 Uiso
O3UA O 0.32749(5) 0.27781(6) 0.18537(5) 0.0926 Uani
C1AB C 0.59036(5) 0.2500 0.09036(5) 0.0653 Uani
C2AB C 0.51734(5) 0.24697(9) 0.10889(5) 0.0705 Uani
H1AB H 0.5319 0.2457 0.1286 0.0850 Uiso
C3AB C 0.52831(5) 0.24923(9) 0.07357(5) 0.0643 Uani
C4AB C 0.64113(5) 0.2500 0.14113(5) 0.0703 Uani
C5AB C 0.60910(7) 0.22023(10) 0.09672(7) 0.0779 Uani
H2AB H 0.6046 0.1999 0.0837 0.0940 Uiso
C6AB C 0.63477(7) 0.22010(10) 0.12241(7) 0.0785 Uani
H3AB H 0.6477 0.1997 0.1269 0.0940 Uiso
C7AB C 0.56280(5) 0.2500 0.06280(5) 0.0655 Uani
O3AB O 0.68537(5) 0.22219(6) 0.17251(5) 0.0926 Uani
C8AB C 0.66858(6) 0.2500 0.16858(6) 0.0839 Uani
C1XA C 0.40964(5) 0.2500 -0.09036(5) 0.0653 Uani
C2AC C 0.39111(5) 0.25303(9) -0.01734(5) 0.0705 Uani
H1AC H 0.3714 0.2543 -0.0319 0.0850 Uiso
C3AC C 0.42643(5) 0.25077(9) -0.02831(5) 0.0643 Uani
C4XA C 0.35887(5) 0.2500 -0.14113(5) 0.0703 Uani
C5AC C 0.40328(7) 0.27977(10) -0.10910(7) 0.0779 Uani
H2AC H 0.4163 0.3001 -0.1046 0.0940 Uiso
C6AC C 0.37759(7) 0.27990(10) -0.13477(7) 0.0785 Uani
H3AC H 0.3731 0.3003 -0.1477 0.0940 Uiso
C7XA C 0.43720(5) 0.2500 -0.06280(5) 0.0655 Uani
O3AC O 0.32749(5) 0.27781(6) -0.18537(5) 0.0926 Uani
C8XA C 0.33142(6) 0.2500 -0.16858(6) 0.0839 Uani
N1TA N 0.55216(6) 0.24983(10) 0.0000 0.0634 Uani
C2CC C 0.60889(5) 0.25303(9) 0.01734(5) 0.0705 Uani
H1CC H 0.6286 0.2543 0.0319 0.0850 Uiso
C3CC C 0.57357(5) 0.25077(9) 0.02831(5) 0.0643 Uani
C5CC C 0.59672(7) 0.27977(10) 0.10910(7) 0.0779 Uani
H2CC H 0.5837 0.3001 0.1046 0.0940 Uiso
C6CC C 0.62241(7) 0.27990(10) 0.13477(7) 0.0785 Uani
H3CC H 0.6269 0.3003 0.1477 0.0940 Uiso
O3CC O 0.67251(5) 0.27781(6) 0.18537(5) 0.0926 Uani
C1H C 0.59036(5) 0.2500 -0.09036(5) 0.0653 Uani
C2TA C 0.60889(5) 0.25303(9) -0.01734(5) 0.0705 Uani
H1TA H 0.6286 0.2543 -0.0319 0.0850 Uiso
C3TA C 0.57357(5) 0.25077(9) -0.02831(5) 0.0643 Uani
C4H C 0.64113(5) 0.2500 -0.14113(5) 0.0703 Uani
C5TA C 0.59672(7) 0.27977(10) -0.10910(7) 0.0779 Uani
H2TA H 0.5837 0.3001 -0.1046 0.0940 Uiso
C6TA C 0.62241(7) 0.27990(10) -0.13477(7) 0.0785 Uani
H3TA H 0.6269 0.3003 -0.1477 0.0940 Uiso
C7H C 0.56280(5) 0.2500 -0.06280(5) 0.0655 Uani
O3TA O 0.67251(5) 0.27781(6) -0.18537(5) 0.0926 Uani
C8H C 0.66858(6) 0.2500 -0.16858(6) 0.0839 Uani
N1H N 0.5000 0.25017(10) -0.05216(6) 0.0634 Uani
C2XA C 0.48266(5) 0.24697(9) -0.10889(5) 0.0705 Uani
H1XA H 0.4681 0.2457 -0.1286 0.0850 Uiso
C3XA C 0.47169(5) 0.24923(9) -0.07357(5) 0.0643 Uani
C5XA C 0.39090(7) 0.22023(10) -0.09672(7) 0.0779 Uani
H2XA H 0.3954 0.1999 -0.0837 0.0940 Uiso
C6XA C 0.36523(7) 0.22010(10) -0.12241(7) 0.0785 Uani
H3XA H 0.3523 0.1997 -0.1269 0.0940 Uiso
O3XA O 0.31463(5) 0.22219(6) -0.17251(5) 0.0926 Uani
C2H C 0.51734(5) 0.24697(9) -0.10889(5) 0.0705 Uani
H1H H 0.5319 0.2457 -0.1286 0.0850 Uiso
C3H C 0.52831(5) 0.24923(9) -0.07357(5) 0.0643 Uani
C5H C 0.60910(7) 0.22023(10) -0.09672(7) 0.0779 Uani
H2H H 0.6046 0.1999 -0.0837 0.0940 Uiso
C6H C 0.63477(7) 0.22010(10) -0.12241(7) 0.0785 Uani
H3H H 0.6477 0.1997 -0.1269 0.0940 Uiso
O3H O 0.68537(5) 0.22219(6) -0.17251(5) 0.0926 Uani
O6H O 0.5140(16) 0.324(2) 0.0219(12) 0.0907 Uani
O6XA O 0.4860(16) 0.324(2) 0.0219(12) 0.0907 Uani
O6AB O 0.5140(16) 0.324(2) -0.0219(12) 0.0907 Uani
O1C O 0.21738(6) -0.21738(6) 0.21738(6) 0.0368 Uani
O2D O 0.28976(9) -0.23492(9) 0.23492(9) 0.0376 Uani
N1D N 0.5000 -0.05216(6) 0.25017(10) 0.0634 Uani
C1D C 0.40964(5) -0.09036(5) 0.2500 0.0653 Uani
C2D C 0.48266(5) -0.10889(5) 0.24697(9) 0.0705 Uani
H1D H 0.4681 -0.1286 0.2457 0.0850 Uiso
C3D C 0.47169(5) -0.07357(5) 0.24923(9) 0.0643 Uani
C4D C 0.35887(5) -0.14113(5) 0.2500 0.0703 Uani
C5D C 0.39090(7) -0.09672(7) 0.22023(10) 0.0779 Uani
H2D H 0.3954 -0.0837 0.1999 0.0940 Uiso
C6D C 0.36523(7) -0.12241(7) 0.22010(10) 0.0785 Uani
H3D H 0.3523 -0.1269 0.1997 0.0940 Uiso
C7D C 0.43720(5) -0.06280(5) 0.2500 0.0655 Uani
Zr1D Zr 0.26622(2) -0.20159(2) 0.20159(2) 0.0373 Uani
O3D O 0.31463(5) -0.17251(5) 0.22219(6) 0.0926 Uani
C8D C 0.33142(6) -0.16858(6) 0.2500 0.0839 Uani
Fe1D Fe 0.5000 0.0000 0.26364(5) 0.0673 Uani
O4D O 0.2454(2) -0.1902(4) 0.1514(2) 0.2200 Uani
O5D O 0.5000 0.0000 0.3099(3) 0.0817 Uani
O6D O 0.4860(16) 0.0219(12) 0.324(2) 0.0907 Uani
N1NA N 0.44784(6) 0.0000 0.24983(10) 0.0634 Uani
C2NA C 0.39111(5) -0.01734(5) 0.25303(9) 0.0705 Uani
H1NA H 0.3714 -0.0319 0.2543 0.0850 Uiso
C3NA C 0.42643(5) -0.02831(5) 0.25077(9) 0.0643 Uani
C5NA C 0.40328(7) -0.10910(7) 0.27977(10) 0.0779 Uani
H2NA H 0.4163 -0.1046 0.3001 0.0940 Uiso
C6NA C 0.37759(7) -0.13477(7) 0.27990(10) 0.0785 Uani
H3NA H 0.3731 -0.1477 0.3003 0.0940 Uiso
O3NA O 0.32749(5) -0.18537(5) 0.27781(6) 0.0926 Uani
C1BB C 0.59036(5) -0.09036(5) 0.2500 0.0653 Uani
C2BB C 0.51734(5) -0.10889(5) 0.24697(9) 0.0705 Uani
H1BB H 0.5319 -0.1286 0.2457 0.0850 Uiso
C3BB C 0.52831(5) -0.07357(5) 0.24923(9) 0.0643 Uani
C4BB C 0.64113(5) -0.14113(5) 0.2500 0.0703 Uani
C5BB C 0.60910(7) -0.09672(7) 0.22023(10) 0.0779 Uani
H2BB H 0.6046 -0.0837 0.1999 0.0940 Uiso
C6BB C 0.63477(7) -0.12241(7) 0.22010(10) 0.0785 Uani
H3BB H 0.6477 -0.1269 0.1997 0.0940 Uiso
C7BB C 0.56280(5) -0.06280(5) 0.2500 0.0655 Uani
O3BB O 0.68537(5) -0.17251(5) 0.22219(6) 0.0926 Uani
C8BB C 0.66858(6) -0.16858(6) 0.2500 0.0839 Uani
C1QB C 0.40964(5) 0.09036(5) 0.2500 0.0653 Uani
C2DC C 0.39111(5) 0.01734(5) 0.25303(9) 0.0705 Uani
H1DC H 0.3714 0.0319 0.2543 0.0850 Uiso
C3DC C 0.42643(5) 0.02831(5) 0.25077(9) 0.0643 Uani
C4QB C 0.35887(5) 0.14113(5) 0.2500 0.0703 Uani
C5DC C 0.40328(7) 0.10910(7) 0.27977(10) 0.0779 Uani
H2DC H 0.4163 0.1046 0.3001 0.0940 Uiso
C6DC C 0.37759(7) 0.13477(7) 0.27990(10) 0.0785 Uani
H3DC H 0.3731 0.1477 0.3003 0.0940 Uiso
C7QB C 0.43720(5) 0.06280(5) 0.2500 0.0655 Uani
O3DC O 0.32749(5) 0.18537(5) 0.27781(6) 0.0926 Uani
C8QB C 0.33142(6) 0.16858(6) 0.2500 0.0839 Uani
N1KA N 0.55216(6) 0.0000 0.24983(10) 0.0634 Uani
C2IC C 0.60889(5) -0.01734(5) 0.25303(9) 0.0705 Uani
H1IC H 0.6286 -0.0319 0.2543 0.0850 Uiso
C3IC C 0.57357(5) -0.02831(5) 0.25077(9) 0.0643 Uani
C5IC C 0.59672(7) -0.10910(7) 0.27977(10) 0.0779 Uani
H2IC H 0.5837 -0.1046 0.3001 0.0940 Uiso
C6IC C 0.62241(7) -0.13477(7) 0.27990(10) 0.0785 Uani
H3IC H 0.6269 -0.1477 0.3003 0.0940 Uiso
O3IC O 0.67251(5) -0.18537(5) 0.27781(6) 0.0926 Uani
C1T C 0.59036(5) 0.09036(5) 0.2500 0.0653 Uani
C2KA C 0.60889(5) 0.01734(5) 0.25303(9) 0.0705 Uani
H1KA H 0.6286 0.0319 0.2543 0.0850 Uiso
C3KA C 0.57357(5) 0.02831(5) 0.25077(9) 0.0643 Uani
C4T C 0.64113(5) 0.14113(5) 0.2500 0.0703 Uani
C5KA C 0.59672(7) 0.10910(7) 0.27977(10) 0.0779 Uani
H2KA H 0.5837 0.1046 0.3001 0.0940 Uiso
C6KA C 0.62241(7) 0.13477(7) 0.27990(10) 0.0785 Uani
H3KA H 0.6269 0.1477 0.3003 0.0940 Uiso
C7T C 0.56280(5) 0.06280(5) 0.2500 0.0655 Uani
O3KA O 0.67251(5) 0.18537(5) 0.27781(6) 0.0926 Uani
C8T C 0.66858(6) 0.16858(6) 0.2500 0.0839 Uani
N1T N 0.5000 0.05216(6) 0.25017(10) 0.0634 Uani
C2QB C 0.48266(5) 0.10889(5) 0.24697(9) 0.0705 Uani
H1QB H 0.4681 0.1286 0.2457 0.0850 Uiso
C3QB C 0.47169(5) 0.07357(5) 0.24923(9) 0.0643 Uani
C5QB C 0.39090(7) 0.09672(7) 0.22023(10) 0.0779 Uani
H2QB H 0.3954 0.0837 0.1999 0.0940 Uiso
C6QB C 0.36523(7) 0.12241(7) 0.22010(10) 0.0785 Uani
H3QB H 0.3523 0.1269 0.1997 0.0940 Uiso
O3QB O 0.31463(5) 0.17251(5) 0.22219(6) 0.0926 Uani
C2T C 0.51734(5) 0.10889(5) 0.24697(9) 0.0705 Uani
H1T H 0.5319 0.1286 0.2457 0.0850 Uiso
C3T C 0.52831(5) 0.07357(5) 0.24923(9) 0.0643 Uani
C5T C 0.60910(7) 0.09672(7) 0.22023(10) 0.0779 Uani
H2T H 0.6046 0.0837 0.1999 0.0940 Uiso
C6T C 0.63477(7) 0.12241(7) 0.22010(10) 0.0785 Uani
H3T H 0.6477 0.1269 0.1997 0.0940 Uiso
O3T O 0.68537(5) 0.17251(5) 0.22219(6) 0.0926 Uani
O6T O 0.5140(16) -0.0219(12) 0.324(2) 0.0907 Uani
O6QB O 0.4860(16) -0.0219(12) 0.324(2) 0.0907 Uani
O6BB O 0.5140(16) 0.0219(12) 0.324(2) 0.0907 Uani
O1F O 0.21738(6) 0.21738(6) -0.21738(6) 0.0368 Uani
O2F O 0.28976(9) 0.23492(9) -0.23492(9) 0.0376 Uani
N1F N 0.5000 0.05216(6) -0.25017(10) 0.0634 Uani
C1F C 0.40964(5) 0.09036(5) -0.2500 0.0653 Uani
C2F C 0.48266(5) 0.10889(5) -0.24697(9) 0.0705 Uani
H1F H 0.4681 0.1286 -0.2457 0.0850 Uiso
C3F C 0.47169(5) 0.07357(5) -0.24923(9) 0.0643 Uani
C4F C 0.35887(5) 0.14113(5) -0.2500 0.0703 Uani
C5F C 0.39090(7) 0.09672(7) -0.22023(10) 0.0779 Uani
H2F H 0.3954 0.0837 -0.1999 0.0940 Uiso
C6F C 0.36523(7) 0.12241(7) -0.22010(10) 0.0785 Uani
H3F H 0.3523 0.1269 -0.1997 0.0940 Uiso
C7F C 0.43720(5) 0.06280(5) -0.2500 0.0655 Uani
Zr1F Zr 0.26622(2) 0.20159(2) -0.20159(2) 0.0373 Uani
O3F O 0.31463(5) 0.17251(5) -0.22219(6) 0.0926 Uani
C8F C 0.33142(6) 0.16858(6) -0.2500 0.0839 Uani
Fe1F Fe 0.5000 0.0000 -0.26364(5) 0.0673 Uani
O4F O 0.2454(2) 0.1902(4) -0.1514(2) 0.2200 Uani
O5F O 0.5000 0.0000 -0.3099(3) 0.0817 Uani
O6F O 0.4860(16) -0.0219(12) -0.324(2) 0.0907 Uani
N1MA N 0.44784(6) 0.0000 -0.24983(10) 0.0634 Uani
C2MA C 0.39111(5) 0.01734(5) -0.25303(9) 0.0705 Uani
H1MA H 0.3714 0.0319 -0.2543 0.0850 Uiso
C3MA C 0.42643(5) 0.02831(5) -0.25077(9) 0.0643 Uani
C5MA C 0.40328(7) 0.10910(7) -0.27977(10) 0.0779 Uani
H2MA H 0.4163 0.1046 -0.3001 0.0940 Uiso
C6MA C 0.37759(7) 0.13477(7) -0.27990(10) 0.0785 Uani
H3MA H 0.3731 0.1477 -0.3003 0.0940 Uiso
O3MA O 0.32749(5) 0.18537(5) -0.27781(6) 0.0926 Uani
C1ZA C 0.59036(5) 0.09036(5) -0.2500 0.0653 Uani
C2ZA C 0.51734(5) 0.10889(5) -0.24697(9) 0.0705 Uani
H1ZA H 0.5319 0.1286 -0.2457 0.0850 Uiso
C3ZA C 0.52831(5) 0.07357(5) -0.24923(9) 0.0643 Uani
C4ZA C 0.64113(5) 0.14113(5) -0.2500 0.0703 Uani
C5ZA C 0.60910(7) 0.09672(7) -0.22023(10) 0.0779 Uani
H2ZA H 0.6046 0.0837 -0.1999 0.0940 Uiso
C6ZA C 0.63477(7) 0.12241(7) -0.22010(10) 0.0785 Uani
H3ZA H 0.6477 0.1269 -0.1997 0.0940 Uiso
C7ZA C 0.56280(5) 0.06280(5) -0.2500 0.0655 Uani
O3ZA O 0.68537(5) 0.17251(5) -0.22219(6) 0.0926 Uani
C8ZA C 0.66858(6) 0.16858(6) -0.2500 0.0839 Uani
C1PB C 0.40964(5) -0.09036(5) -0.2500 0.0653 Uani
C2GC C 0.39111(5) -0.01734(5) -0.25303(9) 0.0705 Uani
H1GC H 0.3714 -0.0319 -0.2543 0.0850 Uiso
C3GC C 0.42643(5) -0.02831(5) -0.25077(9) 0.0643 Uani
C4PB C 0.35887(5) -0.14113(5) -0.2500 0.0703 Uani
C5GC C 0.40328(7) -0.10910(7) -0.27977(10) 0.0779 Uani
H2GC H 0.4163 -0.1046 -0.3001 0.0940 Uiso
C6GC C 0.37759(7) -0.13477(7) -0.27990(10) 0.0785 Uani
H3GC H 0.3731 -0.1477 -0.3003 0.0940 Uiso
C7PB C 0.43720(5) -0.06280(5) -0.2500 0.0655 Uani
O3GC O 0.32749(5) -0.18537(5) -0.27781(6) 0.0926 Uani
C8PB C 0.33142(6) -0.16858(6) -0.2500 0.0839 Uani
N1HA N 0.55216(6) 0.0000 -0.24983(10) 0.0634 Uani
C2JC C 0.60889(5) 0.01734(5) -0.25303(9) 0.0705 Uani
H1JC H 0.6286 0.0319 -0.2543 0.0850 Uiso
C3JC C 0.57357(5) 0.02831(5) -0.25077(9) 0.0643 Uani
C5JC C 0.59672(7) 0.10910(7) -0.27977(10) 0.0779 Uani
H2JC H 0.5837 0.1046 -0.3001 0.0940 Uiso
C6JC C 0.62241(7) 0.13477(7) -0.27990(10) 0.0785 Uani
H3JC H 0.6269 0.1477 -0.3003 0.0940 Uiso
O3JC O 0.67251(5) 0.18537(5) -0.27781(6) 0.0926 Uani
C1U C 0.59036(5) -0.09036(5) -0.2500 0.0653 Uani
C2HA C 0.60889(5) -0.01734(5) -0.25303(9) 0.0705 Uani
H1HA H 0.6286 -0.0319 -0.2543 0.0850 Uiso
C3HA C 0.57357(5) -0.02831(5) -0.25077(9) 0.0643 Uani
C4U C 0.64113(5) -0.14113(5) -0.2500 0.0703 Uani
C5HA C 0.59672(7) -0.10910(7) -0.27977(10) 0.0779 Uani
H2HA H 0.5837 -0.1046 -0.3001 0.0940 Uiso
C6HA C 0.62241(7) -0.13477(7) -0.27990(10) 0.0785 Uani
H3HA H 0.6269 -0.1477 -0.3003 0.0940 Uiso
C7U C 0.56280(5) -0.06280(5) -0.2500 0.0655 Uani
O3HA O 0.67251(5) -0.18537(5) -0.27781(6) 0.0926 Uani
C8U C 0.66858(6) -0.16858(6) -0.2500 0.0839 Uani
N1U N 0.5000 -0.05216(6) -0.25017(10) 0.0634 Uani
C2PB C 0.48266(5) -0.10889(5) -0.24697(9) 0.0705 Uani
H1PB H 0.4681 -0.1286 -0.2457 0.0850 Uiso
C3PB C 0.47169(5) -0.07357(5) -0.24923(9) 0.0643 Uani
C5PB C 0.39090(7) -0.09672(7) -0.22023(10) 0.0779 Uani
H2PB H 0.3954 -0.0837 -0.1999 0.0940 Uiso
C6PB C 0.36523(7) -0.12241(7) -0.22010(10) 0.0785 Uani
H3PB H 0.3523 -0.1269 -0.1997 0.0940 Uiso
O3PB O 0.31463(5) -0.17251(5) -0.22219(6) 0.0926 Uani
C2U C 0.51734(5) -0.10889(5) -0.24697(9) 0.0705 Uani
H1U H 0.5319 -0.1286 -0.2457 0.0850 Uiso
C3U C 0.52831(5) -0.07357(5) -0.24923(9) 0.0643 Uani
C5U C 0.60910(7) -0.09672(7) -0.22023(10) 0.0779 Uani
H2U H 0.6046 -0.0837 -0.1999 0.0940 Uiso
C6U C 0.63477(7) -0.12241(7) -0.22010(10) 0.0785 Uani
H3U H 0.6477 -0.1269 -0.1997 0.0940 Uiso
O3U O 0.68537(5) -0.17251(5) -0.22219(6) 0.0926 Uani
O6U O 0.5140(16) 0.0219(12) -0.324(2) 0.0907 Uani
O6PB O 0.4860(16) 0.0219(12) -0.324(2) 0.0907 Uani
O6ZA O 0.5140(16) -0.0219(12) -0.324(2) 0.0907 Uani
O2G O 0.23492(9) 0.23492(9) -0.28976(9) 0.0376 Uani
Zr1G Zr 0.20159(2) 0.20159(2) -0.26622(2) 0.0373 Uani
O4G O 0.1902(4) 0.1514(2) -0.2454(2) 0.2200 Uani
O2H O 0.71024(9) 0.23492(9) -0.23492(9) 0.0376 Uani
Zr1H Zr 0.73378(2) 0.20159(2) -0.20159(2) 0.0373 Uani
O4H O 0.7546(2) 0.1514(2) -0.1902(4) 0.2200 Uani
O2J O 0.23492(9) 0.28976(9) 0.23492(9) 0.0376 Uani
Zr1J Zr 0.20159(2) 0.26622(2) 0.20159(2) 0.0373 Uani
O4J O 0.1902(4) 0.2454(2) 0.1514(2) 0.2200 Uani
O2K O 0.23492(9) 0.23492(9) 0.28976(9) 0.0376 Uani
Zr1K Zr 0.20159(2) 0.20159(2) 0.26622(2) 0.0373 Uani
O4K O 0.1514(2) 0.1902(4) 0.2454(2) 0.2200 Uani
O2R O 0.23492(9) 0.28976(9) -0.23492(9) 0.0376 Uani
Zr1R Zr 0.20159(2) 0.26622(2) -0.20159(2) 0.0373 Uani
O4R O 0.1514(2) 0.2454(2) -0.1902(4) 0.2200 Uani
O1A O 0.78262(6) 0.21738(6) 0.21738(6) 0.0368 Uani
O2T O 0.71024(9) 0.23492(9) 0.23492(9) 0.0376 Uani
Zr1T Zr 0.73378(2) 0.20159(2) 0.20159(2) 0.0373 Uani
O4T O 0.7546(2) 0.1902(4) 0.1514(2) 0.2200 Uani
O2U O 0.71024(9) -0.23492(9) -0.23492(9) 0.0376 Uani
Zr1U Zr 0.73378(2) -0.20159(2) -0.20159(2) 0.0373 Uani
O4U O 0.7546(2) -0.1902(4) -0.1514(2) 0.2200 Uani
O2QA O 0.26508(9) 0.21024(9) 0.26508(9) 0.0376 Uani
Zr1QA Zr 0.29841(2) 0.23378(2) 0.29841(2) 0.0373 Uani
O4QA O 0.3486(2) 0.2546(2) 0.3098(4) 0.2200 Uani
O2SA O 0.21024(9) 0.26508(9) 0.26508(9) 0.0376 Uani
Zr1SA Zr 0.23378(2) 0.29841(2) 0.29841(2) 0.0373 Uani
O4SA O 0.2546(2) 0.3098(4) 0.3486(2) 0.2200 Uani
Fe1TA Fe 0.5000 0.23636(5) 0.0000 0.0673 Uani
O5TA O 0.5000 0.1901(3) 0.0000 0.0817 Uani
O6TA O 0.4781(12) 0.176(2) -0.0140(16) 0.0907 Uani
O6UA O 0.5219(12) 0.176(2) 0.0140(16) 0.0907 Uani
O6AC O 0.5219(12) 0.176(2) -0.0140(16) 0.0907 Uani
O6CC O 0.4781(12) 0.176(2) 0.0140(16) 0.0907 Uani
O4XA O 0.2454(2) 0.1514(2) -0.1902(4) 0.2200 Uani
O4ZA O 0.7546(2) 0.1902(4) -0.1514(2) 0.2200 Uani
O4AB O 0.7546(2) 0.1514(2) 0.1902(4) 0.2200 Uani
O4HB O 0.1514(2) 0.1902(4) -0.2454(2) 0.2200 Uani
Fe1KA Fe 0.5000 0.0000 0.23636(5) 0.0673 Uani
O5KA O 0.5000 0.0000 0.1901(3) 0.0817 Uani
O6NA O 0.5219(12) -0.0140(16) 0.176(2) 0.0907 Uani
O6KA O 0.4781(12) 0.0140(16) 0.176(2) 0.0907 Uani
O6IC O 0.4781(12) -0.0140(16) 0.176(2) 0.0907 Uani
O6DC O 0.5219(12) 0.0140(16) 0.176(2) 0.0907 Uani
Fe1HA Fe 0.5000 0.0000 -0.23636(5) 0.0673 Uani
O5HA O 0.5000 0.0000 -0.1901(3) 0.0817 Uani
O6GC O 0.5219(12) -0.0140(16) -0.176(2) 0.0907 Uani
O6JC O 0.4781(12) 0.0140(16) -0.176(2) 0.0907 Uani
O6HA O 0.4781(12) -0.0140(16) -0.176(2) 0.0907 Uani
O6MA O 0.5219(12) 0.0140(16) -0.176(2) 0.0907 Uani
O4QB O 0.2454(2) 0.1902(4) 0.1514(2) 0.2200 Uani
O4DB O 0.2454(2) -0.1514(2) 0.1902(4) 0.2200 Uani
O4OB O 0.1514(2) 0.2454(2) 0.1902(4) 0.2200 Uani
O4SB O 0.1902(4) 0.1514(2) 0.2454(2) 0.2200 Uani
O4KB O 0.1902(4) 0.2454(2) -0.1514(2) 0.2200 Uani
O4VA O 0.7546(2) -0.1514(2) -0.1902(4) 0.2200 Uani
O4DC O 0.3098(4) 0.2546(2) 0.3486(2) 0.2200 Uani
O4TB O 0.2546(2) 0.3486(2) 0.3098(4) 0.2200 Uani
O1H O 0.78262(6) 0.21738(6) -0.21738(6) 0.0368 Uani
O1S O 0.78262(6) -0.21738(6) -0.21738(6) 0.0368 Uani
O1QA O 0.28262(6) 0.28262(6) 0.28262(6) 0.0368 Uani
O2Z O 0.21024(9) 0.26508(9) -0.26508(9) 0.0376 Uani
O2AA O 0.73492(9) 0.21024(9) -0.26508(9) 0.0376 Uani
O2HA O 0.73492(9) -0.21024(9) -0.26508(9) 0.0376 Uani
O2IA O 0.73492(9) -0.26508(9) -0.21024(9) 0.0376 Uani
O2JA O 0.26508(9) 0.26508(9) -0.21024(9) 0.0376 Uani
O2KA O 0.73492(9) 0.21024(9) 0.26508(9) 0.0376 Uani
O2LA O 0.26508(9) -0.26508(9) 0.21024(9) 0.0376 Uani
O2MA O 0.26508(9) 0.21024(9) -0.26508(9) 0.0376 Uani
O2NA O 0.26508(9) -0.21024(9) 0.26508(9) 0.0376 Uani
O2OA O 0.73492(9) 0.26508(9) 0.21024(9) 0.0376 Uani
O2TA O 0.73492(9) 0.26508(9) -0.21024(9) 0.0376 Uani
O2UA O 0.26508(9) 0.26508(9) 0.21024(9) 0.0376 Uani
Zr1A Zr 0.79841(2) 0.26622(2) 0.20159(2) 0.0373 Uani
Zr1B Zr 0.73378(2) -0.20159(2) 0.20159(2) 0.0373 Uani
Zr1C Zr 0.20159(2) -0.26622(2) 0.20159(2) 0.0373 Uani
Zr1E Zr 0.26622(2) -0.20159(2) -0.20159(2) 0.0373 Uani
Zr1I Zr 0.79841(2) 0.20159(2) 0.26622(2) 0.0373 Uani
Zr1V Zr 0.20159(2) -0.20159(2) 0.26622(2) 0.0373 Uani
Zr1Y Zr 0.29841(2) -0.23378(2) -0.29841(2) 0.0373 Uani
Zr1Z Zr 0.23378(2) 0.29841(2) -0.29841(2) 0.0373 Uani
Zr1AA Zr 0.70159(2) 0.23378(2) -0.29841(2) 0.0373 Uani
Zr1HA Zr 0.70159(2) -0.23378(2) -0.29841(2) 0.0373 Uani
Zr1IA Zr 0.70159(2) -0.29841(2) -0.23378(2) 0.0373 Uani
Zr1JA Zr 0.29841(2) 0.29841(2) -0.23378(2) 0.0373 Uani
Zr1KA Zr 0.70159(2) 0.23378(2) 0.29841(2) 0.0373 Uani
Zr1LA Zr 0.29841(2) -0.29841(2) 0.23378(2) 0.0373 Uani
Zr1MA Zr 0.29841(2) 0.23378(2) -0.29841(2) 0.0373 Uani
Zr1NA Zr 0.29841(2) -0.23378(2) 0.29841(2) 0.0373 Uani
Zr1OA Zr 0.70159(2) 0.29841(2) 0.23378(2) 0.0373 Uani
Zr1PA Zr 0.70159(2) -0.23378(2) 0.29841(2) 0.0373 Uani
Zr1TA Zr 0.70159(2) 0.29841(2) -0.23378(2) 0.0373 Uani
Zr1UA Zr 0.29841(2) 0.29841(2) 0.23378(2) 0.0373 Uani
O3G O 0.17251(5) 0.22219(6) -0.31463(5) 0.0926 Uani
O3J O 0.17251(5) 0.31463(5) 0.22219(6) 0.0926 Uani
O3K O 0.22219(6) 0.17251(5) 0.31463(5) 0.0926 Uani
O3R O 0.22219(6) 0.31463(5) -0.17251(5) 0.0926 Uani
O3QA O 0.27781(6) 0.18537(5) 0.32749(5) 0.0926 Uani
O3SA O 0.18537(5) 0.32749(5) 0.27781(6) 0.0926 Uani
O3VA O 0.68537(5) -0.22219(6) -0.17251(5) 0.0926 Uani
O3DB O 0.31463(5) -0.22219(6) 0.17251(5) 0.0926 Uani
O3HB O 0.22219(6) 0.17251(5) -0.31463(5) 0.0926 Uani
O3KB O 0.17251(5) 0.31463(5) -0.22219(6) 0.0926 Uani
O3OB O 0.22219(6) 0.31463(5) 0.17251(5) 0.0926 Uani
O3SB O 0.17251(5) 0.22219(6) 0.31463(5) 0.0926 Uani
O3TB O 0.18537(5) 0.27781(6) 0.32749(5) 0.0926 Uani
Zr2? Zr 0.27685(2) 0.21277(2) 0.21277(2) 0.0372 Uani
O7? O 0.25505(14) 0.15905(12) 0.21011(17) 0.0897 Uani
O8? O 0.31625(12) 0.24552(9) 0.24552(9) 0.0509 Uani
O9? O 0.5260(15) 0.324(2) 0.0000 0.1400 Uani
loop_
_atom_site_aniso_label
_atom_site_aniso_U_11
_atom_site_aniso_U_22
_atom_site_aniso_U_33
_atom_site_aniso_U_23
_atom_site_aniso_U_13
_atom_site_aniso_U_12
O1 0.0368(8) 0.0368(8) 0.0368(8) 0.0235(10) 0.0235(10) 0.0235(10)
O2 0.0231(18) 0.0449(15) 0.0449(15) 0.0265(19) 0.0127(13) 0.0127(13)
N1 0.0139(10) 0.159(3) 0.0174(10) 0.0010(13) 0.000 0.000
C1 0.0215(8) 0.153(4) 0.0215(8) 0.0058(12) 0.0015(11) 0.0058(12)
C2 0.0302(10) 0.166(3) 0.0154(9) 0.0020(12) 0.0050(8) -0.0005(14)
C3 0.0238(9) 0.149(3) 0.0201(9) 0.0010(12) 0.0049(8) 0.0018(12)
C4 0.0364(10) 0.138(4) 0.0364(10) 0.0372(15) 0.0228(14) 0.0372(15)
C5 0.0429(13) 0.149(3) 0.0419(13) -0.0021(15) 0.0217(11) 0.0055(15)
C6 0.0441(13) 0.140(3) 0.0514(14) 0.0228(16) 0.0275(12) 0.0187(15)
C7 0.0202(8) 0.156(4) 0.0202(8) 0.0005(12) 0.0062(11) 0.0005(12)
Zr1 0.0387(4) 0.0366(3) 0.0366(3) 0.0176(3) 0.0220(2) 0.0220(2)
O3 0.0800(13) 0.1129(16) 0.0850(13) 0.0693(12) 0.0644(11) 0.0688(12)
C8 0.0608(15) 0.130(4) 0.0608(15) 0.064(2) 0.0446(19) 0.064(2)
Fe1 0.0126(6) 0.177(3) 0.0123(6) 0.000 0.000 0.000
O4 0.128(5) 0.111(5) 0.421(16) -0.120(7) -0.108(7) 0.055(3)
O5 0.033(3) 0.188(6) 0.024(3) 0.000 0.000 0.000
O6 0.07(3) 0.172(17) 0.03(2) -0.01(2) -0.009(17) 0.02(2)
N1UA 0.0174 0.159 0.0139 0 0 0.001
C2UA 0.0154 0.166 0.0302 -0.0005 0.005 0.002
C3UA 0.0201 0.149 0.0238 0.0018 0.0049 0.001
C5UA 0.0419 0.149 0.0429 0.0055 0.0217 -0.0021
C6UA 0.0514 0.14 0.0441 0.0187 0.0275 0.0228
O3UA 0.085 0.1129 0.08 0.0688 0.0644 0.0693
C1AB 0.0215 0.153 0.0215 0.0058 -0.0015 -0.0058
C2AB 0.0302 0.166 0.0154 0.002 -0.005 0.0005
C3AB 0.0238 0.149 0.0201 0.001 -0.0049 -0.0018
C4AB 0.0364 0.138 0.0364 0.0372 -0.0228 -0.0372
C5AB 0.0429 0.149 0.0419 -0.0021 -0.0217 -0.0055
C6AB 0.0441 0.14 0.0514 0.0228 -0.0275 -0.0187
C7AB 0.0202 0.156 0.0202 0.0005 -0.0062 -0.0005
O3AB 0.08 0.1129 0.085 0.0693 -0.0644 -0.0688
C8AB 0.0608 0.13 0.0608 0.064 -0.0446 -0.064
C1XA 0.0215 0.153 0.0215 -0.0058 -0.0015 0.0058
C2AC 0.0154 0.166 0.0302 0.0005 -0.005 0.002
C3AC 0.0201 0.149 0.0238 -0.0018 -0.0049 0.001
C4XA 0.0364 0.138 0.0364 -0.0372 -0.0228 0.0372
C5AC 0.0419 0.149 0.0429 -0.0055 -0.0217 -0.0021
C6AC 0.0514 0.14 0.0441 -0.0187 -0.0275 0.0228
C7XA 0.0202 0.156 0.0202 -0.0005 -0.0062 0.0005
O3AC 0.085 0.1129 0.08 -0.0688 -0.0644 0.0693
C8XA 0.0608 0.13 0.0608 -0.064 -0.0446 0.064
N1TA 0.0174 0.159 0.0139 0 0 -0.001
C2CC 0.0154 0.166 0.0302 -0.0005 -0.005 -0.002
C3CC 0.0201 0.149 0.0238 0.0018 -0.0049 -0.001
C5CC 0.0419 0.149 0.0429 0.0055 -0.0217 0.0021
C6CC 0.0514 0.14 0.0441 0.0187 -0.0275 -0.0228
O3CC 0.085 0.1129 0.08 0.0688 -0.0644 -0.0693
C1H 0.0215 0.153 0.0215 -0.0058 0.0015 -0.0058
C2TA 0.0154 0.166 0.0302 0.0005 0.005 -0.002
C3TA 0.0201 0.149 0.0238 -0.0018 0.0049 -0.001
C4H 0.0364 0.138 0.0364 -0.0372 0.0228 -0.0372
C5TA 0.0419 0.149 0.0429 -0.0055 0.0217 0.0021
C6TA 0.0514 0.14 0.0441 -0.0187 0.0275 -0.0228
C7H 0.0202 0.156 0.0202 -0.0005 0.0062 -0.0005
O3TA 0.085 0.1129 0.08 -0.0688 0.0644 -0.0693
C8H 0.0608 0.13 0.0608 -0.064 0.0446 -0.064
N1H 0.0139 0.159 0.0174 -0.001 0 0
C2XA 0.0302 0.166 0.0154 -0.002 -0.005 -0.0005
C3XA 0.0238 0.149 0.0201 -0.001 -0.0049 0.0018
C5XA 0.0429 0.149 0.0419 0.0021 -0.0217 0.0055
C6XA 0.0441 0.14 0.0514 -0.0228 -0.0275 0.0187
O3XA 0.08 0.1129 0.085 -0.0693 -0.0644 0.0688
C2H 0.0302 0.166 0.0154 -0.002 0.005 0.0005
C3H 0.0238 0.149 0.0201 -0.001 0.0049 -0.0018
C5H 0.0429 0.149 0.0419 0.0021 0.0217 -0.0055
C6H 0.0441 0.14 0.0514 -0.0228 0.0275 -0.0187
O3H 0.08 0.1129 0.085 -0.0693 0.0644 -0.0688
O6H 0.07 0.172 0.03 0.01 -0.009 -0.02
O6XA 0.07 0.172 0.03 0.01 0.009 0.02
O6AB 0.07 0.172 0.03 -0.01 0.009 -0.02
O1C 0.0368 0.0368 0.0368 -0.0235 0.0235 -0.0235
O2D 0.0231 0.0449 0.0449 -0.0265 0.0127 -0.0127
N1D 0.0139 0.0174 0.159 -0.001 0 0
C1D 0.0215 0.0215 0.153 -0.0058 0.0058 -0.0015
C2D 0.0302 0.0154 0.166 -0.002 -0.0005 -0.005
C3D 0.0238 0.0201 0.149 -0.001 0.0018 -0.0049
C4D 0.0364 0.0364 0.138 -0.0372 0.0372 -0.0228
C5D 0.0429 0.0419 0.149 0.0021 0.0055 -0.0217
C6D 0.0441 0.0514 0.14 -0.0228 0.0187 -0.0275
C7D 0.0202 0.0202 0.156 -0.0005 0.0005 -0.0062
Zr1D 0.0387 0.0366 0.0366 -0.0176 0.022 -0.022
O3D 0.08 0.085 0.1129 -0.0693 0.0688 -0.0644
C8D 0.0608 0.0608 0.13 -0.064 0.064 -0.0446
Fe1D 0.0126 0.0123 0.177 0 0 0
O4D 0.128 0.421 0.111 0.12 0.055 0.108
O5D 0.033 0.024 0.188 0 0 0
O6D 0.07 0.03 0.172 0.01 0.02 0.009
N1NA 0.0174 0.0139 0.159 0 0.001 0
C2NA 0.0154 0.0302 0.166 0.0005 0.002 -0.005
C3NA 0.0201 0.0238 0.149 -0.0018 0.001 -0.0049
C5NA 0.0419 0.0429 0.149 -0.0055 -0.0021 -0.0217
C6NA 0.0514 0.0441 0.14 -0.0187 0.0228 -0.0275
O3NA 0.085 0.08 0.1129 -0.0688 0.0693 -0.0644
C1BB 0.0215 0.0215 0.153 -0.0058 -0.0058 0.0015
C2BB 0.0302 0.0154 0.166 -0.002 0.0005 0.005
C3BB 0.0238 0.0201 0.149 -0.001 -0.0018 0.0049
C4BB 0.0364 0.0364 0.138 -0.0372 -0.0372 0.0228
C5BB 0.0429 0.0419 0.149 0.0021 -0.0055 0.0217
C6BB 0.0441 0.0514 0.14 -0.0228 -0.0187 0.0275
C7BB 0.0202 0.0202 0.156 -0.0005 -0.0005 0.0062
O3BB 0.08 0.085 0.1129 -0.0693 -0.0688 0.0644
C8BB 0.0608 0.0608 0.13 -0.064 -0.064 0.0446
C1QB 0.0215 0.0215 0.153 0.0058 0.0058 0.0015
C2DC 0.0154 0.0302 0.166 -0.0005 0.002 0.005
C3DC 0.0201 0.0238 0.149 0.0018 0.001 0.0049
C4QB 0.0364 0.0364 0.138 0.0372 0.0372 0.0228
C5DC 0.0419 0.0429 0.149 0.0055 -0.0021 0.0217
C6DC 0.0514 0.0441 0.14 0.0187 0.0228 0.0275
C7QB 0.0202 0.0202 0.156 0.0005 0.0005 0.0062
O3DC 0.085 0.08 0.1129 0.0688 0.0693 0.0644
C8QB 0.0608 0.0608 0.13 0.064 0.064 0.0446
N1KA 0.0174 0.0139 0.159 0 -0.001 0
C2IC 0.0154 0.0302 0.166 0.0005 -0.002 0.005
C3IC 0.0201 0.0238 0.149 -0.0018 -0.001 0.0049
C5IC 0.0419 0.0429 0.149 -0.0055 0.0021 0.0217
C6IC 0.0514 0.0441 0.14 -0.0187 -0.0228 0.0275
O3IC 0.085 0.08 0.1129 -0.0688 -0.0693 0.0644
C1T 0.0215 0.0215 0.153 0.0058 -0.0058 -0.0015
C2KA 0.0154 0.0302 0.166 -0.0005 -0.002 -0.005
C3KA 0.0201 0.0238 0.149 0.0018 -0.001 -0.0049
C4T 0.0364 0.0364 0.138 0.0372 -0.0372 -0.0228
C5KA 0.0419 0.0429 0.149 0.0055 0.0021 -0.0217
C6KA 0.0514 0.0441 0.14 0.0187 -0.0228 -0.0275
C7T 0.0202 0.0202 0.156 0.0005 -0.0005 -0.0062
O3KA 0.085 0.08 0.1129 0.0688 -0.0693 -0.0644
C8T 0.0608 0.0608 0.13 0.064 -0.064 -0.0446
N1T 0.0139 0.0174 0.159 0.001 0 0
C2QB 0.0302 0.0154 0.166 0.002 -0.0005 0.005
C3QB 0.0238 0.0201 0.149 0.001 0.0018 0.0049
C5QB 0.0429 0.0419 0.149 -0.0021 0.0055 0.0217
C6QB 0.0441 0.0514 0.14 0.0228 0.0187 0.0275
O3QB 0.08 0.085 0.1129 0.0693 0.0688 0.0644
C2T 0.0302 0.0154 0.166 0.002 0.0005 -0.005
C3T 0.0238 0.0201 0.149 0.001 -0.0018 -0.0049
C5T 0.0429 0.0419 0.149 -0.0021 -0.0055 -0.0217
C6T 0.0441 0.0514 0.14 0.0228 -0.0187 -0.0275
O3T 0.08 0.085 0.1129 0.0693 -0.0688 -0.0644
O6T 0.07 0.03 0.172 -0.01 -0.02 0.009
O6QB 0.07 0.03 0.172 -0.01 0.02 -0.009
O6BB 0.07 0.03 0.172 0.01 -0.02 -0.009
O1F 0.0368 0.0368 0.0368 -0.0235 -0.0235 0.0235
O2F 0.0231 0.0449 0.0449 -0.0265 -0.0127 0.0127
N1F 0.0139 0.0174 0.159 -0.001 0 0
C1F 0.0215 0.0215 0.153 -0.0058 -0.0058 0.0015
C2F 0.0302 0.0154 0.166 -0.002 0.0005 0.005
C3F 0.0238 0.0201 0.149 -0.001 -0.0018 0.0049
C4F 0.0364 0.0364 0.138 -0.0372 -0.0372 0.0228
C5F 0.0429 0.0419 0.149 0.0021 -0.0055 0.0217
C6F 0.0441 0.0514 0.14 -0.0228 -0.0187 0.0275
C7F 0.0202 0.0202 0.156 -0.0005 -0.0005 0.0062
Zr1F 0.0387 0.0366 0.0366 -0.0176 -0.022 0.022
O3F 0.08 0.085 0.1129 -0.0693 -0.0688 0.0644
C8F 0.0608 0.0608 0.13 -0.064 -0.064 0.0446
Fe1F 0.0126 0.0123 0.177 0 0 0
O4F 0.128 0.421 0.111 0.12 -0.055 -0.108
O5F 0.033 0.024 0.188 0 0 0
O6F 0.07 0.03 0.172 0.01 -0.02 -0.009
N1MA 0.0174 0.0139 0.159 0 -0.001 0
C2MA 0.0154 0.0302 0.166 0.0005 -0.002 0.005
C3MA 0.0201 0.0238 0.149 -0.0018 -0.001 0.0049
C5MA 0.0419 0.0429 0.149 -0.0055 0.0021 0.0217
C6MA 0.0514 0.0441 0.14 -0.0187 -0.0228 0.0275
O3MA 0.085 0.08 0.1129 -0.0688 -0.0693 0.0644
C1ZA 0.0215 0.0215 0.153 -0.0058 0.0058 -0.0015
C2ZA 0.0302 0.0154 0.166 -0.002 -0.0005 -0.005
C3ZA 0.0238 0.0201 0.149 -0.001 0.0018 -0.0049
C4ZA 0.0364 0.0364 0.138 -0.0372 0.0372 -0.0228
C5ZA 0.0429 0.0419 0.149 0.0021 0.0055 -0.0217
C6ZA 0.0441 0.0514 0.14 -0.0228 0.0187 -0.0275
C7ZA 0.0202 0.0202 0.156 -0.0005 0.0005 -0.0062
O3ZA 0.08 0.085 0.1129 -0.0693 0.0688 -0.0644
C8ZA 0.0608 0.0608 0.13 -0.064 0.064 -0.0446
C1PB 0.0215 0.0215 0.153 0.0058 -0.0058 -0.0015
C2GC 0.0154 0.0302 0.166 -0.0005 -0.002 -0.005
C3GC 0.0201 0.0238 0.149 0.0018 -0.001 -0.0049
C4PB 0.0364 0.0364 0.138 0.0372 -0.0372 -0.0228
C5GC 0.0419 0.0429 0.149 0.0055 0.0021 -0.0217
C6GC 0.0514 0.0441 0.14 0.0187 -0.0228 -0.0275
C7PB 0.0202 0.0202 0.156 0.0005 -0.0005 -0.0062
O3GC 0.085 0.08 0.1129 0.0688 -0.0693 -0.0644
C8PB 0.0608 0.0608 0.13 0.064 -0.064 -0.0446
N1HA 0.0174 0.0139 0.159 0 0.001 0
C2JC 0.0154 0.0302 0.166 0.0005 0.002 -0.005
C3JC 0.0201 0.0238 0.149 -0.0018 0.001 -0.0049
C5JC 0.0419 0.0429 0.149 -0.0055 -0.0021 -0.0217
C6JC 0.0514 0.0441 0.14 -0.0187 0.0228 -0.0275
O3JC 0.085 0.08 0.1129 -0.0688 0.0693 -0.0644
C1U 0.0215 0.0215 0.153 0.0058 0.0058 0.0015
C2HA 0.0154 0.0302 0.166 -0.0005 0.002 0.005
C3HA 0.0201 0.0238 0.149 0.0018 0.001 0.0049
C4U 0.0364 0.0364 0.138 0.0372 0.0372 0.0228
C5HA 0.0419 0.0429 0.149 0.0055 -0.0021 0.0217
C6HA 0.0514 0.0441 0.14 0.0187 0.0228 0.0275
C7U 0.0202 0.0202 0.156 0.0005 0.0005 0.0062
O3HA 0.085 0.08 0.1129 0.0688 0.0693 0.0644
C8U 0.0608 0.0608 0.13 0.064 0.064 0.0446
N1U 0.0139 0.0174 0.159 0.001 0 0
C2PB 0.0302 0.0154 0.166 0.002 0.0005 -0.005
C3PB 0.0238 0.0201 0.149 0.001 -0.0018 -0.0049
C5PB 0.0429 0.0419 0.149 -0.0021 -0.0055 -0.0217
C6PB 0.0441 0.0514 0.14 0.0228 -0.0187 -0.0275
O3PB 0.08 0.085 0.1129 0.0693 -0.0688 -0.0644
C2U 0.0302 0.0154 0.166 0.002 -0.0005 0.005
C3U 0.0238 0.0201 0.149 0.001 0.0018 0.0049
C5U 0.0429 0.0419 0.149 -0.0021 0.0055 0.0217
C6U 0.0441 0.0514 0.14 0.0228 0.0187 0.0275
O3U 0.08 0.085 0.1129 0.0693 0.0688 0.0644
O6U 0.07 0.03 0.172 -0.01 0.02 -0.009
O6PB 0.07 0.03 0.172 -0.01 -0.02 0.009
O6ZA 0.07 0.03 0.172 0.01 0.02 0.009
O2G 0.0449 0.0449 0.0231 -0.0127 -0.0127 0.0265
Zr1G 0.0366 0.0366 0.0387 -0.022 -0.022 0.0176
O4G 0.421 0.111 0.128 -0.055 0.108 -0.12
O2H 0.0231 0.0449 0.0449 -0.0265 0.0127 -0.0127
Zr1H 0.0387 0.0366 0.0366 -0.0176 0.022 -0.022
O4H 0.128 0.111 0.421 0.12 -0.108 -0.055
O2J 0.0449 0.0231 0.0449 0.0127 0.0265 0.0127
Zr1J 0.0366 0.0387 0.0366 0.022 0.0176 0.022
O4J 0.421 0.128 0.111 0.055 -0.12 -0.108
O2K 0.0449 0.0449 0.0231 0.0127 0.0127 0.0265
Zr1K 0.0366 0.0366 0.0387 0.022 0.022 0.0176
O4K 0.111 0.421 0.128 -0.108 0.055 -0.12
O2R 0.0449 0.0231 0.0449 -0.0127 -0.0265 0.0127
Zr1R 0.0366 0.0387 0.0366 -0.022 -0.0176 0.022
O4R 0.111 0.128 0.421 0.108 0.12 0.055
O1A 0.0368 0.0368 0.0368 0.0235 -0.0235 -0.0235
O2T 0.0231 0.0449 0.0449 0.0265 -0.0127 -0.0127
Zr1T 0.0387 0.0366 0.0366 0.0176 -0.022 -0.022
O4T 0.128 0.421 0.111 -0.12 -0.055 0.108
O2U 0.0231 0.0449 0.0449 0.0265 0.0127 0.0127
Zr1U 0.0387 0.0366 0.0366 0.0176 0.022 0.022
O4U 0.128 0.421 0.111 -0.12 0.055 -0.108
O2QA 0.0449 0.0231 0.0449 0.0127 0.0265 0.0127
Zr1QA 0.0366 0.0387 0.0366 0.022 0.0176 0.022
O4QA 0.111 0.128 0.421 -0.108 -0.12 0.055
O2SA 0.0231 0.0449 0.0449 0.0265 0.0127 0.0127
Zr1SA 0.0387 0.0366 0.0366 0.0176 0.022 0.022
O4SA 0.128 0.421 0.111 -0.12 0.055 -0.108
Fe1TA 0.0123 0.177 0.0126 0 0 0
O5TA 0.024 0.188 0.033 0 0 0
O6TA 0.03 0.172 0.07 -0.02 -0.009 0.01
O6UA 0.03 0.172 0.07 0.02 -0.009 -0.01
O6AC 0.03 0.172 0.07 -0.02 0.009 -0.01
O6CC 0.03 0.172 0.07 0.02 0.009 0.01
O4XA 0.128 0.111 0.421 0.12 0.108 0.055
O4ZA 0.128 0.421 0.111 0.12 0.055 0.108
O4AB 0.128 0.111 0.421 -0.12 0.108 -0.055
O4HB 0.111 0.421 0.128 0.108 -0.055 -0.12
Fe1KA 0.0123 0.0126 0.177 0 0 0
O5KA 0.024 0.033 0.188 0 0 0
O6NA 0.03 0.07 0.172 -0.02 -0.01 0.009
O6KA 0.03 0.07 0.172 0.02 0.01 0.009
O6IC 0.03 0.07 0.172 -0.02 0.01 -0.009
O6DC 0.03 0.07 0.172 0.02 -0.01 -0.009
Fe1HA 0.0123 0.0126 0.177 0 0 0
O5HA 0.024 0.033 0.188 0 0 0
O6GC 0.03 0.07 0.172 0.02 0.01 0.009
O6JC 0.03 0.07 0.172 -0.02 -0.01 0.009
O6HA 0.03 0.07 0.172 0.02 -0.01 -0.009
O6MA 0.03 0.07 0.172 -0.02 0.01 -0.009
O4QB 0.128 0.421 0.111 -0.12 0.055 -0.108
O4DB 0.128 0.111 0.421 0.12 -0.108 -0.055
O4OB 0.111 0.128 0.421 -0.108 -0.12 0.055
O4SB 0.421 0.111 0.128 0.055 -0.108 -0.12
O4KB 0.421 0.128 0.111 -0.055 0.12 -0.108
O4VA 0.128 0.111 0.421 -0.12 -0.108 0.055
O4DC 0.421 0.128 0.111 0.055 -0.12 -0.108
O4TB 0.128 0.111 0.421 -0.12 -0.108 0.055
O1H 0.0368 0.0368 0.0368 -0.0235 0.0235 -0.0235
O1S 0.0368 0.0368 0.0368 0.0235 0.0235 0.0235
O1QA 0.0368 0.0368 0.0368 0.0235 0.0235 0.0235
O2Z 0.0231 0.0449 0.0449 -0.0265 -0.0127 0.0127
O2AA 0.0449 0.0231 0.0449 -0.0127 0.0265 -0.0127
O2HA 0.0449 0.0231 0.0449 0.0127 0.0265 0.0127
O2IA 0.0449 0.0449 0.0231 0.0127 0.0127 0.0265
O2JA 0.0449 0.0449 0.0231 -0.0127 -0.0127 0.0265
O2KA 0.0449 0.0231 0.0449 0.0127 -0.0265 -0.0127
O2LA 0.0449 0.0449 0.0231 -0.0127 0.0127 -0.0265
O2MA 0.0449 0.0231 0.0449 -0.0127 -0.0265 0.0127
O2NA 0.0449 0.0231 0.0449 -0.0127 0.0265 -0.0127
O2OA 0.0449 0.0449 0.0231 0.0127 -0.0127 -0.0265
O2TA 0.0449 0.0449 0.0231 -0.0127 0.0127 -0.0265
O2UA 0.0449 0.0449 0.0231 0.0127 0.0127 0.0265
Zr1A 0.0366 0.0387 0.0366 0.022 -0.0176 -0.022
Zr1B 0.0387 0.0366 0.0366 -0.0176 -0.022 0.022
Zr1C 0.0366 0.0387 0.0366 -0.022 0.0176 -0.022
Zr1E 0.0387 0.0366 0.0366 0.0176 -0.022 -0.022
Zr1I 0.0366 0.0366 0.0387 0.022 -0.022 -0.0176
Zr1V 0.0366 0.0366 0.0387 -0.022 0.022 -0.0176
Zr1Y 0.0366 0.0387 0.0366 0.022 -0.0176 -0.022
Zr1Z 0.0387 0.0366 0.0366 -0.0176 -0.022 0.022
Zr1AA 0.0366 0.0387 0.0366 -0.022 0.0176 -0.022
Zr1HA 0.0366 0.0387 0.0366 0.022 0.0176 0.022
Zr1IA 0.0366 0.0366 0.0387 0.022 0.022 0.0176
Zr1JA 0.0366 0.0366 0.0387 -0.022 -0.022 0.0176
Zr1KA 0.0366 0.0387 0.0366 0.022 -0.0176 -0.022
Zr1LA 0.0366 0.0366 0.0387 -0.022 0.022 -0.0176
Zr1MA 0.0366 0.0387 0.0366 -0.022 -0.0176 0.022
Zr1NA 0.0366 0.0387 0.0366 -0.022 0.0176 -0.022
Zr1OA 0.0366 0.0366 0.0387 0.022 -0.022 -0.0176
Zr1PA 0.0366 0.0387 0.0366 -0.022 -0.0176 0.022
Zr1TA 0.0366 0.0366 0.0387 -0.022 0.022 -0.0176
Zr1UA 0.0366 0.0366 0.0387 0.022 0.022 0.0176
O3G 0.085 0.1129 0.08 -0.0688 -0.0644 0.0693
O3J 0.085 0.08 0.1129 0.0688 0.0693 0.0644
O3K 0.1129 0.085 0.08 0.0644 0.0688 0.0693
O3R 0.1129 0.08 0.085 -0.0644 -0.0693 0.0688
O3QA 0.1129 0.08 0.085 0.0644 0.0693 0.0688
O3SA 0.08 0.085 0.1129 0.0693 0.0688 0.0644
O3VA 0.08 0.1129 0.085 0.0693 0.0644 0.0688
O3DB 0.08 0.1129 0.085 -0.0693 0.0644 -0.0688
O3HB 0.1129 0.085 0.08 -0.0644 -0.0688 0.0693
O3KB 0.085 0.08 0.1129 -0.0688 -0.0693 0.0644
O3OB 0.1129 0.08 0.085 0.0644 0.0693 0.0688
O3SB 0.085 0.1129 0.08 0.0688 0.0644 0.0693
O3TB 0.08 0.1129 0.085 0.0693 0.0644 0.0688
Zr2? 0.0393(4) 0.0362(3) 0.0362(3) 0.0158(3) 0.0215(2) 0.0215(2)
O7? 0.071(3) 0.053(2) 0.145(5) 0.020(3) 0.007(3) 0.024(2)
O8? 0.060(3) 0.0464(14) 0.0464(14) 0.0315(18) 0.0301(16) 0.0301(16)
O9? 0.08(3) 0.20(2) 0.14(5) 0.000 0.000 -0.04(3)
loop_
_geom_bond_atom_site_label_1
_geom_bond_atom_site_label_2
_geom_bond_site_symmetry_1
_geom_bond_site_symmetry_2
O1 Zr1 1_555 1_555
O2 Zr1 1_555 1_555
N1 C3 1_555 1_555
C1 C5 1_555 1_555
C2 H1 1_555 1_555
C3 C2 1_555 1_555
C4 C6 1_555 1_555
C5 H2 1_555 1_555
C6 C5 1_555 1_555
H3 C6 1_555 1_555
C7 C1 1_555 1_555
Zr1 O3 1_555 1_555
O3 C8 1_555 1_555
C8 C4 1_555 1_555
Fe1 N1 1_555 1_555
O4 Zr1 1_555 1_555
O5 Fe1 1_555 1_555
O6 O5 1_555 1_555
N1UA Fe1 1_555 1_555
C2UA H1UA 1_555 1_555
C3UA C7 1_555 1_555
C5UA C1 1_555 1_555
H2UA C5UA 1_555 1_555
C6UA C4 1_555 1_555
H3UA C6UA 1_555 1_555
O3UA C8 1_555 1_555
C1AB C5AB 1_555 1_555
C2AB C2 1_555 1_555
H1AB C2AB 1_555 1_555
C3AB N1 1_555 1_555
C4AB C6AB 1_555 1_555
C5AB H2AB 1_555 1_555
C6AB C5AB 1_555 1_555
H3AB C6AB 1_555 1_555
C7AB C1AB 1_555 1_555
O3AB C8AB 1_555 1_555
C8AB C4AB 1_555 1_555
C1XA C5AC 1_555 1_555
C2AC C2UA 1_555 1_555
H1AC C2AC 1_555 1_555
C3AC N1UA 1_555 1_555
C4XA C6AC 1_555 1_555
C5AC H2AC 1_555 1_555
C6AC C5AC 1_555 1_555
H3AC C6AC 1_555 1_555
C7XA C1XA 1_555 1_555
O3AC C8XA 1_555 1_555
C8XA C4XA 1_555 1_555
N1TA Fe1 1_555 1_555
C2CC H1CC 1_555 1_555
C3CC C7AB 1_555 1_555
C5CC C1AB 1_555 1_555
H2CC C5CC 1_555 1_555
C6CC C4AB 1_555 1_555
H3CC C6CC 1_555 1_555
O3CC C8AB 1_555 1_555
C1H C5TA 1_555 1_555
C2TA C2CC 1_555 1_555
H1TA C2TA 1_555 1_555
C3TA N1TA 1_555 1_555
C4H C6TA 1_555 1_555
C5TA H2TA 1_555 1_555
C6TA C5TA 1_555 1_555
H3TA C6TA 1_555 1_555
C7H C1H 1_555 1_555
O3TA C8H 1_555 1_555
C8H C4H 1_555 1_555
N1H Fe1 1_555 1_555
C2XA H1XA 1_555 1_555
C3XA C7XA 1_555 1_555
C5XA C1XA 1_555 1_555
H2XA C5XA 1_555 1_555
C6XA C4XA 1_555 1_555
H3XA C6XA 1_555 1_555
O3XA C8XA 1_555 1_555
C2H C2XA 1_555 1_555
H1H C2H 1_555 1_555
C3H C7H 1_555 1_555
C5H C1H 1_555 1_555
H2H C5H 1_555 1_555
C6H C4H 1_555 1_555
H3H C6H 1_555 1_555
O3H C8H 1_555 1_555
O6H O5 1_555 1_555
O6XA O5 1_555 1_555
O6AB O5 1_555 1_555
O1C Zr1D 1_555 1_555
O2D Zr1D 1_555 1_555
N1D C3D 1_555 1_555
C1D C5D 1_555 1_555
C2D H1D 1_555 1_555
C3D C2D 1_555 1_555
C4D C6D 1_555 1_555
C5D H2D 1_555 1_555
C6D C5D 1_555 1_555
H3D C6D 1_555 1_555
C7D C1D 1_555 1_555
Zr1D O3D 1_555 1_555
O3D C8D 1_555 1_555
C8D C4D 1_555 1_555
Fe1D N1D 1_555 1_555
O4D Zr1D 1_555 1_555
O5D Fe1D 1_555 1_555
O6D O5D 1_555 1_555
N1NA Fe1D 1_555 1_555
C2NA H1NA 1_555 1_555
C3NA C7D 1_555 1_555
C5NA C1D 1_555 1_555
H2NA C5NA 1_555 1_555
C6NA C4D 1_555 1_555
H3NA C6NA 1_555 1_555
O3NA C8D 1_555 1_555
C1BB C5BB 1_555 1_555
C2BB C2D 1_555 1_555
H1BB C2BB 1_555 1_555
C3BB N1D 1_555 1_555
C4BB C6BB 1_555 1_555
C5BB H2BB 1_555 1_555
C6BB C5BB 1_555 1_555
H3BB C6BB 1_555 1_555
C7BB C1BB 1_555 1_555
O3BB C8BB 1_555 1_555
C8BB C4BB 1_555 1_555
C1QB C5DC 1_555 1_555
C2DC C2NA 1_555 1_555
H1DC C2DC 1_555 1_555
C3DC N1NA 1_555 1_555
C4QB C6DC 1_555 1_555
C5DC H2DC 1_555 1_555
C6DC C5DC 1_555 1_555
H3DC C6DC 1_555 1_555
C7QB C1QB 1_555 1_555
O3DC C8QB 1_555 1_555
C8QB C4QB 1_555 1_555
N1KA Fe1D 1_555 1_555
C2IC H1IC 1_555 1_555
C3IC C7BB 1_555 1_555
C5IC C1BB 1_555 1_555
H2IC C5IC 1_555 1_555
C6IC C4BB 1_555 1_555
H3IC C6IC 1_555 1_555
O3IC C8BB 1_555 1_555
C1T C5KA 1_555 1_555
C2KA C2IC 1_555 1_555
H1KA C2KA 1_555 1_555
C3KA N1KA 1_555 1_555
C4T C6KA 1_555 1_555
C5KA H2KA 1_555 1_555
C6KA C5KA 1_555 1_555
H3KA C6KA 1_555 1_555
C7T C1T 1_555 1_555
O3KA C8T 1_555 1_555
C8T C4T 1_555 1_555
N1T Fe1D 1_555 1_555
C2QB H1QB 1_555 1_555
C3QB C7QB 1_555 1_555
C5QB C1QB 1_555 1_555
H2QB C5QB 1_555 1_555
C6QB C4QB 1_555 1_555
H3QB C6QB 1_555 1_555
O3QB Zr1 1_555 1_555
C2T C2QB 1_555 1_555
H1T C2T 1_555 1_555
C3T C7T 1_555 1_555
C5T C1T 1_555 1_555
H2T C5T 1_555 1_555
C6T C4T 1_555 1_555
H3T C6T 1_555 1_555
O3T C8T 1_555 1_555
O6T O5D 1_555 1_555
O6QB O5D 1_555 1_555
O6BB O5D 1_555 1_555
O1F Zr1F 1_555 1_555
O2F Zr1F 1_555 1_555
N1F C3F 1_555 1_555
C1F C5F 1_555 1_555
C2F H1F 1_555 1_555
C3F C2F 1_555 1_555
C4F C6F 1_555 1_555
C5F H2F 1_555 1_555
C6F C5F 1_555 1_555
H3F C6F 1_555 1_555
C7F C1F 1_555 1_555
Zr1F O3XA 1_555 1_555
O3F Zr1F 1_555 1_555
C8F C4F 1_555 1_555
Fe1F N1F 1_555 1_555
O4F Zr1F 1_555 1_555
O5F Fe1F 1_555 1_555
O6F O5F 1_555 1_555
N1MA Fe1F 1_555 1_555
C2MA H1MA 1_555 1_555
C3MA C7F 1_555 1_555
C5MA C1F 1_555 1_555
H2MA C5MA 1_555 1_555
C6MA C4F 1_555 1_555
H3MA C6MA 1_555 1_555
O3MA C8F 1_555 1_555
C1ZA C5ZA 1_555 1_555
C2ZA C2F 1_555 1_555
H1ZA C2ZA 1_555 1_555
C3ZA N1F 1_555 1_555
C4ZA C6ZA 1_555 1_555
C5ZA H2ZA 1_555 1_555
C6ZA C5ZA 1_555 1_555
H3ZA C6ZA 1_555 1_555
C7ZA C1ZA 1_555 1_555
O3ZA C8ZA 1_555 1_555
C8ZA C4ZA 1_555 1_555
C1PB C5GC 1_555 1_555
C2GC C2MA 1_555 1_555
H1GC C2GC 1_555 1_555
C3GC N1MA 1_555 1_555
C4PB C6GC 1_555 1_555
C5GC H2GC 1_555 1_555
C6GC C5GC 1_555 1_555
H3GC C6GC 1_555 1_555
C7PB C1PB 1_555 1_555
O3GC C8PB 1_555 1_555
C8PB C4PB 1_555 1_555
N1HA Fe1F 1_555 1_555
C2JC H1JC 1_555 1_555
C3JC C7ZA 1_555 1_555
C5JC C1ZA 1_555 1_555
H2JC C5JC 1_555 1_555
C6JC C4ZA 1_555 1_555
H3JC C6JC 1_555 1_555
O3JC C8ZA 1_555 1_555
C1U C5HA 1_555 1_555
C2HA C2JC 1_555 1_555
H1HA C2HA 1_555 1_555
C3HA N1HA 1_555 1_555
C4U C6HA 1_555 1_555
C5HA H2HA 1_555 1_555
C6HA C5HA 1_555 1_555
H3HA C6HA 1_555 1_555
C7U C1U 1_555 1_555
O3HA C8U 1_555 1_555
C8U C4U 1_555 1_555
N1U Fe1F 1_555 1_555
C2PB H1PB 1_555 1_555
C3PB C7PB 1_555 1_555
C5PB C1PB 1_555 1_555
H2PB C5PB 1_555 1_555
C6PB C4PB 1_555 1_555
H3PB C6PB 1_555 1_555
O3PB C8PB 1_555 1_555
C2U C2PB 1_555 1_555
H1U C2U 1_555 1_555
C3U C7U 1_555 1_555
C5U C1U 1_555 1_555
H2U C5U 1_555 1_555
C6U C4U 1_555 1_555
H3U C6U 1_555 1_555
O3U C8U 1_555 1_555
O6U O5F 1_555 1_555
O6PB O5F 1_555 1_555
O6ZA O5F 1_555 1_555
O2G Zr1G 1_555 1_555
Zr1G O1F 1_555 1_555
O4G Zr1G 1_555 1_555
O2H Zr1H 1_555 1_555
Zr1H O3H 1_555 1_555
O4H Zr1H 1_555 1_555
O2J Zr1J 1_555 1_555
Zr1J O1 1_555 1_555
O4J Zr1J 1_555 1_555
O2K Zr1K 1_555 1_555
Zr1K O1 1_555 1_555
O4K Zr1K 1_555 1_555
O2R Zr1R 1_555 1_555
Zr1R O1F 1_555 1_555
O4R Zr1R 1_555 1_555
O1A Zr1T 1_555 1_555
O2T Zr1T 1_555 1_555
Zr1T O3AB 1_555 1_555
O4T Zr1T 1_555 1_555
O2U Zr1U 1_555 1_555
Zr1U O3U 1_555 1_555
O4U Zr1U 1_555 1_555
O2QA Zr1 1_555 1_555
Zr1QA O2 1_555 1_555
O4QA Zr1QA 1_555 1_555
O2SA Zr1J 1_555 1_555
Zr1SA O2J 1_555 1_555
O4SA Zr1SA 1_555 1_555
Fe1TA N1 1_555 1_555
O5TA Fe1TA 1_555 1_555
O6TA O5TA 1_555 1_555
O6UA O5TA 1_555 1_555
O6AC O5TA 1_555 1_555
O6CC O5TA 1_555 1_555
O4XA Zr1F 1_555 1_555
O4ZA Zr1H 1_555 1_555
O4AB Zr1T 1_555 1_555
O4HB Zr1G 1_555 1_555
Fe1KA N1D 1_555 1_555
O5KA Fe1KA 1_555 1_555
O6NA O5KA 1_555 1_555
O6KA O5KA 1_555 1_555
O6IC O5KA 1_555 1_555
O6DC O5KA 1_555 1_555
Fe1HA N1F 1_555 1_555
O5HA Fe1HA 1_555 1_555
O6GC O5HA 1_555 1_555
O6JC O5HA 1_555 1_555
O6HA O5HA 1_555 1_555
O6MA O5HA 1_555 1_555
O4QB Zr1 1_555 1_555
O4DB Zr1D 1_555 1_555
O4OB Zr1J 1_555 1_555
O4SB Zr1K 1_555 1_555
O4KB Zr1R 1_555 1_555
O4VA Zr1U 1_555 1_555
O4DC Zr1QA 1_555 1_555
O4TB Zr1SA 1_555 1_555
O1H Zr1H 1_555 1_555
O1S Zr1U 1_555 1_555
O1QA Zr1QA 1_555 1_555
O2Z Zr1G 1_555 1_555
O2AA Zr1H 1_555 1_555
O2HA Zr1U 1_555 1_555
O2IA Zr1U 1_555 1_555
O2JA Zr1F 1_555 1_555
O2KA Zr1T 1_555 1_555
O2LA Zr1D 1_555 1_555
O2MA Zr1F 1_555 1_555
O2NA Zr1D 1_555 1_555
O2OA Zr1T 1_555 1_555
O2TA Zr1H 1_555 1_555
O2UA Zr1 1_555 1_555
Zr1A O1A 1_555 1_555
Zr1B O3BB 1_555 1_555
Zr1C O1C 1_555 1_555
Zr1E O3PB 1_555 1_555
Zr1I O1A 1_555 1_555
Zr1V O1C 1_555 1_555
Zr1Y O3GC 1_555 1_555
Zr1Z O2G 1_555 1_555
Zr1AA O3JC 1_555 1_555
Zr1HA O3HA 1_555 1_555
Zr1IA O2U 1_555 1_555
Zr1JA O3AC 1_555 1_555
Zr1KA O3KA 1_555 1_555
Zr1LA O2D 1_555 1_555
Zr1MA O2F 1_555 1_555
Zr1NA O2D 1_555 1_555
Zr1OA O3CC 1_555 1_555
Zr1PA O3IC 1_555 1_555
Zr1TA O3TA 1_555 1_555
Zr1UA O2 1_555 1_555
O3G Zr1G 1_555 1_555
O3J Zr1J 1_555 1_555
O3K Zr1K 1_555 1_555
O3R Zr1R 1_555 1_555
O3QA Zr1QA 1_555 1_555
O3SA Zr1SA 1_555 1_555
O3VA Zr1U 1_555 1_555
O3DB Zr1D 1_555 1_555
O3HB Zr1G 1_555 1_555
O3KB Zr1R 1_555 1_555
O3OB Zr1J 1_555 1_555
O3SB Zr1K 1_555 1_555
O3TB Zr1SA 1_555 1_555
C3 C7 1_555 1_555
Fe1 Fe1TA 1_555 1_555
O6 O6XA 1_555 1_555
O6 O6AB 1_555 1_555
N1UA C3UA 1_555 1_555
N1UA Fe1TA 1_555 1_555
C2UA C3UA 1_555 1_555
C5UA C6UA 1_555 1_555
O3UA Zr1UA 1_555 1_555
C2AB C3AB 1_555 1_555
C3AB C7AB 1_555 1_555
C2AC C3AC 1_555 1_555
C3AC C7XA 1_555 1_555
N1TA C3CC 1_555 1_555
N1TA Fe1TA 1_555 1_555
C2CC C3CC 1_555 1_555
C5CC C6CC 1_555 1_555
C2TA C3TA 1_555 1_555
C3TA C7H 1_555 1_555
N1H C3XA 1_555 1_555
N1H C3H 1_555 1_555
N1H Fe1TA 1_555 1_555
C2XA C3XA 1_555 1_555
C5XA C6XA 1_555 1_555
C2H C3H 1_555 1_555
C5H C6H 1_555 1_555
O6H O6XA 1_555 1_555
O6H O6AB 1_555 1_555
C3D C7D 1_555 1_555
Fe1D Fe1KA 1_555 1_555
O6D O6QB 1_555 1_555
O6D O6BB 1_555 1_555
N1NA C3NA 1_555 1_555
N1NA Fe1KA 1_555 1_555
C2NA C3NA 1_555 1_555
C5NA C6NA 1_555 1_555
O3NA Zr1NA 1_555 1_555
C2BB C3BB 1_555 1_555
C3BB C7BB 1_555 1_555
C2DC C3DC 1_555 1_555
C3DC C7QB 1_555 1_555
O3DC Zr1QA 1_555 1_555
C8QB O3QB 1_555 1_555
N1KA C3IC 1_555 1_555
N1KA Fe1KA 1_555 1_555
C2IC C3IC 1_555 1_555
C5IC C6IC 1_555 1_555
C2KA C3KA 1_555 1_555
C3KA C7T 1_555 1_555
N1T C3QB 1_555 1_555
N1T C3T 1_555 1_555
N1T Fe1KA 1_555 1_555
C2QB C3QB 1_555 1_555
C5QB C6QB 1_555 1_555
C2T C3T 1_555 1_555
C5T C6T 1_555 1_555
O3T Zr1T 1_555 1_555
O6T O6QB 1_555 1_555
O6T O6BB 1_555 1_555
O2F Zr1JA 1_555 1_555
C3F C7F 1_555 1_555
O3F C8F 1_555 1_555
Fe1F Fe1HA 1_555 1_555
O6F O6PB 1_555 1_555
O6F O6ZA 1_555 1_555
N1MA C3MA 1_555 1_555
N1MA Fe1HA 1_555 1_555
C2MA C3MA 1_555 1_555
C5MA C6MA 1_555 1_555
O3MA Zr1MA 1_555 1_555
C2ZA C3ZA 1_555 1_555
C3ZA C7ZA 1_555 1_555
O3ZA Zr1H 1_555 1_555
C2GC C3GC 1_555 1_555
C3GC C7PB 1_555 1_555
N1HA C3JC 1_555 1_555
N1HA Fe1HA 1_555 1_555
C2JC C3JC 1_555 1_555
C5JC C6JC 1_555 1_555
C2HA C3HA 1_555 1_555
C3HA C7U 1_555 1_555
N1U C3PB 1_555 1_555
N1U C3U 1_555 1_555
N1U Fe1HA 1_555 1_555
C2PB C3PB 1_555 1_555
C5PB C6PB 1_555 1_555
C2U C3U 1_555 1_555
C5U C6U 1_555 1_555
O6U O6PB 1_555 1_555
O6U O6ZA 1_555 1_555
O2G Zr1MA 1_555 1_555
Zr1G O2MA 1_555 1_555
O2H Zr1AA 1_555 1_555
O2H Zr1TA 1_555 1_555
O2J Zr1UA 1_555 1_555
Zr1J O2UA 1_555 1_555
O2K Zr1QA 1_555 1_555
O2K Zr1SA 1_555 1_555
Zr1K O2QA 1_555 1_555
Zr1K O2SA 1_555 1_555
O2R Zr1Z 1_555 1_555
O2R Zr1JA 1_555 1_555
Zr1R O2Z 1_555 1_555
Zr1R O2JA 1_555 1_555
O2T Zr1KA 1_555 1_555
O2T Zr1OA 1_555 1_555
O2U Zr1HA 1_555 1_555
O2QA Zr1QA 1_555 1_555
O2SA Zr1SA 1_555 1_555
Zr1SA O1QA 1_555 1_555
O6TA O6AC 1_555 1_555
O6TA O6CC 1_555 1_555
O6UA O6AC 1_555 1_555
O6UA O6CC 1_555 1_555
O6NA O6IC 1_555 1_555
O6NA O6DC 1_555 1_555
O6KA O6IC 1_555 1_555
O6KA O6DC 1_555 1_555
O6GC O6HA 1_555 1_555
O6GC O6MA 1_555 1_555
O6JC O6HA 1_555 1_555
O6JC O6MA 1_555 1_555
O1QA Zr1UA 1_555 1_555
O2Z Zr1Z 1_555 1_555
O2AA Zr1AA 1_555 1_555
O2HA Zr1HA 1_555 1_555
O2IA Zr1IA 1_555 1_555
O2JA Zr1JA 1_555 1_555
O2KA Zr1I 1_555 1_555
O2KA Zr1KA 1_555 1_555
O2LA Zr1C 1_555 1_555
O2LA Zr1LA 1_555 1_555
O2MA Zr1MA 1_555 1_555
O2NA Zr1V 1_555 1_555
O2NA Zr1NA 1_555 1_555
O2OA Zr1A 1_555 1_555
O2OA Zr1OA 1_555 1_555
O2TA Zr1TA 1_555 1_555
O2UA Zr1UA 1_555 1_555

#END
