
#######################################################################
#
#                 Cambridge Crystallographic Data Centre
#                                CCDC 
#
#######################################################################
#
# If this CIF has been generated from an entry in the Cambridge 
# Structural Database, then it will include bibliographic, chemical, 
# crystal, experimental, refinement or atomic coordinate data resulting 
# from the CCDC's data processing and validation procedures.
#
#######################################################################

data_NUSXAC
_chemical_name_common            PCN-224Fe(ii)
_chemical_formula_moiety         '(C144 H116 Fe3 N12 O64 Zr12)n'
_chemical_name_systematic        
"catena-[tris(\m~9~-4,4',4'',4'''-(Porphyrinato-5,10,15,20-tetrayl)tetrabenzoato)-octakis(\m~3~-hydroxo)-octakis(\m~3~-oxido)-dodeca-aqua-dodecahydroxy-tri-iron(ii)-dodeca-zirconium unknown solvate]"
_symmetry_cell_setting           cubic
_symmetry_space_group_name_H-M   'I m -3 m'
_symmetry_Int_Tables_number      229
_space_group_name_Hall           '-I 4 2 3'
loop_
_symmetry_equiv_pos_site_id
_symmetry_equiv_pos_as_xyz
1 x,y,z
2 -y,x,z
3 -x,-y,z
4 y,-x,z
5 x,-z,y
6 x,-y,-z
7 x,z,-y
8 z,y,-x
9 -x,y,-z
10 -z,y,x
11 z,x,y
12 y,z,x
13 -y,-z,x
14 z,-x,-y
15 -y,z,-x
16 -z,-x,y
17 -z,x,-y
18 y,-z,-x
19 y,x,-z
20 -y,-x,-z
21 -x,z,y
22 -x,-z,-y
23 z,-y,x
24 -z,-y,-x
25 1/2+x,1/2+y,1/2+z
26 1/2-y,1/2+x,1/2+z
27 1/2-x,1/2-y,1/2+z
28 1/2+y,1/2-x,1/2+z
29 1/2+x,1/2-z,1/2+y
30 1/2+x,1/2-y,1/2-z
31 1/2+x,1/2+z,1/2-y
32 1/2+z,1/2+y,1/2-x
33 1/2-x,1/2+y,1/2-z
34 1/2-z,1/2+y,1/2+x
35 1/2+z,1/2+x,1/2+y
36 1/2+y,1/2+z,1/2+x
37 1/2-y,1/2-z,1/2+x
38 1/2+z,1/2-x,1/2-y
39 1/2-y,1/2+z,1/2-x
40 1/2-z,1/2-x,1/2+y
41 1/2-z,1/2+x,1/2-y
42 1/2+y,1/2-z,1/2-x
43 1/2+y,1/2+x,1/2-z
44 1/2-y,1/2-x,1/2-z
45 1/2-x,1/2+z,1/2+y
46 1/2-x,1/2-z,1/2-y
47 1/2+z,1/2-y,1/2+x
48 1/2-z,1/2-y,1/2-x
49 -x,-y,-z
50 y,-x,-z
51 x,y,-z
52 -y,x,-z
53 -x,z,-y
54 -x,y,z
55 -x,-z,y
56 -z,-y,x
57 x,-y,z
58 z,-y,-x
59 -z,-x,-y
60 -y,-z,-x
61 y,z,-x
62 -z,x,y
63 y,-z,x
64 z,x,-y
65 z,-x,y
66 -y,z,x
67 -y,-x,z
68 y,x,z
69 x,-z,-y
70 x,z,y
71 -z,y,-x
72 z,y,x
73 1/2-x,1/2-y,1/2-z
74 1/2+y,1/2-x,1/2-z
75 1/2+x,1/2+y,1/2-z
76 1/2-y,1/2+x,1/2-z
77 1/2-x,1/2+z,1/2-y
78 1/2-x,1/2+y,1/2+z
79 1/2-x,1/2-z,1/2+y
80 1/2-z,1/2-y,1/2+x
81 1/2+x,1/2-y,1/2+z
82 1/2+z,1/2-y,1/2-x
83 1/2-z,1/2-x,1/2-y
84 1/2-y,1/2-z,1/2-x
85 1/2+y,1/2+z,1/2-x
86 1/2-z,1/2+x,1/2+y
87 1/2+y,1/2-z,1/2+x
88 1/2+z,1/2+x,1/2-y
89 1/2+z,1/2-x,1/2+y
90 1/2-y,1/2+z,1/2+x
91 1/2-y,1/2-x,1/2+z
92 1/2+y,1/2+x,1/2+z
93 1/2+x,1/2-z,1/2-y
94 1/2+x,1/2+z,1/2+y
95 1/2-z,1/2+y,1/2-x
96 1/2+z,1/2+y,1/2+x
_cell_length_a                   38.4265(16)
_cell_length_b                   38.4265(16)
_cell_length_c                   38.4265(16)
_cell_angle_alpha                90
_cell_angle_beta                 90
_cell_angle_gamma                90
_cell_volume                     56740.4
_exptl_crystal_description       cube
_cell_formula_units_Z            4
loop_
_atom_site_label
_atom_site_type_symbol
_atom_site_fract_x
_atom_site_fract_y
_atom_site_fract_z
_atom_site_U_iso_or_equiv
_atom_site_thermal_displace_type
Zr1 Zr 0.30015(3) 0.30015(3) 0.23527(3) 0.0695 Uani
Fe1 Fe 0.2500 0.5000 0.0000 0.1776 Uani
O1 O 0.28233(12) 0.28233(12) 0.28233(12) 0.0785 Uani
C1 C 0.2500 0.40958(8) 0.09042(8) 0.1233 Uani
C2 C 0.25098(16) 0.42669(8) 0.02810(8) 0.1172 Uani
C3 C 0.25285(18) 0.39136(8) 0.01744(8) 0.1299 Uani
H1 H 0.2539 0.3715 0.0322 0.1560 Uiso
C4 C 0.2791(2) 0.37772(11) 0.13535(11) 0.1277 Uani
H2 H 0.2994 0.3734 0.1488 0.1530 Uiso
N1 N 0.25008(19) 0.44841(9) 0.0000 0.1186 Uani
C5 C 0.2500 0.35897(9) 0.14103(9) 0.1202 Uani
C6 C 0.2795(2) 0.40374(11) 0.10949(10) 0.1341 Uani
H3 H 0.3000 0.4170 0.1054 0.1610 Uiso
C7 C 0.2500 0.43698(7) 0.06302(7) 0.1287 Uani
C8 C 0.2500 0.33145(11) 0.16855(11) 0.1237 Uani
O2 O 0.3530(2) 0.3064(5) 0.2573(4) 0.1993 Uani
O3 O 0.2846(2) 0.33533(18) 0.1908(2) 0.0957 Uani
O4 O 0.2330(2) 0.29043(18) 0.2330(2) 0.0660 Uani
C2SA C 0.24902(16) 0.47190(8) 0.07331(8) 0.1172 Uani
C3SA C 0.24715(18) 0.48256(8) 0.10864(8) 0.1299 Uani
H1SA H 0.2461 0.4678 0.1285 0.1560 Uiso
C4SA C 0.2209(2) 0.36465(11) 0.12228(11) 0.1277 Uani
H2SA H 0.2006 0.3512 0.1266 0.1530 Uiso
N1SA N 0.24992(19) 0.5000 0.05159(9) 0.1186 Uani
C6SA C 0.2205(2) 0.39051(10) 0.09626(11) 0.1341 Uani
H3SA H 0.2000 0.3946 0.0830 0.1610 Uiso
O3SA O 0.2154(2) 0.3092(2) 0.16467(18) 0.0957 Uani
C1XA C 0.2500 0.40958(8) -0.09042(8) 0.1233 Uani
C2XA C 0.25098(16) 0.42669(8) -0.02810(8) 0.1172 Uani
C3XA C 0.25285(18) 0.39136(8) -0.01744(8) 0.1299 Uani
H1XA H 0.2539 0.3715 -0.0322 0.1560 Uiso
C4XA C 0.2791(2) 0.37772(11) -0.13535(11) 0.1277 Uani
H2XA H 0.2994 0.3734 -0.1488 0.1530 Uiso
C5XA C 0.2500 0.35897(9) -0.14103(9) 0.1202 Uani
C6XA C 0.2795(2) 0.40374(11) -0.10949(10) 0.1341 Uani
H3XA H 0.3000 0.4170 -0.1054 0.1610 Uiso
C7XA C 0.2500 0.43698(7) -0.06302(7) 0.1287 Uani
C8XA C 0.2500 0.33145(11) -0.16855(11) 0.1237 Uani
O3XA O 0.2846(2) 0.33533(18) -0.1908(2) 0.0957 Uani
C1DB C 0.2500 0.59042(8) 0.09042(8) 0.1233 Uani
C2XB C 0.24902(16) 0.52810(8) 0.07331(8) 0.1172 Uani
C3XB C 0.24715(18) 0.51744(8) 0.10864(8) 0.1299 Uani
H1XB H 0.2461 0.5322 0.1285 0.1560 Uiso
C4XB C 0.2209(2) 0.63535(11) 0.12228(11) 0.1277 Uani
H2XB H 0.2006 0.6488 0.1266 0.1530 Uiso
C5DB C 0.2500 0.64103(9) 0.14103(9) 0.1202 Uani
C6XB C 0.2205(2) 0.60949(10) 0.09626(11) 0.1341 Uani
H3XB H 0.2000 0.6054 0.0830 0.1610 Uiso
C7DB C 0.2500 0.56302(7) 0.06302(7) 0.1287 Uani
C8DB C 0.2500 0.66855(11) 0.16855(11) 0.1237 Uani
O3XB O 0.2154(2) 0.6908(2) 0.16467(18) 0.0957 Uani
C2ZB C 0.24902(16) 0.47190(8) -0.07331(8) 0.1172 Uani
C3ZB C 0.24715(18) 0.48256(8) -0.10864(8) 0.1299 Uani
H1ZB H 0.2461 0.4678 -0.1285 0.1560 Uiso
C4ZB C 0.2209(2) 0.36465(11) -0.12228(11) 0.1277 Uani
H2ZB H 0.2006 0.3512 -0.1266 0.1530 Uiso
N1RA N 0.24992(19) 0.5000 -0.05159(9) 0.1186 Uani
C6ZB C 0.2205(2) 0.39051(10) -0.09626(11) 0.1341 Uani
H3ZB H 0.2000 0.3946 -0.0830 0.1610 Uiso
O3ZB O 0.2154(2) 0.3092(2) -0.16467(18) 0.0957 Uani
C1E C 0.2500 0.59042(8) -0.09042(8) 0.1233 Uani
C2RA C 0.24902(16) 0.52810(8) -0.07331(8) 0.1172 Uani
C3RA C 0.24715(18) 0.51744(8) -0.10864(8) 0.1299 Uani
H1RA H 0.2461 0.5322 -0.1285 0.1560 Uiso
C4RA C 0.2209(2) 0.63535(11) -0.12228(11) 0.1277 Uani
H2RA H 0.2006 0.6488 -0.1266 0.1530 Uiso
C5E C 0.2500 0.64103(9) -0.14103(9) 0.1202 Uani
C6RA C 0.2205(2) 0.60949(10) -0.09626(11) 0.1341 Uani
H3RA H 0.2000 0.6054 -0.0830 0.1610 Uiso
C7E C 0.2500 0.56302(7) -0.06302(7) 0.1287 Uani
C8E C 0.2500 0.66855(11) -0.16855(11) 0.1237 Uani
O3RA O 0.2154(2) 0.6908(2) -0.16467(18) 0.0957 Uani
C2DB C 0.25098(16) 0.57331(8) 0.02810(8) 0.1172 Uani
C3DB C 0.25285(18) 0.60864(8) 0.01744(8) 0.1299 Uani
H1DB H 0.2539 0.6285 0.0322 0.1560 Uiso
C4DB C 0.2791(2) 0.62228(11) 0.13535(11) 0.1277 Uani
H2DB H 0.2994 0.6266 0.1488 0.1530 Uiso
N1E N 0.25008(19) 0.55159(9) 0.0000 0.1186 Uani
C6DB C 0.2795(2) 0.59626(11) 0.10949(10) 0.1341 Uani
H3DB H 0.3000 0.5830 0.1054 0.1610 Uiso
O3DB O 0.2846(2) 0.66467(18) 0.1908(2) 0.0957 Uani
C2E C 0.25098(16) 0.57331(8) -0.02810(8) 0.1172 Uani
C3E C 0.25285(18) 0.60864(8) -0.01744(8) 0.1299 Uani
H1E H 0.2539 0.6285 -0.0322 0.1560 Uiso
C4E C 0.2791(2) 0.62228(11) -0.13535(11) 0.1277 Uani
H2E H 0.2994 0.6266 -0.1488 0.1530 Uiso
C6E C 0.2795(2) 0.59626(11) -0.10949(10) 0.1341 Uani
H3E H 0.3000 0.5830 -0.1054 0.1610 Uiso
O3E O 0.2846(2) 0.66467(18) -0.1908(2) 0.0957 Uani
Zr1A Zr 0.69985(3) 0.30015(3) 0.23527(3) 0.0695 Uani
Fe1A Fe 0.5000 0.2500 0.0000 0.1776 Uani
O1A O 0.71767(12) 0.28233(12) 0.28233(12) 0.0785 Uani
C1A C 0.59042(8) 0.2500 0.09042(8) 0.1233 Uani
C2A C 0.57331(8) 0.25098(16) 0.02810(8) 0.1172 Uani
C3A C 0.60864(8) 0.25285(18) 0.01744(8) 0.1299 Uani
H1A H 0.6285 0.2539 0.0322 0.1560 Uiso
C4A C 0.62228(11) 0.2791(2) 0.13535(11) 0.1277 Uani
H2A H 0.6266 0.2994 0.1488 0.1530 Uiso
N1A N 0.55159(9) 0.25008(19) 0.0000 0.1186 Uani
C5A C 0.64103(9) 0.2500 0.14103(9) 0.1202 Uani
C6A C 0.59626(11) 0.2795(2) 0.10949(10) 0.1341 Uani
H3A H 0.5830 0.3000 0.1054 0.1610 Uiso
C7A C 0.56302(7) 0.2500 0.06302(7) 0.1287 Uani
C8A C 0.66855(11) 0.2500 0.16855(11) 0.1237 Uani
O2A O 0.6936(5) 0.3530(2) 0.2573(4) 0.1993 Uani
O3A O 0.66467(18) 0.2846(2) 0.1908(2) 0.0957 Uani
O4A O 0.70957(18) 0.2330(2) 0.2330(2) 0.0660 Uani
C2KA C 0.52810(8) 0.24902(16) 0.07331(8) 0.1172 Uani
C3KA C 0.51744(8) 0.24715(18) 0.10864(8) 0.1299 Uani
H1KA H 0.5322 0.2461 0.1285 0.1560 Uiso
C4KA C 0.63535(11) 0.2209(2) 0.12228(11) 0.1277 Uani
H2KA H 0.6488 0.2006 0.1266 0.1530 Uiso
N1KA N 0.5000 0.24992(19) 0.05159(9) 0.1186 Uani
C6KA C 0.60949(10) 0.2205(2) 0.09626(11) 0.1341 Uani
H3KA H 0.6054 0.2000 0.0830 0.1610 Uiso
O3KA O 0.6908(2) 0.2154(2) 0.16467(18) 0.0957 Uani
C1YA C 0.59042(8) 0.2500 -0.09042(8) 0.1233 Uani
C2YA C 0.57331(8) 0.25098(16) -0.02810(8) 0.1172 Uani
C3YA C 0.60864(8) 0.25285(18) -0.01744(8) 0.1299 Uani
H1YA H 0.6285 0.2539 -0.0322 0.1560 Uiso
C4YA C 0.62228(11) 0.2791(2) -0.13535(11) 0.1277 Uani
H2YA H 0.6266 0.2994 -0.1488 0.1530 Uiso
C5YA C 0.64103(9) 0.2500 -0.14103(9) 0.1202 Uani
C6YA C 0.59626(11) 0.2795(2) -0.10949(10) 0.1341 Uani
H3YA H 0.5830 0.3000 -0.1054 0.1610 Uiso
C7YA C 0.56302(7) 0.2500 -0.06302(7) 0.1287 Uani
C8YA C 0.66855(11) 0.2500 -0.16855(11) 0.1237 Uani
O3YA O 0.66467(18) 0.2846(2) -0.1908(2) 0.0957 Uani
C1OB C 0.40958(8) 0.2500 0.09042(8) 0.1233 Uani
C2DC C 0.47190(8) 0.24902(16) 0.07331(8) 0.1172 Uani
C3DC C 0.48256(8) 0.24715(18) 0.10864(8) 0.1299 Uani
H1DC H 0.4678 0.2461 0.1285 0.1560 Uiso
C4DC C 0.36465(11) 0.2209(2) 0.12228(11) 0.1277 Uani
H2DC H 0.3512 0.2006 0.1266 0.1530 Uiso
C5OB C 0.35897(9) 0.2500 0.14103(9) 0.1202 Uani
C6DC C 0.39051(10) 0.2205(2) 0.09626(11) 0.1341 Uani
H3DC H 0.3946 0.2000 0.0830 0.1610 Uiso
C7OB C 0.43698(7) 0.2500 0.06302(7) 0.1287 Uani
C8OB C 0.33145(11) 0.2500 0.16855(11) 0.1237 Uani
O3DC O 0.3092(2) 0.2154(2) 0.16467(18) 0.0957 Uani
C2JC C 0.52810(8) 0.24902(16) -0.07331(8) 0.1172 Uani
C3JC C 0.51744(8) 0.24715(18) -0.10864(8) 0.1299 Uani
H1JC H 0.5322 0.2461 -0.1285 0.1560 Uiso
C4JC C 0.63535(11) 0.2209(2) -0.12228(11) 0.1277 Uani
H2JC H 0.6488 0.2006 -0.1266 0.1530 Uiso
N1MA N 0.5000 0.24992(19) -0.05159(9) 0.1186 Uani
C6JC C 0.60949(10) 0.2205(2) -0.09626(11) 0.1341 Uani
H3JC H 0.6054 0.2000 -0.0830 0.1610 Uiso
O3JC O 0.6908(2) 0.2154(2) -0.16467(18) 0.0957 Uani
C1R C 0.40958(8) 0.2500 -0.09042(8) 0.1233 Uani
C2MA C 0.47190(8) 0.24902(16) -0.07331(8) 0.1172 Uani
C3MA C 0.48256(8) 0.24715(18) -0.10864(8) 0.1299 Uani
H1MA H 0.4678 0.2461 -0.1285 0.1560 Uiso
C4MA C 0.36465(11) 0.2209(2) -0.12228(11) 0.1277 Uani
H2MA H 0.3512 0.2006 -0.1266 0.1530 Uiso
C5R C 0.35897(9) 0.2500 -0.14103(9) 0.1202 Uani
C6MA C 0.39051(10) 0.2205(2) -0.09626(11) 0.1341 Uani
H3MA H 0.3946 0.2000 -0.0830 0.1610 Uiso
C7R C 0.43698(7) 0.2500 -0.06302(7) 0.1287 Uani
C8R C 0.33145(11) 0.2500 -0.16855(11) 0.1237 Uani
O3MA O 0.3092(2) 0.2154(2) -0.16467(18) 0.0957 Uani
C2OB C 0.42669(8) 0.25098(16) 0.02810(8) 0.1172 Uani
C3OB C 0.39136(8) 0.25285(18) 0.01744(8) 0.1299 Uani
H1OB H 0.3715 0.2539 0.0322 0.1560 Uiso
C4OB C 0.37772(11) 0.2791(2) 0.13535(11) 0.1277 Uani
H2OB H 0.3734 0.2994 0.1488 0.1530 Uiso
N1R N 0.44841(9) 0.25008(19) 0.0000 0.1186 Uani
C6OB C 0.40374(11) 0.2795(2) 0.10949(10) 0.1341 Uani
H3OB H 0.4170 0.3000 0.1054 0.1610 Uiso
O3OB O 0.33533(18) 0.2846(2) 0.1908(2) 0.0957 Uani
C2R C 0.42669(8) 0.25098(16) -0.02810(8) 0.1172 Uani
C3R C 0.39136(8) 0.25285(18) -0.01744(8) 0.1299 Uani
H1R H 0.3715 0.2539 -0.0322 0.1560 Uiso
C4R C 0.37772(11) 0.2791(2) -0.13535(11) 0.1277 Uani
H2R H 0.3734 0.2994 -0.1488 0.1530 Uiso
C6R C 0.40374(11) 0.2795(2) -0.10949(10) 0.1341 Uani
H3R H 0.4170 0.3000 -0.1054 0.1610 Uiso
O3R O 0.33533(18) 0.2846(2) -0.1908(2) 0.0957 Uani
Zr1C Zr 0.30015(3) 0.69985(3) 0.23527(3) 0.0695 Uani
Fe1C Fe 0.5000 0.7500 0.0000 0.1776 Uani
O1C O 0.28233(12) 0.71767(12) 0.28233(12) 0.0785 Uani
C1C C 0.40958(8) 0.7500 0.09042(8) 0.1233 Uani
C2C C 0.42669(8) 0.74902(16) 0.02810(8) 0.1172 Uani
C3C C 0.39136(8) 0.74715(18) 0.01744(8) 0.1299 Uani
H1C H 0.3715 0.7461 0.0322 0.1560 Uiso
C4C C 0.37772(11) 0.7209(2) 0.13535(11) 0.1277 Uani
H2C H 0.3734 0.7006 0.1488 0.1530 Uiso
N1C N 0.44841(9) 0.74992(19) 0.0000 0.1186 Uani
C5C C 0.35897(9) 0.7500 0.14103(9) 0.1202 Uani
C6C C 0.40374(11) 0.7205(2) 0.10949(10) 0.1341 Uani
H3C H 0.4170 0.7000 0.1054 0.1610 Uiso
C7C C 0.43698(7) 0.7500 0.06302(7) 0.1287 Uani
C8C C 0.33145(11) 0.7500 0.16855(11) 0.1237 Uani
O2C O 0.3064(5) 0.6470(2) 0.2573(4) 0.1993 Uani
O3C O 0.33533(18) 0.7154(2) 0.1908(2) 0.0957 Uani
O4C O 0.29043(18) 0.7670(2) 0.2330(2) 0.0660 Uani
C2NA C 0.47190(8) 0.75098(16) 0.07331(8) 0.1172 Uani
C3NA C 0.48256(8) 0.75285(18) 0.10864(8) 0.1299 Uani
H1NA H 0.4678 0.7539 0.1285 0.1560 Uiso
C4NA C 0.36465(11) 0.7791(2) 0.12228(11) 0.1277 Uani
H2NA H 0.3512 0.7994 0.1266 0.1530 Uiso
N1NA N 0.5000 0.75008(19) 0.05159(9) 0.1186 Uani
C6NA C 0.39051(10) 0.7795(2) 0.09626(11) 0.1341 Uani
H3NA H 0.3946 0.8000 0.0830 0.1610 Uiso
O3NA O 0.3092(2) 0.7846(2) 0.16467(18) 0.0957 Uani
C1WA C 0.40958(8) 0.7500 -0.09042(8) 0.1233 Uani
C2WA C 0.42669(8) 0.74902(16) -0.02810(8) 0.1172 Uani
C3WA C 0.39136(8) 0.74715(18) -0.01744(8) 0.1299 Uani
H1WA H 0.3715 0.7461 -0.0322 0.1560 Uiso
C4WA C 0.37772(11) 0.7209(2) -0.13535(11) 0.1277 Uani
H2WA H 0.3734 0.7006 -0.1488 0.1530 Uiso
C5WA C 0.35897(9) 0.7500 -0.14103(9) 0.1202 Uani
C6WA C 0.40374(11) 0.7205(2) -0.10949(10) 0.1341 Uani
H3WA H 0.4170 0.7000 -0.1054 0.1610 Uiso
C7WA C 0.43698(7) 0.7500 -0.06302(7) 0.1287 Uani
C8WA C 0.33145(11) 0.7500 -0.16855(11) 0.1237 Uani
O3WA O 0.33533(18) 0.7154(2) -0.1908(2) 0.0957 Uani
C1NB C 0.59042(8) 0.7500 0.09042(8) 0.1233 Uani
C2IC C 0.52810(8) 0.75098(16) 0.07331(8) 0.1172 Uani
C3IC C 0.51744(8) 0.75285(18) 0.10864(8) 0.1299 Uani
H1IC H 0.5322 0.7539 0.1285 0.1560 Uiso
C4IC C 0.63535(11) 0.7791(2) 0.12228(11) 0.1277 Uani
H2IC H 0.6488 0.7994 0.1266 0.1530 Uiso
C5NB C 0.64103(9) 0.7500 0.14103(9) 0.1202 Uani
C6IC C 0.60949(10) 0.7795(2) 0.09626(11) 0.1341 Uani
H3IC H 0.6054 0.8000 0.0830 0.1610 Uiso
C7NB C 0.56302(7) 0.7500 0.06302(7) 0.1287 Uani
C8NB C 0.66855(11) 0.7500 0.16855(11) 0.1237 Uani
O3IC O 0.6908(2) 0.7846(2) 0.16467(18) 0.0957 Uani
C2GC C 0.47190(8) 0.75098(16) -0.07331(8) 0.1172 Uani
C3GC C 0.48256(8) 0.75285(18) -0.10864(8) 0.1299 Uani
H1GC H 0.4678 0.7539 -0.1285 0.1560 Uiso
C4GC C 0.36465(11) 0.7791(2) -0.12228(11) 0.1277 Uani
H2GC H 0.3512 0.7994 -0.1266 0.1530 Uiso
N1HA N 0.5000 0.75008(19) -0.05159(9) 0.1186 Uani
C6GC C 0.39051(10) 0.7795(2) -0.09626(11) 0.1341 Uani
H3GC H 0.3946 0.8000 -0.0830 0.1610 Uiso
O3GC O 0.3092(2) 0.7846(2) -0.16467(18) 0.0957 Uani
C1S C 0.59042(8) 0.7500 -0.09042(8) 0.1233 Uani
C2HA C 0.52810(8) 0.75098(16) -0.07331(8) 0.1172 Uani
C3HA C 0.51744(8) 0.75285(18) -0.10864(8) 0.1299 Uani
H1HA H 0.5322 0.7539 -0.1285 0.1560 Uiso
C4HA C 0.63535(11) 0.7791(2) -0.12228(11) 0.1277 Uani
H2HA H 0.6488 0.7994 -0.1266 0.1530 Uiso
C5S C 0.64103(9) 0.7500 -0.14103(9) 0.1202 Uani
C6HA C 0.60949(10) 0.7795(2) -0.09626(11) 0.1341 Uani
H3HA H 0.6054 0.8000 -0.0830 0.1610 Uiso
C7S C 0.56302(7) 0.7500 -0.06302(7) 0.1287 Uani
C8S C 0.66855(11) 0.7500 -0.16855(11) 0.1237 Uani
O3HA O 0.6908(2) 0.7846(2) -0.16467(18) 0.0957 Uani
C2NB C 0.57331(8) 0.74902(16) 0.02810(8) 0.1172 Uani
C3NB C 0.60864(8) 0.74715(18) 0.01744(8) 0.1299 Uani
H1NB H 0.6285 0.7461 0.0322 0.1560 Uiso
C4NB C 0.62228(11) 0.7209(2) 0.13535(11) 0.1277 Uani
H2NB H 0.6266 0.7006 0.1488 0.1530 Uiso
N1S N 0.55159(9) 0.74992(19) 0.0000 0.1186 Uani
C6NB C 0.59626(11) 0.7205(2) 0.10949(10) 0.1341 Uani
H3NB H 0.5830 0.7000 0.1054 0.1610 Uiso
O3NB O 0.66467(18) 0.7154(2) 0.1908(2) 0.0957 Uani
C2S C 0.57331(8) 0.74902(16) -0.02810(8) 0.1172 Uani
C3S C 0.60864(8) 0.74715(18) -0.01744(8) 0.1299 Uani
H1S H 0.6285 0.7461 -0.0322 0.1560 Uiso
C4S C 0.62228(11) 0.7209(2) -0.13535(11) 0.1277 Uani
H2S H 0.6266 0.7006 -0.1488 0.1530 Uiso
C6S C 0.59626(11) 0.7205(2) -0.10949(10) 0.1341 Uani
H3S H 0.5830 0.7000 -0.1054 0.1610 Uiso
O3S O 0.66467(18) 0.7154(2) -0.1908(2) 0.0957 Uani
Zr1D Zr 0.30015(3) 0.76473(3) 0.30015(3) 0.0695 Uani
O2D O 0.3530(2) 0.7427(4) 0.3064(5) 0.1993 Uani
O4D O 0.2330(2) 0.7670(2) 0.29043(18) 0.0660 Uani
Zr1E Zr 0.30015(3) 0.69985(3) -0.23527(3) 0.0695 Uani
O2E O 0.3530(2) 0.6936(5) -0.2573(4) 0.1993 Uani
O4E O 0.2330(2) 0.70957(18) -0.2330(2) 0.0660 Uani
Zr1J Zr 0.23527(3) 0.30015(3) 0.30015(3) 0.0695 Uani
O2J O 0.2573(4) 0.3530(2) 0.3064(5) 0.1993 Uani
O4J O 0.2330(2) 0.2330(2) 0.29043(18) 0.0660 Uani
Zr1K Zr 0.30015(3) 0.23527(3) 0.30015(3) 0.0695 Uani
O2K O 0.3064(5) 0.2573(4) 0.3530(2) 0.1993 Uani
O4K O 0.29043(18) 0.2330(2) 0.2330(2) 0.0660 Uani
Zr1R Zr 0.30015(3) 0.30015(3) -0.23527(3) 0.0695 Uani
O1F O 0.28233(12) 0.28233(12) -0.28233(12) 0.0785 Uani
O2R O 0.3064(5) 0.3530(2) -0.2573(4) 0.1993 Uani
O4R O 0.29043(18) 0.2330(2) -0.2330(2) 0.0660 Uani
Zr1S Zr 0.69985(3) 0.69985(3) -0.23527(3) 0.0695 Uani
O2S O 0.6936(5) 0.6470(2) -0.2573(4) 0.1993 Uani
O4S O 0.70957(18) 0.7670(2) -0.2330(2) 0.0660 Uani
Zr1V Zr 0.23527(3) 0.69985(3) 0.30015(3) 0.0695 Uani
O2V O 0.2573(4) 0.6936(5) 0.3530(2) 0.1993 Uani
O4V O 0.2330(2) 0.70957(18) 0.2330(2) 0.0660 Uani
Zr1QA Zr 0.19985(3) 0.19985(3) 0.26473(3) 0.0695 Uani
O2QA O 0.1936(5) 0.1470(2) 0.2427(4) 0.1993 Uani
O4QA O 0.20957(18) 0.2670(2) 0.2670(2) 0.0660 Uani
Zr1RA Zr 0.19985(3) 0.73527(3) -0.19985(3) 0.0695 Uani
O2RA O 0.1470(2) 0.7573(4) -0.1936(5) 0.1993 Uani
O2WA O 0.3064(5) 0.6470(2) -0.2573(4) 0.1993 Uani
O2XA O 0.3530(2) 0.3064(5) -0.2573(4) 0.1993 Uani
O2DB O 0.3530(2) 0.6936(5) 0.2573(4) 0.1993 Uani
O2OB O 0.3064(5) 0.3530(2) 0.2573(4) 0.1993 Uani
O4SA O 0.2670(2) 0.2670(2) 0.20957(18) 0.0660 Uani
O2AB O 0.6470(2) 0.3064(5) 0.2573(4) 0.1993 Uani
O2JB O 0.3064(5) 0.7427(4) 0.3530(2) 0.1993 Uani
O2SB O 0.2573(4) 0.3064(5) 0.3530(2) 0.1993 Uani
O2QB O 0.3530(2) 0.2573(4) 0.3064(5) 0.1993 Uani
O2VA O 0.6470(2) 0.6936(5) -0.2573(4) 0.1993 Uani
O2LB O 0.2573(4) 0.6470(2) 0.3064(5) 0.1993 Uani
O2TB O 0.1470(2) 0.1936(5) 0.2427(4) 0.1993 Uani
O2KC O 0.1936(5) 0.7573(4) -0.1470(2) 0.1993 Uani
Zr1B Zr 0.69985(3) 0.69985(3) 0.23527(3) 0.0695 Uani
Zr1F Zr 0.30015(3) 0.23527(3) -0.30015(3) 0.0695 Uani
Zr1G Zr 0.23527(3) 0.30015(3) -0.30015(3) 0.0695 Uani
Zr1H Zr 0.69985(3) 0.30015(3) -0.23527(3) 0.0695 Uani
Zr1I Zr 0.76473(3) 0.30015(3) 0.30015(3) 0.0695 Uani
Zr1M Zr 0.23527(3) 0.69985(3) -0.30015(3) 0.0695 Uani
Zr1T Zr 0.69985(3) 0.23527(3) 0.30015(3) 0.0695 Uani
Zr1U Zr 0.69985(3) 0.76473(3) -0.30015(3) 0.0695 Uani
Zr1EA Zr 0.73527(3) 0.80015(3) 0.19985(3) 0.0695 Uani
Zr1FA Zr 0.19985(3) 0.80015(3) 0.26473(3) 0.0695 Uani
Zr1GA Zr 0.26473(3) 0.80015(3) -0.19985(3) 0.0695 Uani
Zr1HA Zr 0.73527(3) 0.80015(3) -0.19985(3) 0.0695 Uani
Zr1JA Zr 0.19985(3) 0.26473(3) -0.19985(3) 0.0695 Uani
Zr1KA Zr 0.73527(3) 0.19985(3) 0.19985(3) 0.0695 Uani
Zr1LA Zr 0.19985(3) 0.73527(3) 0.19985(3) 0.0695 Uani
Zr1MA Zr 0.26473(3) 0.19985(3) -0.19985(3) 0.0695 Uani
Zr1NA Zr 0.26473(3) 0.80015(3) 0.19985(3) 0.0695 Uani
Zr1SA Zr 0.19985(3) 0.26473(3) 0.19985(3) 0.0695 Uani
Zr1TA Zr 0.73527(3) 0.19985(3) -0.19985(3) 0.0695 Uani
Zr1UA Zr 0.26473(3) 0.19985(3) 0.19985(3) 0.0695 Uani
O1E O 0.28233(12) 0.71767(12) -0.28233(12) 0.0785 Uani
O1S O 0.71767(12) 0.71767(12) -0.28233(12) 0.0785 Uani
O1Y O 0.21767(12) 0.78233(12) -0.21767(12) 0.0785 Uani
O1QA O 0.21767(12) 0.21767(12) 0.21767(12) 0.0785 Uani
O3D O 0.2846(2) 0.8092(2) 0.33533(18) 0.0957 Uani
O3J O 0.1908(2) 0.2846(2) 0.33533(18) 0.0957 Uani
O3K O 0.33533(18) 0.1908(2) 0.2846(2) 0.0957 Uani
O3V O 0.1908(2) 0.66467(18) 0.2846(2) 0.0957 Uani
O3QA O 0.16467(18) 0.2154(2) 0.3092(2) 0.0957 Uani
O3VA O 0.7154(2) 0.66467(18) -0.1908(2) 0.0957 Uani
O3AB O 0.7154(2) 0.33533(18) 0.1908(2) 0.0957 Uani
O3JB O 0.33533(18) 0.8092(2) 0.2846(2) 0.0957 Uani
O3LB O 0.1908(2) 0.7154(2) 0.33533(18) 0.0957 Uani
O3QB O 0.2846(2) 0.1908(2) 0.33533(18) 0.0957 Uani
O3SB O 0.1908(2) 0.33533(18) 0.2846(2) 0.0957 Uani
O3TB O 0.2154(2) 0.16467(18) 0.3092(2) 0.0957 Uani
O3KC O 0.16467(18) 0.6908(2) -0.2154(2) 0.0957 Uani
O4G O 0.2330(2) 0.29043(18) -0.2330(2) 0.0660 Uani
O4I O 0.7670(2) 0.29043(18) 0.2330(2) 0.0660 Uani
O4Q O 0.29043(18) 0.7670(2) -0.2330(2) 0.0660 Uani
O4W O 0.7670(2) 0.70957(18) -0.2330(2) 0.0660 Uani
O4Y O 0.20957(18) 0.7330(2) -0.2670(2) 0.0660 Uani
O4FA O 0.2670(2) 0.79043(18) 0.2670(2) 0.0660 Uani
O4HA O 0.7330(2) 0.7330(2) -0.20957(18) 0.0660 Uani
O4KA O 0.7330(2) 0.2670(2) 0.20957(18) 0.0660 Uani
O4LA O 0.20957(18) 0.7330(2) 0.2670(2) 0.0660 Uani
O4MA O 0.2670(2) 0.2670(2) -0.20957(18) 0.0660 Uani
O4NA O 0.2670(2) 0.7330(2) 0.20957(18) 0.0660 Uani
O4RA O 0.2670(2) 0.7330(2) -0.20957(18) 0.0660 Uani
O4UA O 0.2670(2) 0.20957(18) 0.2670(2) 0.0660 Uani
Zr2? Zr 0.28462(3) 0.28462(3) 0.22107(4) 0.0685 Uani
O5? O 0.3361(3) 0.3032(6) 0.2441(4) 0.2700 Uani
O6? O 0.2714(2) 0.32137(18) 0.1810(2) 0.0970 Uani
O7? O 0.24758(14) 0.3159(2) 0.24758(14) 0.0747 Uani
loop_
_atom_site_aniso_label
_atom_site_aniso_U_11
_atom_site_aniso_U_22
_atom_site_aniso_U_33
_atom_site_aniso_U_23
_atom_site_aniso_U_13
_atom_site_aniso_U_12
Zr1 0.0708(5) 0.0708(5) 0.0670(6) 0.0448(4) 0.0448(4) 0.0417(5)
Fe1 0.494(5) 0.0194(4) 0.0194(4) 0.000 0.000 0.000
O1 0.0785(19) 0.0785(19) 0.0785(19) 0.056(2) 0.056(2) 0.056(2)
C1 0.307(9) 0.0314(12) 0.0314(12) 0.0023(18) 0.011(2) 0.011(2)
C2 0.288(6) 0.0305(13) 0.0331(13) 0.0041(12) 0.001(2) 0.008(2)
C3 0.324(7) 0.0290(13) 0.0366(15) 0.0023(12) -0.005(3) 0.002(2)
C4 0.250(6) 0.072(2) 0.061(2) 0.035(2) 0.038(3) 0.039(3)
N1 0.298(7) 0.0353(17) 0.0224(14) 0.000 0.000 0.003(3)
C5 0.236(7) 0.0623(19) 0.0623(19) 0.035(3) 0.066(3) 0.066(3)
C6 0.287(7) 0.063(2) 0.0524(19) 0.0260(18) 0.008(3) 0.000(3)
C7 0.334(9) 0.0261(11) 0.0261(11) 0.0069(16) 0.000(2) 0.000(2)
C8 0.165(6) 0.103(3) 0.103(3) 0.068(4) 0.081(3) 0.081(3)
O2 0.067(4) 0.344(17) 0.187(10) 0.072(10) 0.045(5) 0.056(7)
O3 0.129(6) 0.061(4) 0.097(5) 0.050(4) 0.075(4) 0.050(4)
O4 0.072(2) 0.054(4) 0.072(2) 0.006(3) 0.033(4) 0.006(3)
C2SA 0.288 0.0331 0.0305 0.0041 0.008 0.001
C3SA 0.324 0.0366 0.029 0.0023 0.002 -0.005
C4SA 0.25 0.061 0.072 0.035 0.039 0.038
N1SA 0.298 0.0224 0.0353 0 0.003 0
C6SA 0.287 0.0524 0.063 0.026 0 0.008
O3SA 0.129 0.097 0.061 0.05 0.05 0.075
C1XA 0.307 0.0314 0.0314 -0.0023 -0.011 0.011
C2XA 0.288 0.0305 0.0331 -0.0041 -0.001 0.008
C3XA 0.324 0.029 0.0366 -0.0023 0.005 0.002
C4XA 0.25 0.072 0.061 -0.035 -0.038 0.039
C5XA 0.236 0.0623 0.0623 -0.035 -0.066 0.066
C6XA 0.287 0.063 0.0524 -0.026 -0.008 0
C7XA 0.334 0.0261 0.0261 -0.0069 0 0
C8XA 0.165 0.103 0.103 -0.068 -0.081 0.081
O3XA 0.129 0.061 0.097 -0.05 -0.075 0.05
C1DB 0.307 0.0314 0.0314 -0.0023 0.011 -0.011
C2XB 0.288 0.0331 0.0305 -0.0041 0.008 -0.001
C3XB 0.324 0.0366 0.029 -0.0023 0.002 0.005
C4XB 0.25 0.061 0.072 -0.035 0.039 -0.038
C5DB 0.236 0.0623 0.0623 -0.035 0.066 -0.066
C6XB 0.287 0.0524 0.063 -0.026 0 -0.008
C7DB 0.334 0.0261 0.0261 -0.0069 0 0
C8DB 0.165 0.103 0.103 -0.068 0.081 -0.081
O3XB 0.129 0.097 0.061 -0.05 0.05 -0.075
C2ZB 0.288 0.0331 0.0305 -0.0041 -0.008 0.001
C3ZB 0.324 0.0366 0.029 -0.0023 -0.002 -0.005
C4ZB 0.25 0.061 0.072 -0.035 -0.039 0.038
N1RA 0.298 0.0224 0.0353 0 -0.003 0
C6ZB 0.287 0.0524 0.063 -0.026 0 0.008
O3ZB 0.129 0.097 0.061 -0.05 -0.05 0.075
C1E 0.307 0.0314 0.0314 0.0023 -0.011 -0.011
C2RA 0.288 0.0331 0.0305 0.0041 -0.008 -0.001
C3RA 0.324 0.0366 0.029 0.0023 -0.002 0.005
C4RA 0.25 0.061 0.072 0.035 -0.039 -0.038
C5E 0.236 0.0623 0.0623 0.035 -0.066 -0.066
C6RA 0.287 0.0524 0.063 0.026 0 -0.008
C7E 0.334 0.0261 0.0261 0.0069 0 0
C8E 0.165 0.103 0.103 0.068 -0.081 -0.081
O3RA 0.129 0.097 0.061 0.05 -0.05 -0.075
C2DB 0.288 0.0305 0.0331 -0.0041 0.001 -0.008
C3DB 0.324 0.029 0.0366 -0.0023 -0.005 -0.002
C4DB 0.25 0.072 0.061 -0.035 0.038 -0.039
N1E 0.298 0.0353 0.0224 0 0 -0.003
C6DB 0.287 0.063 0.0524 -0.026 0.008 0
O3DB 0.129 0.061 0.097 -0.05 0.075 -0.05
C2E 0.288 0.0305 0.0331 0.0041 -0.001 -0.008
C3E 0.324 0.029 0.0366 0.0023 0.005 -0.002
C4E 0.25 0.072 0.061 0.035 -0.038 -0.039
C6E 0.287 0.063 0.0524 0.026 -0.008 0
O3E 0.129 0.061 0.097 0.05 -0.075 -0.05
Zr1A 0.0708 0.0708 0.067 0.0448 -0.0448 -0.0417
Fe1A 0.0194 0.494 0.0194 0 0 0
O1A 0.0785 0.0785 0.0785 0.056 -0.056 -0.056
C1A 0.0314 0.307 0.0314 0.011 -0.0023 -0.011
C2A 0.0305 0.288 0.0331 0.001 -0.0041 -0.008
C3A 0.029 0.324 0.0366 -0.005 -0.0023 -0.002
C4A 0.072 0.25 0.061 0.038 -0.035 -0.039
N1A 0.0353 0.298 0.0224 0 0 -0.003
C5A 0.0623 0.236 0.0623 0.066 -0.035 -0.066
C6A 0.063 0.287 0.0524 0.008 -0.026 0
C7A 0.0261 0.334 0.0261 0 -0.0069 0
C8A 0.103 0.165 0.103 0.081 -0.068 -0.081
O2A 0.344 0.067 0.187 0.045 -0.072 -0.056
O3A 0.061 0.129 0.097 0.075 -0.05 -0.05
O4A 0.054 0.072 0.072 0.033 -0.006 -0.006
C2KA 0.0331 0.288 0.0305 0.008 -0.0041 -0.001
C3KA 0.0366 0.324 0.029 0.002 -0.0023 0.005
C4KA 0.061 0.25 0.072 0.039 -0.035 -0.038
N1KA 0.0224 0.298 0.0353 0.003 0 0
C6KA 0.0524 0.287 0.063 0 -0.026 -0.008
O3KA 0.097 0.129 0.061 0.05 -0.05 -0.075
C1YA 0.0314 0.307 0.0314 -0.011 0.0023 -0.011
C2YA 0.0305 0.288 0.0331 -0.001 0.0041 -0.008
C3YA 0.029 0.324 0.0366 0.005 0.0023 -0.002
C4YA 0.072 0.25 0.061 -0.038 0.035 -0.039
C5YA 0.0623 0.236 0.0623 -0.066 0.035 -0.066
C6YA 0.063 0.287 0.0524 -0.008 0.026 0
C7YA 0.0261 0.334 0.0261 0 0.0069 0
C8YA 0.103 0.165 0.103 -0.081 0.068 -0.081
O3YA 0.061 0.129 0.097 -0.075 0.05 -0.05
C1OB 0.0314 0.307 0.0314 0.011 0.0023 0.011
C2DC 0.0331 0.288 0.0305 0.008 0.0041 0.001
C3DC 0.0366 0.324 0.029 0.002 0.0023 -0.005
C4DC 0.061 0.25 0.072 0.039 0.035 0.038
C5OB 0.0623 0.236 0.0623 0.066 0.035 0.066
C6DC 0.0524 0.287 0.063 0 0.026 0.008
C7OB 0.0261 0.334 0.0261 0 0.0069 0
C8OB 0.103 0.165 0.103 0.081 0.068 0.081
O3DC 0.097 0.129 0.061 0.05 0.05 0.075
C2JC 0.0331 0.288 0.0305 -0.008 0.0041 -0.001
C3JC 0.0366 0.324 0.029 -0.002 0.0023 0.005
C4JC 0.061 0.25 0.072 -0.039 0.035 -0.038
N1MA 0.0224 0.298 0.0353 -0.003 0 0
C6JC 0.0524 0.287 0.063 0 0.026 -0.008
O3JC 0.097 0.129 0.061 -0.05 0.05 -0.075
C1R 0.0314 0.307 0.0314 -0.011 -0.0023 0.011
C2MA 0.0331 0.288 0.0305 -0.008 -0.0041 0.001
C3MA 0.0366 0.324 0.029 -0.002 -0.0023 -0.005
C4MA 0.061 0.25 0.072 -0.039 -0.035 0.038
C5R 0.0623 0.236 0.0623 -0.066 -0.035 0.066
C6MA 0.0524 0.287 0.063 0 -0.026 0.008
C7R 0.0261 0.334 0.0261 0 -0.0069 0
C8R 0.103 0.165 0.103 -0.081 -0.068 0.081
O3MA 0.097 0.129 0.061 -0.05 -0.05 0.075
C2OB 0.0305 0.288 0.0331 0.001 0.0041 0.008
C3OB 0.029 0.324 0.0366 -0.005 0.0023 0.002
C4OB 0.072 0.25 0.061 0.038 0.035 0.039
N1R 0.0353 0.298 0.0224 0 0 0.003
C6OB 0.063 0.287 0.0524 0.008 0.026 0
O3OB 0.061 0.129 0.097 0.075 0.05 0.05
C2R 0.0305 0.288 0.0331 -0.001 -0.0041 0.008
C3R 0.029 0.324 0.0366 0.005 -0.0023 0.002
C4R 0.072 0.25 0.061 -0.038 -0.035 0.039
C6R 0.063 0.287 0.0524 -0.008 -0.026 0
O3R 0.061 0.129 0.097 -0.075 -0.05 0.05
Zr1C 0.0708 0.0708 0.067 -0.0448 0.0448 -0.0417
Fe1C 0.0194 0.494 0.0194 0 0 0
O1C 0.0785 0.0785 0.0785 -0.056 0.056 -0.056
C1C 0.0314 0.307 0.0314 -0.011 0.0023 -0.011
C2C 0.0305 0.288 0.0331 -0.001 0.0041 -0.008
C3C 0.029 0.324 0.0366 0.005 0.0023 -0.002
C4C 0.072 0.25 0.061 -0.038 0.035 -0.039
N1C 0.0353 0.298 0.0224 0 0 -0.003
C5C 0.0623 0.236 0.0623 -0.066 0.035 -0.066
C6C 0.063 0.287 0.0524 -0.008 0.026 0
C7C 0.0261 0.334 0.0261 0 0.0069 0
C8C 0.103 0.165 0.103 -0.081 0.068 -0.081
O2C 0.344 0.067 0.187 -0.045 0.072 -0.056
O3C 0.061 0.129 0.097 -0.075 0.05 -0.05
O4C 0.054 0.072 0.072 -0.033 0.006 -0.006
C2NA 0.0331 0.288 0.0305 -0.008 0.0041 -0.001
C3NA 0.0366 0.324 0.029 -0.002 0.0023 0.005
C4NA 0.061 0.25 0.072 -0.039 0.035 -0.038
N1NA 0.0224 0.298 0.0353 -0.003 0 0
C6NA 0.0524 0.287 0.063 0 0.026 -0.008
O3NA 0.097 0.129 0.061 -0.05 0.05 -0.075
C1WA 0.0314 0.307 0.0314 0.011 -0.0023 -0.011
C2WA 0.0305 0.288 0.0331 0.001 -0.0041 -0.008
C3WA 0.029 0.324 0.0366 -0.005 -0.0023 -0.002
C4WA 0.072 0.25 0.061 0.038 -0.035 -0.039
C5WA 0.0623 0.236 0.0623 0.066 -0.035 -0.066
C6WA 0.063 0.287 0.0524 0.008 -0.026 0
C7WA 0.0261 0.334 0.0261 0 -0.0069 0
C8WA 0.103 0.165 0.103 0.081 -0.068 -0.081
O3WA 0.061 0.129 0.097 0.075 -0.05 -0.05
C1NB 0.0314 0.307 0.0314 -0.011 -0.0023 0.011
C2IC 0.0331 0.288 0.0305 -0.008 -0.0041 0.001
C3IC 0.0366 0.324 0.029 -0.002 -0.0023 -0.005
C4IC 0.061 0.25 0.072 -0.039 -0.035 0.038
C5NB 0.0623 0.236 0.0623 -0.066 -0.035 0.066
C6IC 0.0524 0.287 0.063 0 -0.026 0.008
C7NB 0.0261 0.334 0.0261 0 -0.0069 0
C8NB 0.103 0.165 0.103 -0.081 -0.068 0.081
O3IC 0.097 0.129 0.061 -0.05 -0.05 0.075
C2GC 0.0331 0.288 0.0305 0.008 -0.0041 -0.001
C3GC 0.0366 0.324 0.029 0.002 -0.0023 0.005
C4GC 0.061 0.25 0.072 0.039 -0.035 -0.038
N1HA 0.0224 0.298 0.0353 0.003 0 0
C6GC 0.0524 0.287 0.063 0 -0.026 -0.008
O3GC 0.097 0.129 0.061 0.05 -0.05 -0.075
C1S 0.0314 0.307 0.0314 0.011 0.0023 0.011
C2HA 0.0331 0.288 0.0305 0.008 0.0041 0.001
C3HA 0.0366 0.324 0.029 0.002 0.0023 -0.005
C4HA 0.061 0.25 0.072 0.039 0.035 0.038
C5S 0.0623 0.236 0.0623 0.066 0.035 0.066
C6HA 0.0524 0.287 0.063 0 0.026 0.008
C7S 0.0261 0.334 0.0261 0 0.0069 0
C8S 0.103 0.165 0.103 0.081 0.068 0.081
O3HA 0.097 0.129 0.061 0.05 0.05 0.075
C2NB 0.0305 0.288 0.0331 -0.001 -0.0041 0.008
C3NB 0.029 0.324 0.0366 0.005 -0.0023 0.002
C4NB 0.072 0.25 0.061 -0.038 -0.035 0.039
N1S 0.0353 0.298 0.0224 0 0 0.003
C6NB 0.063 0.287 0.0524 -0.008 -0.026 0
O3NB 0.061 0.129 0.097 -0.075 -0.05 0.05
C2S 0.0305 0.288 0.0331 0.001 0.0041 0.008
C3S 0.029 0.324 0.0366 -0.005 0.0023 0.002
C4S 0.072 0.25 0.061 0.038 0.035 0.039
C6S 0.063 0.287 0.0524 0.008 0.026 0
O3S 0.061 0.129 0.097 0.075 0.05 0.05
Zr1D 0.0708 0.067 0.0708 -0.0448 0.0417 -0.0448
O2D 0.067 0.187 0.344 -0.072 0.056 -0.045
O4D 0.072 0.072 0.054 -0.006 0.006 -0.033
Zr1E 0.0708 0.0708 0.067 0.0448 -0.0448 -0.0417
O2E 0.067 0.344 0.187 0.072 -0.045 -0.056
O4E 0.072 0.054 0.072 0.006 -0.033 -0.006
Zr1J 0.067 0.0708 0.0708 0.0417 0.0448 0.0448
O2J 0.187 0.067 0.344 0.056 0.072 0.045
O4J 0.072 0.072 0.054 0.006 0.006 0.033
Zr1K 0.0708 0.067 0.0708 0.0448 0.0417 0.0448
O2K 0.344 0.187 0.067 0.045 0.056 0.072
O4K 0.054 0.072 0.072 0.033 0.006 0.006
Zr1R 0.0708 0.0708 0.067 -0.0448 -0.0448 0.0417
O1F 0.0785 0.0785 0.0785 -0.056 -0.056 0.056
O2R 0.344 0.067 0.187 -0.045 -0.072 0.056
O4R 0.054 0.072 0.072 -0.033 -0.006 0.006
Zr1S 0.0708 0.0708 0.067 0.0448 0.0448 0.0417
O2S 0.344 0.067 0.187 0.045 0.072 0.056
O4S 0.054 0.072 0.072 0.033 0.006 0.006
Zr1V 0.067 0.0708 0.0708 -0.0417 0.0448 -0.0448
O2V 0.187 0.344 0.067 -0.056 0.045 -0.072
O4V 0.072 0.054 0.072 -0.006 0.033 -0.006
Zr1QA 0.0708 0.0708 0.067 0.0448 0.0448 0.0417
O2QA 0.344 0.067 0.187 0.045 0.072 0.056
O4QA 0.054 0.072 0.072 0.033 0.006 0.006
Zr1RA 0.0708 0.067 0.0708 0.0448 -0.0417 -0.0448
O2RA 0.067 0.187 0.344 0.072 -0.056 -0.045
O2WA 0.344 0.067 0.187 0.045 -0.072 -0.056
O2XA 0.067 0.344 0.187 -0.072 -0.045 0.056
O2DB 0.067 0.344 0.187 -0.072 0.045 -0.056
O2OB 0.344 0.067 0.187 0.045 0.072 0.056
O4SA 0.072 0.072 0.054 0.006 0.006 0.033
O2AB 0.067 0.344 0.187 0.072 -0.045 -0.056
O2JB 0.344 0.187 0.067 -0.045 0.056 -0.072
O2SB 0.187 0.344 0.067 0.056 0.045 0.072
O2QB 0.067 0.187 0.344 0.072 0.056 0.045
O2VA 0.067 0.344 0.187 0.072 0.045 0.056
O2LB 0.187 0.067 0.344 -0.056 0.072 -0.045
O2TB 0.067 0.344 0.187 0.072 0.045 0.056
O2KC 0.344 0.187 0.067 0.045 -0.056 -0.072
Zr1B 0.0708 0.0708 0.067 -0.0448 -0.0448 0.0417
Zr1F 0.0708 0.067 0.0708 -0.0448 -0.0417 0.0448
Zr1G 0.067 0.0708 0.0708 -0.0417 -0.0448 0.0448
Zr1H 0.0708 0.0708 0.067 -0.0448 0.0448 -0.0417
Zr1I 0.067 0.0708 0.0708 0.0417 -0.0448 -0.0448
Zr1M 0.067 0.0708 0.0708 0.0417 -0.0448 -0.0448
Zr1T 0.0708 0.067 0.0708 0.0448 -0.0417 -0.0448
Zr1U 0.0708 0.067 0.0708 0.0448 0.0417 0.0448
Zr1EA 0.067 0.0708 0.0708 -0.0417 -0.0448 0.0448
Zr1FA 0.0708 0.0708 0.067 -0.0448 0.0448 -0.0417
Zr1GA 0.067 0.0708 0.0708 0.0417 -0.0448 -0.0448
Zr1HA 0.067 0.0708 0.0708 0.0417 0.0448 0.0448
Zr1JA 0.0708 0.067 0.0708 -0.0448 -0.0417 0.0448
Zr1KA 0.067 0.0708 0.0708 0.0417 -0.0448 -0.0448
Zr1LA 0.0708 0.067 0.0708 -0.0448 0.0417 -0.0448
Zr1MA 0.067 0.0708 0.0708 -0.0417 -0.0448 0.0448
Zr1NA 0.067 0.0708 0.0708 -0.0417 0.0448 -0.0448
Zr1SA 0.0708 0.067 0.0708 0.0448 0.0417 0.0448
Zr1TA 0.067 0.0708 0.0708 -0.0417 0.0448 -0.0448
Zr1UA 0.067 0.0708 0.0708 0.0417 0.0448 0.0448
O1E 0.0785 0.0785 0.0785 0.056 -0.056 -0.056
O1S 0.0785 0.0785 0.0785 0.056 0.056 0.056
O1Y 0.0785 0.0785 0.0785 0.056 -0.056 -0.056
O1QA 0.0785 0.0785 0.0785 0.056 0.056 0.056
O3D 0.129 0.097 0.061 -0.05 0.05 -0.075
O3J 0.097 0.129 0.061 0.05 0.05 0.075
O3K 0.061 0.097 0.129 0.075 0.05 0.05
O3V 0.097 0.061 0.129 -0.05 0.075 -0.05
O3QA 0.061 0.129 0.097 0.075 0.05 0.05
O3VA 0.129 0.061 0.097 0.05 0.075 0.05
O3AB 0.129 0.061 0.097 0.05 -0.075 -0.05
O3JB 0.061 0.097 0.129 -0.075 0.05 -0.05
O3LB 0.097 0.129 0.061 -0.05 0.05 -0.075
O3QB 0.129 0.097 0.061 0.05 0.05 0.075
O3SB 0.097 0.061 0.129 0.05 0.075 0.05
O3TB 0.129 0.061 0.097 0.05 0.075 0.05
O3KC 0.061 0.097 0.129 0.075 -0.05 -0.05
O4G 0.072 0.054 0.072 -0.006 -0.033 0.006
O4I 0.072 0.054 0.072 0.006 -0.033 -0.006
O4Q 0.054 0.072 0.072 0.033 -0.006 -0.006
O4W 0.072 0.054 0.072 0.006 0.033 0.006
O4Y 0.054 0.072 0.072 0.033 -0.006 -0.006
O4FA 0.072 0.054 0.072 -0.006 0.033 -0.006
O4HA 0.072 0.072 0.054 0.006 0.006 0.033
O4KA 0.072 0.072 0.054 0.006 -0.006 -0.033
O4LA 0.054 0.072 0.072 -0.033 0.006 -0.006
O4MA 0.072 0.072 0.054 -0.006 -0.006 0.033
O4NA 0.072 0.072 0.054 -0.006 0.006 -0.033
O4RA 0.072 0.072 0.054 0.006 -0.006 -0.033
O4UA 0.072 0.054 0.072 0.006 0.033 0.006
Zr2? 0.0695(5) 0.0695(5) 0.0666(7) 0.0375(5) 0.0375(5) 0.0357(5)
O5? 0.104(6) 0.56(2) 0.146(9) 0.056(10) 0.030(5) -0.063(11)
O6? 0.123(6) 0.067(4) 0.101(5) 0.057(4) 0.071(4) 0.042(4)
O7? 0.064(2) 0.096(5) 0.064(2) 0.039(3) 0.043(3) 0.039(3)
loop_
_geom_bond_atom_site_label_1
_geom_bond_atom_site_label_2
_geom_bond_site_symmetry_1
_geom_bond_site_symmetry_2
Zr1 O1 1_555 1_555
Fe1 N1 1_555 1_555
O1 Zr1J 1_555 1_555
C1 C6 1_555 1_555
C2 C3 1_555 1_555
C3 H1 1_555 1_555
C4 H2 1_555 1_555
N1 C2 1_555 1_555
C5 C4 1_555 1_555
C6 C4 1_555 1_555
H3 C6 1_555 1_555
C7 C1 1_555 1_555
C8 C5 1_555 1_555
O2 Zr1 1_555 1_555
O3 Zr1 1_555 1_555
O4 Zr1 1_555 1_555
C2SA C7 1_555 1_555
C3SA C2SA 1_555 1_555
H1SA C3SA 1_555 1_555
C4SA C5 1_555 1_555
H2SA C4SA 1_555 1_555
N1SA Fe1 1_555 1_555
C6SA C1 1_555 1_555
H3SA C6SA 1_555 1_555
O3SA C8 1_555 1_555
C1XA C6XA 1_555 1_555
C2XA N1 1_555 1_555
C3XA C3 1_555 1_555
H1XA C3XA 1_555 1_555
C4XA H2XA 1_555 1_555
C5XA C4XA 1_555 1_555
C6XA C4XA 1_555 1_555
H3XA C6XA 1_555 1_555
C7XA C1XA 1_555 1_555
C8XA C5XA 1_555 1_555
O3XA C8XA 1_555 1_555
C1DB C6XB 1_555 1_555
C2XB N1SA 1_555 1_555
C3XB C3SA 1_555 1_555
H1XB C3XB 1_555 1_555
C4XB H2XB 1_555 1_555
C5DB C4XB 1_555 1_555
C6XB C4XB 1_555 1_555
H3XB C6XB 1_555 1_555
C7DB C1DB 1_555 1_555
C8DB C5DB 1_555 1_555
O3XB C8DB 1_555 1_555
C2ZB C7XA 1_555 1_555
C3ZB C2ZB 1_555 1_555
H1ZB C3ZB 1_555 1_555
C4ZB C5XA 1_555 1_555
H2ZB C4ZB 1_555 1_555
N1RA Fe1 1_555 1_555
C6ZB C1XA 1_555 1_555
H3ZB C6ZB 1_555 1_555
O3ZB C8XA 1_555 1_555
C1E C6RA 1_555 1_555
C2RA N1RA 1_555 1_555
C3RA C3ZB 1_555 1_555
H1RA C3RA 1_555 1_555
C4RA H2RA 1_555 1_555
C5E C4RA 1_555 1_555
C6RA C4RA 1_555 1_555
H3RA C6RA 1_555 1_555
C7E C1E 1_555 1_555
C8E C5E 1_555 1_555
O3RA C8E 1_555 1_555
C2DB C7DB 1_555 1_555
C3DB C2DB 1_555 1_555
H1DB C3DB 1_555 1_555
C4DB C5DB 1_555 1_555
H2DB C4DB 1_555 1_555
N1E Fe1 1_555 1_555
C6DB C1DB 1_555 1_555
H3DB C6DB 1_555 1_555
O3DB C8DB 1_555 1_555
C2E C7E 1_555 1_555
C3E C3DB 1_555 1_555
H1E C3E 1_555 1_555
C4E C5E 1_555 1_555
H2E C4E 1_555 1_555
C6E C1E 1_555 1_555
H3E C6E 1_555 1_555
O3E C8E 1_555 1_555
Zr1A O1A 1_555 1_555
Fe1A N1A 1_555 1_555
O1A Zr1I 1_555 1_555
C1A C6A 1_555 1_555
C2A C3A 1_555 1_555
C3A H1A 1_555 1_555
C4A H2A 1_555 1_555
N1A C2A 1_555 1_555
C5A C4A 1_555 1_555
C6A C4A 1_555 1_555
H3A C6A 1_555 1_555
C7A C1A 1_555 1_555
C8A C5A 1_555 1_555
O2A Zr1A 1_555 1_555
O3A Zr1A 1_555 1_555
O4A Zr1A 1_555 1_555
C2KA C7A 1_555 1_555
C3KA C2KA 1_555 1_555
H1KA C3KA 1_555 1_555
C4KA C5A 1_555 1_555
H2KA C4KA 1_555 1_555
N1KA Fe1A 1_555 1_555
C6KA C1A 1_555 1_555
H3KA C6KA 1_555 1_555
O3KA C8A 1_555 1_555
C1YA C6YA 1_555 1_555
C2YA N1A 1_555 1_555
C3YA C3A 1_555 1_555
H1YA C3YA 1_555 1_555
C4YA H2YA 1_555 1_555
C5YA C4YA 1_555 1_555
C6YA C4YA 1_555 1_555
H3YA C6YA 1_555 1_555
C7YA C1YA 1_555 1_555
C8YA C5YA 1_555 1_555
O3YA C8YA 1_555 1_555
C1OB C6DC 1_555 1_555
C2DC N1KA 1_555 1_555
C3DC C3KA 1_555 1_555
H1DC C3DC 1_555 1_555
C4DC H2DC 1_555 1_555
C5OB C4DC 1_555 1_555
C6DC C4DC 1_555 1_555
H3DC C6DC 1_555 1_555
C7OB C1OB 1_555 1_555
C8OB C5OB 1_555 1_555
O3DC C8OB 1_555 1_555
C2JC C7YA 1_555 1_555
C3JC C2JC 1_555 1_555
H1JC C3JC 1_555 1_555
C4JC C5YA 1_555 1_555
H2JC C4JC 1_555 1_555
N1MA Fe1A 1_555 1_555
C6JC C1YA 1_555 1_555
H3JC C6JC 1_555 1_555
O3JC C8YA 1_555 1_555
C1R C6MA 1_555 1_555
C2MA N1MA 1_555 1_555
C3MA C3JC 1_555 1_555
H1MA C3MA 1_555 1_555
C4MA H2MA 1_555 1_555
C5R C4MA 1_555 1_555
C6MA C4MA 1_555 1_555
H3MA C6MA 1_555 1_555
C7R C1R 1_555 1_555
C8R C5R 1_555 1_555
O3MA C8R 1_555 1_555
C2OB C7OB 1_555 1_555
C3OB C2OB 1_555 1_555
H1OB C3OB 1_555 1_555
C4OB C5OB 1_555 1_555
H2OB C4OB 1_555 1_555
N1R Fe1A 1_555 1_555
C6OB C1OB 1_555 1_555
H3OB C6OB 1_555 1_555
O3OB Zr1 1_555 1_555
C2R C7R 1_555 1_555
C3R C3OB 1_555 1_555
H1R C3R 1_555 1_555
C4R C5R 1_555 1_555
H2R C4R 1_555 1_555
C6R C1R 1_555 1_555
H3R C6R 1_555 1_555
O3R C8R 1_555 1_555
Zr1C O3DB 1_555 1_555
Fe1C N1C 1_555 1_555
O1C Zr1C 1_555 1_555
C1C C6C 1_555 1_555
C2C C3C 1_555 1_555
C3C H1C 1_555 1_555
C4C H2C 1_555 1_555
N1C C2C 1_555 1_555
C5C C4C 1_555 1_555
C6C C4C 1_555 1_555
H3C C6C 1_555 1_555
C7C C1C 1_555 1_555
C8C C5C 1_555 1_555
O2C Zr1C 1_555 1_555
O3C Zr1C 1_555 1_555
O4C Zr1C 1_555 1_555
C2NA C7C 1_555 1_555
C3NA C2NA 1_555 1_555
H1NA C3NA 1_555 1_555
C4NA C5C 1_555 1_555
H2NA C4NA 1_555 1_555
N1NA Fe1C 1_555 1_555
C6NA C1C 1_555 1_555
H3NA C6NA 1_555 1_555
O3NA C8C 1_555 1_555
C1WA C6WA 1_555 1_555
C2WA N1C 1_555 1_555
C3WA C3C 1_555 1_555
H1WA C3WA 1_555 1_555
C4WA H2WA 1_555 1_555
C5WA C4WA 1_555 1_555
C6WA C4WA 1_555 1_555
H3WA C6WA 1_555 1_555
C7WA C1WA 1_555 1_555
C8WA C5WA 1_555 1_555
O3WA C8WA 1_555 1_555
C1NB C6IC 1_555 1_555
C2IC N1NA 1_555 1_555
C3IC C3NA 1_555 1_555
H1IC C3IC 1_555 1_555
C4IC H2IC 1_555 1_555
C5NB C4IC 1_555 1_555
C6IC C4IC 1_555 1_555
H3IC C6IC 1_555 1_555
C7NB C1NB 1_555 1_555
C8NB C5NB 1_555 1_555
O3IC C8NB 1_555 1_555
C2GC C7WA 1_555 1_555
C3GC C2GC 1_555 1_555
H1GC C3GC 1_555 1_555
C4GC C5WA 1_555 1_555
H2GC C4GC 1_555 1_555
N1HA Fe1C 1_555 1_555
C6GC C1WA 1_555 1_555
H3GC C6GC 1_555 1_555
O3GC C8WA 1_555 1_555
C1S C6HA 1_555 1_555
C2HA N1HA 1_555 1_555
C3HA C3GC 1_555 1_555
H1HA C3HA 1_555 1_555
C4HA H2HA 1_555 1_555
C5S C4HA 1_555 1_555
C6HA C4HA 1_555 1_555
H3HA C6HA 1_555 1_555
C7S C1S 1_555 1_555
C8S C5S 1_555 1_555
O3HA C8S 1_555 1_555
C2NB C7NB 1_555 1_555
C3NB C2NB 1_555 1_555
H1NB C3NB 1_555 1_555
C4NB C5NB 1_555 1_555
H2NB C4NB 1_555 1_555
N1S Fe1C 1_555 1_555
C6NB C1NB 1_555 1_555
H3NB C6NB 1_555 1_555
O3NB C8NB 1_555 1_555
C2S C7S 1_555 1_555
C3S C3NB 1_555 1_555
H1S C3S 1_555 1_555
C4S C5S 1_555 1_555
H2S C4S 1_555 1_555
C6S C1S 1_555 1_555
H3S C6S 1_555 1_555
O3S C8S 1_555 1_555
Zr1D O1C 1_555 1_555
O2D Zr1D 1_555 1_555
O4D Zr1D 1_555 1_555
Zr1E O3E 1_555 1_555
O2E Zr1E 1_555 1_555
O4E Zr1E 1_555 1_555
Zr1J O4 1_555 1_555
O2J Zr1J 1_555 1_555
O4J Zr1J 1_555 1_555
Zr1K O1 1_555 1_555
O2K Zr1K 1_555 1_555
O4K Zr1 1_555 1_555
Zr1R O3XA 1_555 1_555
O1F Zr1R 1_555 1_555
O2R Zr1R 1_555 1_555
O4R Zr1R 1_555 1_555
Zr1S O3S 1_555 1_555
O2S Zr1S 1_555 1_555
O4S Zr1S 1_555 1_555
Zr1V O1C 1_555 1_555
O2V Zr1V 1_555 1_555
O4V Zr1C 1_555 1_555
Zr1QA O4J 1_555 1_555
O2QA Zr1QA 1_555 1_555
O4QA Zr1J 1_555 1_555
Zr1RA O3RA 1_555 1_555
O2RA Zr1RA 1_555 1_555
O2WA Zr1E 1_555 1_555
O2XA Zr1R 1_555 1_555
O2DB Zr1C 1_555 1_555
O2OB Zr1 1_555 1_555
O4SA Zr1 1_555 1_555
O2AB Zr1A 1_555 1_555
O2JB Zr1D 1_555 1_555
O2SB Zr1J 1_555 1_555
O2QB Zr1K 1_555 1_555
O2VA Zr1S 1_555 1_555
O2LB Zr1V 1_555 1_555
O2TB Zr1QA 1_555 1_555
O2KC Zr1RA 1_555 1_555
Zr1B O3NB 1_555 1_555
Zr1F O1F 1_555 1_555
Zr1G O1F 1_555 1_555
Zr1H O3YA 1_555 1_555
Zr1I O4I 1_555 1_555
Zr1M O4E 1_555 1_555
Zr1T O1A 1_555 1_555
Zr1U O4S 1_555 1_555
Zr1EA O3IC 1_555 1_555
Zr1FA O4D 1_555 1_555
Zr1GA O3GC 1_555 1_555
Zr1HA O3HA 1_555 1_555
Zr1JA O3ZB 1_555 1_555
Zr1KA O4A 1_555 1_555
Zr1LA O3XB 1_555 1_555
Zr1MA O3MA 1_555 1_555
Zr1NA O4C 1_555 1_555
Zr1SA O4 1_555 1_555
Zr1TA O3JC 1_555 1_555
Zr1UA O3DC 1_555 1_555
O1E Zr1E 1_555 1_555
O1S Zr1S 1_555 1_555
O1Y Zr1RA 1_555 1_555
O1QA Zr1QA 1_555 1_555
O3D Zr1D 1_555 1_555
O3J Zr1J 1_555 1_555
O3K Zr1K 1_555 1_555
O3V Zr1V 1_555 1_555
O3QA Zr1QA 1_555 1_555
O3VA Zr1S 1_555 1_555
O3AB Zr1A 1_555 1_555
O3JB Zr1D 1_555 1_555
O3LB Zr1V 1_555 1_555
O3QB Zr1K 1_555 1_555
O3SB Zr1J 1_555 1_555
O3TB Zr1QA 1_555 1_555
O3KC Zr1RA 1_555 1_555
O4G Zr1R 1_555 1_555
O4I Zr1A 1_555 1_555
O4Q Zr1E 1_555 1_555
O4W Zr1S 1_555 1_555
O4Y Zr1RA 1_555 1_555
O4FA Zr1D 1_555 1_555
O4HA Zr1S 1_555 1_555
O4KA Zr1A 1_555 1_555
O4LA Zr1V 1_555 1_555
O4MA Zr1R 1_555 1_555
O4NA Zr1C 1_555 1_555
O4RA Zr1E 1_555 1_555
O4UA Zr1K 1_555 1_555
C2 C7 1_555 1_555
C8 O3 1_555 1_555
C2SA N1SA 1_555 1_555
C4SA C6SA 1_555 1_555
O3SA Zr1SA 1_555 1_555
C2XA C3XA 1_555 1_555
C2XA C7XA 1_555 1_555
C2XB C3XB 1_555 1_555
C2XB C7DB 1_555 1_555
C2ZB N1RA 1_555 1_555
C4ZB C6ZB 1_555 1_555
C2RA C3RA 1_555 1_555
C2RA C7E 1_555 1_555
C2DB N1E 1_555 1_555
C4DB C6DB 1_555 1_555
N1E C2E 1_555 1_555
C2E C3E 1_555 1_555
C4E C6E 1_555 1_555
C2A C7A 1_555 1_555
C8A O3A 1_555 1_555
O4A Zr1T 1_555 1_555
C2KA N1KA 1_555 1_555
C4KA C6KA 1_555 1_555
O3KA Zr1KA 1_555 1_555
C2YA C3YA 1_555 1_555
C2YA C7YA 1_555 1_555
C2DC C3DC 1_555 1_555
C2DC C7OB 1_555 1_555
C8OB O3OB 1_555 1_555
C2JC N1MA 1_555 1_555
C4JC C6JC 1_555 1_555
C2MA C3MA 1_555 1_555
C2MA C7R 1_555 1_555
C2OB N1R 1_555 1_555
C4OB C6OB 1_555 1_555
N1R C2R 1_555 1_555
C2R C3R 1_555 1_555
C4R C6R 1_555 1_555
O3R Zr1R 1_555 1_555
C2C C7C 1_555 1_555
C8C O3C 1_555 1_555
O4C Zr1D 1_555 1_555
C2NA N1NA 1_555 1_555
C4NA C6NA 1_555 1_555
O3NA Zr1NA 1_555 1_555
C2WA C3WA 1_555 1_555
C2WA C7WA 1_555 1_555
O3WA Zr1E 1_555 1_555
C2IC C3IC 1_555 1_555
C2IC C7NB 1_555 1_555
C2GC N1HA 1_555 1_555
C4GC C6GC 1_555 1_555
C2HA C3HA 1_555 1_555
C2HA C7S 1_555 1_555
C2NB N1S 1_555 1_555
C4NB C6NB 1_555 1_555
N1S C2S 1_555 1_555
C2S C3S 1_555 1_555
C4S C6S 1_555 1_555
O4D Zr1V 1_555 1_555
O4E Zr1RA 1_555 1_555
O4J Zr1K 1_555 1_555
Zr1K O4K 1_555 1_555
O4K Zr1UA 1_555 1_555
O4R Zr1F 1_555 1_555
O4R Zr1MA 1_555 1_555
O4S Zr1HA 1_555 1_555
Zr1V O4V 1_555 1_555
O4V Zr1LA 1_555 1_555
Zr1QA O4QA 1_555 1_555
Zr1QA O4UA 1_555 1_555
O4QA Zr1SA 1_555 1_555
Zr1RA O4RA 1_555 1_555
O4SA Zr1SA 1_555 1_555
O4SA Zr1UA 1_555 1_555
Zr1G O4G 1_555 1_555
Zr1M O1E 1_555 1_555
Zr1M O4Y 1_555 1_555
Zr1U O1S 1_555 1_555
Zr1FA O4FA 1_555 1_555
Zr1FA O4LA 1_555 1_555
Zr1GA O1Y 1_555 1_555
Zr1GA O4Q 1_555 1_555
Zr1GA O4RA 1_555 1_555
Zr1HA O4HA 1_555 1_555
Zr1JA O4G 1_555 1_555
Zr1JA O4MA 1_555 1_555
Zr1KA O4KA 1_555 1_555
Zr1LA O4LA 1_555 1_555
Zr1LA O4NA 1_555 1_555
Zr1MA O4MA 1_555 1_555
Zr1NA O4FA 1_555 1_555
Zr1NA O4NA 1_555 1_555
Zr1SA O1QA 1_555 1_555
Zr1UA O1QA 1_555 1_555
Zr1UA O4UA 1_555 1_555

#END
