
#######################################################################
#
#                 Cambridge Crystallographic Data Centre
#                                CCDC 
#
#######################################################################
#
# If this CIF has been generated from an entry in the Cambridge 
# Structural Database, then it will include bibliographic, chemical, 
# crystal, experimental, refinement or atomic coordinate data resulting 
# from the CCDC's data processing and validation procedures.
#
#######################################################################

data_OXOLAP
_chemical_name_common            PIZOF-1
_chemical_formula_moiety         '(C144 H82 N6 O32 Zr6)n'
_chemical_name_systematic        
"catena-(hexakis(\m~4~-4,4'-((2-amino-1,4-phenylene)diethyne-2,1-diyl)dibenzoato)-tetrakis(\m~3~-hydroxo)-tetrakis(\m~3~-oxo)-hexa-zirconium unknown solvate)"
_symmetry_cell_setting           cubic
_symmetry_space_group_name_H-M   'F d -3 m'
_symmetry_Int_Tables_number      227
_space_group_name_Hall           '-F 4vw 2vw 3'
loop_
_symmetry_equiv_pos_site_id
_symmetry_equiv_pos_as_xyz
1 x,y,z
2 x,1/4-y,1/4-z
3 3/4-x,1/4-y,1/2+z
4 3/4-x,y,3/4-z
5 -y,1/4+x,1/4+z
6 3/4+y,1/4+x,1/2-z
7 3/4+y,-x,3/4+z
8 -y,-x,-z
9 y,z,x
10 3/4-y,1/4-z,1/2+x
11 y,1/4-z,1/4-x
12 3/4-y,z,3/4-x
13 -z,1/4+y,1/4+x
14 -z,-y,-x
15 3/4+z,-y,3/4+x
16 3/4+z,1/4+y,1/2-x
17 z,x,y
18 1/4-z,1/2+x,3/4-y
19 1/4-z,1/4-x,y
20 z,3/4-x,3/4-y
21 -x,-z,-y
22 -x,3/4+z,3/4+y
23 1/4+x,1/2-z,3/4+y
24 3/4+x,1/4+z,1/2-y
25 x,1/2+y,1/2+z
26 x,3/4-y,3/4-z
27 3/4-x,3/4-y,z
28 3/4-x,1/2+y,1/4-z
29 -y,3/4+x,3/4+z
30 3/4+y,3/4+x,-z
31 3/4+y,1/2-x,1/4+z
32 -y,1/2-x,1/2-z
33 y,1/2+z,1/2+x
34 3/4-y,3/4-z,x
35 y,3/4-z,3/4-x
36 3/4-y,1/2+z,1/4-x
37 -z,3/4+y,3/4+x
38 -z,1/2-y,1/2-x
39 3/4+z,1/2-y,1/4+x
40 3/4+z,3/4+y,-x
41 z,1/2+x,1/2+y
42 1/4-z,x,1/4-y
43 1/4-z,3/4-x,1/2+y
44 z,1/4-x,1/4-y
45 -x,1/2-z,1/2-y
46 -x,1/4+z,1/4+y
47 1/4+x,-z,1/4+y
48 3/4+x,3/4+z,-y
49 1/2+x,y,1/2+z
50 1/2+x,1/4-y,3/4-z
51 1/4-x,1/4-y,z
52 1/4-x,y,1/4-z
53 1/2-y,1/4+x,3/4+z
54 1/4+y,1/4+x,-z
55 1/4+y,-x,1/4+z
56 1/2-y,-x,1/2-z
57 1/2+y,z,1/2+x
58 1/4-y,1/4-z,x
59 1/2+y,1/4-z,3/4-x
60 1/4-y,z,1/4-x
61 1/2-z,1/4+y,3/4+x
62 1/2-z,-y,1/2-x
63 1/4+z,-y,1/4+x
64 1/4+z,1/4+y,-x
65 1/2+z,x,1/2+y
66 3/4-z,1/2+x,1/4-y
67 3/4-z,1/4-x,1/2+y
68 1/2+z,3/4-x,1/4-y
69 1/2-x,-z,1/2-y
70 1/2-x,3/4+z,1/4+y
71 3/4+x,1/2-z,1/4+y
72 1/4+x,1/4+z,-y
73 1/2+x,1/2+y,z
74 1/2+x,3/4-y,1/4-z
75 1/4-x,3/4-y,1/2+z
76 1/4-x,1/2+y,3/4-z
77 1/2-y,3/4+x,1/4+z
78 1/4+y,3/4+x,1/2-z
79 1/4+y,1/2-x,3/4+z
80 1/2-y,1/2-x,-z
81 1/2+y,1/2+z,x
82 1/4-y,3/4-z,1/2+x
83 1/2+y,3/4-z,1/4-x
84 1/4-y,1/2+z,3/4-x
85 1/2-z,3/4+y,1/4+x
86 1/2-z,1/2-y,-x
87 1/4+z,1/2-y,3/4+x
88 1/4+z,3/4+y,1/2-x
89 1/2+z,1/2+x,y
90 3/4-z,x,3/4-y
91 3/4-z,3/4-x,y
92 1/2+z,1/4-x,3/4-y
93 1/2-x,1/2-z,-y
94 1/2-x,1/4+z,3/4+y
95 3/4+x,-z,3/4+y
96 1/4+x,3/4+z,1/2-y
97 -x,-y,-z
98 -x,3/4+y,3/4+z
99 1/4+x,3/4+y,1/2-z
100 1/4+x,-y,1/4+z
101 y,3/4-x,3/4-z
102 1/4-y,3/4-x,1/2+z
103 1/4-y,x,1/4-z
104 y,x,z
105 -y,-z,-x
106 1/4+y,3/4+z,1/2-x
107 -y,3/4+z,3/4+x
108 1/4+y,-z,1/4+x
109 z,3/4-y,3/4-x
110 z,y,x
111 1/4-z,y,1/4-x
112 1/4-z,3/4-y,1/2+x
113 -z,-x,-y
114 3/4+z,1/2-x,1/4+y
115 3/4+z,3/4+x,-y
116 -z,1/4+x,1/4+y
117 x,z,y
118 x,1/4-z,1/4-y
119 3/4-x,1/2+z,1/4-y
120 1/4-x,3/4-z,1/2+y
121 -x,1/2-y,1/2-z
122 -x,1/4+y,1/4+z
123 1/4+x,1/4+y,-z
124 1/4+x,1/2-y,3/4+z
125 y,1/4-x,1/4-z
126 1/4-y,1/4-x,z
127 1/4-y,1/2+x,3/4-z
128 y,1/2+x,1/2+z
129 -y,1/2-z,1/2-x
130 1/4+y,1/4+z,-x
131 -y,1/4+z,1/4+x
132 1/4+y,1/2-z,3/4+x
133 z,1/4-y,1/4-x
134 z,1/2+y,1/2+x
135 1/4-z,1/2+y,3/4-x
136 1/4-z,1/4-y,x
137 -z,1/2-x,1/2-y
138 3/4+z,-x,3/4+y
139 3/4+z,1/4+x,1/2-y
140 -z,3/4+x,3/4+y
141 x,1/2+z,1/2+y
142 x,3/4-z,3/4-y
143 3/4-x,z,3/4-y
144 1/4-x,1/4-z,y
145 1/2-x,-y,1/2-z
146 1/2-x,3/4+y,1/4+z
147 3/4+x,3/4+y,-z
148 3/4+x,-y,3/4+z
149 1/2+y,3/4-x,1/4-z
150 3/4-y,3/4-x,z
151 3/4-y,x,3/4-z
152 1/2+y,x,1/2+z
153 1/2-y,-z,1/2-x
154 3/4+y,3/4+z,-x
155 1/2-y,3/4+z,1/4+x
156 3/4+y,-z,3/4+x
157 1/2+z,3/4-y,1/4-x
158 1/2+z,y,1/2+x
159 3/4-z,y,3/4-x
160 3/4-z,3/4-y,x
161 1/2-z,-x,1/2-y
162 1/4+z,1/2-x,3/4+y
163 1/4+z,3/4+x,1/2-y
164 1/2-z,1/4+x,3/4+y
165 1/2+x,z,1/2+y
166 1/2+x,1/4-z,3/4-y
167 1/4-x,1/2+z,3/4-y
168 3/4-x,3/4-z,y
169 1/2-x,1/2-y,-z
170 1/2-x,1/4+y,3/4+z
171 3/4+x,1/4+y,1/2-z
172 3/4+x,1/2-y,1/4+z
173 1/2+y,1/4-x,3/4-z
174 3/4-y,1/4-x,1/2+z
175 3/4-y,1/2+x,1/4-z
176 1/2+y,1/2+x,z
177 1/2-y,1/2-z,-x
178 3/4+y,1/4+z,1/2-x
179 1/2-y,1/4+z,3/4+x
180 3/4+y,1/2-z,1/4+x
181 1/2+z,1/4-y,3/4-x
182 1/2+z,1/2+y,x
183 3/4-z,1/2+y,1/4-x
184 3/4-z,1/4-y,1/2+x
185 1/2-z,1/2-x,-y
186 1/4+z,-x,1/4+y
187 1/4+z,1/4+x,-y
188 1/2-z,3/4+x,1/4+y
189 1/2+x,1/2+z,y
190 1/2+x,3/4-z,1/4-y
191 1/4-x,z,1/4-y
192 3/4-x,1/4-z,1/2+y
_cell_length_a                   39.845(12)
_cell_length_b                   39.845(12)
_cell_length_c                   39.845(12)
_cell_angle_alpha                90
_cell_angle_beta                 90
_cell_angle_gamma                90
_cell_volume                     63258.9
_exptl_crystal_colour            orange
_exptl_crystal_description       octahedron
_cell_formula_units_Z            8
loop_
_atom_site_label
_atom_site_type_symbol
_atom_site_fract_x
_atom_site_fract_y
_atom_site_fract_z
Zr1 Zr 0.687207(11) 0.1250 0.1250
O1 O 0.65411(13) 0.15411(13) 0.09589(13)
O2 O 0.65759(12) 0.09241(12) 0.09241(12)
O3 O 0.71425(5) 0.12438(7) 0.17372(5)
C1 C 0.70384(8) 0.12161(15) 0.20384(8)
C2 C 0.73013(9) 0.11684(16) 0.23013(9)
C3 C 0.76296(11) 0.11423(19) 0.22122(13)
H1 H 0.7692 0.1159 0.1983
C4 C 0.77904(11) 0.1062(3) 0.27904(11)
C5 C 0.78759(14) 0.1091(2) 0.24577(15)
H2 H 0.8105 0.1076 0.2393
C6 C 0.80404(11) 0.1010(3) 0.30404(11)
C7 C 0.82499(12) 0.0969(3) 0.32499(12)
C8 C 0.85011(14) 0.0949(3) 0.35011(14)
C9 C 0.8423(3) 0.0914(4) 0.3815(3)
Zr1I Zr 0.6250 0.1250 0.187207(11)
Zr1MB Zr 0.6250 0.187207(11) 0.1250
Zr1J Zr 1.1250 0.1250 0.562793(11)
Zr1B Zr 1.062793(11) 0.1250 0.6250
Zr1K Zr 0.6250 0.1250 0.062793(11)
Zr1OB Zr 0.6250 0.062793(11) 0.1250
Zr1H Zr 1.1250 0.1250 -0.312793(11)
Zr1B_2 Zr 1.062793(11) 0.1250 -0.3750
Zr1R Zr 1.1250 0.562793(11) 0.1250
Zr1Z Zr 1.062793(11) 0.6250 0.1250
Zr1P Zr 1.1250 -0.312793(11) 0.1250
Zr1Z_2 Zr 1.062793(11) -0.3750 0.1250
Zr1XA Zr 0.562793(11) 0.1250 0.1250
Zr1NB Zr 0.6250 0.562793(11) 0.6250
Zr1IA Zr 0.6250 0.6250 0.562793(11)
Zr1LB Zr 0.6250 -0.312793(11) 0.6250
Zr1IA_2 Zr 0.6250 -0.3750 0.562793(11)
Zr1Q Zr 1.1250 0.187207(11) 0.6250
Zr1VA Zr 1.187207(11) 0.1250 0.6250
O1A O 0.65411(13) 0.09589(13) 0.15411(13)
O1I O 0.59589(13) 0.15411(13) 0.15411(13)
O1J O 1.15411(13) 0.15411(13) 0.59589(13)
O1B O 1.09589(13) 0.09589(13) 0.59589(13)
O1C O 1.09589(13) 0.15411(13) 0.65411(13)
O1K O 0.59589(13) 0.09589(13) 0.09589(13)
O2A O 0.65759(12) 0.15759(12) 0.15759(12)
O2YA O 0.59241(12) 0.09241(12) 0.15759(12)
O2XA O 0.59241(12) 0.15759(12) 0.09241(12)
O2PA O 1.15759(12) 0.09241(12) 0.59241(12)
O2B O 1.09241(12) 0.15759(12) 0.59241(12)
O2C O 1.09241(12) 0.09241(12) 0.65759(12)
O3AF O 0.67372(5) 0.12438(7) 0.21425(5)
O3FD O 1.07628(5) 0.12438(7) 0.53575(5)
O3C O 1.03575(5) 0.12438(7) 0.57628(5)
O3A O 0.71425(5) 0.12562(7) 0.07628(5)
O3XF O 0.67372(5) 0.12562(7) 0.03575(5)
O3EE O 1.07628(5) 0.12562(7) -0.28575(5)
O3B O 1.03575(5) 0.12562(7) -0.32628(5)
O3LD O 0.71425(5) 0.17372(5) 0.12438(7)
O3JC O 0.67372(5) 0.21425(5) 0.12438(7)
O3R O 1.07628(5) 0.53575(5) 0.12438(7)
O3KF O 1.03575(5) 0.57628(5) 0.12438(7)
O3MD O 0.71425(5) 0.07628(5) 0.12562(7)
O3OB O 0.67372(5) 0.03575(5) 0.12562(7)
O3OA O 1.07628(5) -0.28575(5) 0.12562(7)
O3ND O 1.03575(5) -0.32628(5) 0.12562(7)
O3DB O 0.62438(7) 0.17372(5) 0.21425(5)
O3SF O 0.62438(7) 0.21425(5) 0.17372(5)
O3PF O 0.62438(7) 0.53575(5) 0.57628(5)
O3DC O 0.62438(7) 0.57628(5) 0.53575(5)
O3I O 0.62562(7) 0.07628(5) 0.21425(5)
O3SE O 0.62562(7) 0.03575(5) 0.17372(5)
O3TE O 0.62562(7) -0.28575(5) 0.57628(5)
O3IA O 0.62562(7) -0.32628(5) 0.53575(5)
O3AG O 0.57628(5) 0.12562(7) 0.21425(5)
O3MB O 0.57628(5) 0.21425(5) 0.12562(7)
O3RF O 0.62562(7) 0.21425(5) 0.07628(5)
O3BE O 1.17372(5) 0.12562(7) 0.53575(5)
O3GB O 1.12562(7) 0.17372(5) 0.53575(5)
O3J O 1.12438(7) 0.07628(5) 0.53575(5)
O3B_2 O 1.03575(5) 0.12562(7) 0.67372(5)
O3LE O 1.03575(5) 0.17372(5) 0.62562(7)
O3IG O 1.03575(5) 0.07628(5) 0.62438(7)
O3BF O 0.57628(5) 0.12438(7) 0.03575(5)
O3FB O 0.62438(7) 0.07628(5) 0.03575(5)
O3K O 0.62562(7) 0.17372(5) 0.03575(5)
C1C C 1.04616(8) 0.12161(15) 0.54616(8)
C1A C 0.70384(8) 0.12839(15) 0.04616(8)
C1B C 1.04616(8) 0.12839(15) -0.29616(8)
C1JC C 0.70384(8) 0.20384(8) 0.12161(15)
C1R C 1.04616(8) 0.54616(8) 0.12161(15)
C1OB C 0.70384(8) 0.04616(8) 0.12839(15)
C1OA C 1.04616(8) -0.29616(8) 0.12839(15)
C1DB C 0.62161(15) 0.20384(8) 0.20384(8)
C1DC C 0.62161(15) 0.54616(8) 0.54616(8)
C1I C 0.62839(15) 0.04616(8) 0.20384(8)
C1IA C 0.62839(15) -0.29616(8) 0.54616(8)
C2C C 1.01987(9) 0.11684(16) 0.51987(9)
C2A C 0.73013(9) 0.13316(16) 0.01987(9)
C2B C 1.01987(9) 0.13316(16) -0.26987(9)
C2JC C 0.73013(9) 0.23013(9) 0.11684(16)
C2R C 1.01987(9) 0.51987(9) 0.11684(16)
C2OB C 0.73013(9) 0.01987(9) 0.13316(16)
C2OA C 1.01987(9) -0.26987(9) 0.13316(16)
C2DB C 0.61684(16) 0.23013(9) 0.23013(9)
C2DC C 0.61684(16) 0.51987(9) 0.51987(9)
C2I C 0.63316(16) 0.01987(9) 0.23013(9)
C2IA C 0.63316(16) -0.26987(9) 0.51987(9)
C3FD C 1.02878(13) 0.11423(19) 0.48704(11)
C3C C 0.98704(11) 0.11423(19) 0.52878(13)
C3AF C 0.72122(13) 0.11423(19) 0.26296(11)
C3A C 0.76296(11) 0.13577(19) 0.02878(13)
C3EE C 1.02878(13) 0.13577(19) -0.23704(11)
C3B C 0.98704(11) 0.13577(19) -0.27878(13)
C3XF C 0.72122(13) 0.13577(19) -0.01296(11)
C3LD C 0.76296(11) 0.22122(13) 0.11423(19)
C3R C 1.02878(13) 0.48704(11) 0.11423(19)
C3KF C 0.98704(11) 0.52878(13) 0.11423(19)
C3JC C 0.72122(13) 0.26296(11) 0.11423(19)
C3MD C 0.76296(11) 0.02878(13) 0.13577(19)
C3OA C 1.02878(13) -0.23704(11) 0.13577(19)
C3ND C 0.98704(11) -0.27878(13) 0.13577(19)
C3OB C 0.72122(13) -0.01296(11) 0.13577(19)
C3DB C 0.61423(19) 0.22122(13) 0.26296(11)
C3PF C 0.61423(19) 0.48704(11) 0.52878(13)
C3DC C 0.61423(19) 0.52878(13) 0.48704(11)
C3SF C 0.61423(19) 0.26296(11) 0.22122(13)
C3I C 0.63577(19) 0.02878(13) 0.26296(11)
C3TE C 0.63577(19) -0.23704(11) 0.52878(13)
C3IA C 0.63577(19) -0.27878(13) 0.48704(11)
C3SE C 0.63577(19) -0.01296(11) 0.22122(13)
H1C H 0.9808 0.1159 0.5517
H1FD H 1.0517 0.1159 0.4808
H1AF H 0.6983 0.1159 0.2692
H1A H 0.7692 0.1341 0.0517
H1B H 0.9808 0.1341 -0.3017
H1EE H 1.0517 0.1341 -0.2308
H1XF H 0.6983 0.1341 -0.0192
H1LD H 0.7692 0.1983 0.1159
H1KF H 0.9808 0.5517 0.1159
H1R H 1.0517 0.4808 0.1159
H1JC H 0.6983 0.2692 0.1159
H1MD H 0.7692 0.0517 0.1341
H1ND H 0.9808 -0.3017 0.1341
H1OA H 1.0517 -0.2308 0.1341
H1OB H 0.6983 -0.0192 0.1341
H1DB H 0.6159 0.1983 0.2692
H1DC H 0.6159 0.5517 0.4808
H1PF H 0.6159 0.4808 0.5517
H1SF H 0.6159 0.2692 0.1983
H1I H 0.6341 0.0517 0.2692
H1IA H 0.6341 -0.3017 0.4808
H1TE H 0.6341 -0.2308 0.5517
H1SE H 0.6341 -0.0192 0.1983
C4C C 0.97096(11) 0.1062(3) 0.47096(11)
C4A C 0.77904(11) 0.1438(3) -0.02904(11)
C4B C 0.97096(11) 0.1438(3) -0.22096(11)
C4JC C 0.77904(11) 0.27904(11) 0.1062(3)
C4R C 0.97096(11) 0.47096(11) 0.1062(3)
C4OB C 0.77904(11) -0.02904(11) 0.1438(3)
C4OA C 0.97096(11) -0.22096(11) 0.1438(3)
C4DB C 0.6062(3) 0.27904(11) 0.27904(11)
C4DC C 0.6062(3) 0.47096(11) 0.47096(11)
C4I C 0.6438(3) -0.02904(11) 0.27904(11)
C4IA C 0.6438(3) -0.22096(11) 0.47096(11)
C5FD C 1.00423(15) 0.1091(2) 0.46241(14)
C5C C 0.96241(14) 0.1091(2) 0.50423(15)
C5AF C 0.74577(15) 0.1091(2) 0.28759(14)
C5A C 0.78759(14) 0.1409(2) 0.00423(15)
C5EE C 1.00423(15) 0.1409(2) -0.21241(14)
C5B C 0.96241(14) 0.1409(2) -0.25423(15)
C5XF C 0.74577(15) 0.1409(2) -0.03759(14)
C5LD C 0.78759(14) 0.24577(15) 0.1091(2)
C5R C 1.00423(15) 0.46241(14) 0.1091(2)
C5KF C 0.96241(14) 0.50423(15) 0.1091(2)
C5JC C 0.74577(15) 0.28759(14) 0.1091(2)
C5MD C 0.78759(14) 0.00423(15) 0.1409(2)
C5OA C 1.00423(15) -0.21241(14) 0.1409(2)
C5ND C 0.96241(14) -0.25423(15) 0.1409(2)
C5OB C 0.74577(15) -0.03759(14) 0.1409(2)
C5DB C 0.6091(2) 0.24577(15) 0.28759(14)
C5PF C 0.6091(2) 0.46241(14) 0.50423(15)
C5DC C 0.6091(2) 0.50423(15) 0.46241(14)
C5SF C 0.6091(2) 0.28759(14) 0.24577(15)
C5I C 0.6409(2) 0.00423(15) 0.28759(14)
C5TE C 0.6409(2) -0.21241(14) 0.50423(15)
C5IA C 0.6409(2) -0.25423(15) 0.46241(14)
C5SE C 0.6409(2) -0.03759(14) 0.24577(15)
H2FD H 1.0107 0.1076 0.4395
H2C H 0.9395 0.1076 0.5107
H2AF H 0.7393 0.1076 0.3105
H2A H 0.8105 0.1424 0.0107
H2EE H 1.0107 0.1424 -0.1895
H2B H 0.9395 0.1424 -0.2607
H2XF H 0.7393 0.1424 -0.0605
H2LD H 0.8105 0.2393 0.1076
H2R H 1.0107 0.4395 0.1076
H2KF H 0.9395 0.5107 0.1076
H2JC H 0.7393 0.3105 0.1076
H2MD H 0.8105 0.0107 0.1424
H2OA H 1.0107 -0.1895 0.1424
H2ND H 0.9395 -0.2607 0.1424
H2OB H 0.7393 -0.0605 0.1424
H2DB H 0.6076 0.2393 0.3105
H2PF H 0.6076 0.4395 0.5107
H2DC H 0.6076 0.5107 0.4395
H2SF H 0.6076 0.3105 0.2393
H2I H 0.6424 0.0107 0.3105
H2TE H 0.6424 -0.1895 0.5107
H2IA H 0.6424 -0.2607 0.4395
H2SE H 0.6424 -0.0605 0.2393
C6C C 0.94596(11) 0.1010(3) 0.44596(11)
C6A C 0.80404(11) 0.1490(3) -0.05404(11)
C6B C 0.94596(11) 0.1490(3) -0.19596(11)
C6JC C 0.80404(11) 0.30404(11) 0.1010(3)
C6R C 0.94596(11) 0.44596(11) 0.1010(3)
C6OB C 0.80404(11) -0.05404(11) 0.1490(3)
C6OA C 0.94596(11) -0.19596(11) 0.1490(3)
C6DB C 0.6010(3) 0.30404(11) 0.30404(11)
C6DC C 0.6010(3) 0.44596(11) 0.44596(11)
C6I C 0.6490(3) -0.05404(11) 0.30404(11)
C6IA C 0.6490(3) -0.19596(11) 0.44596(11)
C7C C 0.92501(12) 0.0969(3) 0.42501(12)
C7A C 0.82499(12) 0.1531(3) -0.07499(12)
C7B C 0.92501(12) 0.1531(3) -0.17501(12)
C7JC C 0.82499(12) 0.32499(12) 0.0969(3)
C7R C 0.92501(12) 0.42501(12) 0.0969(3)
C7OB C 0.82499(12) -0.07499(12) 0.1531(3)
C7OA C 0.92501(12) -0.17501(12) 0.1531(3)
C7DB C 0.5969(3) 0.32499(12) 0.32499(12)
C7DC C 0.5969(3) 0.42501(12) 0.42501(12)
C7I C 0.6531(3) -0.07499(12) 0.32499(12)
C7IA C 0.6531(3) -0.17501(12) 0.42501(12)
C8C C 0.89989(14) 0.0949(3) 0.39989(14)
C8A C 0.85011(14) 0.1551(3) -0.10011(14)
C8B C 0.89989(14) 0.1551(3) -0.14989(14)
C8JC C 0.85011(14) 0.35011(14) 0.0949(3)
C8R C 0.89989(14) 0.39989(14) 0.0949(3)
C8OB C 0.85011(14) -0.10011(14) 0.1551(3)
C8OA C 0.89989(14) -0.14989(14) 0.1551(3)
C8DB C 0.5949(3) 0.35011(14) 0.35011(14)
C8DC C 0.5949(3) 0.39989(14) 0.39989(14)
C8I C 0.6551(3) -0.10011(14) 0.35011(14)
C8IA C 0.6551(3) -0.14989(14) 0.39989(14)
C9FD C 0.8685(3) 0.0914(4) 0.4077(3)
C9C C 0.9077(3) 0.0914(4) 0.3685(3)
C9AF C 0.8815(3) 0.0914(4) 0.3423(3)
C9A C 0.8423(3) 0.1586(4) -0.1315(3)
C9EE C 0.8685(3) 0.1586(4) -0.1577(3)
C9B C 0.9077(3) 0.1586(4) -0.1185(3)
C9XF C 0.8815(3) 0.1586(4) -0.0923(3)
C9LD C 0.8423(3) 0.3815(3) 0.0914(4)
C9R C 0.8685(3) 0.4077(3) 0.0914(4)
C9KF C 0.9077(3) 0.3685(3) 0.0914(4)
C9JC C 0.8815(3) 0.3423(3) 0.0914(4)
C9MD C 0.8423(3) -0.1315(3) 0.1586(4)
C9OA C 0.8685(3) -0.1577(3) 0.1586(4)
C9ND C 0.9077(3) -0.1185(3) 0.1586(4)
C9OB C 0.8815(3) -0.0923(3) 0.1586(4)
C9DB C 0.5914(4) 0.3815(3) 0.3423(3)
C9PF C 0.5914(4) 0.4077(3) 0.3685(3)
C9DC C 0.5914(4) 0.3685(3) 0.4077(3)
C9SF C 0.5914(4) 0.3423(3) 0.3815(3)
C9I C 0.6586(4) -0.1315(3) 0.3423(3)
C9TE C 0.6586(4) -0.1577(3) 0.3685(3)
C9IA C 0.6586(4) -0.1185(3) 0.4077(3)
C9SE C 0.6586(4) -0.0923(3) 0.3815(3)
loop_
_geom_bond_atom_site_label_1
_geom_bond_atom_site_label_2
_geom_bond_site_symmetry_1
_geom_bond_site_symmetry_2
Zr1 O1 1_555 1_555
O1 Zr1MB 1_555 1_555
O2 Zr1 1_555 1_555
O3 Zr1 1_555 1_555
C1 O3 1_555 1_555
C2 C1 1_555 1_555
C3 C2 1_555 1_555
H1 C3 1_555 1_555
C4 C5 1_555 1_555
C5 C3 1_555 1_555
H2 C5 1_555 1_555
C6 C4 1_555 1_555
C7 C6 1_555 1_555
C8 C7 1_555 1_555
C9 C8 1_555 1_555
Zr1I O1A 1_555 1_555
Zr1MB O1I 1_555 1_555
Zr1J O1J 1_555 1_555
Zr1B O1B 1_555 1_555
Zr1K O1 1_555 1_555
Zr1OB O2 1_555 1_555
Zr1H O3EE 1_555 1_555
Zr1B_2 O3B 1_555 1_555
Zr1R O3R 1_555 1_555
Zr1Z O3KF 1_555 1_555
Zr1P O3OA 1_555 1_555
Zr1Z_2 O3ND 1_555 1_555
Zr1XA O1I 1_555 1_555
Zr1NB O3PF 1_555 1_555
Zr1IA O3DC 1_555 1_555
Zr1LB O3TE 1_555 1_555
Zr1IA_2 O3IA 1_555 1_555
Zr1Q O1J 1_555 1_555
Zr1VA O1J 1_555 1_555
O1A Zr1 1_555 1_555
O1I Zr1I 1_555 1_555
O1B Zr1J 1_555 1_555
O1C Zr1B 1_555 1_555
O1K Zr1K 1_555 1_555
O2A Zr1 1_555 1_555
O2YA Zr1I 1_555 1_555
O2XA Zr1MB 1_555 1_555
O2PA Zr1J 1_555 1_555
O2B Zr1J 1_555 1_555
O2C Zr1B 1_555 1_555
O3AF C1 1_555 1_555
O3FD Zr1J 1_555 1_555
O3C Zr1B 1_555 1_555
O3A Zr1 1_555 1_555
O3XF Zr1K 1_555 1_555
O3EE C1B 1_555 1_555
O3B C1B 1_555 1_555
O3LD Zr1 1_555 1_555
O3JC Zr1MB 1_555 1_555
O3R C1R 1_555 1_555
O3KF C1R 1_555 1_555
O3MD Zr1 1_555 1_555
O3OB Zr1OB 1_555 1_555
O3OA C1OA 1_555 1_555
O3ND C1OA 1_555 1_555
O3DB Zr1I 1_555 1_555
O3SF Zr1MB 1_555 1_555
O3PF C1DC 1_555 1_555
O3DC C1DC 1_555 1_555
O3I Zr1I 1_555 1_555
O3SE Zr1OB 1_555 1_555
O3TE C1IA 1_555 1_555
O3IA C1IA 1_555 1_555
O3AG Zr1I 1_555 1_555
O3MB Zr1MB 1_555 1_555
O3RF Zr1MB 1_555 1_555
O3BE Zr1J 1_555 1_555
O3GB Zr1J 1_555 1_555
O3J Zr1J 1_555 1_555
O3B_2 Zr1B 1_555 1_555
O3LE Zr1B 1_555 1_555
O3IG Zr1B 1_555 1_555
O3BF Zr1K 1_555 1_555
O3FB Zr1K 1_555 1_555
O3K Zr1K 1_555 1_555
C1C O3FD 1_555 1_555
C1A O3A 1_555 1_555
C1B C2B 1_555 1_555
C1JC O3LD 1_555 1_555
C1R C2R 1_555 1_555
C1OB O3MD 1_555 1_555
C1OA C2OA 1_555 1_555
C1DB O3DB 1_555 1_555
C1DC C2DC 1_555 1_555
C1I O3I 1_555 1_555
C1IA C2IA 1_555 1_555
C2C C1C 1_555 1_555
C2A C1A 1_555 1_555
C2B C3EE 1_555 1_555
C2JC C1JC 1_555 1_555
C2R C3R 1_555 1_555
C2OB C1OB 1_555 1_555
C2OA C3OA 1_555 1_555
C2DB C1DB 1_555 1_555
C2DC C3PF 1_555 1_555
C2I C1I 1_555 1_555
C2IA C3TE 1_555 1_555
C3FD C2C 1_555 1_555
C3C C2C 1_555 1_555
C3AF C2 1_555 1_555
C3A C2A 1_555 1_555
C3EE H1EE 1_555 1_555
C3B C2B 1_555 1_555
C3XF C2A 1_555 1_555
C3LD C2JC 1_555 1_555
C3R H1R 1_555 1_555
C3KF C2R 1_555 1_555
C3JC C2JC 1_555 1_555
C3MD C2OB 1_555 1_555
C3OA H1OA 1_555 1_555
C3ND C2OA 1_555 1_555
C3OB C2OB 1_555 1_555
C3DB C2DB 1_555 1_555
C3PF H1PF 1_555 1_555
C3DC C2DC 1_555 1_555
C3SF C2DB 1_555 1_555
C3I C2I 1_555 1_555
C3TE H1TE 1_555 1_555
C3IA C2IA 1_555 1_555
C3SE C2I 1_555 1_555
H1C C3C 1_555 1_555
H1FD C3FD 1_555 1_555
H1AF C3AF 1_555 1_555
H1A C3A 1_555 1_555
H1B C3B 1_555 1_555
H1XF C3XF 1_555 1_555
H1LD C3LD 1_555 1_555
H1KF C3KF 1_555 1_555
H1JC C3JC 1_555 1_555
H1MD C3MD 1_555 1_555
H1ND C3ND 1_555 1_555
H1OB C3OB 1_555 1_555
H1DB C3DB 1_555 1_555
H1DC C3DC 1_555 1_555
H1SF C3SF 1_555 1_555
H1I C3I 1_555 1_555
H1IA C3IA 1_555 1_555
H1SE C3SE 1_555 1_555
C4C C5FD 1_555 1_555
C4A C5A 1_555 1_555
C4B C5EE 1_555 1_555
C4JC C5LD 1_555 1_555
C4R C5R 1_555 1_555
C4OB C5MD 1_555 1_555
C4OA C5OA 1_555 1_555
C4DB C5DB 1_555 1_555
C4DC C5PF 1_555 1_555
C4I C5I 1_555 1_555
C4IA C5TE 1_555 1_555
C5FD C3FD 1_555 1_555
C5C C3C 1_555 1_555
C5AF C4 1_555 1_555
C5A C3A 1_555 1_555
C5EE C3EE 1_555 1_555
C5B C3B 1_555 1_555
C5XF C3XF 1_555 1_555
C5LD C3LD 1_555 1_555
C5R C3R 1_555 1_555
C5KF C3KF 1_555 1_555
C5JC C3JC 1_555 1_555
C5MD C3MD 1_555 1_555
C5OA C3OA 1_555 1_555
C5ND C3ND 1_555 1_555
C5OB C3OB 1_555 1_555
C5DB C3DB 1_555 1_555
C5PF C3PF 1_555 1_555
C5DC C3DC 1_555 1_555
C5SF C3SF 1_555 1_555
C5I C3I 1_555 1_555
C5TE C3TE 1_555 1_555
C5IA C3IA 1_555 1_555
C5SE C3SE 1_555 1_555
H2FD C5FD 1_555 1_555
H2C C5C 1_555 1_555
H2AF C5AF 1_555 1_555
H2A C5A 1_555 1_555
H2EE C5EE 1_555 1_555
H2B C5B 1_555 1_555
H2XF C5XF 1_555 1_555
H2LD C5LD 1_555 1_555
H2R C5R 1_555 1_555
H2KF C5KF 1_555 1_555
H2JC C5JC 1_555 1_555
H2MD C5MD 1_555 1_555
H2OA C5OA 1_555 1_555
H2ND C5ND 1_555 1_555
H2OB C5OB 1_555 1_555
H2DB C5DB 1_555 1_555
H2PF C5PF 1_555 1_555
H2DC C5DC 1_555 1_555
H2SF C5SF 1_555 1_555
H2I C5I 1_555 1_555
H2TE C5TE 1_555 1_555
H2IA C5IA 1_555 1_555
H2SE C5SE 1_555 1_555
C6C C4C 1_555 1_555
C6A C4A 1_555 1_555
C6B C4B 1_555 1_555
C6JC C4JC 1_555 1_555
C6R C4R 1_555 1_555
C6OB C4OB 1_555 1_555
C6OA C4OA 1_555 1_555
C6DB C4DB 1_555 1_555
C6DC C4DC 1_555 1_555
C6I C4I 1_555 1_555
C6IA C4IA 1_555 1_555
C7C C6C 1_555 1_555
C7A C6A 1_555 1_555
C7B C6B 1_555 1_555
C7JC C6JC 1_555 1_555
C7R C6R 1_555 1_555
C7OB C6OB 1_555 1_555
C7OA C6OA 1_555 1_555
C7DB C6DB 1_555 1_555
C7DC C6DC 1_555 1_555
C7I C6I 1_555 1_555
C7IA C6IA 1_555 1_555
C8C C7C 1_555 1_555
C8A C7A 1_555 1_555
C8B C7B 1_555 1_555
C8JC C7JC 1_555 1_555
C8R C7R 1_555 1_555
C8OB C7OB 1_555 1_555
C8OA C7OA 1_555 1_555
C8DB C7DB 1_555 1_555
C8DC C7DC 1_555 1_555
C8I C7I 1_555 1_555
C8IA C7IA 1_555 1_555
C9FD C9 1_555 1_555
C9C C8C 1_555 1_555
C9AF C8 1_555 1_555
C9A C8A 1_555 1_555
C9EE C8B 1_555 1_555
C9B C8B 1_555 1_555
C9XF C8A 1_555 1_555
C9LD C8JC 1_555 1_555
C9R C8R 1_555 1_555
C9KF C8R 1_555 1_555
C9JC C8JC 1_555 1_555
C9MD C8OB 1_555 1_555
C9OA C8OA 1_555 1_555
C9ND C8OA 1_555 1_555
C9OB C8OB 1_555 1_555
C9DB C8DB 1_555 1_555
C9PF C8DC 1_555 1_555
C9DC C8DC 1_555 1_555
C9SF C8DB 1_555 1_555
C9I C8I 1_555 1_555
C9TE C8IA 1_555 1_555
C9IA C8IA 1_555 1_555
C9SE C8I 1_555 1_555
O2 Zr1K 1_555 1_555
Zr1I O2A 1_555 1_555
Zr1I O3AF 1_555 1_555
Zr1MB O2A 1_555 1_555
Zr1B O2B 1_555 1_555
Zr1K O2XA 1_555 1_555
Zr1OB O1A 1_555 1_555
Zr1OB O1K 1_555 1_555
Zr1OB O2YA 1_555 1_555
Zr1XA O1K 1_555 1_555
Zr1XA O2YA 1_555 1_555
Zr1XA O2XA 1_555 1_555
Zr1Q O1C 1_555 1_555
Zr1Q O2B 1_555 1_555
Zr1VA O2PA 1_555 1_555
O3C C1C 1_555 1_555
O3XF C1A 1_555 1_555
O3JC C1JC 1_555 1_555
O3OB C1OB 1_555 1_555
O3SF C1DB 1_555 1_555
O3SE C1I 1_555 1_555
C3AF C5AF 1_555 1_555
C4C C5C 1_555 1_555
C4A C5XF 1_555 1_555
C4B C5B 1_555 1_555
C4JC C5JC 1_555 1_555
C4R C5KF 1_555 1_555
C4OB C5OB 1_555 1_555
C4OA C5ND 1_555 1_555
C4DB C5SF 1_555 1_555
C4DC C5DC 1_555 1_555
C4I C5SE 1_555 1_555
C4IA C5IA 1_555 1_555
C8C C9FD 1_555 1_555
C9C C9AF 1_555 1_555
C9A C9EE 1_555 1_555
C9B C9XF 1_555 1_555
C9LD C9R 1_555 1_555
C9KF C9JC 1_555 1_555
C9MD C9OA 1_555 1_555
C9ND C9OB 1_555 1_555
C9DB C9PF 1_555 1_555
C9DC C9SF 1_555 1_555
C9I C9TE 1_555 1_555
C9IA C9SE 1_555 1_555

#END
