
#######################################################################
#
#                 Cambridge Crystallographic Data Centre
#                                CCDC 
#
#######################################################################
#
# If this CIF has been generated from an entry in the Cambridge 
# Structural Database, then it will include bibliographic, chemical, 
# crystal, experimental, refinement or atomic coordinate data resulting 
# from the CCDC's data processing and validation procedures.
#
#######################################################################

data_NORPIV
_chemical_formula_moiety         '(C12 H9 N7 O4 Zn2)n,2(H2 O1)'
_chemical_name_systematic        
'catena-[bis(\m~3~-4H-1,2,4-triazol-4-yl)-(\m~2~-2-aminoterephthalato)-di-zinc unknown solvate dihydrate]'
_symmetry_cell_setting           tetragonal
_symmetry_space_group_name_H-M   'P 4/n c c'
_symmetry_Int_Tables_number      130
_space_group_name_Hall           '-P 4a 2ac'
loop_
_symmetry_equiv_pos_site_id
_symmetry_equiv_pos_as_xyz
1 x,y,z
2 1/2-x,1/2-y,z
3 1/2-y,x,z
4 y,1/2-x,z
5 -x,1/2+y,1/2-z
6 1/2+x,-y,1/2-z
7 1/2+y,1/2+x,1/2-z
8 -y,-x,1/2-z
9 -x,-y,-z
10 1/2+x,1/2+y,-z
11 1/2+y,-x,-z
12 -y,1/2+x,-z
13 x,1/2-y,1/2+z
14 1/2-x,y,1/2+z
15 1/2-y,1/2-x,1/2+z
16 y,x,1/2+z
_cell_length_a                   13.4537(9)
_cell_length_b                   13.4537(9)
_cell_length_c                   27.329(4)
_cell_angle_alpha                90
_cell_angle_beta                 90
_cell_angle_gamma                90
_cell_volume                     4946.6
_cell_formula_units_Z            8
loop_
_atom_site_label
_atom_site_type_symbol
_atom_site_fract_x
_atom_site_fract_y
_atom_site_fract_z
O3 O 0.2500 0.2500 0.3522(5)
O4 O 0.2500 0.2500 0.1811(9)
O5 O 0.7500 0.2500 0.5782(3)
O1 O 0.4454(3) 0.1386(3) 0.36757(12)
Zn1 Zn 0.52227(3) 0.08925(3) 0.446728(16)
N1 N 0.5142(3) 0.2329(3) 0.46533(13)
O2 O 0.5751(3) 0.0449(3) 0.38345(13)
C1 C 0.5162(4) 0.0846(4) 0.35307(19)
C2 C 0.5322(4) 0.0677(4) 0.29987(19)
C3 C 0.4792(5) 0.1205(5) 0.26433(18)
N2 N 0.4061(11) 0.1818(13) 0.2761(4)
H1 H 0.3718 0.2102 0.2535
H2 H 0.3928 0.1932 0.3064
C4 C 0.6035(5) -0.0010(5) 0.28475(19)
H3 H 0.6407 -0.0344 0.3082
N3 N 0.4745(3) 0.3922(2) 0.46578(13)
N4 N 0.5375(2) 0.3757(3) 0.50438(12)
C5 C 0.4633(3) 0.3063(3) 0.44389(15)
H4 H 0.4240 0.2973 0.4163
C6 C 0.5602(3) 0.2807(3) 0.50279(15)
H5 H 0.620(5) 0.259(5) 0.530(2)
O1F O 0.6386(3) -0.0546(3) 0.13243(12)
O2F O 0.5449(3) 0.0751(3) 0.11655(13)
C1F C 0.5846(4) 0.0162(4) 0.14693(19)
C2F C 0.5677(4) 0.0322(4) 0.20013(19)
C3F C 0.6205(5) -0.0208(5) 0.23567(18)
N2F N 0.6818(13) -0.0939(11) 0.2239(4)
H1F H 0.7102 -0.1282 0.2465
H2F H 0.6932 -0.1072 0.1936
C4F C 0.4990(5) 0.1035(5) 0.21525(19)
H3F H 0.4656 0.1407 0.1918
Zn1B Zn 0.41075(3) 0.52227(3) 0.446728(16)
N1B N 0.2671(3) 0.5142(3) 0.46533(13)
N3B N 0.1078(2) 0.4745(3) 0.46578(13)
N4B N 0.1243(3) 0.5375(2) 0.50438(12)
C5B C 0.1937(3) 0.4633(3) 0.44389(15)
H4B H 0.2027 0.4240 0.4163
C6B C 0.2193(3) 0.5602(3) 0.50279(15)
H5B H 0.241(5) 0.620(5) 0.530(2)
O1B O 0.3614(3) 0.4454(3) 0.36757(12)
Zn1A Zn -0.02227(3) 0.41075(3) 0.446728(16)
Zn1F Zn 0.58925(3) 0.02227(3) 0.053272(16)
Zn1I Zn 0.02227(3) 0.58925(3) 0.553272(16)
Zn1J Zn 0.58925(3) 0.47773(3) 0.553272(16)
O2B O 0.4551(3) 0.5751(3) 0.38345(13)
N3C N 0.3922(2) 0.0255(3) 0.46578(13)
N4H N 0.4625(2) 0.6243(3) 0.49562(12)
N4K N 0.6243(3) 0.0375(2) 0.49562(12)
H6? H 0.4311 0.1665 0.2735
loop_
_geom_bond_atom_site_label_1
_geom_bond_atom_site_label_2
_geom_bond_site_symmetry_1
_geom_bond_site_symmetry_2
O1 Zn1 1_555 1_555
Zn1 N1 1_555 1_555
N1 C5 1_555 1_555
O2 Zn1 1_555 1_555
C1 O1 1_555 1_555
C2 C1 1_555 1_555
C3 C2 1_555 1_555
N2 C3 1_555 1_555
H1 N2 1_555 1_555
H2 N2 1_555 1_555
C4 C2 1_555 1_555
H3 C4 1_555 1_555
N3 N4 1_555 1_555
N4 C6 1_555 1_555
C5 N3 1_555 1_555
H4 C5 1_555 1_555
C6 N1 1_555 1_555
H5 C6 1_555 1_555
O1F C1F 1_555 1_555
O2F C1F 1_555 1_555
C1F C2F 1_555 1_555
C2F C3F 1_555 1_555
C3F C4 1_555 1_555
N2F C3F 1_555 1_555
H1F N2F 1_555 1_555
H2F N2F 1_555 1_555
C4F C3 1_555 1_555
H3F C4F 1_555 1_555
Zn1B N3 1_555 1_555
N1B Zn1B 1_555 1_555
N3B N4B 1_555 1_555
N4B C6B 1_555 1_555
C5B N1B 1_555 1_555
H4B C5B 1_555 1_555
C6B N1B 1_555 1_555
H5B C6B 1_555 1_555
O1B Zn1B 1_555 1_555
Zn1A N3B 1_555 1_555
Zn1F O1F 1_555 1_555
Zn1I N4B 1_555 1_555
Zn1J N4 1_555 1_555
O2B Zn1B 1_555 1_555
N3C Zn1 1_555 1_555
N4H Zn1B 1_555 1_555
N4K Zn1 1_555 1_555
O2 C1 1_555 1_555
O2F Zn1F 1_555 1_555
C2F C4F 1_555 1_555
N3B C5B 1_555 1_555

#END
