
#######################################################################
#
#                 Cambridge Crystallographic Data Centre
#                                CCDC 
#
#######################################################################
#
# If this CIF has been generated from an entry in the Cambridge 
# Structural Database, then it will include bibliographic, chemical, 
# crystal, experimental, refinement or atomic coordinate data resulting 
# from the CCDC's data processing and validation procedures.
#
#######################################################################

data_WUBHEI
_chemical_formula_moiety         '(C14 H22 N2 O19 Sr3)n,2(H2 O1)'
_chemical_name_systematic        
'catena-[bis(\m~4~-4-oxidopyridine-2,6-dicarboxylato)-(\m~2~-aqua)-octakis(aqua)-tri-strontium dihydrate]'
_symmetry_cell_setting           monoclinic
_symmetry_space_group_name_H-M   'C 2/c'
_symmetry_Int_Tables_number      15
_space_group_name_Hall           '-C 2yc'
loop_
_symmetry_equiv_pos_site_id
_symmetry_equiv_pos_as_xyz
1 x,y,z
2 -x,y,1/2-z
3 1/2+x,1/2+y,z
4 1/2-x,1/2+y,1/2-z
5 -x,-y,-z
6 x,-y,1/2+z
7 1/2-x,1/2-y,-z
8 1/2+x,1/2-y,1/2+z
_cell_length_a                   19.0347(4)
_cell_length_b                   6.8953(2)
_cell_length_c                   20.2406(4)
_cell_angle_alpha                90
_cell_angle_beta                 92.8750(10)
_cell_angle_gamma                90
_cell_volume                     2653.23
_exptl_crystal_colour            colorless
_exptl_crystal_description       block
_cell_formula_units_Z            4
_chemical_properties_physical    'Air-sensitive, Moisture-sensitive'
loop_
_atom_site_label
_atom_site_type_symbol
_atom_site_fract_x
_atom_site_fract_y
_atom_site_fract_z
_atom_site_U_iso_or_equiv
_atom_site_thermal_displace_type
Sr1 Sr 0.2500 0.2500 0.5000 0.0196 Uani
Sr2 Sr 0.078323(10) 0.17320(3) 0.318595(11) 0.0167 Uani
O1 O 0.09624(9) 0.2748(3) 0.09021(8) 0.0273 Uani
O2 O 0.33358(11) 0.5410(3) 0.51199(11) 0.0375 Uani
O3 O 0.05648(8) 0.2447(3) 0.19122(8) 0.0241 Uani
O4 O 0.19384(8) 0.2620(3) 0.37992(8) 0.0236 Uani
O5 O 0.30890(9) 0.2919(3) 0.38430(8) 0.0292 Uani
O6 O 0.36111(8) 0.3464(2) 0.14023(8) 0.0195 Uani
O7 O 0.06314(11) 0.5155(3) 0.36802(11) 0.0354 Uani
N1 N 0.18401(9) 0.2786(3) 0.24865(9) 0.0160 Uani
O8 O 0.02595(11) 0.0885(3) 0.43125(10) 0.0375 Uani
C1 C 0.30479(11) 0.3188(3) 0.17405(11) 0.0163 Uani
C2 C 0.17930(11) 0.2855(3) 0.18236(11) 0.0158 Uani
O9 O 0.13909(13) 0.4584(4) 0.49609(12) 0.0559 Uani
C3 C 0.30885(12) 0.3079(3) 0.24315(12) 0.0188 Uani
C4 C 0.23659(12) 0.3039(3) 0.14369(12) 0.0178 Uani
C5 C 0.10497(11) 0.2679(3) 0.15212(11) 0.0179 Uani
C6 C 0.24885(11) 0.2898(3) 0.27804(11) 0.0159 Uani
O10 O 0.0000 -0.0977(4) 0.2500 0.0276 Uani
C7 C 0.25133(11) 0.2811(3) 0.35232(11) 0.0172 Uani
H1 H 0.2294(12) 0.306(3) 0.0986(13) 0.0130 Uiso
H2 H 0.3524(14) 0.313(4) 0.2654(13) 0.0220 Uiso
H3 H 0.3426(15) 0.614(5) 0.4832(15) 0.0340 Uiso
H4 H 0.0211(16) 0.562(4) 0.3711(14) 0.0420 Uiso
H5 H 0.0194(17) -0.161(5) 0.2185(16) 0.0580 Uiso
H6 H 0.1274(17) 0.519(5) 0.5250(17) 0.0590 Uiso
H7 H 0.3431(17) 0.581(5) 0.5494(17) 0.0500 Uiso
H8 H 0.0883(17) 0.613(5) 0.3627(17) 0.0600 Uiso
H9 H 0.0501(18) 0.093(6) 0.4596(17) 0.0520 Uiso
H10 H -0.011(2) 0.162(5) 0.4341(19) 0.0970 Uiso
H11 H 0.1169(18) 0.485(5) 0.4626(17) 0.0520 Uiso
H5A H -0.0194(17) -0.161(5) 0.2815(16) 0.0580 Uiso
Sr2A Sr -0.078323(10) 0.17320(3) 0.181405(11) 0.0167 Uani
O1A O -0.09624(9) 0.2748(3) 0.40979(8) 0.0273 Uani
O3A O -0.05648(8) 0.2447(3) 0.30878(8) 0.0241 Uani
O4A O -0.19384(8) 0.2620(3) 0.12008(8) 0.0236 Uani
O5A O -0.30890(9) 0.2919(3) 0.11570(8) 0.0292 Uani
O6A O -0.36111(8) 0.3464(2) 0.35977(8) 0.0195 Uani
O7A O -0.06314(11) 0.5155(3) 0.13198(11) 0.0354 Uani
N1A N -0.18401(9) 0.2786(3) 0.25135(9) 0.0160 Uani
O8A O -0.02595(11) 0.0885(3) 0.06875(10) 0.0375 Uani
C1A C -0.30479(11) 0.3188(3) 0.32595(11) 0.0163 Uani
C2A C -0.17930(11) 0.2855(3) 0.31764(11) 0.0158 Uani
C3A C -0.30885(12) 0.3079(3) 0.25685(12) 0.0188 Uani
C4A C -0.23659(12) 0.3039(3) 0.35631(12) 0.0178 Uani
C5A C -0.10497(11) 0.2679(3) 0.34788(11) 0.0179 Uani
C6A C -0.24885(11) 0.2898(3) 0.22196(11) 0.0159 Uani
C7A C -0.25133(11) 0.2811(3) 0.14768(11) 0.0172 Uani
H1A H -0.2294(12) 0.306(3) 0.4014(13) 0.0130 Uiso
H2A H -0.3524(14) 0.313(4) 0.2346(13) 0.0220 Uiso
H4A H -0.0211(16) 0.562(4) 0.1289(14) 0.0420 Uiso
H8A H -0.0883(17) 0.613(5) 0.1373(17) 0.0600 Uiso
H9A H -0.0501(18) 0.093(6) 0.0404(17) 0.0520 Uiso
H10A H 0.011(2) 0.162(5) 0.0659(19) 0.0970 Uiso
O2F O 0.16642(11) -0.0410(3) 0.48801(11) 0.0375 Uani
H3F H 0.1574(15) -0.114(5) 0.5168(15) 0.0340 Uiso
H7F H 0.1569(17) -0.081(5) 0.4506(17) 0.0500 Uiso
O9F O 0.36091(13) 0.0416(4) 0.50391(12) 0.0559 Uani
H6F H 0.3726(17) -0.019(5) 0.4750(17) 0.0590 Uiso
H11F H 0.3831(18) 0.015(5) 0.5374(17) 0.0520 Uiso
Sr1A Sr -0.2500 0.2500 0.0000 0.0196 Uani
Sr2B Sr -0.421677(10) 0.67320(3) 0.318595(11) 0.0167 Uani
Sr2C Sr 0.421677(10) 0.67320(3) 0.181405(11) 0.0167 Uani
O4F O 0.30616(8) 0.2380(3) 0.62008(8) 0.0236 Uani
O5F O 0.19110(9) 0.2081(3) 0.61570(8) 0.0292 Uani
O6B O -0.13889(8) -0.1536(2) 0.14023(8) 0.0195 Uani
O6C O 0.13889(8) -0.1536(2) 0.35977(8) 0.0195 Uani
O11 O 0.44895(12) 0.2642(4) 0.36909(12) 0.0410 Uani
H12 H 0.4680(19) 0.344(5) 0.3943(19) 0.0770 Uiso
H13 H 0.408(2) 0.275(5) 0.3759(19) 0.0730 Uiso
loop_
_atom_site_aniso_label
_atom_site_aniso_U_11
_atom_site_aniso_U_22
_atom_site_aniso_U_33
_atom_site_aniso_U_23
_atom_site_aniso_U_13
_atom_site_aniso_U_12
Sr1 0.01827(16) 0.02837(18) 0.01192(15) -0.00125(13) -0.00077(12) -0.00047(13)
Sr2 0.01103(10) 0.02495(13) 0.01402(11) 0.00087(9) 0.00058(7) -0.00063(8)
O1 0.0192(9) 0.0463(12) 0.0161(9) 0.0057(8) -0.0019(7) -0.0080(8)
O2 0.0538(13) 0.0384(13) 0.0200(11) -0.0001(10) 0.0000(10) -0.0170(10)
O3 0.0122(8) 0.0416(11) 0.0187(9) 0.0036(8) 0.0017(6) -0.0047(7)
O4 0.0154(8) 0.0417(11) 0.0138(8) -0.0001(7) 0.0023(7) -0.0022(7)
O5 0.0159(8) 0.0565(13) 0.0148(9) -0.0005(8) -0.0026(7) -0.0032(8)
O6 0.0133 0.0271 0.0183 0.0025 0.0031 -0.0015
O7 0.0201(10) 0.0263(11) 0.0601(14) -0.0027(10) 0.0047(10) 0.0005(9)
N1 0.0135(9) 0.0210(11) 0.0133(10) 0.0014(8) -0.0016(7) -0.0019(7)
O8 0.0291(11) 0.0561(14) 0.0276(11) 0.0109(10) 0.0030(9) 0.0119(10)
C1 0.0143 0.0173 0.0176 0.0003 0.0025 -0.002
C2 0.0142(11) 0.0176(13) 0.0154(11) 0.0021(9) 0.0000(9) -0.0024(9)
O9 0.0683(16) 0.0728(18) 0.0256(12) -0.0131(12) -0.0073(12) 0.0450(13)
C3 0.0121 0.0255 0.0186 0.0023 -0.0024 -0.0026
C4 0.0178 0.024 0.0115 0.0015 -0.0007 -0.002
C5 0.0147(11) 0.0222(13) 0.0165(12) 0.0031(10) -0.0017(9) -0.0028(9)
C6 0.0143(11) 0.0196(13) 0.0136(11) 0.0006(9) -0.0009(9) -0.0025(9)
O10 0.0244(13) 0.0310(15) 0.0271(15) 0.000 -0.0012(11) 0.000
C7 0.0159(11) 0.0213(13) 0.0141(12) -0.0008(9) -0.0017(9) -0.0013(9)
Sr2A 0.01103 0.02495 0.01402 -0.00087 0.00058 0.00063
O1A 0.0192 0.0463 0.0161 -0.0057 -0.0019 0.008
O3A 0.0122 0.0416 0.0187 -0.0036 0.0017 0.0047
O4A 0.0154 0.0417 0.0138 0.0001 0.0023 0.0022
O5A 0.0159 0.0565 0.0148 0.0005 -0.0026 0.0032
O6A 0.0133 0.0271 0.0183 -0.0025 0.0031 0.0015
O7A 0.0201 0.0263 0.0601 0.0027 0.0047 -0.0005
N1A 0.0135 0.021 0.0133 -0.0014 -0.0016 0.0019
O8A 0.0291 0.0561 0.0276 -0.0109 0.003 -0.0119
C1A 0.0143 0.0173 0.0176 -0.0003 0.0025 0.002
C2A 0.0142 0.0176 0.0154 -0.0021 0 0.0024
C3A 0.0121 0.0255 0.0186 -0.0023 -0.0024 0.0026
C4A 0.0178 0.024 0.0115 -0.0015 -0.0007 0.002
C5A 0.0147 0.0222 0.0165 -0.0031 -0.0017 0.0028
C6A 0.0143 0.0196 0.0136 -0.0006 -0.0009 0.0025
C7A 0.0159 0.0213 0.0141 0.0008 -0.0017 0.0013
O2F 0.0538 0.0384 0.02 -0.0001 0 -0.017
O9F 0.0683 0.0728 0.0256 -0.0131 -0.0073 0.045
Sr1A 0.01827 0.02837 0.01192 0.00125 -0.00077 0.00047
Sr2B 0.01103 0.02495 0.01402 0.00087 0.00058 -0.00063
Sr2C 0.01103 0.02495 0.01402 -0.00087 0.00058 0.00063
O4F 0.0154 0.0417 0.0138 -0.0001 0.0023 -0.0022
O5F 0.0159 0.0565 0.0148 -0.0005 -0.0026 -0.0032
O6B 0.0133 0.0271 0.0183 0.0025 0.0031 -0.0015
O6C 0.0133 0.0271 0.0183 -0.0025 0.0031 0.0015
O11 0.0241(11) 0.0468(14) 0.0527(15) 0.0040(11) 0.0080(10) 0.0029(10)
loop_
_geom_bond_atom_site_label_1
_geom_bond_atom_site_label_2
_geom_bond_site_symmetry_1
_geom_bond_site_symmetry_2
Sr1 O2 1_555 1_555
Sr2 O3 1_555 1_555
O1 C5 1_555 1_555
O2 H3 1_555 1_555
O3 C5 1_555 1_555
O4 Sr1 1_555 1_555
O5 Sr1 1_555 1_555
O6 C1 1_555 1_555
O7 Sr2 1_555 1_555
N1 Sr2 1_555 1_555
O8 Sr2 1_555 1_555
C1 C3 1_555 1_555
C2 N1 1_555 1_555
O9 Sr1 1_555 1_555
C3 C6 1_555 1_555
C4 C1 1_555 1_555
C5 C2 1_555 1_555
C6 N1 1_555 1_555
O10 Sr2 1_555 1_555
C7 O4 1_555 1_555
H1 C4 1_555 1_555
H2 C3 1_555 1_555
H4 O7 1_555 1_555
H5 O10 1_555 1_555
H6 O9 1_555 1_555
H7 O2 1_555 1_555
H8 O7 1_555 1_555
H9 O8 1_555 1_555
H10 O8 1_555 1_555
H11 O9 1_555 1_555
O11 H12 1_555 1_555
H13 O11 1_555 1_555
H5A O10 1_555 1_555
Sr2A O3 1_555 1_555
O1A C5A 1_555 1_555
O3A Sr2 1_555 1_555
O4A Sr2A 1_555 1_555
O5A C7A 1_555 1_555
O6A C1A 1_555 1_555
O7A Sr2A 1_555 1_555
N1A Sr2A 1_555 1_555
O8A Sr2A 1_555 1_555
C1A C3A 1_555 1_555
C2A N1A 1_555 1_555
C3A C6A 1_555 1_555
C4A C1A 1_555 1_555
C5A O3A 1_555 1_555
C6A N1A 1_555 1_555
C7A O4A 1_555 1_555
H1A C4A 1_555 1_555
H2A C3A 1_555 1_555
H4A O7A 1_555 1_555
H8A O7A 1_555 1_555
H9A O8A 1_555 1_555
H10A O8A 1_555 1_555
O2F Sr1 1_555 1_555
H3F O2F 1_555 1_555
H7F O2F 1_555 1_555
O9F Sr1 1_555 1_555
H6F O9F 1_555 1_555
H11F O9F 1_555 1_555
Sr1A O4A 1_555 1_555
Sr2B O6A 1_555 1_555
Sr2C O6 1_555 1_555
O4F Sr1 1_555 1_555
O5F Sr1 1_555 1_555
O6B Sr2A 1_555 1_555
O6C Sr2 1_555 1_555
Sr2 O4 1_555 1_555
O5 C7 1_555 1_555
C2 C4 1_555 1_555
C6 C7 1_555 1_555
O10 Sr2A 1_555 1_555
Sr2A O3A 1_555 1_555
O5A Sr1A 1_555 1_555
C2A C4A 1_555 1_555
C2A C5A 1_555 1_555
C6A C7A 1_555 1_555

#END
