
#######################################################################
#
#                 Cambridge Crystallographic Data Centre
#                                CCDC 
#
#######################################################################
#
# If this CIF has been generated from an entry in the Cambridge 
# Structural Database, then it will include bibliographic, chemical, 
# crystal, experimental, refinement or atomic coordinate data resulting 
# from the CCDC's data processing and validation procedures.
#
#######################################################################

data_RUWWOW01
_chemical_formula_moiety         '(C30 H22 La2 O18)n,8n(H2 O1)'
_chemical_name_systematic        
'catena-(bis(\m~5~-5-(4-Carboxyphenoxy)isophthalato)-tetra-aqua-di-lanthanum octahydrate)'
_symmetry_cell_setting           triclinic
_symmetry_space_group_name_H-M   'P -1'
_symmetry_Int_Tables_number      2
_space_group_name_Hall           '-P 1'
loop_
_symmetry_equiv_pos_site_id
_symmetry_equiv_pos_as_xyz
1 x,y,z
2 -x,-y,-z
_cell_length_a                   9.360(5)
_cell_length_b                   9.936(3)
_cell_length_c                   11.384(6)
_cell_angle_alpha                93.182(5)
_cell_angle_beta                 97.617(4)
_cell_angle_gamma                110.271(7)
_cell_volume                     978.512
_exptl_crystal_colour            colorless
_exptl_crystal_description       prism
_cell_formula_units_Z            1
loop_
_atom_site_label
_atom_site_type_symbol
_atom_site_fract_x
_atom_site_fract_y
_atom_site_fract_z
La1 La 0.28439(5) 0.04801(5) 0.98309(5)
O1 O -0.0580(6) -0.8361(6) 0.0298(6)
O2 O 0.1778(7) -0.7641(6) -0.0187(5)
O3 O 0.5445(7) -0.2544(6) 0.1184(6)
O4 O 0.4168(7) -0.1054(6) 0.0782(5)
O5 O -0.0623(7) -0.3978(7) 0.2752(6)
O6 O 0.2864(7) -0.1061(8) 0.7957(6)
O7 O 0.1138(8) -0.0016(7) 0.7711(6)
C1 C 0.0718(10) -0.7419(9) 0.0296(8)
C2 C 0.1080(10) -0.5928(8) 0.0890(8)
C3 C 0.2436(9) -0.4847(9) 0.0763(8)
H1 H 0.3133 -0.5059 0.0344
C4 C 0.2762(9) -0.3441(7) 0.1262(7)
C5 C 0.4217(10) -0.2265(9) 0.1077(7)
C6 C 0.1728(10) -0.3105(10) 0.1905(7)
H2 H 0.1904 -0.2162 0.2207
C7 C 0.0420(9) -0.4255(9) 0.2070(7)
C8 C 0.0055(10) -0.5630(10) 0.1556(8)
H3 H -0.0858 -0.6355 0.1648
C9 C -0.0043(9) -0.3240(9) 0.3886(8)
C10 C 0.1229(10) -0.3409(10) 0.4581(8)
H4 H 0.1705 -0.4009 0.4289
C11 C 0.1758(11) -0.2664(10) 0.5709(9)
H5 H 0.2590 -0.2774 0.6185
C12 C 0.1067(10) -0.1762(10) 0.6135(8)
C13 C 0.1708(9) -0.0892(9) 0.7322(7)
C14 C -0.0207(11) -0.1648(11) 0.5443(8)
H6 H -0.0702 -0.1071 0.5743
C15 C -0.0756(10) -0.2380(10) 0.4313(8)
H7 H -0.1604 -0.2284 0.3849
O8 O 0.4943(7) 0.2222(7) 1.1461(6)
H8 H 0.5397 0.1772 1.1842
O9 O 0.1878(7) 0.0502(8) 1.1876(6)
H9 H 0.1001 0.0518 1.1771
H12 H 0.542(12) 0.317(3) 1.171(10)
H13 H 0.207(19) 0.03(4) 1.262(13)
La1A La -0.28439(5) -1.04801(5) 0.01691(5)
La1_2 La -0.71561(5) -0.95199(5) 0.98309(5)
La1_3 La 0.28439(5) -0.95199(5) -0.01691(5)
La1_4 La 0.28439(5) 0.04801(5) -0.01691(5)
La1A_2 La -0.28439(5) -1.04801(5) 1.01691(5)
La1A_3 La -0.28439(5) -0.04801(5) 1.01691(5)
La1A_4 La 0.71561(5) -0.04801(5) 0.01691(5)
O1A O 0.0580(6) -0.1639(6) 0.9702(6)
O2A O -0.1778(7) -0.2359(6) 1.0187(5)
O2_2 O 0.1778(7) 0.2359(6) 0.9813(5)
O2A_2 O -0.1778(7) -1.2359(6) 0.0187(5)
O3A O -0.5445(7) -0.7456(6) 0.8816(6)
O3_2 O -0.4555(7) -1.2544(6) 0.1184(6)
O3A_2 O 0.4555(7) 0.2544(6) 0.8816(6)
O4A O -0.4168(7) -0.8946(6) 0.9218(5)
O4_2 O -0.5832(7) -1.1054(6) 0.0782(5)
O4_3 O 0.4168(7) -0.1054(6) 1.0782(5)
O4A_2 O -0.4168(7) -0.8946(6) -0.0782(5)
O4A_3 O 0.5832(7) 0.1054(6) 0.9218(5)
O5A O 0.0623(7) -0.6022(7) 0.7248(6)
O6A O -0.2864(7) -0.8939(8) 0.2043(6)
O7A O -0.1138(8) -0.9984(7) 0.2289(6)
C1A C -0.0718(10) -0.2581(9) 0.9704(8)
C2A C -0.1080(10) -0.4072(8) 0.9110(8)
C3A C -0.2436(9) -0.5153(9) 0.9237(8)
H1A H -0.3133 -0.4941 0.9656
C4A C -0.2762(9) -0.6559(7) 0.8738(7)
C5A C -0.4217(10) -0.7735(9) 0.8923(7)
C6A C -0.1728(10) -0.6895(10) 0.8095(7)
H2A H -0.1904 -0.7838 0.7793
C7A C -0.0420(9) -0.5745(9) 0.7930(7)
C8A C -0.0055(10) -0.4370(10) 0.8444(8)
H3A H 0.0858 -0.3645 0.8352
C9A C 0.0043(9) -0.6760(9) 0.6114(8)
C10A C -0.1229(10) -0.6591(10) 0.5419(8)
H4A H -0.1705 -0.5991 0.5711
C11A C -0.1758(11) -0.7336(10) 0.4291(9)
H5A H -0.2590 -0.7226 0.3815
C12A C -0.1067(10) -0.8238(10) 0.3865(8)
C13A C -0.1708(9) -0.9108(9) 0.2678(7)
C14A C 0.0207(11) -0.8352(11) 0.4557(8)
H6A H 0.0702 -0.8929 0.4257
C15A C 0.0756(10) -0.7620(10) 0.5687(8)
H7A H 0.1604 -0.7716 0.6151
O8A O -0.4943(7) -1.2222(7) -0.1461(6)
H8A H -0.5397 -1.1772 -0.1842
O9A O -0.1878(7) -1.0502(8) -0.1876(6)
H9A H -0.1001 -1.0518 -0.1771
H12A H -0.542(12) -1.317(3) -0.171(10)
H13A H -0.207(19) -1.03(4) -0.262(13)
O10 O 0.3920(8) 0.4819(7) 0.7951(6)
H10 H 0.288(3) 0.451(14) 0.781(12)
H11 H 0.395(17) 0.405(10) 0.832(11)
O11 O 0.500(3) 0.061(3) 0.6158(19)
O12 O 0.382(2) 0.132(3) 0.4257(17)
O13 O 0.433(7) 0.403(4) 0.377(4)
loop_
_geom_bond_atom_site_label_1
_geom_bond_atom_site_label_2
_geom_bond_site_symmetry_1
_geom_bond_site_symmetry_2
La1 O6 1_555 1_555
O1 C1 1_555 1_555
O2 C1 1_555 1_555
O3 C5 1_555 1_555
O4 C5 1_555 1_555
O5 C7 1_555 1_555
O6 C13 1_555 1_555
O7 La1 1_555 1_555
C1 C2 1_555 1_555
C2 C3 1_555 1_555
C3 H1 1_555 1_555
C4 C3 1_555 1_555
C5 C4 1_555 1_555
C6 C4 1_555 1_555
H2 C6 1_555 1_555
C7 C6 1_555 1_555
C8 C2 1_555 1_555
H3 C8 1_555 1_555
C9 O5 1_555 1_555
C10 C9 1_555 1_555
H4 C10 1_555 1_555
C11 C10 1_555 1_555
H5 C11 1_555 1_555
C12 C11 1_555 1_555
C13 O7 1_555 1_555
C14 C12 1_555 1_555
H6 C14 1_555 1_555
C15 C9 1_555 1_555
H7 C15 1_555 1_555
O8 La1 1_555 1_555
H8 O8 1_555 1_555
O9 La1 1_555 1_555
H9 O9 1_555 1_555
O10 H10 1_555 1_555
H11 O10 1_555 1_555
H12 O8 1_555 1_555
H13 O9 1_555 1_555
La1A O1 1_555 1_555
La1_2 O3A 1_555 1_555
La1_3 O2 1_555 1_555
La1_4 O4 1_555 1_555
La1A_2 O4A 1_555 1_555
La1A_3 O2A 1_555 1_555
La1A_4 O3 1_555 1_555
O1A La1 1_555 1_555
O2A C1A 1_555 1_555
O2_2 La1 1_555 1_555
O2A_2 La1A 1_555 1_555
O3A C5A 1_555 1_555
O3_2 La1A 1_555 1_555
O3A_2 La1 1_555 1_555
O4A La1_2 1_555 1_555
O4_2 La1A 1_555 1_555
O4_3 La1 1_555 1_555
O4A_2 La1A 1_555 1_555
O4A_3 La1 1_555 1_555
O5A C7A 1_555 1_555
O6A La1A 1_555 1_555
O7A La1A 1_555 1_555
C1A O1A 1_555 1_555
C2A C1A 1_555 1_555
C3A C2A 1_555 1_555
H1A C3A 1_555 1_555
C4A C3A 1_555 1_555
C5A O4A 1_555 1_555
C6A C4A 1_555 1_555
H2A C6A 1_555 1_555
C7A C6A 1_555 1_555
C8A C2A 1_555 1_555
H3A C8A 1_555 1_555
C9A O5A 1_555 1_555
C10A C9A 1_555 1_555
H4A C10A 1_555 1_555
C11A C10A 1_555 1_555
H5A C11A 1_555 1_555
C12A C11A 1_555 1_555
C13A O6A 1_555 1_555
C14A C12A 1_555 1_555
H6A C14A 1_555 1_555
C15A C9A 1_555 1_555
H7A C15A 1_555 1_555
O8A La1A 1_555 1_555
H8A O8A 1_555 1_555
O9A La1A 1_555 1_555
H9A O9A 1_555 1_555
H12A O8A 1_555 1_555
H13A O9A 1_555 1_555
O4 La1A_4 1_555 1_555
C7 C8 1_555 1_555
C12 C13 1_555 1_555
C14 C15 1_555 1_555
O7A C13A 1_555 1_555
C4A C5A 1_555 1_555
C7A C8A 1_555 1_555
C12A C13A 1_555 1_555
C14A C15A 1_555 1_555

#END
