
#######################################################################
#
#                 Cambridge Crystallographic Data Centre
#                                CCDC 
#
#######################################################################
#
# If this CIF has been generated from an entry in the Cambridge 
# Structural Database, then it will include bibliographic, chemical, 
# crystal, experimental, refinement or atomic coordinate data resulting 
# from the CCDC's data processing and validation procedures.
#
#######################################################################

data_RUWWUC
_chemical_formula_moiety         '(C15 H11 La1 O9)n,n(C2 H6 O1),2n(H2 O1)'
_chemical_name_systematic        
'catena-((\m~5~-5-(4-Carboxyphenoxy)isophthalato)-diaqua-lanthanum ethanol solvate dihydrate)'
_symmetry_cell_setting           triclinic
_symmetry_space_group_name_H-M   'P -1'
_symmetry_Int_Tables_number      2
_space_group_name_Hall           '-P 1'
loop_
_symmetry_equiv_pos_site_id
_symmetry_equiv_pos_as_xyz
1 x,y,z
2 -x,-y,-z
_cell_length_a                   9.480(7)
_cell_length_b                   9.968(5)
_cell_length_c                   11.255(4)
_cell_angle_alpha                92.329(5)
_cell_angle_beta                 98.804(6)
_cell_angle_gamma                110.796(5)
_cell_volume                     977.348
_exptl_crystal_colour            colorless
_exptl_crystal_description       prism
_cell_formula_units_Z            2
loop_
_atom_site_label
_atom_site_type_symbol
_atom_site_fract_x
_atom_site_fract_y
_atom_site_fract_z
La1 La 0.28370(6) 0.04439(5) -0.01522(5)
O1 O 0.1822(7) 0.2338(7) -0.0157(6)
O2 O -0.0519(8) 0.1651(7) 0.0271(6)
O3 O 0.5494(6) 0.7484(6) 0.1202(6)
O4 O 0.4231(7) 0.8943(6) 0.0805(5)
O5 O -0.0567(7) 0.6025(6) 0.2664(6)
O6 O 0.2781(7) 0.8824(7) 0.8024(6)
O7 O 0.1132(7) 0.9932(7) 0.7680(6)
C1 C 0.0760(9) 0.2563(9) 0.0295(7)
C2 C 0.1148(10) 0.4065(9) 0.0880(7)
C3 C 0.2523(10) 0.5151(9) 0.0798(8)
H2 H 0.3240 0.4943 0.0422
C4 C 0.2825(10) 0.6553(10) 0.1279(8)
C5 C 0.4268(9) 0.7723(9) 0.1088(7)
C6 C 0.1791(9) 0.6860(9) 0.1877(8)
H3 H 0.1972 0.7805 0.2164
C7 C 0.0483(10) 0.5747(10) 0.2047(8)
C8 C 0.0120(10) 0.4363(8) 0.1520(8)
H4 H -0.0798 0.3637 0.1590
C9 C 0.0006(10) 0.6723(9) 0.3826(7)
C10 C 0.1191(10) 0.6500(10) 0.4570(8)
H5 H 0.1631 0.5872 0.4304
C11 C 0.1710(11) 0.7233(10) 0.5723(8)
H6 H 0.2505 0.7093 0.6233
C12 C 0.1052(10) 0.8175(9) 0.6124(7)
C13 C 0.1685(10) 0.9036(9) 0.7354(8)
C14 C -0.0155(11) 0.8353(10) 0.5383(9)
H7 H -0.0612 0.8962 0.5658
C15 C -0.0692(11) 0.7627(11) 0.4228(9)
H8 H -0.1508 0.7744 0.3729
O9 O 0.4913(8) 0.2170(7) 0.1526(7)
O10 O 0.1884(8) 0.0399(8) 0.1914(7)
H14 H 0.232(17) 0.133(3) 0.209(15)
H17 H 0.094(7) 0.013(18) 0.204(15)
H18 H 0.570(17) 0.199(15) 0.171(13)
H19 H 0.526(10) 0.312(3) 0.148(8)
La1A La -0.28370(6) -0.04439(5) 0.01522(5)
La1A_2 La 0.71630(6) 0.95561(5) 0.01522(5)
La1_2 La 0.28370(6) 1.04439(5) -0.01522(5)
La1_3 La 0.28370(6) 1.04439(5) 0.98478(5)
O2A O 0.0519(8) -0.1651(7) -0.0271(6)
O3A O 0.4506(6) 0.2516(6) -0.1202(6)
O4_2 O 0.4231(7) -0.1057(6) 0.0805(5)
O4A O 0.5769(7) 0.1057(6) -0.0805(5)
O6_2 O 0.2781(7) -0.1176(7) -0.1976(6)
O7_2 O 0.1132(7) -0.0068(7) -0.2320(6)
O8 O 0.479(6) 0.106(6) 0.589(4)
H1 H 0.4072 0.1077 0.6212
C16 C 0.423(6) 0.056(5) 0.462(4)
H9 H 0.3466 -0.0406 0.4532
H10 H 0.5073 0.0534 0.4239
C17 C 0.3552(19) 0.156(2) 0.4041(14)
H11 H 0.3222 0.1262 0.3191
H12 H 0.4307 0.2524 0.4161
H13 H 0.2689 0.1546 0.4397
O11 O 0.6139(8) 0.5134(8) 0.2014(7)
H15 H 0.585(18) 0.579(13) 0.174(14)
H16 H 0.710(4) 0.554(13) 0.205(12)
O12 O 0.550(3) 0.436(3) 0.442(2)
loop_
_geom_bond_atom_site_label_1
_geom_bond_atom_site_label_2
_geom_bond_site_symmetry_1
_geom_bond_site_symmetry_2
La1 O1 1_555 1_555
O1 C1 1_555 1_555
O2 C1 1_555 1_555
O3 C5 1_555 1_555
O4 C5 1_555 1_555
O5 C7 1_555 1_555
O6 C13 1_555 1_555
O7 C13 1_555 1_555
O8 H1 1_555 1_555
C1 C2 1_555 1_555
C2 C3 1_555 1_555
C3 H2 1_555 1_555
C4 C3 1_555 1_555
C5 C4 1_555 1_555
C6 C4 1_555 1_555
H3 C6 1_555 1_555
C7 C6 1_555 1_555
C8 C2 1_555 1_555
H4 C8 1_555 1_555
C9 O5 1_555 1_555
C10 C9 1_555 1_555
H5 C10 1_555 1_555
C11 C10 1_555 1_555
H6 C11 1_555 1_555
C12 C11 1_555 1_555
C13 C12 1_555 1_555
C14 C12 1_555 1_555
H7 C14 1_555 1_555
C15 C9 1_555 1_555
H8 C15 1_555 1_555
C16 O8 1_555 1_555
H9 C16 1_555 1_555
H10 C16 1_555 1_555
C17 C16 1_555 1_555
H11 C17 1_555 1_555
H12 C17 1_555 1_555
H13 C17 1_555 1_555
O9 La1 1_555 1_555
O10 La1 1_555 1_555
O11 H15 1_555 1_555
H14 O10 1_555 1_555
H16 O11 1_555 1_555
H17 O10 1_555 1_555
H18 O9 1_555 1_555
H19 O9 1_555 1_555
La1A O2 1_555 1_555
La1A_2 O3 1_555 1_555
La1_2 O4 1_555 1_555
La1_3 O6 1_555 1_555
O2A La1 1_555 1_555
O3A La1 1_555 1_555
O4_2 La1 1_555 1_555
O4A La1 1_555 1_555
O6_2 La1 1_555 1_555
O7_2 La1 1_555 1_555
O4 La1A_2 1_555 1_555
O7 La1_3 1_555 1_555
C7 C8 1_555 1_555
C14 C15 1_555 1_555

#END
