
#######################################################################
#
#                 Cambridge Crystallographic Data Centre
#                                CCDC 
#
#######################################################################
#
# If this CIF has been generated from an entry in the Cambridge 
# Structural Database, then it will include bibliographic, chemical, 
# crystal, experimental, refinement or atomic coordinate data resulting 
# from the CCDC's data processing and validation procedures.
#
#######################################################################

data_VOXTOT
_chemical_name_common            NJTU-1
_chemical_formula_moiety         '(C156 H96 Cu6 O30)n'
_chemical_name_systematic        
"catena-[tetrakis(\m~6~-6,6',6''-Benzene-1,3,5-triyltris(2-naphthoato))-hexa-aqua-hexa-copper(ii) unknown solvate]"
_symmetry_cell_setting           cubic
_symmetry_space_group_name_H-M   'I m -3'
_symmetry_Int_Tables_number      204
_space_group_name_Hall           '-I 2 2 3'
loop_
_symmetry_equiv_pos_site_id
_symmetry_equiv_pos_as_xyz
1 x,y,z
2 -x,-y,z
3 -x,y,-z
4 x,-y,-z
5 z,x,y
6 z,-x,-y
7 -z,-x,y
8 -z,x,-y
9 y,z,x
10 -y,z,-x
11 y,-z,-x
12 -y,-z,x
13 1/2+x,1/2+y,1/2+z
14 1/2-x,1/2-y,1/2+z
15 1/2-x,1/2+y,1/2-z
16 1/2+x,1/2-y,1/2-z
17 1/2+z,1/2+x,1/2+y
18 1/2+z,1/2-x,1/2-y
19 1/2-z,1/2-x,1/2+y
20 1/2-z,1/2+x,1/2-y
21 1/2+y,1/2+z,1/2+x
22 1/2-y,1/2+z,1/2-x
23 1/2+y,1/2-z,1/2-x
24 1/2-y,1/2-z,1/2+x
25 -x,-y,-z
26 x,y,-z
27 x,-y,z
28 -x,y,z
29 -z,-x,-y
30 -z,x,y
31 z,x,-y
32 z,-x,y
33 -y,-z,-x
34 y,-z,x
35 -y,z,x
36 y,z,-x
37 1/2-x,1/2-y,1/2-z
38 1/2+x,1/2+y,1/2-z
39 1/2+x,1/2-y,1/2+z
40 1/2-x,1/2+y,1/2+z
41 1/2-z,1/2-x,1/2-y
42 1/2-z,1/2+x,1/2+y
43 1/2+z,1/2+x,1/2-y
44 1/2+z,1/2-x,1/2+y
45 1/2-y,1/2-z,1/2-x
46 1/2+y,1/2-z,1/2+x
47 1/2-y,1/2+z,1/2+x
48 1/2+y,1/2+z,1/2-x
_cell_length_a                   33.175(4)
_cell_length_b                   33.175(4)
_cell_length_c                   33.175(4)
_cell_angle_alpha                90
_cell_angle_beta                 90
_cell_angle_gamma                90
_cell_volume                     36511.8
_exptl_crystal_colour            green
_exptl_crystal_description       cubic
_cell_formula_units_Z            4
loop_
_atom_site_label
_atom_site_type_symbol
_atom_site_fract_x
_atom_site_fract_y
_atom_site_fract_z
C1 C 0.21666(12) 0.18715(13) 0.24634(13)
C2 C 0.18732(12) 0.21697(12) 0.24666(12)
H1 H 0.1688 0.2169 0.2687
C3 C 0.2506(3) 0.0433(3) 0.4389(2)
C4 C 0.2505(2) 0.0695(2) 0.4000(2)
C5 C 0.2878(2) 0.0814(3) 0.3827(3)
H2 H 0.3127 0.0723 0.3942
C6 C 0.2883(2) 0.1066(3) 0.3502(3)
H3 H 0.3130 0.1157 0.3398
C7 C 0.2520(2) 0.1195(2) 0.3318(2)
C8 C 0.2505(2) 0.1450(2) 0.2984(2)
H4 H 0.2752 0.1529 0.2868
C9 C 0.2161(2) 0.1582(2) 0.2814(2)
C10 C 0.1783(3) 0.1440(3) 0.2986(2)
H5 H 0.1533 0.1519 0.2865
C11 C 0.1779(3) 0.1192(2) 0.3296(2)
H6 H 0.1529 0.1108 0.3402
C12 C 0.2139(2) 0.1057(2) 0.3481(2)
C13 C 0.2149(2) 0.0803(2) 0.3824(2)
H7 H 0.1899 0.0713 0.3939
Cu1 Cu 0.21013(2) 0.0000 0.5000
Cu2 Cu 0.28987(2) 0.0000 0.5000
O1 O 0.14625(18) 0.0000 0.5000
O2 O 0.35400(18) 0.0000 0.5000
O3 O 0.2166(2) 0.0334(2) 0.4516(2)
O4 O 0.2848(2) 0.0340(2) 0.4521(2)
C1D C 0.24634(13) 0.21666(12) 0.18715(13)
C2D C 0.24666(12) 0.18732(12) 0.21697(12)
H1D H 0.2687 0.1688 0.2169
C3D C 0.4389(2) 0.2506(3) 0.0433(3)
C4D C 0.4000(2) 0.2505(2) 0.0695(2)
C5D C 0.3827(3) 0.2878(2) 0.0814(3)
H2D H 0.3942 0.3127 0.0723
C6D C 0.3502(3) 0.2883(2) 0.1066(3)
H3D H 0.3398 0.3130 0.1157
C7D C 0.3318(2) 0.2520(2) 0.1195(2)
C8D C 0.2984(2) 0.2505(2) 0.1450(2)
H4D H 0.2868 0.2752 0.1529
C9D C 0.2814(2) 0.2161(2) 0.1582(2)
C10D C 0.2986(2) 0.1783(3) 0.1440(3)
H5D H 0.2865 0.1533 0.1519
C11D C 0.3296(2) 0.1779(3) 0.1192(2)
H6D H 0.3402 0.1529 0.1108
C12D C 0.3481(2) 0.2139(2) 0.1057(2)
C13D C 0.3824(2) 0.2149(2) 0.0803(2)
H7D H 0.3939 0.1899 0.0713
O3D O 0.4516(2) 0.2166(2) 0.0334(2)
O4D O 0.4521(2) 0.2848(2) 0.0340(2)
C1H C 0.18715(13) 0.24634(13) 0.21666(12)
C2H C 0.21697(12) 0.24666(12) 0.18732(12)
H1H H 0.2169 0.2687 0.1688
C3H C 0.0433(3) 0.4389(2) 0.2506(3)
C4H C 0.0695(2) 0.4000(2) 0.2505(2)
C5H C 0.0814(3) 0.3827(3) 0.2878(2)
H2H H 0.0723 0.3942 0.3127
C6H C 0.1066(3) 0.3502(3) 0.2883(2)
H3H H 0.1157 0.3398 0.3130
C7H C 0.1195(2) 0.3318(2) 0.2520(2)
C8H C 0.1450(2) 0.2984(2) 0.2505(2)
H4H H 0.1529 0.2868 0.2752
C9H C 0.1582(2) 0.2814(2) 0.2161(2)
C10H C 0.1440(3) 0.2986(2) 0.1783(3)
H5H H 0.1519 0.2865 0.1533
C11H C 0.1192(2) 0.3296(2) 0.1779(3)
H6H H 0.1108 0.3402 0.1529
C12H C 0.1057(2) 0.3481(2) 0.2139(2)
C13H C 0.0803(2) 0.3824(2) 0.2149(2)
H7H H 0.0713 0.3939 0.1899
O3H O 0.0334(2) 0.4516(2) 0.2166(2)
O4H O 0.0340(2) 0.4521(2) 0.2848(2)
Cu1D Cu 0.5000 0.21013(2) 0.0000
Cu2D Cu 0.5000 0.28987(2) 0.0000
O1D O 0.5000 0.14625(18) 0.0000
O2D O 0.5000 0.35400(18) 0.0000
C1Y C 0.21666(12) 0.18715(13) -0.24634(13)
C2Y C 0.18732(12) 0.21697(12) -0.24666(12)
H1Y H 0.1688 0.2169 -0.2687
C3Y C 0.2506(3) 0.0433(3) -0.4389(2)
C4Y C 0.2505(2) 0.0695(2) -0.4000(2)
C5Y C 0.2878(2) 0.0814(3) -0.3827(3)
H2Y H 0.3127 0.0723 -0.3942
C6Y C 0.2883(2) 0.1066(3) -0.3502(3)
H3Y H 0.3130 0.1157 -0.3398
C7Y C 0.2520(2) 0.1195(2) -0.3318(2)
C8Y C 0.2505(2) 0.1450(2) -0.2984(2)
H4Y H 0.2752 0.1529 -0.2868
C9Y C 0.2161(2) 0.1582(2) -0.2814(2)
C10Y C 0.1783(3) 0.1440(3) -0.2986(2)
H5Y H 0.1533 0.1519 -0.2865
C11Y C 0.1779(3) 0.1192(2) -0.3296(2)
H6Y H 0.1529 0.1108 -0.3402
C12Y C 0.2139(2) 0.1057(2) -0.3481(2)
C13Y C 0.2149(2) 0.0803(2) -0.3824(2)
H7Y H 0.1899 0.0713 -0.3939
O3Y O 0.2166(2) 0.0334(2) -0.4516(2)
O4Y O 0.2848(2) 0.0340(2) -0.4521(2)
C1DA C 0.24634(13) 0.21666(12) -0.18715(13)
C2DA C 0.24666(12) 0.18732(12) -0.21697(12)
H1DA H 0.2687 0.1688 -0.2169
C3DA C 0.4389(2) 0.2506(3) -0.0433(3)
C4DA C 0.4000(2) 0.2505(2) -0.0695(2)
C5DA C 0.3827(3) 0.2878(2) -0.0814(3)
H2DA H 0.3942 0.3127 -0.0723
C6DA C 0.3502(3) 0.2883(2) -0.1066(3)
H3DA H 0.3398 0.3130 -0.1157
C7DA C 0.3318(2) 0.2520(2) -0.1195(2)
C8DA C 0.2984(2) 0.2505(2) -0.1450(2)
H4DA H 0.2868 0.2752 -0.1529
C9DA C 0.2814(2) 0.2161(2) -0.1582(2)
C10DA C 0.2986(2) 0.1783(3) -0.1440(3)
H5DA H 0.2865 0.1533 -0.1519
C11DA C 0.3296(2) 0.1779(3) -0.1192(2)
H6DA H 0.3402 0.1529 -0.1108
C12DA C 0.3481(2) 0.2139(2) -0.1057(2)
C13DA C 0.3824(2) 0.2149(2) -0.0803(2)
H7DA H 0.3939 0.1899 -0.0713
O3DA O 0.4516(2) 0.2166(2) -0.0334(2)
O4DA O 0.4521(2) 0.2848(2) -0.0340(2)
C1IA C 0.18715(13) 0.24634(13) -0.21666(12)
C2IA C 0.21697(12) 0.24666(12) -0.18732(12)
H1IA H 0.2169 0.2687 -0.1688
C3IA C 0.0433(3) 0.4389(2) -0.2506(3)
C4IA C 0.0695(2) 0.4000(2) -0.2505(2)
C5IA C 0.0814(3) 0.3827(3) -0.2878(2)
H2IA H 0.0723 0.3942 -0.3127
C6IA C 0.1066(3) 0.3502(3) -0.2883(2)
H3IA H 0.1157 0.3398 -0.3130
C7IA C 0.1195(2) 0.3318(2) -0.2520(2)
C8IA C 0.1450(2) 0.2984(2) -0.2505(2)
H4IA H 0.1529 0.2868 -0.2752
C9IA C 0.1582(2) 0.2814(2) -0.2161(2)
C10IA C 0.1440(3) 0.2986(2) -0.1783(3)
H5IA H 0.1519 0.2865 -0.1533
C11IA C 0.1192(2) 0.3296(2) -0.1779(3)
H6IA H 0.1108 0.3402 -0.1529
C12IA C 0.1057(2) 0.3481(2) -0.2139(2)
C13IA C 0.0803(2) 0.3824(2) -0.2149(2)
H7IA H 0.0713 0.3939 -0.1899
O3IA O 0.0334(2) 0.4516(2) -0.2166(2)
O4IA O 0.0340(2) 0.4521(2) -0.2848(2)
C1Y_2 C 0.21666(12) 0.18715(13) 0.75366(13)
C2Y_2 C 0.18732(12) 0.21697(12) 0.75334(12)
H1Y_2 H 0.1688 0.2169 0.7313
C3Y_2 C 0.2506(3) 0.0433(3) 0.5611(2)
C4Y_2 C 0.2505(2) 0.0695(2) 0.6000(2)
C5Y_2 C 0.2878(2) 0.0814(3) 0.6173(3)
H2Y_2 H 0.3127 0.0723 0.6058
C6Y_2 C 0.2883(2) 0.1066(3) 0.6498(3)
H3Y_2 H 0.3130 0.1157 0.6602
C7Y_2 C 0.2520(2) 0.1195(2) 0.6682(2)
C8Y_2 C 0.2505(2) 0.1450(2) 0.7016(2)
H4Y_2 H 0.2752 0.1529 0.7132
C9Y_2 C 0.2161(2) 0.1582(2) 0.7186(2)
C10Y_2 C 0.1783(3) 0.1440(3) 0.7014(2)
H5Y_2 H 0.1533 0.1519 0.7135
C11Y_2 C 0.1779(3) 0.1192(2) 0.6704(2)
H6Y_2 H 0.1529 0.1108 0.6598
C12Y_2 C 0.2139(2) 0.1057(2) 0.6519(2)
C13Y_2 C 0.2149(2) 0.0803(2) 0.6176(2)
H7Y_2 H 0.1899 0.0713 0.6061
O3Y_2 O 0.2166(2) 0.0334(2) 0.5484(2)
O4Y_2 O 0.2848(2) 0.0340(2) 0.5479(2)
C1DA_2 C 0.24634(13) 0.21666(12) 0.81285(13)
C2DA_2 C 0.24666(12) 0.18732(12) 0.78303(12)
H1DA_2 H 0.2687 0.1688 0.7831
C3DA_2 C 0.4389(2) 0.2506(3) 0.9567(3)
C4DA_2 C 0.4000(2) 0.2505(2) 0.9305(2)
C5DA_2 C 0.3827(3) 0.2878(2) 0.9186(3)
H2DA_2 H 0.3942 0.3127 0.9277
C6DA_2 C 0.3502(3) 0.2883(2) 0.8934(3)
H3DA_2 H 0.3398 0.3130 0.8843
C7DA_2 C 0.3318(2) 0.2520(2) 0.8805(2)
C8DA_2 C 0.2984(2) 0.2505(2) 0.8550(2)
H4DA_2 H 0.2868 0.2752 0.8471
C9DA_2 C 0.2814(2) 0.2161(2) 0.8418(2)
C10DA_2 C 0.2986(2) 0.1783(3) 0.8560(3)
H5DA_2 H 0.2865 0.1533 0.8481
C11DA_2 C 0.3296(2) 0.1779(3) 0.8808(2)
H6DA_2 H 0.3402 0.1529 0.8892
C12DA_2 C 0.3481(2) 0.2139(2) 0.8943(2)
C13DA_2 C 0.3824(2) 0.2149(2) 0.9197(2)
H7DA_2 H 0.3939 0.1899 0.9287
O3DA_2 O 0.4516(2) 0.2166(2) 0.9666(2)
O4DA_2 O 0.4521(2) 0.2848(2) 0.9660(2)
C1IA_2 C 0.18715(13) 0.24634(13) 0.78334(12)
C2IA_2 C 0.21697(12) 0.24666(12) 0.81268(12)
H1IA_2 H 0.2169 0.2687 0.8312
C3IA_2 C 0.0433(3) 0.4389(2) 0.7494(3)
C4IA_2 C 0.0695(2) 0.4000(2) 0.7495(2)
C5IA_2 C 0.0814(3) 0.3827(3) 0.7122(2)
H2IA_2 H 0.0723 0.3942 0.6873
C6IA_2 C 0.1066(3) 0.3502(3) 0.7117(2)
H3IA_2 H 0.1157 0.3398 0.6870
C7IA_2 C 0.1195(2) 0.3318(2) 0.7480(2)
C8IA_2 C 0.1450(2) 0.2984(2) 0.7495(2)
H4IA_2 H 0.1529 0.2868 0.7248
C9IA_2 C 0.1582(2) 0.2814(2) 0.7839(2)
C10IA_2 C 0.1440(3) 0.2986(2) 0.8217(3)
H5IA_2 H 0.1519 0.2865 0.8467
C11IA_2 C 0.1192(2) 0.3296(2) 0.8221(3)
H6IA_2 H 0.1108 0.3402 0.8471
C12IA_2 C 0.1057(2) 0.3481(2) 0.7861(2)
C13IA_2 C 0.0803(2) 0.3824(2) 0.7851(2)
H7IA_2 H 0.0713 0.3939 0.8101
O3IA_2 O 0.0334(2) 0.4516(2) 0.7834(2)
O4IA_2 O 0.0340(2) 0.4521(2) 0.7152(2)
C1Z C 0.21666(12) -0.18715(13) 0.24634(13)
C2Z C 0.18732(12) -0.21697(12) 0.24666(12)
H1Z H 0.1688 -0.2169 0.2687
C3Z C 0.2506(3) -0.0433(3) 0.4389(2)
C4Z C 0.2505(2) -0.0695(2) 0.4000(2)
C5Z C 0.2878(2) -0.0814(3) 0.3827(3)
H2Z H 0.3127 -0.0723 0.3942
C6Z C 0.2883(2) -0.1066(3) 0.3502(3)
H3Z H 0.3130 -0.1157 0.3398
C7Z C 0.2520(2) -0.1195(2) 0.3318(2)
C8Z C 0.2505(2) -0.1450(2) 0.2984(2)
H4Z H 0.2752 -0.1529 0.2868
C9Z C 0.2161(2) -0.1582(2) 0.2814(2)
C10Z C 0.1783(3) -0.1440(3) 0.2986(2)
H5Z H 0.1533 -0.1519 0.2865
C11Z C 0.1779(3) -0.1192(2) 0.3296(2)
H6Z H 0.1529 -0.1108 0.3402
C12Z C 0.2139(2) -0.1057(2) 0.3481(2)
C13Z C 0.2149(2) -0.0803(2) 0.3824(2)
H7Z H 0.1899 -0.0713 0.3939
O3Z O 0.2166(2) -0.0334(2) 0.4516(2)
O4Z O 0.2848(2) -0.0340(2) 0.4521(2)
C1EA C 0.24634(13) -0.21666(12) 0.18715(13)
C2EA C 0.24666(12) -0.18732(12) 0.21697(12)
H1EA H 0.2687 -0.1688 0.2169
C3EA C 0.4389(2) -0.2506(3) 0.0433(3)
C4EA C 0.4000(2) -0.2505(2) 0.0695(2)
C5EA C 0.3827(3) -0.2878(2) 0.0814(3)
H2EA H 0.3942 -0.3127 0.0723
C6EA C 0.3502(3) -0.2883(2) 0.1066(3)
H3EA H 0.3398 -0.3130 0.1157
C7EA C 0.3318(2) -0.2520(2) 0.1195(2)
C8EA C 0.2984(2) -0.2505(2) 0.1450(2)
H4EA H 0.2868 -0.2752 0.1529
C9EA C 0.2814(2) -0.2161(2) 0.1582(2)
C10EA C 0.2986(2) -0.1783(3) 0.1440(3)
H5EA H 0.2865 -0.1533 0.1519
C11EA C 0.3296(2) -0.1779(3) 0.1192(2)
H6EA H 0.3402 -0.1529 0.1108
C12EA C 0.3481(2) -0.2139(2) 0.1057(2)
C13EA C 0.3824(2) -0.2149(2) 0.0803(2)
H7EA H 0.3939 -0.1899 0.0713
O3EA O 0.4516(2) -0.2166(2) 0.0334(2)
O4EA O 0.4521(2) -0.2848(2) 0.0340(2)
C1GA C 0.18715(13) -0.24634(13) 0.21666(12)
C2GA C 0.21697(12) -0.24666(12) 0.18732(12)
H1GA H 0.2169 -0.2687 0.1688
C3GA C 0.0433(3) -0.4389(2) 0.2506(3)
C4GA C 0.0695(2) -0.4000(2) 0.2505(2)
C5GA C 0.0814(3) -0.3827(3) 0.2878(2)
H2GA H 0.0723 -0.3942 0.3127
C6GA C 0.1066(3) -0.3502(3) 0.2883(2)
H3GA H 0.1157 -0.3398 0.3130
C7GA C 0.1195(2) -0.3318(2) 0.2520(2)
C8GA C 0.1450(2) -0.2984(2) 0.2505(2)
H4GA H 0.1529 -0.2868 0.2752
C9GA C 0.1582(2) -0.2814(2) 0.2161(2)
C10GA C 0.1440(3) -0.2986(2) 0.1783(3)
H5GA H 0.1519 -0.2865 0.1533
C11GA C 0.1192(2) -0.3296(2) 0.1779(3)
H6GA H 0.1108 -0.3402 0.1529
C12GA C 0.1057(2) -0.3481(2) 0.2139(2)
C13GA C 0.0803(2) -0.3824(2) 0.2149(2)
H7GA H 0.0713 -0.3939 0.1899
O3GA O 0.0334(2) -0.4516(2) 0.2166(2)
O4GA O 0.0340(2) -0.4521(2) 0.2848(2)
Cu1H Cu 0.0000 0.5000 0.21013(2)
Cu2H Cu 0.0000 0.5000 0.28987(2)
O1H O 0.0000 0.5000 0.14625(18)
O2H O 0.0000 0.5000 0.35400(18)
Cu1_2 Cu 0.21013(2) 0.0000 -0.5000
Cu1D_2 Cu 0.5000 0.21013(2) 1.0000
Cu1E Cu 0.5000 -0.21013(2) 0.0000
Cu1H_2 Cu 0.0000 -0.5000 0.21013(2)
Cu1I Cu 0.0000 0.5000 -0.21013(2)
Cu1I_2 Cu 0.0000 0.5000 0.78987(2)
Cu2_2 Cu 0.28987(2) 0.0000 -0.5000
Cu2D_2 Cu 0.5000 0.28987(2) 1.0000
Cu2E Cu 0.5000 -0.28987(2) 0.0000
Cu2H_2 Cu 0.0000 -0.5000 0.28987(2)
Cu2I Cu 0.0000 0.5000 -0.28987(2)
Cu2I_2 Cu 0.0000 0.5000 0.71013(2)
O3C O 0.2166(2) -0.0334(2) 0.5484(2)
O3G O 0.5484(2) 0.2166(2) -0.0334(2)
O3K O -0.0334(2) 0.5484(2) 0.2166(2)
O3CA O 0.5484(2) 0.2166(2) 0.0334(2)
O3GA_2 O 0.0334(2) 0.5484(2) 0.2166(2)
O3HA O -0.0334(2) 0.4516(2) 0.2166(2)
O4C O 0.2848(2) -0.0340(2) 0.5479(2)
O4G O 0.5479(2) 0.2848(2) -0.0340(2)
O4K O -0.0340(2) 0.5479(2) 0.2848(2)
O4CA O 0.5479(2) 0.2848(2) 0.0340(2)
O4GA_2 O 0.0340(2) 0.5479(2) 0.2848(2)
O4HA O -0.0340(2) 0.4521(2) 0.2848(2)
C14? C 0.2491(3) 0.0613(2) 0.4560(2)
C15? C 0.2495(2) 0.1001(2) 0.4304(2)
C16? C 0.2127(2) 0.1175(3) 0.4175(3)
H8? H 0.1877 0.1065 0.4270
C17? C 0.2122(2) 0.1492(3) 0.3934(3)
H9? H 0.1875 0.1591 0.3838
C18? C 0.2483(2) 0.1683(2) 0.3807(2)
C19? C 0.2493(2) 0.2018(2) 0.3546(2)
H10? H 0.2246 0.2126 0.3460
C20? C 0.2834(2) 0.2179(2) 0.3420(2)
C21? C 0.3217(3) 0.2012(2) 0.3566(3)
H11? H 0.3470 0.2131 0.3490
C22? C 0.3214(3) 0.1703(3) 0.3813(2)
H12? H 0.3462 0.1599 0.3901
C23? C 0.2864(2) 0.1516(2) 0.3944(2)
C24? C 0.2849(2) 0.1176(2) 0.4192(2)
H13? H 0.3099 0.1061 0.4281
O5? O 0.2156(2) 0.0478(2) 0.4656(2)
O6? O 0.2832(2) 0.0483(2) 0.4660(2)
H14? H 0.3623 -0.0231 0.5048
H15? H 0.1379 -0.0083 0.4779
loop_
_geom_bond_atom_site_label_1
_geom_bond_atom_site_label_2
_geom_bond_site_symmetry_1
_geom_bond_site_symmetry_2
C1 C2 1_555 1_555
C2 H1 1_555 1_555
C3 C4 1_555 1_555
C4 C5 1_555 1_555
C5 H2 1_555 1_555
C6 C5 1_555 1_555
H3 C6 1_555 1_555
C7 C6 1_555 1_555
C8 C7 1_555 1_555
H4 C8 1_555 1_555
C9 C1 1_555 1_555
C10 C9 1_555 1_555
H5 C10 1_555 1_555
C11 C10 1_555 1_555
H6 C11 1_555 1_555
C12 C7 1_555 1_555
C13 C4 1_555 1_555
H7 C13 1_555 1_555
Cu1 Cu2 1_555 1_555
Cu2 O2 1_555 1_555
O1 Cu1 1_555 1_555
O3 C3 1_555 1_555
O4 C3 1_555 1_555
C1D C2D 1_555 1_555
C2D C1 1_555 1_555
H1D C2D 1_555 1_555
C3D C4D 1_555 1_555
C4D C5D 1_555 1_555
C5D H2D 1_555 1_555
C6D C5D 1_555 1_555
H3D C6D 1_555 1_555
C7D C6D 1_555 1_555
C8D C7D 1_555 1_555
H4D C8D 1_555 1_555
C9D C1D 1_555 1_555
C10D C9D 1_555 1_555
H5D C10D 1_555 1_555
C11D C10D 1_555 1_555
H6D C11D 1_555 1_555
C12D C7D 1_555 1_555
C13D C4D 1_555 1_555
H7D C13D 1_555 1_555
O3D C3D 1_555 1_555
O4D C3D 1_555 1_555
C1H C2 1_555 1_555
C2H C1D 1_555 1_555
H1H C2H 1_555 1_555
C3H C4H 1_555 1_555
C4H C5H 1_555 1_555
C5H H2H 1_555 1_555
C6H C5H 1_555 1_555
H3H C6H 1_555 1_555
C7H C6H 1_555 1_555
C8H C7H 1_555 1_555
H4H C8H 1_555 1_555
C9H C1H 1_555 1_555
C10H C9H 1_555 1_555
H5H C10H 1_555 1_555
C11H C10H 1_555 1_555
H6H C11H 1_555 1_555
C12H C7H 1_555 1_555
C13H C4H 1_555 1_555
H7H C13H 1_555 1_555
O3H C3H 1_555 1_555
O4H C3H 1_555 1_555
Cu1D O3D 1_555 1_555
Cu2D O4D 1_555 1_555
O1D Cu1D 1_555 1_555
O2D Cu2D 1_555 1_555
C1Y C2Y 1_555 1_555
C2Y H1Y 1_555 1_555
C3Y C4Y 1_555 1_555
C4Y C5Y 1_555 1_555
C5Y H2Y 1_555 1_555
C6Y C5Y 1_555 1_555
H3Y C6Y 1_555 1_555
C7Y C6Y 1_555 1_555
C8Y C7Y 1_555 1_555
H4Y C8Y 1_555 1_555
C9Y C1Y 1_555 1_555
C10Y C9Y 1_555 1_555
H5Y C10Y 1_555 1_555
C11Y C10Y 1_555 1_555
H6Y C11Y 1_555 1_555
C12Y C7Y 1_555 1_555
C13Y C4Y 1_555 1_555
H7Y C13Y 1_555 1_555
O3Y C3Y 1_555 1_555
O4Y C3Y 1_555 1_555
C1DA C2DA 1_555 1_555
C2DA C1Y 1_555 1_555
H1DA C2DA 1_555 1_555
C3DA C4DA 1_555 1_555
C4DA C5DA 1_555 1_555
C5DA H2DA 1_555 1_555
C6DA C5DA 1_555 1_555
H3DA C6DA 1_555 1_555
C7DA C6DA 1_555 1_555
C8DA C7DA 1_555 1_555
H4DA C8DA 1_555 1_555
C9DA C1DA 1_555 1_555
C10DA C9DA 1_555 1_555
H5DA C10DA 1_555 1_555
C11DA C10DA 1_555 1_555
H6DA C11DA 1_555 1_555
C12DA C7DA 1_555 1_555
C13DA C4DA 1_555 1_555
H7DA C13DA 1_555 1_555
O3DA Cu1D 1_555 1_555
O4DA Cu2D 1_555 1_555
C1IA C2Y 1_555 1_555
C2IA C1DA 1_555 1_555
H1IA C2IA 1_555 1_555
C3IA C4IA 1_555 1_555
C4IA C5IA 1_555 1_555
C5IA H2IA 1_555 1_555
C6IA C5IA 1_555 1_555
H3IA C6IA 1_555 1_555
C7IA C6IA 1_555 1_555
C8IA C7IA 1_555 1_555
H4IA C8IA 1_555 1_555
C9IA C1IA 1_555 1_555
C10IA C9IA 1_555 1_555
H5IA C10IA 1_555 1_555
C11IA C10IA 1_555 1_555
H6IA C11IA 1_555 1_555
C12IA C7IA 1_555 1_555
C13IA C4IA 1_555 1_555
H7IA C13IA 1_555 1_555
O3IA C3IA 1_555 1_555
O4IA C3IA 1_555 1_555
C1Y_2 C2Y_2 1_555 1_555
C2Y_2 H1Y_2 1_555 1_555
C3Y_2 C4Y_2 1_555 1_555
C4Y_2 C5Y_2 1_555 1_555
C5Y_2 H2Y_2 1_555 1_555
C6Y_2 C5Y_2 1_555 1_555
H3Y_2 C6Y_2 1_555 1_555
C7Y_2 C6Y_2 1_555 1_555
C8Y_2 C7Y_2 1_555 1_555
H4Y_2 C8Y_2 1_555 1_555
C9Y_2 C1Y_2 1_555 1_555
C10Y_2 C9Y_2 1_555 1_555
H5Y_2 C10Y_2 1_555 1_555
C11Y_2 C10Y_2 1_555 1_555
H6Y_2 C11Y_2 1_555 1_555
C12Y_2 C7Y_2 1_555 1_555
C13Y_2 C4Y_2 1_555 1_555
H7Y_2 C13Y_2 1_555 1_555
O3Y_2 Cu1 1_555 1_555
O4Y_2 Cu2 1_555 1_555
C1DA_2 C2DA_2 1_555 1_555
C2DA_2 C1Y_2 1_555 1_555
H1DA_2 C2DA_2 1_555 1_555
C3DA_2 C4DA_2 1_555 1_555
C4DA_2 C5DA_2 1_555 1_555
C5DA_2 H2DA_2 1_555 1_555
C6DA_2 C5DA_2 1_555 1_555
H3DA_2 C6DA_2 1_555 1_555
C7DA_2 C6DA_2 1_555 1_555
C8DA_2 C7DA_2 1_555 1_555
H4DA_2 C8DA_2 1_555 1_555
C9DA_2 C1DA_2 1_555 1_555
C10DA_2 C9DA_2 1_555 1_555
H5DA_2 C10DA_2 1_555 1_555
C11DA_2 C10DA_2 1_555 1_555
H6DA_2 C11DA_2 1_555 1_555
C12DA_2 C7DA_2 1_555 1_555
C13DA_2 C4DA_2 1_555 1_555
H7DA_2 C13DA_2 1_555 1_555
O3DA_2 C3DA_2 1_555 1_555
O4DA_2 C3DA_2 1_555 1_555
C1IA_2 C2Y_2 1_555 1_555
C2IA_2 C1DA_2 1_555 1_555
H1IA_2 C2IA_2 1_555 1_555
C3IA_2 C4IA_2 1_555 1_555
C4IA_2 C5IA_2 1_555 1_555
C5IA_2 H2IA_2 1_555 1_555
C6IA_2 C5IA_2 1_555 1_555
H3IA_2 C6IA_2 1_555 1_555
C7IA_2 C6IA_2 1_555 1_555
C8IA_2 C7IA_2 1_555 1_555
H4IA_2 C8IA_2 1_555 1_555
C9IA_2 C1IA_2 1_555 1_555
C10IA_2 C9IA_2 1_555 1_555
H5IA_2 C10IA_2 1_555 1_555
C11IA_2 C10IA_2 1_555 1_555
H6IA_2 C11IA_2 1_555 1_555
C12IA_2 C7IA_2 1_555 1_555
C13IA_2 C4IA_2 1_555 1_555
H7IA_2 C13IA_2 1_555 1_555
O3IA_2 C3IA_2 1_555 1_555
O4IA_2 C3IA_2 1_555 1_555
C1Z C2Z 1_555 1_555
C2Z H1Z 1_555 1_555
C3Z C4Z 1_555 1_555
C4Z C5Z 1_555 1_555
C5Z H2Z 1_555 1_555
C6Z C5Z 1_555 1_555
H3Z C6Z 1_555 1_555
C7Z C6Z 1_555 1_555
C8Z C7Z 1_555 1_555
H4Z C8Z 1_555 1_555
C9Z C1Z 1_555 1_555
C10Z C9Z 1_555 1_555
H5Z C10Z 1_555 1_555
C11Z C10Z 1_555 1_555
H6Z C11Z 1_555 1_555
C12Z C7Z 1_555 1_555
C13Z C4Z 1_555 1_555
H7Z C13Z 1_555 1_555
O3Z Cu1 1_555 1_555
O4Z Cu2 1_555 1_555
C1EA C2EA 1_555 1_555
C2EA C1Z 1_555 1_555
H1EA C2EA 1_555 1_555
C3EA C4EA 1_555 1_555
C4EA C5EA 1_555 1_555
C5EA H2EA 1_555 1_555
C6EA C5EA 1_555 1_555
H3EA C6EA 1_555 1_555
C7EA C6EA 1_555 1_555
C8EA C7EA 1_555 1_555
H4EA C8EA 1_555 1_555
C9EA C1EA 1_555 1_555
C10EA C9EA 1_555 1_555
H5EA C10EA 1_555 1_555
C11EA C10EA 1_555 1_555
H6EA C11EA 1_555 1_555
C12EA C7EA 1_555 1_555
C13EA C4EA 1_555 1_555
H7EA C13EA 1_555 1_555
O3EA C3EA 1_555 1_555
O4EA C3EA 1_555 1_555
C1GA C2Z 1_555 1_555
C2GA C1EA 1_555 1_555
H1GA C2GA 1_555 1_555
C3GA C4GA 1_555 1_555
C4GA C5GA 1_555 1_555
C5GA H2GA 1_555 1_555
C6GA C5GA 1_555 1_555
H3GA C6GA 1_555 1_555
C7GA C6GA 1_555 1_555
C8GA C7GA 1_555 1_555
H4GA C8GA 1_555 1_555
C9GA C1GA 1_555 1_555
C10GA C9GA 1_555 1_555
H5GA C10GA 1_555 1_555
C11GA C10GA 1_555 1_555
H6GA C11GA 1_555 1_555
C12GA C7GA 1_555 1_555
C13GA C4GA 1_555 1_555
H7GA C13GA 1_555 1_555
O3GA C3GA 1_555 1_555
O4GA C3GA 1_555 1_555
Cu1H O3H 1_555 1_555
Cu2H O4H 1_555 1_555
O1H Cu1H 1_555 1_555
O2H Cu2H 1_555 1_555
Cu1_2 O3Y 1_555 1_555
Cu1D_2 O3DA_2 1_555 1_555
Cu1E O3EA 1_555 1_555
Cu1H_2 O3GA 1_555 1_555
Cu1I O3IA 1_555 1_555
Cu1I_2 O3IA_2 1_555 1_555
Cu2_2 O4Y 1_555 1_555
Cu2D_2 O4DA_2 1_555 1_555
Cu2E O4EA 1_555 1_555
Cu2H_2 O4GA 1_555 1_555
Cu2I O4IA 1_555 1_555
Cu2I_2 O4IA_2 1_555 1_555
O3C Cu1 1_555 1_555
O3G Cu1D 1_555 1_555
O3K Cu1H 1_555 1_555
O3CA Cu1D 1_555 1_555
O3GA_2 Cu1H 1_555 1_555
O3HA Cu1H 1_555 1_555
O4C Cu2 1_555 1_555
O4G Cu2D 1_555 1_555
O4K Cu2H 1_555 1_555
O4CA Cu2D 1_555 1_555
O4GA_2 Cu2H 1_555 1_555
O4HA Cu2H 1_555 1_555
C8 C9 1_555 1_555
C11 C12 1_555 1_555
C12 C13 1_555 1_555
Cu1 O3 1_555 1_555
Cu2 O4 1_555 1_555
C8D C9D 1_555 1_555
C11D C12D 1_555 1_555
C12D C13D 1_555 1_555
C1H C2H 1_555 1_555
C8H C9H 1_555 1_555
C11H C12H 1_555 1_555
C12H C13H 1_555 1_555
Cu1D Cu2D 1_555 1_555
C8Y C9Y 1_555 1_555
C11Y C12Y 1_555 1_555
C12Y C13Y 1_555 1_555
C3DA O3DA 1_555 1_555
C3DA O4DA 1_555 1_555
C8DA C9DA 1_555 1_555
C11DA C12DA 1_555 1_555
C12DA C13DA 1_555 1_555
C1IA C2IA 1_555 1_555
C8IA C9IA 1_555 1_555
C11IA C12IA 1_555 1_555
C12IA C13IA 1_555 1_555
C3Y_2 O3Y_2 1_555 1_555
C3Y_2 O4Y_2 1_555 1_555
C8Y_2 C9Y_2 1_555 1_555
C11Y_2 C12Y_2 1_555 1_555
C12Y_2 C13Y_2 1_555 1_555
C8DA_2 C9DA_2 1_555 1_555
C11DA_2 C12DA_2 1_555 1_555
C12DA_2 C13DA_2 1_555 1_555
C1IA_2 C2IA_2 1_555 1_555
C8IA_2 C9IA_2 1_555 1_555
C11IA_2 C12IA_2 1_555 1_555
C12IA_2 C13IA_2 1_555 1_555
C3Z O3Z 1_555 1_555
C3Z O4Z 1_555 1_555
C8Z C9Z 1_555 1_555
C11Z C12Z 1_555 1_555
C12Z C13Z 1_555 1_555
C8EA C9EA 1_555 1_555
C11EA C12EA 1_555 1_555
C12EA C13EA 1_555 1_555
C1GA C2GA 1_555 1_555
C8GA C9GA 1_555 1_555
C11GA C12GA 1_555 1_555
C12GA C13GA 1_555 1_555
Cu1H Cu2H 1_555 1_555
Cu1_2 Cu2_2 1_555 1_555
Cu1D_2 Cu2D_2 1_555 1_555
Cu1E Cu2E 1_555 1_555
Cu1H_2 Cu2H_2 1_555 1_555
Cu1I Cu2I 1_555 1_555
Cu1I_2 Cu2I_2 1_555 1_555

#END
