
#######################################################################
#
#                 Cambridge Crystallographic Data Centre
#                                CCDC 
#
#######################################################################
#
# If this CIF has been generated from an entry in the Cambridge 
# Structural Database, then it will include bibliographic, chemical, 
# crystal, experimental, refinement or atomic coordinate data resulting 
# from the CCDC's data processing and validation procedures.
#
#######################################################################

data_ACUFEK
_chemical_name_common            
"catena-(octakis(mu!6$-4,4',4''-s-Triazine-2,4,6-triyltribenzoato)-dodeca-aqua-dodeca-copper dimethylsulfoxide solvate hydrate)"
_chemical_formula_moiety         
'(C192 H120 Cu12 N24 O60)n,12(C2 H6 O1 S1),44(H2 O1)'
_chemical_name_systematic        
"catena-[octakis(\m~6~-4,4',4''-s-Triazine-2,4,6-triyltribenzoato)-dodecaaqua-dodeca-copper dodecakis(dimethylsulfoxide) hydrate clathrate]"
_symmetry_cell_setting           rhombohedral
_symmetry_space_group_name_H-M   'R -3 m'
_symmetry_Int_Tables_number      166
_space_group_name_Hall           '-R 3 2"'
loop_
_symmetry_equiv_pos_site_id
_symmetry_equiv_pos_as_xyz
1 x,y,z
2 -y,x-y,z
3 -x+y,-x,z
4 y,x,-z
5 2/3+x,1/3+y,1/3+z
6 2/3-y,1/3+x-y,1/3+z
7 2/3-x+y,1/3-x,1/3+z
8 2/3+y,1/3+x,1/3-z
9 1/3+x,2/3+y,2/3+z
10 1/3+y,2/3+x,2/3-z
11 x-y,-y,-z
12 -x,-x+y,-z
13 1/3-y,2/3+x-y,2/3+z
14 1/3-x+y,2/3-x,2/3+z
15 1/3+x-y,2/3-y,2/3-z
16 1/3-x,2/3-x+y,2/3-z
17 2/3+x-y,1/3-y,1/3-z
18 2/3-x,1/3-x+y,1/3-z
19 -x,-y,-z
20 y,-x+y,-z
21 x-y,x,-z
22 -y,-x,z
23 1/3-x,2/3-y,2/3-z
24 1/3+y,2/3-x+y,2/3-z
25 1/3+x-y,2/3+x,2/3-z
26 1/3-y,2/3-x,2/3+z
27 2/3-x,1/3-y,1/3-z
28 2/3-y,1/3-x,1/3+z
29 -x+y,y,z
30 x,x-y,z
31 2/3+y,1/3-x+y,1/3-z
32 2/3+x-y,1/3+x,1/3-z
33 2/3-x+y,1/3+y,1/3+z
34 2/3+x,1/3+x-y,1/3+z
35 1/3-x+y,2/3+y,2/3+z
36 1/3+x,2/3+x-y,2/3+z
_cell_length_a                   32.9680(13)
_cell_length_b                   32.9680(13)
_cell_length_c                   80.783(5)
_cell_angle_alpha                90
_cell_angle_beta                 90
_cell_angle_gamma                120
_cell_volume                     76038.9
_exptl_crystal_colour            blue
_exptl_crystal_description       block
_cell_formula_units_Z            6
loop_
_atom_site_label
_atom_site_type_symbol
_atom_site_fract_x
_atom_site_fract_y
_atom_site_fract_z
Cu1 Cu 0.820184(17) 0.179816(17) 0.083430(11)
Cu2 Cu 0.846751(16) 0.153249(16) 0.056517(11)
Cu3 Cu 0.66615(2) -0.12677(2) 0.236625(8)
O1 O 0.82250(15) 0.09322(14) 0.06850(6)
O2 O 0.80075(15) 0.11629(15) 0.09114(5)
O3 O 0.67672(13) -0.12791(13) 0.21252(5)
N1 N 0.7610(2) -0.11951(12) 0.10650(8)
N2 N 0.7388(2) -0.09480(18) 0.12929(7)
C1 C 0.8057(2) 0.0874(3) 0.08267(10)
C2 C 0.7899(2) 0.0412(3) 0.09063(10)
C3 C 0.7922(2) 0.0066(3) 0.08255(8)
H1 H 0.8022 0.0117 0.0716
C4 C 0.7803(3) -0.0367(3) 0.08977(10)
H2 H 0.7829 -0.0593 0.0837
C5 C 0.7649(2) -0.0450(3) 0.10559(10)
C6 C 0.7610(2) -0.0119(3) 0.11399(8)
H3 H 0.7501 -0.0178 0.1248
C7 C 0.7728(2) 0.0306(3) 0.10687(10)
H4 H 0.7694 0.0527 0.1129
C8 C 0.7543(2) -0.0881(2) 0.11441(9)
C9 C 0.7309(4) -0.13456(18) 0.13580(11)
C10 C 0.7123(3) -0.14385(17) 0.15439(12)
C11 C 0.7073(3) -0.1849(2) 0.16294(10)
H5 H 0.7102 -0.2082 0.1575
C12 C 0.6981(3) -0.1872(2) 0.17945(10)
H6 H 0.6944 -0.2129 0.1855
C13 C 0.6943(3) -0.15286(17) 0.18731(12)
C14 C 0.6817(3) -0.15916(15) 0.20570(14)
O4 O 0.73376(14) -0.09907(12) 0.23984(5)
N3 N 0.97654(12) 0.02346(12) 0.24502(9)
C15 C 0.7540(4) -0.12301(19) 0.24042(9)
C16 C 0.8063(3) -0.09684(16) 0.24203(9)
C17 C 0.8300(3) -0.0488(2) 0.24265(8)
H7 H 0.8138 -0.0325 0.2425
C18 C 0.8778(3) -0.0253(2) 0.24344(8)
H8 H 0.8939 0.0072 0.2434
C19 C 0.9027(4) -0.04863(19) 0.24425(10)
C20 C 0.9550(3) -0.02250(17) 0.24492(11)
O5 O 0.86670(15) 0.21668(15) 0.04879(5)
O6 O 0.84368(14) 0.23894(13) 0.07146(5)
O7 O 0.98975(13) 0.52901(13) -0.07280(5)
N4 N 0.9027(3) 0.45135(13) 0.03475(9)
N5 N 0.92527(18) 0.42687(17) 0.01012(8)
C21 C 0.8607(2) 0.2448(3) 0.05684(9)
C22 C 0.8758(2) 0.2917(2) 0.04924(10)
C23 C 0.8910(3) 0.3002(2) 0.03374(11)
H9 H 0.8928 0.2769 0.0279
C24 C 0.9039(3) 0.3414(3) 0.02616(8)
H10 H 0.9145 0.3458 0.0153
C25 C 0.9019(2) 0.3767(3) 0.03407(9)
C26 C 0.8857(3) 0.3686(3) 0.05018(10)
H11 H 0.8838 0.3918 0.0561
C27 C 0.8726(3) 0.3270(3) 0.05747(9)
H12 H 0.8612 0.3219 0.0683
C28 C 0.9112(2) 0.4227(2) 0.02624(8)
C29 C 0.9316(3) 0.46584(15) 0.00298(12)
C30 C 0.9488(3) 0.47440(15) -0.01451(13)
C31 C 0.9554(2) 0.5110(2) -0.02259(9)
H13 H 0.9506 0.5329 -0.0170
C32 C 0.9693(2) 0.5201(2) -0.03936(9)
H14 H 0.9740 0.5473 -0.0445
C33 C 0.9756(3) 0.48780(13) -0.04771(12)
C34 C 0.9854(3) 0.49273(14) -0.06634(11)
O8 O 0.86702(12) 0.13298(12) 0.03468(9)
O9 O 0.66327(16) -0.06336(15) 0.23722(7)
O10 O 0.59920(14) -0.16646(13) 0.23309(5)
N6 N 0.35677(12) -0.35677(12) 0.22417(12)
C35 C 0.5813(3) -0.20935(17) 0.23214(10)
C36 C 0.5272(4) -0.23641(19) 0.22881(12)
C37 C 0.5011(3) -0.2137(2) 0.22791(9)
H15 H 0.5169 -0.1811 0.2281
C38 C 0.4552(2) -0.2363(2) 0.22679(10)
H16 H 0.4389 -0.2200 0.2270
C39 C 0.4314(4) -0.28430(18) 0.22532(14)
C40 C 0.3777(4) -0.31114(18) 0.22391(16)
O11 O 0.79865(13) 0.20135(13) 0.10600(8)
O1CA O 0.82250(15) -0.27072(21) 0.06850(6)
O2CA O 0.80075(15) -0.31554(21) 0.09114(5)
O3CA O 0.67672(13) -0.19537(18) 0.21252(5)
N2CA N 0.7388(2) -0.16640(27) 0.12929(7)
C1CA C 0.8057(2) -0.2817(4) 0.08267(10)
C2CA C 0.7899(2) -0.2513(4) 0.09063(10)
C3CA C 0.7922(2) -0.2144(4) 0.08255(8)
H1CA H 0.8022 -0.2095 0.0716
C4CA C 0.7803(3) -0.1830(4) 0.08977(10)
H2CA H 0.7829 -0.1578 0.0837
C5CA C 0.7649(2) -0.1901(4) 0.10559(10)
C6CA C 0.7610(2) -0.2271(4) 0.11399(8)
H3CA H 0.7501 -0.2321 0.1248
C7CA C 0.7728(2) -0.2578(4) 0.10687(10)
H4CA H 0.7694 -0.2833 0.1129
C8CA C 0.7543(2) -0.1576(3) 0.11441(9)
C11CA C 0.7073(3) -0.1078(4) 0.16294(10)
H5CA H 0.7102 -0.0816 0.1575
C12CA C 0.6981(3) -0.1147(4) 0.17945(10)
H6CA H 0.6944 -0.0927 0.1855
O4A O 1.09907(12) -0.16717(18) 0.23984(5)
N3A N 0.97654(12) -0.04692(17) 0.24502(9)
C15A C 1.12301(19) -0.12299(44) 0.24042(9)
C16A C 1.09684(16) -0.09686(34) 0.24203(9)
C17A C 1.0488(2) -0.1212(4) 0.24265(8)
H7A H 1.0325 -0.1537 0.2425
C18A C 1.0253(2) -0.0969(4) 0.24344(8)
H8A H 0.9928 -0.1133 0.2434
C19A C 1.04863(19) -0.04867(44) 0.24425(10)
C20A C 1.02250(17) -0.02250(34) 0.24492(11)
O4B O 1.16717(18) 0.26624(14) 0.23984(5)
N3B N 1.04692(17) 0.02346(12) 0.24502(9)
C15B C 1.12299(44) 0.2460(4) 0.24042(9)
C16B C 1.09686(34) 0.1937(3) 0.24203(9)
C17B C 1.1212(4) 0.1700(3) 0.24265(8)
H7B H 1.1537 0.1862 0.2425
C18B C 1.0969(4) 0.1222(3) 0.24344(8)
H8B H 1.1133 0.1061 0.2434
C19B C 1.04867(44) 0.0973(4) 0.24425(10)
C20B C 1.02250(34) 0.0450(3) 0.24492(11)
O4U O 1.09907(12) 0.26624(14) 0.23984(5)
C17U C 1.0488(2) 0.1700(3) 0.24265(8)
H7U H 1.0325 0.1862 0.2425
C18U C 1.0253(2) 0.1222(3) 0.24344(8)
H8U H 0.9928 0.1061 0.2434
O4BA O 1.16717(18) -0.09907(12) 0.23984(5)
C17BA C 1.1212(4) -0.0488(2) 0.24265(8)
H7BA H 1.1537 -0.0325 0.2425
C18BA C 1.0969(4) -0.0253(2) 0.24344(8)
H8BA H 1.1133 0.0072 0.2434
O4CA O 0.73376(14) -0.16717(18) 0.23984(5)
C17CA C 0.8300(3) -0.1212(4) 0.24265(8)
H7CA H 0.8138 -0.1537 0.2425
C18CA C 0.8778(3) -0.0969(4) 0.24344(8)
H8CA H 0.8939 -0.1133 0.2434
O5CA O 0.86670(15) 0.65002(21) 0.04879(5)
O6CA O 0.84368(14) 0.60474(19) 0.07146(5)
O7CA O 0.98975(13) 0.46074(18) -0.07280(5)
N5CA N 0.92527(18) 0.49840(25) 0.01012(8)
C21CA C 0.8607(2) 0.6159(4) 0.05684(9)
C22CA C 0.8758(2) 0.5841(3) 0.04924(10)
C23CA C 0.8910(3) 0.5908(4) 0.03374(11)
H9CA H 0.8928 0.6159 0.0279
C24CA C 0.9039(3) 0.5625(4) 0.02616(8)
H10CA H 0.9145 0.5687 0.0153
C25CA C 0.9019(2) 0.5252(4) 0.03407(9)
C26CA C 0.8857(3) 0.5171(4) 0.05018(10)
H11CA H 0.8838 0.4920 0.0561
C27CA C 0.8726(3) 0.5456(4) 0.05747(9)
H12CA H 0.8612 0.5393 0.0683
C28CA C 0.9112(2) 0.4885(3) 0.02624(8)
C31CA C 0.9554(2) 0.4444(3) -0.02259(9)
H13CA H 0.9506 0.4177 -0.0170
C32CA C 0.9693(2) 0.4492(3) -0.03936(9)
H14CA H 0.9740 0.4267 -0.0445
O10A O 0.16646(13) -0.23434(19) 0.23309(5)
N6A N 0.35677(12) -0.28646(17) 0.22417(12)
C35A C 0.20935(17) -0.20935(34) 0.23214(10)
C36A C 0.23641(19) -0.23639(44) 0.22881(12)
C37A C 0.2137(2) -0.2852(4) 0.22791(9)
H15A H 0.1811 -0.3020 0.2281
C38A C 0.2363(2) -0.3085(3) 0.22679(10)
H16A H 0.2200 -0.3411 0.2270
C39A C 0.28430(18) -0.28430(44) 0.22532(14)
C40A C 0.31114(18) -0.31116(44) 0.22391(16)
O10B O 0.23434(19) -0.59920(14) 0.23309(5)
N6B N 0.28646(17) -0.35677(12) 0.22417(12)
C35B C 0.20935(34) -0.5813(3) 0.23214(10)
C36B C 0.23639(44) -0.5272(4) 0.22881(12)
C37B C 0.2852(4) -0.5011(3) 0.22791(9)
H15B H 0.3020 -0.5169 0.2281
C38B C 0.3085(3) -0.4552(2) 0.22679(10)
H16B H 0.3411 -0.4389 0.2270
C39B C 0.28430(44) -0.4314(4) 0.22532(14)
C40B C 0.31116(44) -0.3777(4) 0.22391(16)
O10U O 0.16646(13) -0.59920(14) 0.23309(5)
C37U C 0.2137(2) -0.5011(3) 0.22791(9)
H15U H 0.1811 -0.5169 0.2281
C38U C 0.2363(2) -0.4552(2) 0.22679(10)
H16U H 0.2200 -0.4389 0.2270
O10BA O 0.23434(19) -0.16646(13) 0.23309(5)
C37BA C 0.2852(4) -0.2137(2) 0.22791(9)
H15BA H 0.3020 -0.1811 0.2281
C38BA C 0.3085(3) -0.2363(2) 0.22679(10)
H16BA H 0.3411 -0.2200 0.2270
O10CA O 0.59920(14) -0.23434(19) 0.23309(5)
C37CA C 0.5011(3) -0.2852(4) 0.22791(9)
H15CA H 0.5169 -0.3020 0.2281
C38CA C 0.4552(2) -0.3085(3) 0.22679(10)
H16CA H 0.4389 -0.3411 0.2270
Cu3A Cu 0.12677(2) -0.20708(3) 0.236625(8)
O1A O -0.09322(14) -0.27072(21) 0.06850(6)
O2A O -0.11629(15) -0.31554(21) 0.09114(5)
O3A O 0.12791(13) -0.19537(18) 0.21252(5)
N1A N 0.11951(12) -0.11949(23) 0.10650(8)
N2A N 0.09480(18) -0.16640(27) 0.12929(7)
C1A C -0.0874(3) -0.2817(4) 0.08267(10)
C2A C -0.0412(3) -0.2513(4) 0.09063(10)
C3A C -0.0066(3) -0.2144(4) 0.08255(8)
H1A H -0.0117 -0.2095 0.0716
C4A C 0.0367(3) -0.1830(4) 0.08977(10)
H2A H 0.0593 -0.1578 0.0837
C5A C 0.0450(3) -0.1901(4) 0.10559(10)
C6A C 0.0119(3) -0.2271(4) 0.11399(8)
H3A H 0.0178 -0.2321 0.1248
C7A C -0.0306(3) -0.2578(4) 0.10687(10)
H4A H -0.0527 -0.2833 0.1129
C8A C 0.0881(2) -0.1576(3) 0.11441(9)
C9A C 0.13456(18) -0.13454(44) 0.13580(11)
C10A C 0.14385(17) -0.14385(34) 0.15439(12)
C11A C 0.1849(2) -0.1078(4) 0.16294(10)
H5A H 0.2082 -0.0816 0.1575
C12A C 0.1872(2) -0.1147(4) 0.17945(10)
H6A H 0.2129 -0.0927 0.1855
C13A C 0.15286(17) -0.15284(34) 0.18731(12)
C14A C 0.15916(15) -0.15914(34) 0.20570(14)
O9A O 0.06336(15) -0.27337(22) 0.23722(7)
O1BA O 0.27072(21) 0.09322(14) 0.06850(6)
O2BA O 0.31554(21) 0.11629(15) 0.09114(5)
O3BA O 0.19537(18) -0.12791(13) 0.21252(5)
N2BA N 0.16640(27) -0.09480(18) 0.12929(7)
C1BA C 0.2817(4) 0.0874(3) 0.08267(10)
C2BA C 0.2513(4) 0.0412(3) 0.09063(10)
C3BA C 0.2144(4) 0.0066(3) 0.08255(8)
H1BA H 0.2095 0.0117 0.0716
C4BA C 0.1830(4) -0.0367(3) 0.08977(10)
H2BA H 0.1578 -0.0593 0.0837
C5BA C 0.1901(4) -0.0450(3) 0.10559(10)
C6BA C 0.2271(4) -0.0119(3) 0.11399(8)
H3BA H 0.2321 -0.0178 0.1248
C7BA C 0.2578(4) 0.0306(3) 0.10687(10)
H4BA H 0.2833 0.0527 0.1129
C8BA C 0.1576(3) -0.0881(2) 0.11441(9)
C11BA C 0.1078(4) -0.1849(2) 0.16294(10)
H5BA H 0.0816 -0.2082 0.1575
C12BA C 0.1147(4) -0.1872(2) 0.17945(10)
H6BA H 0.0927 -0.2129 0.1855
Cu3B Cu 0.20708(3) -0.66615(2) 0.236625(8)
O1B O 0.27072(21) -0.82250(15) 0.06850(6)
O2B O 0.31554(21) -0.80075(15) 0.09114(5)
O3B O 0.19537(18) -0.67672(13) 0.21252(5)
N1B N 0.11949(23) -0.7610(2) 0.10650(8)
N2B N 0.16640(27) -0.7388(2) 0.12929(7)
C1B C 0.2817(4) -0.8057(2) 0.08267(10)
C2B C 0.2513(4) -0.7899(2) 0.09063(10)
C3B C 0.2144(4) -0.7922(2) 0.08255(8)
H1B H 0.2095 -0.8022 0.0716
C4B C 0.1830(4) -0.7803(3) 0.08977(10)
H2B H 0.1578 -0.7829 0.0837
C5B C 0.1901(4) -0.7649(2) 0.10559(10)
C6B C 0.2271(4) -0.7610(2) 0.11399(8)
H3B H 0.2321 -0.7501 0.1248
C7B C 0.2578(4) -0.7728(2) 0.10687(10)
H4B H 0.2833 -0.7694 0.1129
C8B C 0.1576(3) -0.7543(2) 0.11441(9)
C9B C 0.13454(44) -0.7309(4) 0.13580(11)
C10B C 0.14385(34) -0.7123(3) 0.15439(12)
C11B C 0.1078(4) -0.7073(3) 0.16294(10)
H5B H 0.0816 -0.7102 0.1575
C12B C 0.1147(4) -0.6981(3) 0.17945(10)
H6B H 0.0927 -0.6944 0.1855
C13B C 0.15284(34) -0.6943(3) 0.18731(12)
C14B C 0.15914(34) -0.6817(3) 0.20570(14)
O9B O 0.27337(22) -0.66327(16) 0.23722(7)
O1U O -0.09322(14) -0.82250(15) 0.06850(6)
O2U O -0.11629(15) -0.80075(15) 0.09114(5)
O3U O 0.12791(13) -0.67672(13) 0.21252(5)
N2U N 0.09480(18) -0.7388(2) 0.12929(7)
C1U C -0.0874(3) -0.8057(2) 0.08267(10)
C2U C -0.0412(3) -0.7899(2) 0.09063(10)
C3U C -0.0066(3) -0.7922(2) 0.08255(8)
H1U H -0.0117 -0.8022 0.0716
C4U C 0.0367(3) -0.7803(3) 0.08977(10)
H2U H 0.0593 -0.7829 0.0837
C5U C 0.0450(3) -0.7649(2) 0.10559(10)
C6U C 0.0119(3) -0.7610(2) 0.11399(8)
H3U H 0.0178 -0.7501 0.1248
C7U C -0.0306(3) -0.7728(2) 0.10687(10)
H4U H -0.0527 -0.7694 0.1129
C8U C 0.0881(2) -0.7543(2) 0.11441(9)
C11U C 0.1849(2) -0.7073(3) 0.16294(10)
H5U H 0.2082 -0.7102 0.1575
C12U C 0.1872(2) -0.6981(3) 0.17945(10)
H6U H 0.2129 -0.6944 0.1855
Cu3U Cu 0.12677(2) -0.66615(2) 0.236625(8)
O9U O 0.06336(15) -0.66327(16) 0.23722(7)
Cu1B Cu 0.359632(24) 0.179816(17) 0.083430(11)
Cu2B Cu 0.306498(23) 0.153249(16) 0.056517(11)
Cu3BA Cu 0.20708(3) -0.12677(2) 0.236625(8)
O5BA O 0.34998(21) 0.21668(15) 0.04879(5)
O6BA O 0.39526(19) 0.23894(13) 0.07146(5)
O7BA O 0.53926(18) 0.52901(13) -0.07280(5)
N4A N 0.54865(13) 0.45135(33) 0.03475(9)
N5BA N 0.50160(25) 0.42687(17) 0.01012(8)
C21BA C 0.3841(4) 0.2448(3) 0.05684(9)
C22BA C 0.4159(3) 0.2917(2) 0.04924(10)
C23BA C 0.4092(4) 0.3002(2) 0.03374(11)
H9BA H 0.3841 0.2769 0.0279
C24BA C 0.4375(4) 0.3414(3) 0.02616(8)
H10BA H 0.4313 0.3458 0.0153
C25BA C 0.4748(4) 0.3767(3) 0.03407(9)
C26BA C 0.4829(4) 0.3686(3) 0.05018(10)
H11BA H 0.5080 0.3918 0.0561
C27BA C 0.4544(4) 0.3270(3) 0.05747(9)
H12BA H 0.4607 0.3219 0.0683
C28BA C 0.5115(3) 0.4227(2) 0.02624(8)
C29A C 0.53416(15) 0.46576(34) 0.00298(12)
C30A C 0.52560(15) 0.47440(34) -0.01451(13)
C31BA C 0.5556(3) 0.5110(2) -0.02259(9)
H13BA H 0.5823 0.5329 -0.0170
C32BA C 0.5508(3) 0.5201(2) -0.03936(9)
H14BA H 0.5733 0.5473 -0.0445
C33A C 0.51220(13) 0.48780(33) -0.04771(12)
C34A C 0.50727(14) 0.49267(33) -0.06634(11)
O8B O 0.26596(17) 0.13298(12) 0.03468(9)
O9BA O 0.27337(22) -0.06336(15) 0.23722(7)
O11B O 0.40270(18) 0.20135(13) 0.10600(8)
O5A O 0.78332(15) 0.65002(21) 0.04879(5)
O6A O 0.76106(13) 0.60474(19) 0.07146(5)
O7A O 0.47099(13) 0.46074(18) -0.07280(5)
N5A N 0.57313(17) 0.49840(25) 0.01012(8)
C21A C 0.7552(3) 0.6159(4) 0.05684(9)
C22A C 0.7083(2) 0.5841(3) 0.04924(10)
C23A C 0.6998(2) 0.5908(4) 0.03374(11)
H9A H 0.7231 0.6159 0.0279
C24A C 0.6586(3) 0.5625(4) 0.02616(8)
H10A H 0.6542 0.5687 0.0153
C25A C 0.6233(3) 0.5252(4) 0.03407(9)
C26A C 0.6314(3) 0.5171(4) 0.05018(10)
H11A H 0.6082 0.4920 0.0561
C27A C 0.6730(3) 0.5456(4) 0.05747(9)
H12A H 0.6781 0.5393 0.0683
C28A C 0.5773(2) 0.4885(3) 0.02624(8)
C31A C 0.4890(2) 0.4444(3) -0.02259(9)
H13A H 0.4671 0.4177 -0.0170
C32A C 0.4799(2) 0.4492(3) -0.03936(9)
H14A H 0.4527 0.4267 -0.0445
Cu1A Cu 0.820184(17) -0.359632(24) 0.083430(11)
Cu2A Cu 0.846751(16) -0.306498(23) 0.056517(11)
Cu3CA Cu 0.66615(2) -0.20708(3) 0.236625(8)
O8A O 0.86702(12) -0.26596(17) 0.03468(9)
O9CA O 0.66327(16) -0.27337(22) 0.23722(7)
O11A O 0.79865(13) -0.40270(18) 0.10600(8)
O5U O 0.78332(15) 0.13330(15) 0.04879(5)
O6U O 0.76106(13) 0.15632(14) 0.07146(5)
O7U O 0.47099(13) 0.01025(13) -0.07280(5)
N4B N 0.54865(33) 0.0973(3) 0.03475(9)
N5U N 0.57313(17) 0.07473(18) 0.01012(8)
C21U C 0.7552(3) 0.1393(2) 0.05684(9)
C22U C 0.7083(2) 0.1242(2) 0.04924(10)
C23U C 0.6998(2) 0.1090(3) 0.03374(11)
H9U H 0.7231 0.1072 0.0279
C24U C 0.6586(3) 0.0961(3) 0.02616(8)
H10U H 0.6542 0.0855 0.0153
C25U C 0.6233(3) 0.0981(2) 0.03407(9)
C26U C 0.6314(3) 0.1143(3) 0.05018(10)
H11U H 0.6082 0.1162 0.0561
C27U C 0.6730(3) 0.1274(3) 0.05747(9)
H12U H 0.6781 0.1388 0.0683
C28U C 0.5773(2) 0.0888(2) 0.02624(8)
C29B C 0.53424(34) 0.0684(3) 0.00298(12)
C30B C 0.52560(34) 0.0512(3) -0.01451(13)
C31U C 0.4890(2) 0.0446(2) -0.02259(9)
H13U H 0.4671 0.0494 -0.0170
C32U C 0.4799(2) 0.0307(2) -0.03936(9)
H14U H 0.4527 0.0260 -0.0445
C33B C 0.51220(33) 0.0244(3) -0.04771(12)
C34B C 0.50733(33) 0.0146(3) -0.06634(11)
O5B O 0.34998(21) 0.13330(15) 0.04879(5)
O6B O 0.39526(19) 0.15632(14) 0.07146(5)
O7B O 0.53926(18) 0.01025(13) -0.07280(5)
N5B N 0.50160(25) 0.07473(18) 0.01012(8)
C21B C 0.3841(4) 0.1393(2) 0.05684(9)
C22B C 0.4159(3) 0.1242(2) 0.04924(10)
C23B C 0.4092(4) 0.1090(3) 0.03374(11)
H9B H 0.3841 0.1072 0.0279
C24B C 0.4375(4) 0.0961(3) 0.02616(8)
H10B H 0.4313 0.0855 0.0153
C25B C 0.4748(4) 0.0981(2) 0.03407(9)
C26B C 0.4829(4) 0.1143(3) 0.05018(10)
H11B H 0.5080 0.1162 0.0561
C27B C 0.4544(4) 0.1274(3) 0.05747(9)
H12B H 0.4607 0.1388 0.0683
C28B C 0.5115(3) 0.0888(2) 0.02624(8)
C31B C 0.5556(3) 0.0446(2) -0.02259(9)
H13B H 0.5823 0.0494 -0.0170
C32B C 0.5508(3) 0.0307(2) -0.03936(9)
H14B H 0.5733 0.0260 -0.0445
Cu1_2 Cu -0.179816(17) -0.820184(17) 0.083430(11)
Cu1A_2 Cu -0.179816(17) -0.359632(24) 0.083430(11)
Cu1A_3 Cu 0.820184(17) 0.640368(24) 0.083430(11)
Cu1B_2 Cu 0.359632(24) -0.820184(17) 0.083430(11)
Cu2_2 Cu -0.153249(16) -0.846751(16) 0.056517(11)
Cu2A_2 Cu -0.153249(16) -0.306498(23) 0.056517(11)
Cu2A_3 Cu 0.846751(16) 0.693502(23) 0.056517(11)
Cu2B_2 Cu 0.306498(23) -0.846751(16) 0.056517(11)
Cu3A_2 Cu 1.12677(2) -0.20708(3) 0.236625(8)
Cu3B_2 Cu 1.20708(3) 0.33385(2) 0.236625(8)
Cu3H Cu 0.99948(2) 0.53990(2) -0.096708(8)
Cu3L Cu 0.46010(2) 0.45959(3) -0.096708(8)
Cu3M Cu 0.54041(3) 0.00052(2) -0.096708(8)
Cu3U_2 Cu 1.12677(2) 0.33385(2) 0.236625(8)
Cu3Y Cu 0.46010(2) 0.00052(2) -0.096708(8)
Cu3BA_2 Cu 1.20708(3) -0.12677(2) 0.236625(8)
Cu3HA Cu 0.54041(3) 0.53990(2) -0.096708(8)
Cu3IA Cu 0.99948(2) 0.45959(3) -0.096708(8)
O1A_2 O 0.90678(14) -0.27072(21) 0.06850(6)
O1B_2 O 0.27072(21) 0.17750(15) 0.06850(6)
O1U_2 O 0.90678(14) 0.17750(15) 0.06850(6)
O2A_2 O 0.88371(15) -0.31554(21) 0.09114(5)
O2B_2 O 0.31554(21) 0.19925(15) 0.09114(5)
O2U_2 O 0.88371(15) 0.19925(15) 0.09114(5)
O4A_2 O 0.09907(12) -0.16717(18) 0.23984(5)
O4B_2 O 0.16717(18) -0.73376(14) 0.23984(5)
O4U_2 O 0.09907(12) -0.73376(14) 0.23984(5)
O4BA_2 O 0.16717(18) -0.09907(12) 0.23984(5)
O5A_2 O 0.78332(15) -0.34998(21) 0.04879(5)
O5CA_2 O 0.86670(15) -0.34998(21) 0.04879(5)
O6A_2 O 0.76106(13) -0.39526(19) 0.07146(5)
O6CA_2 O 0.84368(14) -0.39526(19) 0.07146(5)
O7D O 0.65642(13) -0.13766(13) 0.26053(5)
O7E O 0.13766(13) -0.20593(18) 0.26053(5)
O7F O 0.20593(18) -0.65642(13) 0.26053(5)
O7AA O 0.13766(13) -0.65642(13) 0.26053(5)
O7FA O 0.20593(18) -0.13766(13) 0.26053(5)
O7GA O 0.65642(13) -0.20593(18) 0.26053(5)
loop_
_geom_bond_atom_site_label_1
_geom_bond_atom_site_label_2
_geom_bond_site_symmetry_1
_geom_bond_site_symmetry_2
Cu1 Cu2 1_555 1_555
Cu2 O1 1_555 1_555
Cu3 O3 1_555 1_555
O1 C1 1_555 1_555
O2 Cu1 1_555 1_555
O3 C14 1_555 1_555
N1 C8 1_555 1_555
N2 C8 1_555 1_555
C1 O2 1_555 1_555
C2 C1 1_555 1_555
C3 C2 1_555 1_555
H1 C3 1_555 1_555
C4 C3 1_555 1_555
H2 C4 1_555 1_555
C5 C4 1_555 1_555
C6 C5 1_555 1_555
H3 C6 1_555 1_555
C7 C2 1_555 1_555
H4 C7 1_555 1_555
C8 C5 1_555 1_555
C9 N2 1_555 1_555
C10 C9 1_555 1_555
C11 C10 1_555 1_555
H5 C11 1_555 1_555
C12 C11 1_555 1_555
H6 C12 1_555 1_555
C13 C12 1_555 1_555
C14 C13 1_555 1_555
O4 Cu3 1_555 1_555
N3 C20 1_555 1_555
C15 O4 1_555 1_555
C16 C15 1_555 1_555
C17 C16 1_555 1_555
H7 C17 1_555 1_555
C18 C17 1_555 1_555
H8 C18 1_555 1_555
C19 C18 1_555 1_555
C20 C19 1_555 1_555
O5 Cu2 1_555 1_555
O6 Cu1 1_555 1_555
O7 C34 1_555 1_555
N4 C28 1_555 1_555
N5 C28 1_555 1_555
C21 O5 1_555 1_555
C22 C21 1_555 1_555
C23 C22 1_555 1_555
H9 C23 1_555 1_555
C24 C23 1_555 1_555
H10 C24 1_555 1_555
C25 C24 1_555 1_555
C26 C25 1_555 1_555
H11 C26 1_555 1_555
C27 C22 1_555 1_555
H12 C27 1_555 1_555
C28 C25 1_555 1_555
C29 N5 1_555 1_555
C30 C29 1_555 1_555
C31 C30 1_555 1_555
H13 C31 1_555 1_555
C32 C31 1_555 1_555
H14 C32 1_555 1_555
C33 C32 1_555 1_555
C34 C33 1_555 1_555
O8 Cu2 1_555 1_555
O9 Cu3 1_555 1_555
O10 Cu3 1_555 1_555
N6 C40 1_555 1_555
C35 O10 1_555 1_555
C36 C35 1_555 1_555
C37 C36 1_555 1_555
H15 C37 1_555 1_555
C38 C37 1_555 1_555
H16 C38 1_555 1_555
C39 C38 1_555 1_555
C40 C39 1_555 1_555
O11 Cu1 1_555 1_555
O1CA C1CA 1_555 1_555
O2CA C1CA 1_555 1_555
O3CA C14 1_555 1_555
N2CA C9 1_555 1_555
C1CA C2CA 1_555 1_555
C2CA C3CA 1_555 1_555
C3CA H1CA 1_555 1_555
C4CA C3CA 1_555 1_555
H2CA C4CA 1_555 1_555
C5CA C4CA 1_555 1_555
C6CA C5CA 1_555 1_555
H3CA C6CA 1_555 1_555
C7CA C2CA 1_555 1_555
H4CA C7CA 1_555 1_555
C8CA N1 1_555 1_555
C11CA C10 1_555 1_555
H5CA C11CA 1_555 1_555
C12CA C13 1_555 1_555
H6CA C12CA 1_555 1_555
O4A C15A 1_555 1_555
N3A C20 1_555 1_555
C15A C16A 1_555 1_555
C16A C17A 1_555 1_555
C17A H7A 1_555 1_555
C18A C17A 1_555 1_555
H8A C18A 1_555 1_555
C19A C18A 1_555 1_555
C20A N3A 1_555 1_555
O4B C15B 1_555 1_555
N3B C20A 1_555 1_555
C15B C16B 1_555 1_555
C16B C17B 1_555 1_555
C17B H7B 1_555 1_555
C18B C17B 1_555 1_555
H8B C18B 1_555 1_555
C19B C18B 1_555 1_555
C20B N3 1_555 1_555
O4U C15B 1_555 1_555
C17U C16B 1_555 1_555
H7U C17U 1_555 1_555
C18U C19B 1_555 1_555
H8U C18U 1_555 1_555
O4BA C15A 1_555 1_555
C17BA C16A 1_555 1_555
H7BA C17BA 1_555 1_555
C18BA C19A 1_555 1_555
H8BA C18BA 1_555 1_555
O4CA C15 1_555 1_555
C17CA C16 1_555 1_555
H7CA C17CA 1_555 1_555
C18CA C19 1_555 1_555
H8CA C18CA 1_555 1_555
O5CA C21CA 1_555 1_555
O6CA C21CA 1_555 1_555
O7CA C34 1_555 1_555
N5CA C29 1_555 1_555
C21CA C22CA 1_555 1_555
C22CA C23CA 1_555 1_555
C23CA H9CA 1_555 1_555
C24CA C23CA 1_555 1_555
H10CA C24CA 1_555 1_555
C25CA C24CA 1_555 1_555
C26CA C25CA 1_555 1_555
H11CA C26CA 1_555 1_555
C27CA C22CA 1_555 1_555
H12CA C27CA 1_555 1_555
C28CA N4 1_555 1_555
C31CA C30 1_555 1_555
H13CA C31CA 1_555 1_555
C32CA C33 1_555 1_555
H14CA C32CA 1_555 1_555
O10A C35A 1_555 1_555
N6A C40 1_555 1_555
C35A C36A 1_555 1_555
C36A C37A 1_555 1_555
C37A H15A 1_555 1_555
C38A C37A 1_555 1_555
H16A C38A 1_555 1_555
C39A C38A 1_555 1_555
C40A N6A 1_555 1_555
O10B C35B 1_555 1_555
N6B C40A 1_555 1_555
C35B C36B 1_555 1_555
C36B C37B 1_555 1_555
C37B H15B 1_555 1_555
C38B C37B 1_555 1_555
H16B C38B 1_555 1_555
C39B C38B 1_555 1_555
C40B N6 1_555 1_555
O10U C35B 1_555 1_555
C37U C36B 1_555 1_555
H15U C37U 1_555 1_555
C38U C39B 1_555 1_555
H16U C38U 1_555 1_555
O10BA C35A 1_555 1_555
C37BA C36A 1_555 1_555
H15BA C37BA 1_555 1_555
C38BA C39A 1_555 1_555
H16BA C38BA 1_555 1_555
O10CA C35 1_555 1_555
C37CA C36 1_555 1_555
H15CA C37CA 1_555 1_555
C38CA C39 1_555 1_555
H16CA C38CA 1_555 1_555
Cu3A O10A 1_555 1_555
O1A C1A 1_555 1_555
O2A C1A 1_555 1_555
O3A Cu3A 1_555 1_555
N1A C8A 1_555 1_555
N2A C8A 1_555 1_555
C1A C2A 1_555 1_555
C2A C3A 1_555 1_555
C3A H1A 1_555 1_555
C4A C3A 1_555 1_555
H2A C4A 1_555 1_555
C5A C4A 1_555 1_555
C6A C5A 1_555 1_555
H3A C6A 1_555 1_555
C7A C2A 1_555 1_555
H4A C7A 1_555 1_555
C8A C5A 1_555 1_555
C9A N2A 1_555 1_555
C10A C9A 1_555 1_555
C11A C10A 1_555 1_555
H5A C11A 1_555 1_555
C12A C11A 1_555 1_555
H6A C12A 1_555 1_555
C13A C12A 1_555 1_555
C14A O3A 1_555 1_555
O9A Cu3A 1_555 1_555
O1BA C1BA 1_555 1_555
O2BA C1BA 1_555 1_555
O3BA C14A 1_555 1_555
N2BA C9A 1_555 1_555
C1BA C2BA 1_555 1_555
C2BA C3BA 1_555 1_555
C3BA H1BA 1_555 1_555
C4BA C3BA 1_555 1_555
H2BA C4BA 1_555 1_555
C5BA C4BA 1_555 1_555
C6BA C5BA 1_555 1_555
H3BA C6BA 1_555 1_555
C7BA C2BA 1_555 1_555
H4BA C7BA 1_555 1_555
C8BA N1A 1_555 1_555
C11BA C10A 1_555 1_555
H5BA C11BA 1_555 1_555
C12BA C13A 1_555 1_555
H6BA C12BA 1_555 1_555
Cu3B O10B 1_555 1_555
O1B C1B 1_555 1_555
O2B C1B 1_555 1_555
O3B Cu3B 1_555 1_555
N1B C8B 1_555 1_555
N2B C8B 1_555 1_555
C1B C2B 1_555 1_555
C2B C3B 1_555 1_555
C3B H1B 1_555 1_555
C4B C3B 1_555 1_555
H2B C4B 1_555 1_555
C5B C4B 1_555 1_555
C6B C5B 1_555 1_555
H3B C6B 1_555 1_555
C7B C2B 1_555 1_555
H4B C7B 1_555 1_555
C8B C5B 1_555 1_555
C9B N2B 1_555 1_555
C10B C9B 1_555 1_555
C11B C10B 1_555 1_555
H5B C11B 1_555 1_555
C12B C11B 1_555 1_555
H6B C12B 1_555 1_555
C13B C12B 1_555 1_555
C14B O3B 1_555 1_555
O9B Cu3B 1_555 1_555
O1U C1U 1_555 1_555
O2U C1U 1_555 1_555
O3U C14B 1_555 1_555
N2U C9B 1_555 1_555
C1U C2U 1_555 1_555
C2U C3U 1_555 1_555
C3U H1U 1_555 1_555
C4U C3U 1_555 1_555
H2U C4U 1_555 1_555
C5U C4U 1_555 1_555
C6U C5U 1_555 1_555
H3U C6U 1_555 1_555
C7U C2U 1_555 1_555
H4U C7U 1_555 1_555
C8U N1B 1_555 1_555
C11U C10B 1_555 1_555
H5U C11U 1_555 1_555
C12U C13B 1_555 1_555
H6U C12U 1_555 1_555
Cu3U O10U 1_555 1_555
O9U Cu3U 1_555 1_555
Cu1B O2BA 1_555 1_555
Cu2B O1BA 1_555 1_555
Cu3BA O10BA 1_555 1_555
O5BA Cu2B 1_555 1_555
O6BA Cu1B 1_555 1_555
O7BA C34A 1_555 1_555
N4A C28BA 1_555 1_555
N5BA C28BA 1_555 1_555
C21BA O5BA 1_555 1_555
C22BA C21BA 1_555 1_555
C23BA C22BA 1_555 1_555
H9BA C23BA 1_555 1_555
C24BA C23BA 1_555 1_555
H10BA C24BA 1_555 1_555
C25BA C24BA 1_555 1_555
C26BA C25BA 1_555 1_555
H11BA C26BA 1_555 1_555
C27BA C22BA 1_555 1_555
H12BA C27BA 1_555 1_555
C28BA C25BA 1_555 1_555
C29A N5BA 1_555 1_555
C30A C29A 1_555 1_555
C31BA C30A 1_555 1_555
H13BA C31BA 1_555 1_555
C32BA C31BA 1_555 1_555
H14BA C32BA 1_555 1_555
C33A C32BA 1_555 1_555
C34A C33A 1_555 1_555
O8B Cu2B 1_555 1_555
O9BA Cu3BA 1_555 1_555
O11B Cu1B 1_555 1_555
O5A C21A 1_555 1_555
O6A C21A 1_555 1_555
O7A C34A 1_555 1_555
N5A C29A 1_555 1_555
C21A C22A 1_555 1_555
C22A C23A 1_555 1_555
C23A H9A 1_555 1_555
C24A C23A 1_555 1_555
H10A C24A 1_555 1_555
C25A C24A 1_555 1_555
C26A C25A 1_555 1_555
H11A C26A 1_555 1_555
C27A C22A 1_555 1_555
H12A C27A 1_555 1_555
C28A N4A 1_555 1_555
C31A C30A 1_555 1_555
H13A C31A 1_555 1_555
C32A C33A 1_555 1_555
H14A C32A 1_555 1_555
Cu1A O2CA 1_555 1_555
Cu2A O1CA 1_555 1_555
Cu3CA Cu3 1_555 1_555
O8A Cu2A 1_555 1_555
O9CA Cu3CA 1_555 1_555
O11A Cu1A 1_555 1_555
O5U Cu2 1_555 1_555
O6U Cu1 1_555 1_555
O7U C34B 1_555 1_555
N4B C28U 1_555 1_555
N5U C28U 1_555 1_555
C21U O5U 1_555 1_555
C22U C21U 1_555 1_555
C23U C22U 1_555 1_555
H9U C23U 1_555 1_555
C24U C23U 1_555 1_555
H10U C24U 1_555 1_555
C25U C24U 1_555 1_555
C26U C25U 1_555 1_555
H11U C26U 1_555 1_555
C27U C22U 1_555 1_555
H12U C27U 1_555 1_555
C28U C25U 1_555 1_555
C29B N5U 1_555 1_555
C30B C29B 1_555 1_555
C31U C30B 1_555 1_555
H13U C31U 1_555 1_555
C32U C31U 1_555 1_555
H14U C32U 1_555 1_555
C33B C32U 1_555 1_555
C34B C33B 1_555 1_555
O5B Cu2B 1_555 1_555
O6B Cu1B 1_555 1_555
O7B C34B 1_555 1_555
N5B C29B 1_555 1_555
C21B O5B 1_555 1_555
C22B C21B 1_555 1_555
C23B C22B 1_555 1_555
H9B C23B 1_555 1_555
C24B C23B 1_555 1_555
H10B C24B 1_555 1_555
C25B C24B 1_555 1_555
C26B C25B 1_555 1_555
H11B C26B 1_555 1_555
C27B C22B 1_555 1_555
H12B C27B 1_555 1_555
C28B N4B 1_555 1_555
C31B C30B 1_555 1_555
H13B C31B 1_555 1_555
C32B C33B 1_555 1_555
H14B C32B 1_555 1_555
Cu1_2 O2U 1_555 1_555
Cu1A_2 O2A 1_555 1_555
Cu1A_3 O6CA 1_555 1_555
Cu1B_2 O2B 1_555 1_555
Cu2_2 O1U 1_555 1_555
Cu2A_2 O1A 1_555 1_555
Cu2A_3 O5CA 1_555 1_555
Cu2B_2 O1B 1_555 1_555
Cu3A_2 O4A 1_555 1_555
Cu3B_2 O4B 1_555 1_555
Cu3H O7 1_555 1_555
Cu3L O7A 1_555 1_555
Cu3M O7B 1_555 1_555
Cu3U_2 O4U 1_555 1_555
Cu3Y O7U 1_555 1_555
Cu3BA_2 O4BA 1_555 1_555
Cu3HA O7BA 1_555 1_555
Cu3IA O7CA 1_555 1_555
O1A_2 Cu2A 1_555 1_555
O1B_2 Cu2B 1_555 1_555
O1U_2 Cu2 1_555 1_555
O2A_2 Cu1A 1_555 1_555
O2B_2 Cu1B 1_555 1_555
O2U_2 Cu1 1_555 1_555
O4A_2 Cu3A 1_555 1_555
O4B_2 Cu3B 1_555 1_555
O4U_2 Cu3U 1_555 1_555
O4BA_2 Cu3BA 1_555 1_555
O5A_2 Cu2A 1_555 1_555
O5CA_2 Cu2A 1_555 1_555
O6A_2 Cu1A 1_555 1_555
O6CA_2 Cu1A 1_555 1_555
O7D Cu3 1_555 1_555
O7E Cu3A 1_555 1_555
O7F Cu3B 1_555 1_555
O7AA Cu3U 1_555 1_555
O7FA Cu3BA 1_555 1_555
O7GA Cu3CA 1_555 1_555
C6 C7 1_555 1_555
O6 C21 1_555 1_555
C26 C27 1_555 1_555
O3CA Cu3CA 1_555 1_555
N2CA C8CA 1_555 1_555
C5CA C8CA 1_555 1_555
C6CA C7CA 1_555 1_555
C11CA C12CA 1_555 1_555
C19A C20A 1_555 1_555
N3B C20B 1_555 1_555
C19B C20B 1_555 1_555
C17U C18U 1_555 1_555
C17BA C18BA 1_555 1_555
O4CA Cu3CA 1_555 1_555
C17CA C18CA 1_555 1_555
N5CA C28CA 1_555 1_555
C25CA C28CA 1_555 1_555
C26CA C27CA 1_555 1_555
C31CA C32CA 1_555 1_555
C39A C40A 1_555 1_555
N6B C40B 1_555 1_555
C39B C40B 1_555 1_555
C37U C38U 1_555 1_555
C37BA C38BA 1_555 1_555
O10CA Cu3CA 1_555 1_555
C37CA C38CA 1_555 1_555
Cu3A Cu3BA 1_555 1_555
C6A C7A 1_555 1_555
C13A C14A 1_555 1_555
O3BA Cu3BA 1_555 1_555
N2BA C8BA 1_555 1_555
C5BA C8BA 1_555 1_555
C6BA C7BA 1_555 1_555
C11BA C12BA 1_555 1_555
Cu3B Cu3U 1_555 1_555
C6B C7B 1_555 1_555
C13B C14B 1_555 1_555
O3U Cu3U 1_555 1_555
N2U C8U 1_555 1_555
C5U C8U 1_555 1_555
C6U C7U 1_555 1_555
C11U C12U 1_555 1_555
Cu1B Cu2B 1_555 1_555
O6BA C21BA 1_555 1_555
C26BA C27BA 1_555 1_555
O5A Cu2A_3 1_555 1_555
O6A Cu1A_3 1_555 1_555
N5A C28A 1_555 1_555
C25A C28A 1_555 1_555
C26A C27A 1_555 1_555
C31A C32A 1_555 1_555
Cu1A Cu2A 1_555 1_555
O6U C21U 1_555 1_555
C26U C27U 1_555 1_555
O6B C21B 1_555 1_555
N5B C28B 1_555 1_555
C25B C28B 1_555 1_555
C26B C27B 1_555 1_555
C31B C32B 1_555 1_555
Cu1_2 Cu2_2 1_555 1_555
Cu1A_2 Cu2A_2 1_555 1_555
Cu1A_3 Cu2A_3 1_555 1_555
Cu1B_2 Cu2B_2 1_555 1_555
Cu3A_2 Cu3BA_2 1_555 1_555
Cu3B_2 Cu3U_2 1_555 1_555
Cu3H Cu3IA 1_555 1_555
Cu3L Cu3HA 1_555 1_555
Cu3M Cu3Y 1_555 1_555

#END
