
#######################################################################
#
#                 Cambridge Crystallographic Data Centre
#                                CCDC 
#
#######################################################################
#
# If this CIF has been generated from an entry in the Cambridge 
# Structural Database, then it will include bibliographic, chemical, 
# crystal, experimental, refinement or atomic coordinate data resulting 
# from the CCDC's data processing and validation procedures.
#
#######################################################################

data_VUWRUC
_chemical_formula_moiety         '(C40 H31 N1 Nd2 O15)n,3n(C4 H9 N1 O1)'
_chemical_name_systematic        
'catena-[tris(\m-naphthalene-2,6-dicarboxylato)-diaqua-(N,N-dimethylacetamide)-di-neodymium N,N-dimethylacetamide solvate]'
_symmetry_cell_setting           orthorhombic
_symmetry_space_group_name_H-M   'P n m a'
_symmetry_Int_Tables_number      62
_space_group_name_Hall           '-P 2ac 2n'
loop_
_symmetry_equiv_pos_site_id
_symmetry_equiv_pos_as_xyz
1 x,y,z
2 1/2-x,-y,1/2+z
3 -x,1/2+y,-z
4 1/2+x,1/2-y,1/2-z
5 -x,-y,-z
6 1/2+x,y,1/2-z
7 x,1/2-y,z
8 1/2-x,1/2+y,1/2+z
_cell_length_a                   18.8575(10)
_cell_length_b                   21.8147(12)
_cell_length_c                   12.8837(6)
_cell_angle_alpha                90
_cell_angle_beta                 90
_cell_angle_gamma                90
_cell_volume                     5299.98
_exptl_crystal_colour            'light purple'
_exptl_crystal_description       rod
_cell_formula_units_Z            4
loop_
_atom_site_label
_atom_site_type_symbol
_atom_site_fract_x
_atom_site_fract_y
_atom_site_fract_z
O10 O 0.2761(3) 0.6549(3) 0.3449(4)
N2 N 0.3152(5) 0.5828(4) 0.2406(8)
C23 C 0.3272(6) 0.6229(5) 0.3109(8)
C24 C 0.4019(5) 0.6274(5) 0.3439(8)
H13 H 0.4085 0.6648 0.3849
H14 H 0.4326 0.6289 0.2826
H15 H 0.4142 0.5916 0.3862
C25 C 0.2383(5) 0.5774(5) 0.2072(9)
H16 H 0.2204 0.5366 0.2253
H17 H 0.2348 0.5834 0.1320
H18 H 0.2100 0.6086 0.2428
C26 C 0.3670(6) 0.5388(6) 0.2010(9)
H19 H 0.4146 0.5508 0.2235
H20 H 0.3651 0.5382 0.1250
H21 H 0.3559 0.4979 0.2279
O11 O -0.0091(7) 0.7500 0.1335(10)
N3 N 0.0658(6) 0.7500 0.2673(8)
C27 C 0.0534(6) 0.7500 0.1637(8)
C28 C 0.1106(8) 0.7500 0.0954(12)
C29 C 0.0061(10) 0.7500 0.3419(17)
C30 C 0.1365(7) 0.7500 0.3105(10)
Nd1 Nd 0.494669(18) 0.7500 0.74718(3)
Nd2 Nd 0.214652(18) 0.7500 0.65527(3)
O1 O 0.41258(19) 0.66582(16) 0.7396(3)
O2 O 0.30651(19) 0.67736(16) 0.6673(3)
O3 O 0.4308(2) 0.31685(19) 0.3561(3)
O4 O 0.3203(2) 0.31798(18) 0.2916(3)
O5 O 0.0626(2) 0.68480(18) 0.6415(3)
O6 O 0.1589(2) 0.67233(18) 0.5475(3)
O7 O 0.4393(3) 0.7500 0.5664(4)
H1 H 0.4029 0.7500 0.5190
H2 H 0.4796 0.7500 0.5263
O8 O 0.2846(3) 0.7500 0.4851(4)
H3 H 0.2806 0.7237 0.4326
C1 C 0.3706(3) 0.5863(2) 0.6311(4)
C2 C 0.4334(3) 0.5530(3) 0.6461(4)
H4 H 0.4696 0.5694 0.6891
C3 C 0.4429(3) 0.4981(3) 0.6005(5)
H5 H 0.4847 0.4753 0.6153
C4 C 0.3924(3) 0.4738(3) 0.5315(4)
C5 C 0.4031(3) 0.4182(3) 0.4770(4)
H6 H 0.4451 0.3952 0.4892
C6 C 0.3544(3) 0.3967(2) 0.4073(4)
C7 C 0.2912(3) 0.4300(3) 0.3899(5)
H7 H 0.2569 0.4146 0.3426
C8 C 0.2790(3) 0.4841(3) 0.4404(5)
H8 H 0.2363 0.5060 0.4273
C9 C 0.3293(3) 0.5083(2) 0.5124(4)
C10 C 0.3194(3) 0.5642(2) 0.5651(4)
H9 H 0.2769 0.5869 0.5549
C11 C 0.3627(3) 0.6481(2) 0.6836(4)
C12 C 0.3700(3) 0.3388(3) 0.3461(4)
C13 C 0.0695(2) 0.5969(2) 0.5345(4)
C14 C 0.0096(3) 0.5717(2) 0.5776(4)
H10 H -0.0139 0.5926 0.6323
C15 C -0.0174(3) 0.5151(2) 0.5420(4)
C16 C 0.0784(3) 0.5128(3) 0.4142(4)
H11 H 0.1020 0.4933 0.3579
C17 C 0.1039(3) 0.5671(2) 0.4514(4)
H12 H 0.1450 0.5849 0.4212
C18 C 0.0983(3) 0.6555(2) 0.5772(4)
O9 O 0.4329(3) 0.7500 0.9157(4)
N1 N 0.3471(8) 0.7782(6) 1.0170(12)
C19 C 0.3801(8) 0.7371(7) 0.9645(13)
C20 C 0.3461(11) 0.6741(8) 0.9678(17)
C21 C 0.3755(11) 0.8406(8) 1.0101(17)
C22 C 0.2836(8) 0.7714(8) 1.0824(13)
O5D O -0.0626(2) 0.31520(18) 0.3585(3)
O6D O -0.1589(2) 0.32767(18) 0.4525(3)
C13D C -0.0695(2) 0.4031(2) 0.4655(4)
C14D C -0.0096(3) 0.4283(2) 0.4224(4)
H10D H 0.0139 0.4074 0.3677
C15D C 0.0174(3) 0.4849(2) 0.4580(4)
C16D C -0.0784(3) 0.4872(3) 0.5858(4)
H11D H -0.1020 0.5067 0.6421
C17D C -0.1039(3) 0.4329(2) 0.5486(4)
H12D H -0.1450 0.4151 0.5788
C18D C -0.0983(3) 0.3445(2) 0.4228(4)
H3F H 0.2806 0.7763 0.4326
N1F N 0.3471(8) 0.7218(6) 1.0170(12)
C19F C 0.3801(8) 0.7629(7) 0.9645(13)
C20F C 0.3461(11) 0.8259(8) 0.9678(17)
C21F C 0.3755(11) 0.6594(8) 1.0101(17)
C22F C 0.2836(8) 0.7286(8) 1.0824(13)
O1F O 0.41258(19) 0.83418(16) 0.7396(3)
O2F O 0.30651(19) 0.82264(16) 0.6673(3)
O3F O 0.4308(2) 1.18315(19) 0.3561(3)
O4F O 0.3203(2) 1.18202(18) 0.2916(3)
C1F C 0.3706(3) 0.9137(2) 0.6311(4)
C2F C 0.4334(3) 0.9470(3) 0.6461(4)
H4F H 0.4696 0.9306 0.6891
C3F C 0.4429(3) 1.0019(3) 0.6005(5)
H5F H 0.4847 1.0247 0.6153
C4F C 0.3924(3) 1.0262(3) 0.5315(4)
C5F C 0.4031(3) 1.0818(3) 0.4770(4)
H6F H 0.4451 1.1048 0.4892
C6F C 0.3544(3) 1.1033(2) 0.4073(4)
C7F C 0.2912(3) 1.0700(3) 0.3899(5)
H7F H 0.2569 1.0854 0.3426
C8F C 0.2790(3) 1.0159(3) 0.4404(5)
H8F H 0.2363 0.9940 0.4273
C9F C 0.3293(3) 0.9917(2) 0.5124(4)
C10F C 0.3194(3) 0.9358(2) 0.5651(4)
H9F H 0.2769 0.9131 0.5549
C11F C 0.3627(3) 0.8519(2) 0.6836(4)
C12F C 0.3700(3) 1.1612(3) 0.3461(4)
Nd1A Nd 0.005331(18) 0.2500 0.24718(3)
Nd1B Nd 0.505331(18) 0.2500 0.25282(3)
Nd1B_2 Nd 0.505331(18) 1.2500 0.25282(3)
Nd1C Nd -0.005331(18) 0.7500 0.75282(3)
Nd2A Nd 0.285348(18) 0.2500 0.15527(3)
Nd2A_2 Nd 0.285348(18) 1.2500 0.15527(3)
Nd2B Nd -0.214652(18) 0.2500 0.34473(3)
O3B O 0.5692(2) 0.81685(19) 0.6439(3)
O3D O 0.5692(2) 0.68315(19) 0.6439(3)
O4A O 0.1797(2) 0.68202(18) 0.7916(3)
O4G O 0.1797(2) 0.81798(18) 0.7916(3)
O5C O 0.5626(2) 0.81520(18) 0.8585(3)
O5E O 0.5626(2) 0.68480(18) 0.8585(3)
O6F O 0.1589(2) 0.82767(18) 0.5475(3)
H22? H 0.0948 0.7359 0.0269
H23? H 0.1475 0.7224 0.1216
H24? H 0.1297 0.7916 0.0896
H25? H -0.0019 0.7918 0.3671
H26? H 0.0176 0.7232 0.4006
H27? H -0.0368 0.7350 0.3074
H28? H 0.1700 0.7342 0.2589
H29? H 0.1376 0.7239 0.3724
H30? H 0.1498 0.7919 0.3295
H31? H 0.3735 0.6464 0.9260
H32? H 0.3450 0.6595 1.0381
H33? H 0.2986 0.6762 0.9412
H34? H 0.4194 0.8402 0.9726
H35? H 0.3416 0.8655 0.9736
H36? H 0.3831 0.8572 1.0782
H37? H 0.2708 0.7288 1.0836
H38? H 0.2887 0.7862 1.1522
H39? H 0.2472 0.7944 1.0477
loop_
_geom_bond_atom_site_label_1
_geom_bond_atom_site_label_2
_geom_bond_site_symmetry_1
_geom_bond_site_symmetry_2
Nd1 O1 1_555 1_555
Nd2 O2 1_555 1_555
O1 C11 1_555 1_555
O2 C11 1_555 1_555
O3 C12 1_555 1_555
O4 C12 1_555 1_555
O5 C18 1_555 1_555
O6 Nd2 1_555 1_555
O7 Nd1 1_555 1_555
H1 O7 1_555 1_555
H2 O7 1_555 1_555
O8 Nd2 1_555 1_555
H3 O8 1_555 1_555
C1 C2 1_555 1_555
C2 H4 1_555 1_555
C3 C2 1_555 1_555
H5 C3 1_555 1_555
C4 C3 1_555 1_555
C5 C4 1_555 1_555
H6 C5 1_555 1_555
C6 C5 1_555 1_555
C7 C6 1_555 1_555
H7 C7 1_555 1_555
C8 C7 1_555 1_555
H8 C8 1_555 1_555
C9 C4 1_555 1_555
C10 C1 1_555 1_555
H9 C10 1_555 1_555
C11 C1 1_555 1_555
C12 C6 1_555 1_555
C13 C14 1_555 1_555
C14 H10 1_555 1_555
C15 C14 1_555 1_555
C16 H11 1_555 1_555
C17 C13 1_555 1_555
H12 C17 1_555 1_555
C18 O6 1_555 1_555
O9 Nd1 1_555 1_555
N1 C21 1_555 1_555
C19 O9 1_555 1_555
C20 C19 1_555 1_555
C21 C19F 1_555 1_555
C22 N1 1_555 1_555
O10 C23 1_555 1_555
N2 C23 1_555 1_555
C23 C24 1_555 1_555
C24 H13 1_555 1_555
H14 C24 1_555 1_555
H15 C24 1_555 1_555
C25 N2 1_555 1_555
H16 C25 1_555 1_555
H17 C25 1_555 1_555
H18 C25 1_555 1_555
C26 N2 1_555 1_555
H19 C26 1_555 1_555
H20 C26 1_555 1_555
H21 C26 1_555 1_555
O11 C27 1_555 1_555
N3 C27 1_555 1_555
C27 C28 1_555 1_555
C29 N3 1_555 1_555
C30 N3 1_555 1_555
O5D C18D 1_555 1_555
O6D C18D 1_555 1_555
C13D C14D 1_555 1_555
C14D H10D 1_555 1_555
C15D C15 1_555 1_555
C16D C15 1_555 1_555
H11D C16D 1_555 1_555
C17D C13D 1_555 1_555
H12D C17D 1_555 1_555
C18D C13D 1_555 1_555
H3F O8 1_555 1_555
N1F N1 1_555 1_555
C19F O9 1_555 1_555
C20F N1 1_555 1_555
C21F C19 1_555 1_555
C22F C22 1_555 1_555
O1F Nd1 1_555 1_555
O2F Nd2 1_555 1_555
O3F C12F 1_555 1_555
O4F C12F 1_555 1_555
C1F C2F 1_555 1_555
C2F H4F 1_555 1_555
C3F C2F 1_555 1_555
H5F C3F 1_555 1_555
C4F C3F 1_555 1_555
C5F C4F 1_555 1_555
H6F C5F 1_555 1_555
C6F C5F 1_555 1_555
C7F C6F 1_555 1_555
H7F C7F 1_555 1_555
C8F C7F 1_555 1_555
H8F C8F 1_555 1_555
C9F C4F 1_555 1_555
C10F C1F 1_555 1_555
H9F C10F 1_555 1_555
C11F O1F 1_555 1_555
C12F C6F 1_555 1_555
Nd1A O5D 1_555 1_555
Nd1B O3 1_555 1_555
Nd1B_2 O3F 1_555 1_555
Nd1C O5 1_555 1_555
Nd2A O4 1_555 1_555
Nd2A_2 O4F 1_555 1_555
Nd2B O6D 1_555 1_555
O3B Nd1 1_555 1_555
O3D Nd1 1_555 1_555
O4A Nd2 1_555 1_555
O4G Nd2 1_555 1_555
O5C Nd1 1_555 1_555
O5E Nd1 1_555 1_555
O6F Nd2 1_555 1_555
C8 C9 1_555 1_555
C9 C10 1_555 1_555
C13 C18 1_555 1_555
C16 C17 1_555 1_555
C16 C15D 1_555 1_555
C20 N1F 1_555 1_555
C20 C21F 1_555 1_555
C21 C20F 1_555 1_555
C14D C15D 1_555 1_555
C16D C17D 1_555 1_555
N1F C21F 1_555 1_555
N1F C22F 1_555 1_555
C19F C20F 1_555 1_555
O2F C11F 1_555 1_555
C1F C11F 1_555 1_555
C8F C9F 1_555 1_555
C9F C10F 1_555 1_555

#END
