
#######################################################################
#
#                 Cambridge Crystallographic Data Centre
#                                CCDC 
#
#######################################################################
#
# If this CIF has been generated from an entry in the Cambridge 
# Structural Database, then it will include bibliographic, chemical, 
# crystal, experimental, refinement or atomic coordinate data resulting 
# from the CCDC's data processing and validation procedures.
#
#######################################################################

data_VUWROW
_chemical_formula_moiety         
'(C48 H46 N4 Nd2 O16)n,2n(C3 H7 N1 O1),2n(H2 O1),2n(C1 H4 O1)'
_chemical_name_systematic        
'catena-[tris(\m-naphthalene-2,6-dicarboxylato)-tetrakis(N,N-dimethylformamide)-di-neodymium N,N-dimethylformamide methanol solvate dihydrate]'
_symmetry_cell_setting           triclinic
_symmetry_space_group_name_H-M   'P -1'
_symmetry_Int_Tables_number      2
_space_group_name_Hall           '-P 1'
loop_
_symmetry_equiv_pos_site_id
_symmetry_equiv_pos_as_xyz
1 x,y,z
2 -x,-y,-z
_cell_length_a                   11.9577(13)
_cell_length_b                   12.2216(13)
_cell_length_c                   13.5034(14)
_cell_angle_alpha                102.535(2)
_cell_angle_beta                 98.857(2)
_cell_angle_gamma                107.293(2)
_cell_volume                     1788.05
_exptl_crystal_colour            'light pink'
_exptl_crystal_description       block
_cell_formula_units_Z            1
loop_
_atom_site_label
_atom_site_type_symbol
_atom_site_fract_x
_atom_site_fract_y
_atom_site_fract_z
O11 O 1.009(4) 0.951(3) 1.265(3)
N3 N 0.855(4) 0.913(4) 1.347(4)
C31 C 0.932(5) 0.884(5) 1.294(4)
H27 H 0.9261 0.8030 1.2776
C32 C 0.745(5) 0.837(5) 1.365(4)
H28 H 0.7287 0.7542 1.3275
H29 H 0.6773 0.8620 1.3404
H30 H 0.7547 0.8453 1.4401
C33 C 0.885(5) 1.034(4) 1.416(4)
H31 H 0.9581 1.0870 1.4044
H32 H 0.8989 1.0313 1.4888
H33 H 0.8182 1.0630 1.4007
O12 O 0.397(3) 0.110(2) 0.446(2)
H34 H 0.4032 0.0772 0.3908
H35 H 0.4464 0.1134 0.4828
Nd1 Nd 0.67572(5) 0.52189(6) 1.04646(4)
O1 O 0.7074(8) 0.7384(8) 1.0916(7)
O2 O 0.5197(7) 0.6332(8) 1.0114(7)
O3 O 0.8396(7) 0.5923(9) 1.2090(7)
O4 O 0.7296(8) 0.4027(9) 1.1641(7)
O5 O 0.6319(13) 0.5460(14) 0.8710(11)
O6 O 0.4314(14) 0.4815(17) 0.8168(12)
O7 O 0.3845(12) 0.5148(14) 0.1444(11)
O8 O 0.5845(13) 0.5651(15) 0.1924(11)
C1 C 0.6030(10) 0.7322(11) 1.0504(10)
C2 C 0.4556(10) 0.9454(10) 0.9726(9)
C3 C 0.4778(11) 0.8385(12) 0.9812(11)
H1 H 0.4202 0.7631 0.9419
C4 C 0.5799(9) 0.8436(11) 1.0445(9)
C5 C 0.6690(11) 0.9549(11) 1.0991(10)
H2 H 0.7420 0.9582 1.1411
C6 C 0.6501(11) 1.0579(12) 1.0917(11)
H3 H 0.7092 1.1326 1.1305
C7 C 0.8098(10) 0.4914(12) 1.2268(9)
C8 C 1.0176(11) 0.5573(11) 1.4925(10)
C9 C 0.9571(10) 0.5700(12) 1.3979(9)
H4 H 0.9795 0.6460 1.3849
C10 C 0.8704(10) 0.4785(11) 1.3274(9)
C11 C 0.8344(13) 0.3639(14) 1.3464(11)
H5 H 0.7726 0.2985 1.2963
C12 C 0.8888(13) 0.3482(13) 1.4362(11)
H6 H 0.8626 0.2728 1.4499
C13 C 0.5364(19) 0.516(2) 0.8022(16)
C14 C 0.4842(18) 0.540(2) 0.2119(15)
C15 C 0.547(2) 0.526(2) 0.6950(18)
C16 C 0.661(2) 0.554(2) 0.6668(18)
H7 H 0.7318 0.5686 0.7194
C17 C 0.672(3) 0.565(3) 0.575(2)
H8 H 0.7511 0.5866 0.5608
C18 C 0.5698(19) 0.546(2) 0.4941(17)
C19 C 0.574(2) 0.551(2) 0.3911(17)
H9 H 0.6506 0.5674 0.3723
C20 C 0.4755(18) 0.537(2) 0.3196(15)
C21 C 0.3605(18) 0.5145(19) 0.3465(15)
H10 H 0.2902 0.5041 0.2953
C22 C 0.351(2) 0.503(2) 0.4438(17)
H11 H 0.2733 0.4840 0.4600
C23 C 0.4525(18) 0.520(2) 0.5204(16)
C24 C 0.4466(18) 0.513(2) 0.6227(15)
H12 H 0.3701 0.4946 0.6410
O9 O 0.7300(10) 0.3627(11) 0.9455(9)
N1 N 0.7462(14) 0.2843(15) 0.7888(12)
C25 C 0.7855(19) 0.3459(18) 0.8862(14)
H13 H 0.8705 0.3809 0.9109
C26 C 0.8113(19) 0.2730(19) 0.7064(16)
H14 H 0.8912 0.3352 0.7293
H15 H 0.7663 0.2818 0.6433
H16 H 0.8204 0.1943 0.6912
C27 C 0.6213(17) 0.1966(18) 0.7626(18)
H17 H 0.5828 0.2135 0.8204
H18 H 0.6244 0.1157 0.7512
H19 H 0.5747 0.2030 0.6991
O10 O 0.8633(9) 0.6199(11) 0.9984(9)
N2 N 1.0096(15) 0.7678(15) 0.9650(13)
C28 C 0.9088(18) 0.7159(16) 0.9993(17)
H20 H 0.8715 0.7697 1.0286
C29 C 1.029(2) 0.6922(18) 0.8776(15)
H21 H 1.0152 0.6126 0.8877
H22 H 1.1117 0.7258 0.8711
H23 H 0.9725 0.6861 0.8139
C30 C 1.109(3) 0.858(3) 1.029(3)
H24 H 1.1460 0.8291 1.0829
H25 H 1.0851 0.9246 1.0615
H26 H 1.1668 0.8848 0.9876
O1A O 0.2926(8) 1.2616(8) 0.9084(7)
O2A O 0.4803(7) 1.3668(8) 0.9886(7)
C1A C 0.3970(10) 1.2678(11) 0.9496(10)
C2A C 0.5444(10) 1.0546(10) 1.0274(9)
C3A C 0.5222(11) 1.1615(12) 1.0188(11)
H1A H 0.5798 1.2369 1.0581
C4A C 0.4201(9) 1.1564(11) 0.9555(9)
C5A C 0.3310(11) 1.0451(11) 0.9009(10)
H2A H 0.2580 1.0418 0.8589
C6A C 0.3499(11) 0.9421(12) 0.9083(11)
H3A H 0.2908 0.8674 0.8695
O3A O 1.1604(7) 0.4077(9) 1.7910(7)
O4A O 1.2704(8) 0.5973(9) 1.8359(7)
C7A C 1.1902(10) 0.5086(12) 1.7732(9)
C8A C 0.9824(11) 0.4427(11) 1.5075(10)
C9A C 1.0429(10) 0.4300(12) 1.6021(9)
H4A H 1.0205 0.3540 1.6151
C10A C 1.1296(10) 0.5215(11) 1.6726(9)
C11A C 1.1656(13) 0.6361(14) 1.6536(11)
H5A H 1.2274 0.7015 1.7037
C12A C 1.1112(13) 0.6518(13) 1.5638(11)
H6A H 1.1374 0.7272 1.5501
O5A O 0.3681(13) 0.4540(14) 0.1290(11)
O6A O 0.5686(14) 0.5185(17) 0.1832(12)
O7A O 0.6155(12) 0.4852(14) 0.8556(11)
O8A O 0.4155(13) 0.4349(15) 0.8076(11)
C13A C 0.4636(19) 0.484(2) 0.1978(16)
C14A C 0.5158(18) 0.460(2) 0.7881(15)
C15A C 0.453(2) 0.474(2) 0.3050(18)
C16A C 0.339(2) 0.446(2) 0.3332(18)
H7A H 0.2682 0.4314 0.2806
C17A C 0.328(3) 0.435(3) 0.425(2)
H8A H 0.2489 0.4134 0.4392
C18A C 0.4302(19) 0.454(2) 0.5059(17)
C19A C 0.426(2) 0.449(2) 0.6089(17)
H9A H 0.3494 0.4326 0.6277
C20A C 0.5245(18) 0.463(2) 0.6804(15)
C21A C 0.6395(18) 0.4855(19) 0.6535(15)
H10A H 0.7098 0.4959 0.7047
C22A C 0.649(2) 0.497(2) 0.5562(17)
H11A H 0.7267 0.5160 0.5400
C23A C 0.5475(18) 0.480(2) 0.4796(16)
C24A C 0.5534(18) 0.487(2) 0.3773(15)
H12A H 0.6299 0.5054 0.3590
Nd1A Nd 0.32428(5) 0.47811(6) -0.04646(4)
O9A O 0.2700(10) 0.6373(11) 0.0545(9)
N1A N 0.2538(14) 0.7157(15) 0.2112(12)
C25A C 0.2145(19) 0.6541(18) 0.1138(14)
H13A H 0.1295 0.6191 0.0891
C26A C 0.1887(19) 0.7270(19) 0.2936(16)
H14A H 0.1088 0.6648 0.2707
H15A H 0.2337 0.7182 0.3567
H16A H 0.1796 0.8057 0.3088
C27A C 0.3787(17) 0.8034(18) 0.2374(18)
H17A H 0.4172 0.7865 0.1796
H18A H 0.3756 0.8843 0.2488
H19A H 0.4253 0.7970 0.3009
O10A O 0.1367(9) 0.3801(11) 0.0016(9)
N2A N -0.0096(15) 0.2322(15) 0.0350(13)
C28A C 0.0912(18) 0.2841(16) 0.0007(17)
H20A H 0.1285 0.2303 -0.0286
C29A C -0.029(2) 0.3078(18) 0.1224(15)
H21A H -0.0152 0.3874 0.1123
H22A H -0.1117 0.2742 0.1289
H23A H 0.0275 0.3139 0.1861
C30A C -0.109(3) 0.142(3) -0.029(3)
H24A H -0.1460 0.1709 -0.0829
H25A H -0.0851 0.0754 -0.0615
H26A H -0.1668 0.1152 0.0124
Nd1_2 Nd 0.67572(5) 0.52189(6) 0.04646(4)
Nd1_3 Nd 0.67572(5) 1.52189(6) 1.04646(4)
Nd1A_2 Nd 0.32428(5) 0.47811(6) 0.95354(4)
Nd1A_3 Nd 0.32428(5) 1.47811(6) 0.95354(4)
Nd1A_4 Nd 1.32428(5) 0.47811(6) 1.95354(4)
O1A_2 O 0.2926(8) 0.2616(8) -0.0916(7)
O2_2 O 0.5197(7) 0.6332(8) 0.0114(7)
O2A_2 O 0.4803(7) 0.3668(8) -0.0114(7)
O2A_3 O 0.4803(7) 0.3668(8) 0.9886(7)
O3A_2 O 0.1604(7) 0.4077(9) -0.2090(7)
O4A_2 O 0.2704(8) 0.5973(9) -0.1641(7)
O6_2 O 0.4314(14) 0.4815(17) -0.1832(12)
O6A_2 O 0.5686(14) 0.5185(17) 1.1832(12)
O8_2 O 0.5845(13) 0.5651(15) 1.1924(11)
O8A_2 O 0.4155(13) 0.4349(15) -0.1924(11)
C34? C 1.032(5) 0.881(3) 0.937(4)
H36? H 0.9704 0.8702 0.8758
H37? H 1.1118 0.9048 0.9219
H38? H 1.0292 0.9423 0.9959
O13? O 0.514(5) 0.796(4) 0.726(4)
H39? H 0.4741 0.8444 0.7215
H40? H 0.4698 0.7431 0.7454
O14? O 0.659(4) 0.835(4) 0.731(4)
H41? H 0.6664 0.8545 0.7908
H42? H 0.6534 0.7693 0.7299
loop_
_geom_bond_atom_site_label_1
_geom_bond_atom_site_label_2
_geom_bond_site_symmetry_1
_geom_bond_site_symmetry_2
Nd1 O1 1_555 1_555
O1 C1 1_555 1_555
O2 Nd1 1_555 1_555
O3 Nd1 1_555 1_555
O4 Nd1 1_555 1_555
O5 Nd1 1_555 1_555
O6 C13 1_555 1_555
O7 C14 1_555 1_555
O8 C14 1_555 1_555
C1 O2 1_555 1_555
C2 C3 1_555 1_555
C3 H1 1_555 1_555
C4 C1 1_555 1_555
C5 C4 1_555 1_555
H2 C5 1_555 1_555
C6 C5 1_555 1_555
H3 C6 1_555 1_555
C7 O3 1_555 1_555
C8 C9 1_555 1_555
C9 H4 1_555 1_555
C10 C7 1_555 1_555
C11 C10 1_555 1_555
H5 C11 1_555 1_555
C12 C11 1_555 1_555
H6 C12 1_555 1_555
C13 O5 1_555 1_555
C14 C20 1_555 1_555
C15 C13 1_555 1_555
C16 C15 1_555 1_555
H7 C16 1_555 1_555
C17 C16 1_555 1_555
H8 C17 1_555 1_555
C18 C17 1_555 1_555
C19 C18 1_555 1_555
H9 C19 1_555 1_555
C20 C19 1_555 1_555
C21 C20 1_555 1_555
H10 C21 1_555 1_555
C22 C21 1_555 1_555
H11 C22 1_555 1_555
C23 C18 1_555 1_555
C24 C15 1_555 1_555
H12 C24 1_555 1_555
O9 Nd1 1_555 1_555
N1 C25 1_555 1_555
C25 O9 1_555 1_555
H13 C25 1_555 1_555
C26 N1 1_555 1_555
H14 C26 1_555 1_555
H15 C26 1_555 1_555
H16 C26 1_555 1_555
C27 N1 1_555 1_555
H17 C27 1_555 1_555
H18 C27 1_555 1_555
H19 C27 1_555 1_555
O10 Nd1 1_555 1_555
N2 C28 1_555 1_555
C28 O10 1_555 1_555
H20 C28 1_555 1_555
C29 N2 1_555 1_555
H21 C29 1_555 1_555
H22 C29 1_555 1_555
H23 C29 1_555 1_555
C30 N2 1_555 1_555
H24 C30 1_555 1_555
H25 C30 1_555 1_555
H26 C30 1_555 1_555
O11 C31 1_555 1_555
N3 C31 1_555 1_555
C31 H27 1_555 1_555
C32 N3 1_555 1_555
H28 C32 1_555 1_555
H29 C32 1_555 1_555
H30 C32 1_555 1_555
C33 N3 1_555 1_555
H31 C33 1_555 1_555
H32 C33 1_555 1_555
H33 C33 1_555 1_555
O12 H34 1_555 1_555
H35 O12 1_555 1_555
O1A C1A 1_555 1_555
O2A C1A 1_555 1_555
C1A C4A 1_555 1_555
C2A C2 1_555 1_555
C3A C2A 1_555 1_555
H1A C3A 1_555 1_555
C4A C3A 1_555 1_555
C5A C4A 1_555 1_555
H2A C5A 1_555 1_555
C6A C2 1_555 1_555
H3A C6A 1_555 1_555
O3A C7A 1_555 1_555
O4A C7A 1_555 1_555
C7A C10A 1_555 1_555
C8A C8 1_555 1_555
C9A C8A 1_555 1_555
H4A C9A 1_555 1_555
C10A C9A 1_555 1_555
C11A C10A 1_555 1_555
H5A C11A 1_555 1_555
C12A C8 1_555 1_555
H6A C12A 1_555 1_555
O5A O7 1_555 1_555
O6A C14 1_555 1_555
O7A Nd1 1_555 1_555
O8A C13 1_555 1_555
C13A O7 1_555 1_555
C14A O6 1_555 1_555
C15A C21 1_555 1_555
C16A C21 1_555 1_555
H7A C21 1_555 1_555
C17A C22 1_555 1_555
H8A C22 1_555 1_555
C18A C23 1_555 1_555
C19A C24 1_555 1_555
H9A C24 1_555 1_555
C20A C14A 1_555 1_555
C21A C15 1_555 1_555
H10A C16 1_555 1_555
C22A C17 1_555 1_555
H11A C17 1_555 1_555
C23A C18 1_555 1_555
C24A C19 1_555 1_555
H12A C19 1_555 1_555
Nd1A O7 1_555 1_555
O9A Nd1A 1_555 1_555
N1A C25A 1_555 1_555
C25A O9A 1_555 1_555
H13A C25A 1_555 1_555
C26A N1A 1_555 1_555
H14A C26A 1_555 1_555
H15A C26A 1_555 1_555
H16A C26A 1_555 1_555
C27A N1A 1_555 1_555
H17A C27A 1_555 1_555
H18A C27A 1_555 1_555
H19A C27A 1_555 1_555
O10A Nd1A 1_555 1_555
N2A C28A 1_555 1_555
C28A O10A 1_555 1_555
H20A C28A 1_555 1_555
C29A N2A 1_555 1_555
H21A C29A 1_555 1_555
H22A C29A 1_555 1_555
H23A C29A 1_555 1_555
C30A N2A 1_555 1_555
H24A C30A 1_555 1_555
H25A C30A 1_555 1_555
H26A C30A 1_555 1_555
Nd1_2 O8 1_555 1_555
Nd1_3 O2A 1_555 1_555
Nd1A_2 O2 1_555 1_555
Nd1A_3 O1A 1_555 1_555
Nd1A_4 O3A 1_555 1_555
O1A_2 Nd1A 1_555 1_555
O2_2 Nd1A 1_555 1_555
O2A_2 Nd1A 1_555 1_555
O2A_3 Nd1 1_555 1_555
O3A_2 Nd1A 1_555 1_555
O4A_2 Nd1A 1_555 1_555
O6_2 Nd1A 1_555 1_555
O6A_2 Nd1 1_555 1_555
O8_2 Nd1 1_555 1_555
O8A_2 Nd1A 1_555 1_555
O4 C7 1_555 1_555
O5 O7A 1_555 1_555
O6 Nd1A_2 1_555 1_555
O8 C13A 1_555 1_555
C3 C4 1_555 1_555
C6 C2A 1_555 1_555
C9 C10 1_555 1_555
C12 C8A 1_555 1_555
C13 O7A 1_555 1_555
C16 C21A 1_555 1_555
H7 C21A 1_555 1_555
H8 C22A 1_555 1_555
H9 C24A 1_555 1_555
H10 C16A 1_555 1_555
C22 C23 1_555 1_555
H11 C17A 1_555 1_555
C23 C24 1_555 1_555
C23 C23A 1_555 1_555
H12 C19A 1_555 1_555
O2A Nd1A_3 1_555 1_555
C5A C6A 1_555 1_555
O4A Nd1A_4 1_555 1_555
C11A C12A 1_555 1_555
O5A C13A 1_555 1_555
O5A Nd1A 1_555 1_555
O6A C13A 1_555 1_555
O6A Nd1_2 1_555 1_555
O7A C14A 1_555 1_555
O8A C14A 1_555 1_555
O8A Nd1A_2 1_555 1_555
C13A C15A 1_555 1_555
C15A C16A 1_555 1_555
C15A C24A 1_555 1_555
C16A H7A 1_555 1_555
C16A C17A 1_555 1_555
C17A H8A 1_555 1_555
C17A C18A 1_555 1_555
C18A C19A 1_555 1_555
C18A C23A 1_555 1_555
C19A H9A 1_555 1_555
C19A C20A 1_555 1_555
C20A C21A 1_555 1_555
C21A H10A 1_555 1_555
C21A C22A 1_555 1_555
C22A H11A 1_555 1_555
C22A C23A 1_555 1_555
C23A C24A 1_555 1_555
C24A H12A 1_555 1_555
Nd1_2 O2_2 1_555 1_555
Nd1_2 O2A_2 1_555 1_555
Nd1A_2 O2A_3 1_555 1_555

#END
