
#######################################################################
#
#                 Cambridge Crystallographic Data Centre
#                                CCDC 
#
#######################################################################
#
# If this CIF has been generated from an entry in the Cambridge 
# Structural Database, then it will include bibliographic, chemical, 
# crystal, experimental, refinement or atomic coordinate data resulting 
# from the CCDC's data processing and validation procedures.
#
#######################################################################

data_DOFTOJ
_chemical_formula_moiety         '(C34 H24 Cl2 O10 P2 Pd1 Zn2)n'
_chemical_name_systematic        
"catena-[(\m-4,4',4'',4'''-(Benzene-1,2-diyldiphosphanetriyl)tetrabenzoato)-diaqua-dichloro-palladium-di-zinc unknown solvate]"
_symmetry_cell_setting           orthorhombic
_symmetry_space_group_name_H-M   'I m m a'
_symmetry_Int_Tables_number      74
_space_group_name_Hall           '-I 2b 2'
loop_
_symmetry_equiv_pos_site_id
_symmetry_equiv_pos_as_xyz
1 x,y,z
2 -x,1/2-y,z
3 x,-y,-z
4 -x,1/2+y,-z
5 1/2+x,1/2+y,1/2+z
6 1/2-x,-y,1/2+z
7 1/2+x,1/2-y,1/2-z
8 1/2-x,y,1/2-z
9 -x,-y,-z
10 x,1/2+y,-z
11 -x,y,z
12 x,1/2-y,z
13 1/2-x,1/2-y,1/2-z
14 1/2+x,y,1/2-z
15 1/2-x,1/2+y,1/2+z
16 1/2+x,-y,1/2+z
_cell_length_a                   23.9532(19)
_cell_length_b                   25.725(2)
_cell_length_c                   14.8141(12)
_cell_angle_alpha                90
_cell_angle_beta                 90
_cell_angle_gamma                90
_cell_volume                     9128.39
_exptl_crystal_colour            colorless
_exptl_crystal_description       Prism
_cell_formula_units_Z            4
loop_
_atom_site_label
_atom_site_type_symbol
_atom_site_fract_x
_atom_site_fract_y
_atom_site_fract_z
_atom_site_U_iso_or_equiv
_atom_site_thermal_displace_type
Pd1 Pd 0.20980(7) 0.2500 -0.34042(15) 0.0802 Uani
Cl1 Cl 0.3305(3) 0.3159(2) -0.0713(4) 0.1193 Uani
P1 P 0.2500 0.30839(10) -0.2500 0.0794 Uani
Zn1 Zn 0.0000 0.53522(4) -0.08079(8) 0.0677 Uani
O1 O 0.0587(2) 0.4824(2) -0.1121(5) 0.1040 Uani
O2 O 0.0581(2) 0.4286(2) 0.0053(5) 0.1053 Uani
O3 O 0.0000 0.5773(3) -0.1898(7) 0.1233 Uani
H1 H -0.0322 0.5822 -0.2064 0.1850 Uiso
C1 C 0.1991(3) 0.3506(2) -0.1939(6) 0.0793 Uani
C2 C 0.1815(3) 0.3947(3) -0.2348(6) 0.0887 Uani
H2 H 0.1970 0.4050 -0.2895 0.1060 Uiso
C3 C 0.1405(3) 0.4241(3) -0.1944(6) 0.0920 Uani
H3 H 0.1275 0.4540 -0.2229 0.1100 Uiso
C4 C 0.1189(3) 0.4101(3) -0.1138(6) 0.0807 Uani
C5 C 0.1372(3) 0.3645(3) -0.0727(6) 0.0877 Uani
H4 H 0.1220 0.3541 -0.0178 0.1050 Uiso
C6 C 0.1772(3) 0.3355(3) -0.1128(6) 0.0910 Uani
H5 H 0.1898 0.3052 -0.0852 0.1090 Uiso
C7 C 0.0745(3) 0.4423(4) -0.0703(8) 0.0917 Uani
C8 C 0.2879(7) 0.2760(3) -0.1602(10) 0.0960 Uiso
C9 C 0.3188(9) 0.3034(5) -0.0986(13) 0.0960 Uiso
H6 H 0.3207 0.3395 -0.1013 0.1440 Uiso
C10 C 0.3469(6) 0.2764(3) -0.0330(10) 0.0960 Uiso
H7 H 0.3660 0.2944 0.0118 0.1440 Uiso
Cl1G Cl 0.1695(3) 0.3159(2) -0.4287(4) 0.1193 Uani
O1G O 0.4413(2) 0.4824(2) -0.3879(5) 0.1040 Uani
O2G O 0.4419(2) 0.4286(2) -0.5053(5) 0.1053 Uani
C1G C 0.3009(3) 0.3506(2) -0.3061(6) 0.0793 Uani
C2G C 0.3185(3) 0.3947(3) -0.2652(6) 0.0887 Uani
H2G H 0.3030 0.4050 -0.2105 0.1060 Uiso
C3G C 0.3595(3) 0.4241(3) -0.3056(6) 0.0920 Uani
H3G H 0.3725 0.4540 -0.2771 0.1100 Uiso
C4G C 0.3811(3) 0.4101(3) -0.3862(6) 0.0807 Uani
C5G C 0.3628(3) 0.3645(3) -0.4273(6) 0.0877 Uani
H4G H 0.3780 0.3541 -0.4822 0.1050 Uiso
C6G C 0.3228(3) 0.3355(3) -0.3872(6) 0.0910 Uani
H5G H 0.3102 0.3052 -0.4148 0.1090 Uiso
C7G C 0.4255(3) 0.4423(4) -0.4297(8) 0.0917 Uani
C8G C 0.2121(7) 0.2760(3) -0.3398(10) 0.0960 Uiso
C9G C 0.1812(9) 0.3034(5) -0.4014(13) 0.0960 Uiso
H6G H 0.1793 0.3395 -0.3987 0.1440 Uiso
C10G C 0.1531(6) 0.2764(3) -0.4670(10) 0.0960 Uiso
H7G H 0.1340 0.2944 -0.5118 0.1440 Uiso
Cl1K Cl 0.3305(3) 0.1841(2) -0.0713(4) 0.1193 Uani
P1K P 0.2500 0.19161(10) -0.2500 0.0794 Uani
O1K O 0.0587(2) 0.0176(2) -0.1121(5) 0.1040 Uani
O2K O 0.0581(2) 0.0714(2) 0.0053(5) 0.1053 Uani
C1K C 0.1991(3) 0.1494(2) -0.1939(6) 0.0793 Uani
C2K C 0.1815(3) 0.1053(3) -0.2348(6) 0.0887 Uani
H2K H 0.1970 0.0950 -0.2895 0.1060 Uiso
C3K C 0.1405(3) 0.0759(3) -0.1944(6) 0.0920 Uani
H3K H 0.1275 0.0460 -0.2229 0.1100 Uiso
C4K C 0.1189(3) 0.0899(3) -0.1138(6) 0.0807 Uani
C5K C 0.1372(3) 0.1355(3) -0.0727(6) 0.0877 Uani
H4K H 0.1220 0.1459 -0.0178 0.1050 Uiso
C6K C 0.1772(3) 0.1645(3) -0.1128(6) 0.0910 Uani
H5K H 0.1898 0.1948 -0.0852 0.1090 Uiso
C7K C 0.0745(3) 0.0577(4) -0.0703(8) 0.0917 Uani
C8K C 0.2879(7) 0.2240(3) -0.1602(10) 0.0960 Uiso
C9K C 0.3188(9) 0.1966(5) -0.0986(13) 0.0960 Uiso
H6K H 0.3207 0.1605 -0.1013 0.1440 Uiso
C10K C 0.3469(6) 0.2236(3) -0.0330(10) 0.0960 Uiso
H7K H 0.3660 0.2056 0.0118 0.1440 Uiso
Cl1L Cl 0.1695(3) 0.1841(2) -0.4287(4) 0.1193 Uani
O1L O 0.4413(2) 0.0176(2) -0.3879(5) 0.1040 Uani
O2L O 0.4419(2) 0.0714(2) -0.5053(5) 0.1053 Uani
C1L C 0.3009(3) 0.1494(2) -0.3061(6) 0.0793 Uani
C2L C 0.3185(3) 0.1053(3) -0.2652(6) 0.0887 Uani
H2L H 0.3030 0.0950 -0.2105 0.1060 Uiso
C3L C 0.3595(3) 0.0759(3) -0.3056(6) 0.0920 Uani
H3L H 0.3725 0.0460 -0.2771 0.1100 Uiso
C4L C 0.3811(3) 0.0899(3) -0.3862(6) 0.0807 Uani
C5L C 0.3628(3) 0.1355(3) -0.4273(6) 0.0877 Uani
H4L H 0.3780 0.1459 -0.4822 0.1050 Uiso
C6L C 0.3228(3) 0.1645(3) -0.3872(6) 0.0910 Uani
H5L H 0.3102 0.1948 -0.4148 0.1090 Uiso
C7L C 0.4255(3) 0.0577(4) -0.4297(8) 0.0917 Uani
C8L C 0.2121(7) 0.2240(3) -0.3398(10) 0.0960 Uiso
C9L C 0.1812(9) 0.1966(5) -0.4014(13) 0.0960 Uiso
H6L H 0.1793 0.1605 -0.3987 0.1440 Uiso
C10L C 0.1531(6) 0.2236(3) -0.4670(10) 0.0960 Uiso
H7L H 0.1340 0.2056 -0.5118 0.1440 Uiso
H1J H 0.0322 0.5822 -0.2064 0.1850 Uiso
Zn1A Zn 0.0000 -0.03522(4) -0.08079(8) 0.0677 Uani
O3A O 0.0000 -0.0773(3) -0.1898(7) 0.1233 Uani
H1A H 0.0322 -0.0822 -0.2064 0.1850 Uiso
H1K H -0.0322 -0.0822 -0.2064 0.1850 Uiso
Pd1G Pd 0.29020(7) 0.2500 -0.15958(15) 0.0802 Uani
Zn1B Zn 0.0000 0.46478(4) 0.08079(8) 0.0677 Uani
Zn1C Zn 0.0000 0.03522(4) 0.08079(8) 0.0677 Uani
Zn1D Zn 0.5000 0.03522(4) -0.58079(8) 0.0677 Uani
Zn1E Zn 0.5000 0.46478(4) -0.58079(8) 0.0677 Uani
Zn1F Zn 0.5000 -0.03522(4) -0.41921(8) 0.0677 Uani
Zn1G Zn 0.5000 0.53522(4) -0.41921(8) 0.0677 Uani
O1A O -0.0587(2) 0.0176(2) -0.1121(5) 0.1040 Uani
O1J O -0.0587(2) 0.4824(2) -0.1121(5) 0.1040 Uani
O2B O 0.0581(2) 0.5714(2) -0.0053(5) 0.1053 Uani
O2C O -0.0581(2) -0.0714(2) -0.0053(5) 0.1053 Uani
O2H O -0.0581(2) 0.5714(2) -0.0053(5) 0.1053 Uani
O2I O 0.0581(2) -0.0714(2) -0.0053(5) 0.1053 Uani
loop_
_atom_site_aniso_label
_atom_site_aniso_U_11
_atom_site_aniso_U_22
_atom_site_aniso_U_33
_atom_site_aniso_U_23
_atom_site_aniso_U_13
_atom_site_aniso_U_12
Pd1 0.0616(10) 0.0499(10) 0.1292(16) 0.000 0.0202(9) 0.000
Cl1 0.139 0.084 0.135 -0.01 -0.024 -0.017
P1 0.0707(17) 0.0426(13) 0.125(2) 0.000 0.0369(16) 0.000
Zn1 0.0461(6) 0.0542(7) 0.1029(10) -0.0109(6) 0.000 0.000
O1 0.066(3) 0.071(4) 0.175(6) -0.017(4) 0.031(3) 0.026(3)
O2 0.080(4) 0.100(4) 0.136(5) -0.024(4) 0.047(4) 0.033(3)
O3 0.123(7) 0.090(6) 0.157(8) 0.039(6) 0.000 0.000
C1 0.058(4) 0.046(4) 0.134(6) -0.014(4) 0.033(4) 0.001(3)
C2 0.078(5) 0.048(4) 0.140(7) 0.003(4) 0.040(5) 0.017(4)
C3 0.071(5) 0.054(4) 0.151(8) -0.002(5) 0.016(5) -0.001(4)
C4 0.065(4) 0.060(4) 0.117(6) -0.015(4) 0.026(4) 0.001(4)
C5 0.079(5) 0.065(5) 0.119(6) 0.001(4) 0.023(4) -0.006(4)
C6 0.080(5) 0.047(4) 0.146(7) -0.012(5) 0.034(5) 0.008(4)
C7 0.053(4) 0.077(6) 0.145(8) -0.060(6) 0.025(5) 0.002(4)
Cl1G 0.139 0.084 0.135 0.01 -0.024 0.017
O1G 0.066 0.071 0.175 0.017 0.031 -0.026
O2G 0.08 0.1 0.136 0.024 0.047 -0.033
C1G 0.058 0.046 0.134 0.014 0.033 -0.001
C2G 0.078 0.048 0.14 -0.003 0.04 -0.017
C3G 0.071 0.054 0.151 0.002 0.016 0.001
C4G 0.065 0.06 0.117 0.015 0.026 -0.001
C5G 0.079 0.065 0.119 -0.001 0.023 0.006
C6G 0.08 0.047 0.146 0.012 0.034 -0.008
C7G 0.053 0.077 0.145 0.06 0.025 -0.002
Cl1K 0.139 0.084 0.135 0.01 -0.024 0.017
P1K 0.0707 0.0426 0.125 0 0.0369 0
O1K 0.066 0.071 0.175 0.017 0.031 -0.026
O2K 0.08 0.1 0.136 0.024 0.047 -0.033
C1K 0.058 0.046 0.134 0.014 0.033 -0.001
C2K 0.078 0.048 0.14 -0.003 0.04 -0.017
C3K 0.071 0.054 0.151 0.002 0.016 0.001
C4K 0.065 0.06 0.117 0.015 0.026 -0.001
C5K 0.079 0.065 0.119 -0.001 0.023 0.006
C6K 0.08 0.047 0.146 0.012 0.034 -0.008
C7K 0.053 0.077 0.145 0.06 0.025 -0.002
Cl1L 0.139 0.084 0.135 -0.01 -0.024 -0.017
O1L 0.066 0.071 0.175 -0.017 0.031 0.026
O2L 0.08 0.1 0.136 -0.024 0.047 0.033
C1L 0.058 0.046 0.134 -0.014 0.033 0.001
C2L 0.078 0.048 0.14 0.003 0.04 0.017
C3L 0.071 0.054 0.151 -0.002 0.016 -0.001
C4L 0.065 0.06 0.117 -0.015 0.026 0.001
C5L 0.079 0.065 0.119 0.001 0.023 -0.006
C6L 0.08 0.047 0.146 -0.012 0.034 0.008
C7L 0.053 0.077 0.145 -0.06 0.025 0.002
Zn1A 0.0461 0.0542 0.1029 0.0109 0 0
O3A 0.123 0.09 0.157 -0.039 0 0
Pd1G 0.0616 0.0499 0.1292 0 0.0202 0
Zn1B 0.0461 0.0542 0.1029 -0.0109 0 0
Zn1C 0.0461 0.0542 0.1029 0.0109 0 0
Zn1D 0.0461 0.0542 0.1029 -0.0109 0 0
Zn1E 0.0461 0.0542 0.1029 0.0109 0 0
Zn1F 0.0461 0.0542 0.1029 -0.0109 0 0
Zn1G 0.0461 0.0542 0.1029 0.0109 0 0
O1A 0.066 0.071 0.175 0.017 -0.031 0.026
O1J 0.066 0.071 0.175 -0.017 -0.031 -0.026
O2B 0.08 0.1 0.136 -0.024 -0.047 -0.033
O2C 0.08 0.1 0.136 0.024 0.047 -0.033
O2H 0.08 0.1 0.136 -0.024 0.047 0.033
O2I 0.08 0.1 0.136 0.024 -0.047 0.033
loop_
_geom_bond_atom_site_label_1
_geom_bond_atom_site_label_2
_geom_bond_site_symmetry_1
_geom_bond_site_symmetry_2
Pd1 C8G 1_555 1_555
Cl1 C8 1_555 1_555
P1 C1 1_555 1_555
Zn1 O1 1_555 1_555
O1 C7 1_555 1_555
O2 C7 1_555 1_555
O3 Zn1 1_555 1_555
H1 O3 1_555 1_555
C1 C2 1_555 1_555
C2 H2 1_555 1_555
C3 C2 1_555 1_555
H3 C3 1_555 1_555
C4 C3 1_555 1_555
C5 C4 1_555 1_555
H4 C5 1_555 1_555
C6 C1 1_555 1_555
H5 C6 1_555 1_555
C7 C4 1_555 1_555
C8 P1 1_555 1_555
C9 Cl1 1_555 1_555
H6 Cl1 1_555 1_555
C10 Cl1 1_555 1_555
H7 Cl1 1_555 1_555
Cl1G C8G 1_555 1_555
O1G C7G 1_555 1_555
O2G C7G 1_555 1_555
C1G P1 1_555 1_555
C2G C1G 1_555 1_555
H2G C2G 1_555 1_555
C3G C2G 1_555 1_555
H3G C3G 1_555 1_555
C4G C3G 1_555 1_555
C5G C4G 1_555 1_555
H4G C5G 1_555 1_555
C6G C1G 1_555 1_555
H5G C6G 1_555 1_555
C7G C4G 1_555 1_555
C8G P1 1_555 1_555
C9G Pd1 1_555 1_555
H6G Cl1G 1_555 1_555
C10G Cl1G 1_555 1_555
H7G Cl1G 1_555 1_555
Cl1K C8K 1_555 1_555
P1K C1K 1_555 1_555
O1K C7K 1_555 1_555
O2K C7K 1_555 1_555
C1K C2K 1_555 1_555
C2K H2K 1_555 1_555
C3K C2K 1_555 1_555
H3K C3K 1_555 1_555
C4K C3K 1_555 1_555
C5K C4K 1_555 1_555
H4K C5K 1_555 1_555
C6K C1K 1_555 1_555
H5K C6K 1_555 1_555
C7K C4K 1_555 1_555
C8K C8 1_555 1_555
C9K Cl1K 1_555 1_555
H6K Cl1K 1_555 1_555
C10K C10 1_555 1_555
H7K Cl1K 1_555 1_555
Cl1L C8L 1_555 1_555
O1L C7L 1_555 1_555
O2L C7L 1_555 1_555
C1L P1K 1_555 1_555
C2L C1L 1_555 1_555
H2L C2L 1_555 1_555
C3L C2L 1_555 1_555
H3L C3L 1_555 1_555
C4L C3L 1_555 1_555
C5L C4L 1_555 1_555
H4L C5L 1_555 1_555
C6L C1L 1_555 1_555
H5L C6L 1_555 1_555
C7L C4L 1_555 1_555
C8L Pd1 1_555 1_555
C9L Pd1 1_555 1_555
H6L Cl1L 1_555 1_555
C10L C10G 1_555 1_555
H7L Cl1L 1_555 1_555
H1J O3 1_555 1_555
Zn1A O1K 1_555 1_555
O3A Zn1A 1_555 1_555
H1A O3A 1_555 1_555
H1K O3A 1_555 1_555
Pd1G C8 1_555 1_555
Zn1B O2 1_555 1_555
Zn1C O2K 1_555 1_555
Zn1D O2L 1_555 1_555
Zn1E O2G 1_555 1_555
Zn1F O1L 1_555 1_555
Zn1G O1G 1_555 1_555
O1A Zn1A 1_555 1_555
O1J Zn1 1_555 1_555
O2B Zn1 1_555 1_555
O2C Zn1A 1_555 1_555
O2H Zn1 1_555 1_555
O2I Zn1A 1_555 1_555
C5 C6 1_555 1_555
C8 C9 1_555 1_555
C9 H6 1_555 1_555
C9 C10 1_555 1_555
C9 Pd1G 1_555 1_555
C10 H7 1_555 1_555
Cl1G C9G 1_555 1_555
C5G C6G 1_555 1_555
C8G C9G 1_555 1_555
C8G C8L 1_555 1_555
C9G H6G 1_555 1_555
C9G C10G 1_555 1_555
C10G H7G 1_555 1_555
Cl1K C10K 1_555 1_555
P1K C8K 1_555 1_555
P1K C8L 1_555 1_555
C5K C6K 1_555 1_555
C8K C9K 1_555 1_555
C8K Pd1G 1_555 1_555
C9K H6K 1_555 1_555
C9K C10K 1_555 1_555
C9K Pd1G 1_555 1_555
C10K H7K 1_555 1_555
Cl1L C9L 1_555 1_555
Cl1L C10L 1_555 1_555
C5L C6L 1_555 1_555
C8L C9L 1_555 1_555
C9L H6L 1_555 1_555
C9L C10L 1_555 1_555
C10L H7L 1_555 1_555

#END
