
#######################################################################
#
#                 Cambridge Crystallographic Data Centre
#                                CCDC 
#
#######################################################################
#
# If this CIF has been generated from an entry in the Cambridge 
# Structural Database, then it will include bibliographic, chemical, 
# crystal, experimental, refinement or atomic coordinate data resulting 
# from the CCDC's data processing and validation procedures.
#
#######################################################################

data_PIHQUU
_chemical_formula_moiety         '(C11 H11 N4 O4 P1 Zn1)n,n(H2 O1),n(C1 H4 O1)'
_chemical_name_systematic        
"catena-[(\m~3~-N,N'-dipyridin-4-ylphosphorodiamidato)-formato-zinc(ii) methanol solvate monohydrate]"
_symmetry_cell_setting           orthorhombic
_symmetry_space_group_name_H-M   'P b c a'
_symmetry_Int_Tables_number      61
_space_group_name_Hall           '-P 2ac 2ab'
loop_
_symmetry_equiv_pos_site_id
_symmetry_equiv_pos_as_xyz
1 x,y,z
2 1/2+x,1/2-y,-z
3 -x,1/2+y,1/2-z
4 1/2-x,-y,1/2+z
5 -x,-y,-z
6 1/2-x,1/2+y,z
7 x,1/2-y,1/2+z
8 1/2+x,y,1/2-z
_cell_length_a                   14.135(2)
_cell_length_b                   15.420(3)
_cell_length_c                   18.524(3)
_cell_angle_alpha                90
_cell_angle_beta                 90
_cell_angle_gamma                90
_cell_volume                     4037.52
_exptl_crystal_colour            colorless
_exptl_crystal_description       prism
_cell_formula_units_Z            8
loop_
_atom_site_label
_atom_site_type_symbol
_atom_site_fract_x
_atom_site_fract_y
_atom_site_fract_z
O5 O 0.5693(6) 0.6523(5) 0.3334(4)
O6 O 0.838(2) 0.750(2) 0.1332(16)
O7 O 0.941(2) 0.840(2) 0.2504(18)
O8 O 0.710(2) 0.7344(19) 0.2356(16)
Zn1 Zn 0.66484(3) 1.03515(3) 0.35667(2)
P1 P 0.84368(7) 0.99551(7) 0.46069(5)
O1 O 0.7849(2) 0.9935(2) 0.39270(15)
O2 O 0.9082(2) 1.07006(19) 0.47406(16)
N1 N 0.9123(2) 0.9077(2) 0.4612(2)
H1 H 0.9704 0.9161 0.4769
N2 N 0.7645(2) 0.9839(3) 0.52737(17)
H2 H 0.7049 0.9797 0.5142
C1 C 0.5341(3) 0.9303(4) 0.4262(3)
H3 H 0.4769 0.8984 0.4302
O3 O 0.5470(3) 0.9707(2) 0.36785(18)
O4 O 0.5871(3) 0.9279(3) 0.4779(2)
C2 C 0.8916(3) 0.8241(3) 0.4409(2)
C3 C 0.8005(4) 0.7981(3) 0.4199(4)
H4 H 0.7493 0.8380 0.4206
C4 C 0.7871(4) 0.7136(3) 0.3984(3)
H5 H 0.7253 0.6965 0.3843
N3 N 0.8569(3) 0.6533(2) 0.3962(2)
C5 C 0.9425(3) 0.6782(3) 0.4196(3)
H6 H 0.9921 0.6366 0.4203
C6 C 0.9621(3) 0.7614(3) 0.4428(3)
H7 H 1.0235 0.7757 0.4599
C7 C 0.7821(3) 0.9802(3) 0.6003(2)
C8 C 0.7069(3) 0.9693(3) 0.6486(2)
H8 H 0.6439 0.9649 0.6311
C9 C 0.7249(3) 0.9649(3) 0.7216(2)
H9 H 0.6729 0.9577 0.7536
N4 N 0.8115(3) 0.9703(2) 0.74969(19)
C10 C 0.8838(3) 0.9808(3) 0.7035(2)
H10 H 0.9461 0.9844 0.7226
C11 C 0.8722(3) 0.9864(4) 0.6304(2)
H11 H 0.9257 0.9946 0.6001
Zn1C Zn 0.83516(3) 0.96485(3) 0.85667(2)
Zn1E Zn 0.83516(3) 0.53515(3) 0.35667(2)
N3E N 0.6431(3) 1.1533(2) 0.3962(2)
N4C N 0.6885(3) 1.0297(2) 0.24969(19)
O9? O 0.743(2) 0.7687(17) 0.1075(16)
O10? O 0.9150(16) 0.7468(16) 0.2331(13)
O11? O 0.535(2) 0.700(2) 0.3695(15)
loop_
_geom_bond_atom_site_label_1
_geom_bond_atom_site_label_2
_geom_bond_site_symmetry_1
_geom_bond_site_symmetry_2
Zn1 O1 1_555 1_555
P1 O1 1_555 1_555
O2 P1 1_555 1_555
N1 P1 1_555 1_555
H1 N1 1_555 1_555
N2 P1 1_555 1_555
H2 N2 1_555 1_555
C1 H3 1_555 1_555
O3 Zn1 1_555 1_555
O4 C1 1_555 1_555
C2 N1 1_555 1_555
C3 C2 1_555 1_555
H4 C3 1_555 1_555
C4 C3 1_555 1_555
H5 C4 1_555 1_555
N3 C4 1_555 1_555
C5 N3 1_555 1_555
H6 C5 1_555 1_555
C6 C2 1_555 1_555
H7 C6 1_555 1_555
C7 N2 1_555 1_555
C8 C7 1_555 1_555
H8 C8 1_555 1_555
C9 C8 1_555 1_555
H9 C9 1_555 1_555
N4 C9 1_555 1_555
C10 N4 1_555 1_555
H10 C10 1_555 1_555
C11 C7 1_555 1_555
H11 C11 1_555 1_555
Zn1C N4 1_555 1_555
Zn1E N3 1_555 1_555
N3E Zn1 1_555 1_555
N4C Zn1 1_555 1_555
C1 O3 1_555 1_555
C5 C6 1_555 1_555
C10 C11 1_555 1_555

#END
