
#######################################################################
#
#                 Cambridge Crystallographic Data Centre
#                                CCDC 
#
#######################################################################
#
# If this CIF has been generated from an entry in the Cambridge 
# Structural Database, then it will include bibliographic, chemical, 
# crystal, experimental, refinement or atomic coordinate data resulting 
# from the CCDC's data processing and validation procedures.
#
#######################################################################

data_ERIWAF
_chemical_name_common            ZJNU-54
_chemical_formula_moiety         '(C20 H13 Cu2 N3 O10)n,5(C3 H7 N1 O1),H2 O1'
_chemical_name_systematic        
"catena-[(\m-5,5'-(5-aminopyrimidine-4,6-diyl)di(benzene-1,3-dicarboxylato))-diaqua-di-copper N,N-dimethylformamide solvate monohydrate]"
_symmetry_cell_setting           hexagonal
_symmetry_space_group_name_H-M   'P 63/m m c'
_symmetry_Int_Tables_number      194
_space_group_name_Hall           '-P 6c 2c'
loop_
_symmetry_equiv_pos_site_id
_symmetry_equiv_pos_as_xyz
1 x,y,z
2 x-y,x,1/2+z
3 -y,x-y,z
4 -x,-y,1/2+z
5 -x+y,-x,z
6 y,-x+y,1/2+z
7 -y,-x,1/2-z
8 x-y,-y,-z
9 x,x-y,1/2-z
10 y,x,-z
11 -x+y,y,1/2-z
12 -x,-x+y,-z
13 -x,-y,-z
14 -x+y,-x,1/2-z
15 y,-x+y,-z
16 x,y,1/2-z
17 x-y,x,-z
18 -y,x-y,1/2-z
19 y,x,1/2+z
20 -x+y,y,z
21 -x,-x+y,1/2+z
22 -y,-x,z
23 x-y,-y,1/2+z
24 x,x-y,z
_cell_length_a                   18.5653(6)
_cell_length_b                   18.5653(6)
_cell_length_c                   23.9636(11)
_cell_angle_alpha                90
_cell_angle_beta                 90
_cell_angle_gamma                120
_cell_volume                     7152.97
_exptl_crystal_colour            blue
_exptl_crystal_description       block
_cell_formula_units_Z            6
loop_
_atom_site_label
_atom_site_type_symbol
_atom_site_fract_x
_atom_site_fract_y
_atom_site_fract_z
_atom_site_U_iso_or_equiv
_atom_site_thermal_displace_type
Cu1 Cu 0.52377(2) 0.47623(2) -0.04531(2) 0.0380 Uani
O1 O 0.48134(17) 0.37099(16) -0.00549(11) 0.0508 Uani
O2 O 0.55958(19) 0.44042(19) -0.1196(2) 0.1027 Uani
H1 H 0.5793 0.4820 -0.1422 0.1230 Uiso
O3 O 0.44018(18) 0.41081(17) 0.07120(11) 0.0502 Uani
N1 N 0.2389(6) 0.0848(5) 0.2007(3) 0.0963 Uani
N2 N 0.4359(8) 0.2577(8) 0.2500 0.0910 Uani
H2 H 0.4603 0.2818 0.2181 0.1090 Uiso
C1 C 0.4500(2) 0.3595(2) 0.04287(15) 0.0448 Uani
C2 C 0.4225(2) 0.2764(2) 0.06923(14) 0.0415 Uani
C3 C 0.4429(4) 0.22147(18) 0.0435(2) 0.0464 Uani
H3 H 0.4701 0.2351 0.0092 0.0550 Uiso
C4 C 0.3814(3) 0.2556(2) 0.11950(14) 0.0474 Uani
H4 H 0.3676 0.2921 0.1365 0.0570 Uiso
C5 C 0.3603(3) 0.18017(17) 0.1452(2) 0.0470 Uani
C6 C 0.3167(4) 0.1584(2) 0.2005(2) 0.0556 Uani
C7 C 0.3576(6) 0.1788(3) 0.2500 0.0667 Uani
C8 C 0.2073(11) 0.0574(11) 0.2500 0.1090 Uani
H5 H 0.1540 0.0111 0.2500 0.1310 Uiso
O1H O 0.48134(17) 0.11035(23) 0.50549(11) 0.0508 Uani
O3H O 0.44018(18) 0.02937(25) 0.42880(11) 0.0502 Uani
N1H N 0.2389(6) 0.1541(8) 0.2993(3) 0.0963 Uani
N2H N 0.4359(8) 0.1782(11) 0.2500 0.0910 Uani
H2H H 0.4603 0.1785 0.2819 0.1090 Uiso
C1H C 0.4500(2) 0.0905(3) 0.45713(15) 0.0448 Uani
C2H C 0.4225(2) 0.1461(3) 0.43077(14) 0.0415 Uani
C3H C 0.4429(4) 0.22143(44) 0.4565(2) 0.0464 Uani
H3H H 0.4701 0.2350 0.4908 0.0550 Uiso
C4H C 0.3814(3) 0.1258(4) 0.38050(14) 0.0474 Uani
H4H H 0.3676 0.0755 0.3635 0.0570 Uiso
C5H C 0.3603(3) 0.18013(34) 0.3548(2) 0.0470 Uani
C6H C 0.3167(4) 0.1583(4) 0.2995(2) 0.0556 Uani
C8H C 0.2073(11) 0.1499(16) 0.2500 0.1090 Uani
H5H H 0.1540 0.1429 0.2500 0.1310 Uiso
O1O O 0.48134(17) 0.37099(16) 0.50549(11) 0.0508 Uani
O3O O 0.44018(18) 0.41081(17) 0.42880(11) 0.0502 Uani
N1O N 0.2389(6) 0.0848(5) 0.2993(3) 0.0963 Uani
H2O H 0.4603 0.2818 0.2819 0.1090 Uiso
C1O C 0.4500(2) 0.3595(2) 0.45713(15) 0.0448 Uani
C2O C 0.4225(2) 0.2764(2) 0.43077(14) 0.0415 Uani
C4O C 0.3814(3) 0.2556(2) 0.38050(14) 0.0474 Uani
H4O H 0.3676 0.2921 0.3635 0.0570 Uiso
O1W O 0.48134(17) 0.11035(23) -0.00549(11) 0.0508 Uani
O3W O 0.44018(18) 0.02937(25) 0.07120(11) 0.0502 Uani
N1W N 0.2389(6) 0.1541(8) 0.2007(3) 0.0963 Uani
H2W H 0.4603 0.1785 0.2181 0.1090 Uiso
C1W C 0.4500(2) 0.0905(3) 0.04287(15) 0.0448 Uani
C2W C 0.4225(2) 0.1461(3) 0.06923(14) 0.0415 Uani
C4W C 0.3814(3) 0.1258(4) 0.11950(14) 0.0474 Uani
H4W H 0.3676 0.0755 0.1365 0.0570 Uiso
H1U H 0.5180 0.4207 -0.1422 0.1230 Uiso
Cu1B Cu 0.52377(2) 0.04754(3) -0.04531(2) 0.0380 Uani
O2B O 0.55958(19) 0.11916(27) -0.1196(2) 0.1027 Uani
H1B H 0.5180 0.0973 -0.1422 0.1230 Uiso
H1W H 0.5793 0.0973 -0.1422 0.1230 Uiso
Cu1C Cu 0.47623(2) 0.52377(2) 0.45469(2) 0.0380 Uani
Cu1E Cu 0.47623(2) -0.04754(3) 0.45469(2) 0.0380 Uani
Cu1F Cu 0.52377(2) 0.47623(2) 0.54531(2) 0.0380 Uani
Cu1H Cu 0.52377(2) 0.04754(3) 0.54531(2) 0.0380 Uani
Cu1I Cu 0.47623(2) 0.52377(2) 0.04531(2) 0.0380 Uani
Cu1K Cu 0.47623(2) -0.04754(3) 0.04531(2) 0.0380 Uani
O1B O 0.62901(16) 0.11035(23) -0.00549(11) 0.0508 Uani
O1U O 0.62901(16) 0.51866(17) -0.00549(11) 0.0508 Uani
O3I O 0.41081(17) 0.44018(18) -0.07120(11) 0.0502 Uani
O3K O 0.55982(18) -0.02937(25) -0.07120(11) 0.0502 Uani
O3L O 0.55982(18) 0.58919(17) -0.07120(11) 0.0502 Uani
O3N O 0.41081(17) -0.02937(25) -0.07120(11) 0.0502 Uani
loop_
_atom_site_aniso_label
_atom_site_aniso_U_11
_atom_site_aniso_U_22
_atom_site_aniso_U_33
_atom_site_aniso_U_23
_atom_site_aniso_U_13
_atom_site_aniso_U_12
Cu1 0.0527(3) 0.0527(3) 0.0313(3) -0.00014(11) 0.00014(11) 0.0434(3)
O1 0.0758(19) 0.0501(16) 0.0439(14) 0.0044(12) 0.0047(14) 0.0446(15)
O2 0.122(3) 0.122(3) 0.064(3) -0.0271(16) 0.0271(16) 0.061(4)
O3 0.0729(19) 0.0538(16) 0.0438(14) 0.0049(13) 0.0041(13) 0.0465(16)
N1 0.083(6) 0.098(7) 0.053(4) 0.002(4) 0.003(4) 0.004(5)
N2 0.098(9) 0.105(10) 0.037(5) 0.000 0.000 0.026(8)
C1 0.057(2) 0.052(2) 0.0410(19) 0.0001(17) -0.0090(17) 0.039(2)
C2 0.051(2) 0.048(2) 0.0361(17) -0.0047(16) -0.0097(16) 0.0328(18)
C3 0.058(3) 0.049(2) 0.035(2) -0.0057(12) -0.011(2) 0.0289(17)
C4 0.066(3) 0.052(2) 0.0410(18) -0.0065(17) -0.0065(18) 0.042(2)
C5 0.054(3) 0.050(2) 0.038(3) -0.0042(12) -0.008(2) 0.0268(17)
C6 0.067(4) 0.060(3) 0.042(3) 0.0010(14) 0.002(3) 0.0335(19)
C7 0.055(6) 0.090(6) 0.044(4) 0.000 0.000 0.028(3)
C8 0.079(10) 0.108(13) 0.063(8) 0.000 0.000 -0.011(9)
O1H 0.0758 0.0367 0.0439 -0.0003 -0.0047 0.0312
O3H 0.0729 0.0337 0.0438 0.0008 -0.0041 0.0264
N1H 0.083 0.173 0.053 -0.001 -0.003 0.079
N2H 0.098 0.151 0.037 0 0 0.072
C1H 0.057 0.031 0.041 0.0091 0.009 0.018
C2H 0.051 0.0334 0.0361 0.005 0.0097 0.0182
C3H 0.058 0.0492 0.035 0.0053 0.011 0.0291
C4H 0.066 0.034 0.041 -1.3054e-18 0.0065 0.024
C5H 0.054 0.0504 0.038 0.0038 0.008 0.0272
C6H 0.067 0.06 0.042 -0.001 -0.002 0.0335
C8H 0.079 0.209 0.063 0 0 0.09
O1O 0.0758 0.0501 0.0439 -0.0044 -0.0047 0.0446
O3O 0.0729 0.0538 0.0438 -0.0049 -0.0041 0.0465
N1O 0.083 0.098 0.053 -0.002 -0.003 0.004
C1O 0.057 0.052 0.041 -0.0001 0.009 0.039
C2O 0.051 0.048 0.0361 0.0047 0.0097 0.0328
C4O 0.066 0.052 0.041 0.0065 0.0065 0.042
O1W 0.0758 0.0367 0.0439 0.0003 0.0047 0.0312
O3W 0.0729 0.0337 0.0438 -0.0008 0.0041 0.0264
N1W 0.083 0.173 0.053 0.001 0.003 0.079
C1W 0.057 0.031 0.041 -0.0091 -0.009 0.018
C2W 0.051 0.0334 0.0361 -0.005 -0.0097 0.0182
C4W 0.066 0.034 0.041 1.3054e-18 -0.0065 0.024
Cu1B 0.0527 0.0186 0.0313 0.00028 0.00014 0.0093
O2B 0.122 0.122 0.064 0.0542 0.0271 0.061
Cu1C 0.0527 0.0527 0.0313 0.00014 -0.00014 0.0434
Cu1E 0.0527 0.0186 0.0313 -0.00028 -0.00014 0.0093
Cu1F 0.0527 0.0527 0.0313 0.00014 -0.00014 0.0434
Cu1H 0.0527 0.0186 0.0313 -0.00028 -0.00014 0.0093
Cu1I 0.0527 0.0527 0.0313 -0.00014 0.00014 0.0434
Cu1K 0.0527 0.0186 0.0313 0.00028 0.00014 0.0093
O1B 0.0501 0.0367 0.0439 0.0003 -0.0044 0.0055
O1U 0.0501 0.0758 0.0439 -0.0047 -0.0044 0.0446
O3I 0.0538 0.0729 0.0438 -0.0041 -0.0049 0.0465
O3K 0.0729 0.0337 0.0438 -0.0008 0.0041 0.0264
O3L 0.0729 0.0538 0.0438 0.0049 0.0041 0.0465
O3N 0.0538 0.0337 0.0438 -0.0008 -0.0049 0.0073
loop_
_geom_bond_atom_site_label_1
_geom_bond_atom_site_label_2
_geom_bond_site_symmetry_1
_geom_bond_site_symmetry_2
Cu1 O1 1_555 1_555
O1 C1 1_555 1_555
O2 Cu1 1_555 1_555
H1 O2 1_555 1_555
O3 C1 1_555 1_555
N1 C6 1_555 1_555
N2 H2 1_555 1_555
C1 C2 1_555 1_555
C2 C3 1_555 1_555
C3 H3 1_555 1_555
C4 C2 1_555 1_555
H4 C4 1_555 1_555
C5 C4 1_555 1_555
C6 C5 1_555 1_555
C7 N2 1_555 1_555
C8 N1 1_555 1_555
H5 C8 1_555 1_555
O1H C1H 1_555 1_555
O3H C1H 1_555 1_555
N1H C6H 1_555 1_555
N2H N2 1_555 1_555
H2H N2H 1_555 1_555
C1H C2H 1_555 1_555
C2H C3H 1_555 1_555
C3H H3H 1_555 1_555
C4H C2H 1_555 1_555
H4H C4H 1_555 1_555
C5H C4H 1_555 1_555
C6H C7 1_555 1_555
C8H C8 1_555 1_555
H5H C8H 1_555 1_555
O1O C1O 1_555 1_555
O3O C1O 1_555 1_555
N1O C8 1_555 1_555
H2O N2 1_555 1_555
C1O C2O 1_555 1_555
C2O C3H 1_555 1_555
C4O C5H 1_555 1_555
H4O C4O 1_555 1_555
O1W C1W 1_555 1_555
O3W C1W 1_555 1_555
N1W N1 1_555 1_555
H2W N2H 1_555 1_555
C1W C2W 1_555 1_555
C2W C3 1_555 1_555
C4W C5 1_555 1_555
H4W C4W 1_555 1_555
H1U O2 1_555 1_555
Cu1B O1W 1_555 1_555
O2B Cu1B 1_555 1_555
H1B O2B 1_555 1_555
H1W O2B 1_555 1_555
Cu1C O3O 1_555 1_555
Cu1E O3H 1_555 1_555
Cu1F O1O 1_555 1_555
Cu1H O1H 1_555 1_555
Cu1I Cu1 1_555 1_555
Cu1K O3W 1_555 1_555
O1B Cu1B 1_555 1_555
O1U Cu1 1_555 1_555
O3I Cu1 1_555 1_555
O3K Cu1B 1_555 1_555
O3L Cu1 1_555 1_555
O3N Cu1B 1_555 1_555
O3 Cu1I 1_555 1_555
C6 C7 1_555 1_555
C6 N1W 1_555 1_555
C7 N2H 1_555 1_555
N1H C8H 1_555 1_555
N1H N1O 1_555 1_555
C5H C6H 1_555 1_555
C6H N1O 1_555 1_555
C8H N1W 1_555 1_555
C2O C4O 1_555 1_555
C2W C4W 1_555 1_555
Cu1B Cu1K 1_555 1_555
Cu1C Cu1F 1_555 1_555
Cu1E Cu1H 1_555 1_555

#END
