
#######################################################################
#
#                 Cambridge Crystallographic Data Centre
#                                CCDC 
#
#######################################################################
#
# If this CIF has been generated from an entry in the Cambridge 
# Structural Database, then it will include bibliographic, chemical, 
# crystal, experimental, refinement or atomic coordinate data resulting 
# from the CCDC's data processing and validation procedures.
#
#######################################################################

data_YOPLOG
_chemical_formula_moiety         '(C38 H24 Cu3 N6 O6 2+)n,2(Cl1 O4 1-)'
_chemical_name_systematic        
"catena-[bis(\m~3~-carbonato)-tris(\m~2~-4,4'-ethyne-1,2-diyldipyridine)-tri-copper diperchlorate]"
_symmetry_cell_setting           hexagonal
_symmetry_space_group_name_H-M   'P 6/m'
_symmetry_Int_Tables_number      175
_space_group_name_Hall           '-P 6'
loop_
_symmetry_equiv_pos_site_id
_symmetry_equiv_pos_as_xyz
1 x,y,z
2 -y,x-y,z
3 -x+y,-x,z
4 -x,-y,z
5 y,-x+y,z
6 x-y,x,z
7 -x,-y,-z
8 y,-x+y,-z
9 x-y,x,-z
10 x,y,-z
11 -y,x-y,-z
12 -x+y,-x,-z
_cell_length_a                   9.2577(3)
_cell_length_b                   9.2577(3)
_cell_length_c                   13.5853(5)
_cell_angle_alpha                90
_cell_angle_beta                 90
_cell_angle_gamma                120
_cell_volume                     1008.34
_exptl_crystal_colour            blue
_exptl_crystal_description       'hexagonal prism'
_cell_formula_units_Z            1
loop_
_atom_site_label
_atom_site_type_symbol
_atom_site_fract_x
_atom_site_fract_y
_atom_site_fract_z
Cl1 Cl 0.001(5) 0.010(3) 0.4882(5)
O2 O -0.005(7) -0.057(4) 0.3934(7)
O3 O 0.170(5) 0.114(4) 0.519(2)
O4 O -0.087(5) -0.126(4) 0.5551(12)
O5 O -0.085(8) 0.104(6) 0.484(3)
Cl1A Cl -0.010(3) -0.009(6) 0.4882(5)
O2A O 0.057(4) 0.052(8) 0.3934(7)
O4A O 0.126(4) 0.039(6) 0.5551(12)
O5A O -0.104(6) -0.189(10) 0.484(3)
Cl1B Cl 0.009(6) -0.001(5) 0.4882(5)
O2B O -0.052(8) 0.005(7) 0.3934(7)
O4B O -0.039(6) 0.087(5) 0.5551(12)
O5B O 0.189(10) 0.085(8) 0.484(3)
Cl1C Cl -0.001(5) -0.010(3) 0.4882(5)
O2C O 0.005(7) 0.057(4) 0.3934(7)
O4C O 0.087(5) 0.126(4) 0.5551(12)
O5C O 0.085(8) -0.104(6) 0.484(3)
Cl1D Cl 0.010(3) 0.009(6) 0.4882(5)
O2D O -0.057(4) -0.052(8) 0.3934(7)
O4D O -0.126(4) -0.039(6) 0.5551(12)
O5D O 0.104(6) 0.189(10) 0.484(3)
Cl1E Cl -0.009(6) 0.001(5) 0.4882(5)
O2E O 0.052(8) -0.005(7) 0.3934(7)
O4E O 0.039(6) -0.087(5) 0.5551(12)
O5E O -0.189(10) -0.085(8) 0.484(3)
Cl1F Cl -0.001(5) -0.010(3) 0.5118(5)
O2F O 0.005(7) 0.057(4) 0.6066(7)
O4F O 0.087(5) 0.126(4) 0.4449(12)
O5F O 0.085(8) -0.104(6) 0.516(3)
Cl1G Cl 0.010(3) 0.009(6) 0.5118(5)
O2G O -0.057(4) -0.052(8) 0.6066(7)
O4G O -0.126(4) -0.039(6) 0.4449(12)
O5G O 0.104(6) 0.189(10) 0.516(3)
Cl1H Cl -0.009(6) 0.001(5) 0.5118(5)
O2H O 0.052(8) -0.005(7) 0.6066(7)
O4H O 0.039(6) -0.087(5) 0.4449(12)
O5H O -0.189(10) -0.085(8) 0.516(3)
Cl1I Cl 0.001(5) 0.010(3) 0.5118(5)
O2I O -0.005(7) -0.057(4) 0.6066(7)
O4I O -0.087(5) -0.126(4) 0.4449(12)
O5I O -0.085(8) 0.104(6) 0.516(3)
Cl1J Cl -0.010(3) -0.009(6) 0.5118(5)
O2J O 0.057(4) 0.052(8) 0.6066(7)
O4J O 0.126(4) 0.039(6) 0.4449(12)
O5J O -0.104(6) -0.189(10) 0.516(3)
Cl1K Cl 0.009(6) -0.001(5) 0.5118(5)
O2K O -0.052(8) 0.005(7) 0.6066(7)
O4K O -0.039(6) 0.087(5) 0.4449(12)
O5K O 0.189(10) 0.085(8) 0.516(3)
Cl2 Cl 0.023(2) 0.0199(19) -0.0084(9)
O6 O 0.179(3) 0.044(7) 0.0257(15)
O7 O -0.108(3) -0.088(4) 0.0564(16)
O8 O -0.007(5) -0.050(3) -0.1048(10)
O9 O 0.033(7) 0.180(3) -0.014(2)
Cl2A Cl -0.0199(19) 0.0031(28) -0.0084(9)
O6A O -0.044(7) 0.135(8) 0.0257(15)
O7A O 0.088(4) -0.020(5) 0.0564(16)
O8A O 0.050(3) 0.043(6) -0.1048(10)
O9A O -0.180(3) -0.147(8) -0.014(2)
Cl2B Cl -0.0031(28) -0.023(2) -0.0084(9)
O6B O -0.135(8) -0.179(3) 0.0257(15)
O7B O 0.020(5) 0.108(3) 0.0564(16)
O8B O -0.043(6) 0.007(5) -0.1048(10)
O9B O 0.147(8) -0.033(7) -0.014(2)
Cl2C Cl -0.023(2) -0.0199(19) -0.0084(9)
O6C O -0.179(3) -0.044(7) 0.0257(15)
O7C O 0.108(3) 0.088(4) 0.0564(16)
O8C O 0.007(5) 0.050(3) -0.1048(10)
O9C O -0.033(7) -0.180(3) -0.014(2)
Cl2D Cl 0.0199(19) -0.0031(28) -0.0084(9)
O6D O 0.044(7) -0.135(8) 0.0257(15)
O7D O -0.088(4) 0.020(5) 0.0564(16)
O8D O -0.050(3) -0.043(6) -0.1048(10)
O9D O 0.180(3) 0.147(8) -0.014(2)
Cl2E Cl 0.0031(28) 0.023(2) -0.0084(9)
O6E O 0.135(8) 0.179(3) 0.0257(15)
O7E O -0.020(5) -0.108(3) 0.0564(16)
O8E O 0.043(6) -0.007(5) -0.1048(10)
O9E O -0.147(8) 0.033(7) -0.014(2)
Cl2F Cl -0.023(2) -0.0199(19) 0.0084(9)
O6F O -0.179(3) -0.044(7) -0.0257(15)
O7F O 0.108(3) 0.088(4) -0.0564(16)
O8F O 0.007(5) 0.050(3) 0.1048(10)
O9F O -0.033(7) -0.180(3) 0.014(2)
Cl2G Cl 0.0199(19) -0.0031(28) 0.0084(9)
O6G O 0.044(7) -0.135(8) -0.0257(15)
O7G O -0.088(4) 0.020(5) -0.0564(16)
O8G O -0.050(3) -0.043(6) 0.1048(10)
O9G O 0.180(3) 0.147(8) 0.014(2)
Cl2H Cl 0.0031(28) 0.023(2) 0.0084(9)
O6H O 0.135(8) 0.179(3) -0.0257(15)
O7H O -0.020(5) -0.108(3) -0.0564(16)
O8H O 0.043(6) -0.007(5) 0.1048(10)
O9H O -0.147(8) 0.033(7) 0.014(2)
Cl2I Cl 0.023(2) 0.0199(19) 0.0084(9)
O6I O 0.179(3) 0.044(7) -0.0257(15)
O7I O -0.108(3) -0.088(4) -0.0564(16)
O8I O -0.007(5) -0.050(3) 0.1048(10)
O9I O 0.033(7) 0.180(3) 0.014(2)
Cl2J Cl -0.0199(19) 0.0031(28) 0.0084(9)
O6J O -0.044(7) 0.135(8) -0.0257(15)
O7J O 0.088(4) -0.020(5) -0.0564(16)
O8J O 0.050(3) 0.043(6) 0.1048(10)
O9J O -0.180(3) -0.147(8) 0.014(2)
Cl2K Cl -0.0031(28) -0.023(2) 0.0084(9)
O6K O -0.135(8) -0.179(3) -0.0257(15)
O7K O 0.020(5) 0.108(3) -0.0564(16)
O8K O -0.043(6) 0.007(5) 0.1048(10)
O9K O 0.147(8) -0.033(7) 0.014(2)
Cu1 Cu 0.5000 0.0000 0.5000
O1 O 0.5140(3) 0.2187(3) 0.5000
N1 N 0.5000 0.0000 0.3525(3)
C1 C 0.6667 0.3333 0.5000
C2 C 0.4104(4) 0.0521(4) 0.3026(2)
H1 H 0.3484 0.0889 0.3374
C3 C 0.4065(5) 0.0532(4) 0.2013(2)
H2 H 0.3422 0.0891 0.1683
C4 C 0.5000 0.0000 0.1495(4)
C5 C 0.5000 0.0000 0.0434(5)
O1A O 0.7813(3) 0.2953(4) 0.5000
O1B O 0.7047(4) 0.4860(3) 0.5000
C2C C 0.5896(4) -0.0521(4) 0.3026(2)
H1C H 0.6516 -0.0889 0.3374
C3C C 0.5935(5) -0.0532(4) 0.2013(2)
H2C H 0.6578 -0.0891 0.1683
N1F N 0.5000 0.0000 -0.3525(3)
C2F C 0.5896(4) -0.0521(4) -0.3026(2)
H1F H 0.6516 -0.0889 -0.3374
C3F C 0.5935(5) -0.0532(4) -0.2013(2)
H2F H 0.6578 -0.0891 -0.1683
C4F C 0.5000 0.0000 -0.1495(4)
C5F C 0.5000 0.0000 -0.0434(5)
C2I C 0.4104(4) 0.0521(4) -0.3026(2)
H1I H 0.3484 0.0889 -0.3374
C3I C 0.4065(5) 0.0532(4) -0.2013(2)
H2I H 0.3422 0.0891 -0.1683
Cu1A Cu 1.0000 0.5000 0.5000
N1A N 1.0000 0.5000 0.3525(3)
C2A C 0.9479(4) 0.3583(6) 0.3026(2)
H1A H 0.9111 0.2595 0.3374
C3A C 0.9468(4) 0.3533(6) 0.2013(2)
H2A H 0.9109 0.2531 0.1683
C4A C 1.0000 0.5000 0.1495(4)
C5A C 1.0000 0.5000 0.0434(5)
C2D C 1.0521(4) 0.6417(6) 0.3026(2)
H1D H 1.0889 0.7405 0.3374
C3D C 1.0532(4) 0.6467(6) 0.2013(2)
H2D H 1.0891 0.7469 0.1683
N1G N 1.0000 0.5000 -0.3525(3)
C2G C 1.0521(4) 0.6417(6) -0.3026(2)
H1G H 1.0889 0.7405 -0.3374
C3G C 1.0532(4) 0.6467(6) -0.2013(2)
H2G H 1.0891 0.7469 -0.1683
C4G C 1.0000 0.5000 -0.1495(4)
C5G C 1.0000 0.5000 -0.0434(5)
C2J C 0.9479(4) 0.3583(6) -0.3026(2)
H1J H 0.9111 0.2595 -0.3374
C3J C 0.9468(4) 0.3533(6) -0.2013(2)
H2J H 0.9109 0.2531 -0.1683
Cu1B Cu 0.5000 0.5000 0.5000
N1B N 0.5000 0.5000 0.3525(3)
C2B C 0.6417(6) 0.5896(4) 0.3026(2)
H1B H 0.7405 0.6516 0.3374
C3B C 0.6467(6) 0.5935(5) 0.2013(2)
H2B H 0.7469 0.6578 0.1683
C4B C 0.5000 0.5000 0.1495(4)
C5B C 0.5000 0.5000 0.0434(5)
C2E C 0.3583(6) 0.4104(4) 0.3026(2)
H1E H 0.2595 0.3484 0.3374
C3E C 0.3533(6) 0.4065(5) 0.2013(2)
H2E H 0.2531 0.3422 0.1683
N1H N 0.5000 0.5000 -0.3525(3)
C2H C 0.3583(6) 0.4104(4) -0.3026(2)
H1H H 0.2595 0.3484 -0.3374
C3H C 0.3533(6) 0.4065(5) -0.2013(2)
H2H H 0.2531 0.3422 -0.1683
C4H C 0.5000 0.5000 -0.1495(4)
C5H C 0.5000 0.5000 -0.0434(5)
C2K C 0.6417(6) 0.5896(4) -0.3026(2)
H1K H 0.7405 0.6516 -0.3374
C3K C 0.6467(6) 0.5935(5) -0.2013(2)
H2K H 0.7469 0.6578 -0.1683
O1C O 0.4860(3) -0.2187(3) 0.5000
C1C C 0.3333 -0.3333 0.5000
O1D O 0.2187(3) -0.2953(4) 0.5000
O1E O 0.2953(4) -0.4860(3) 0.5000
Cu1_2 Cu 0.5000 0.0000 -0.5000
Cu1A_2 Cu 0.0000 -0.5000 0.5000
Cu1A_3 Cu 1.0000 0.5000 -0.5000
Cu1B_2 Cu 0.5000 -0.5000 0.5000
Cu1B_3 Cu 0.5000 0.5000 -0.5000
O1C_2 O 0.4860(3) 0.7813(3) 0.5000
O1D_2 O 1.2187(3) 0.7047(4) 0.5000
O1E_2 O 0.2953(4) 0.5140(3) 0.5000
O1E_3 O 1.2953(4) 0.5140(3) 0.5000
N1F_2 N 0.5000 0.0000 0.6475(3)
N1G_2 N 1.0000 0.5000 0.6475(3)
N1H_2 N 0.5000 0.5000 0.6475(3)
loop_
_geom_bond_atom_site_label_1
_geom_bond_atom_site_label_2
_geom_bond_site_symmetry_1
_geom_bond_site_symmetry_2
Cu1 O1 1_555 1_555
O1 C1 1_555 1_555
N1 Cu1 1_555 1_555
C1 O1A 1_555 1_555
C2 N1 1_555 1_555
H1 C2 1_555 1_555
C3 C2 1_555 1_555
H2 C3 1_555 1_555
C4 C3 1_555 1_555
C5 C4 1_555 1_555
Cl1 O2 1_555 1_555
O2 O2A 1_555 1_555
O3 Cl1 1_555 1_555
O4 Cl1 1_555 1_555
O5 Cl1 1_555 1_555
Cl2 O6 1_555 1_555
O6 O9B 1_555 1_555
O7 Cl2 1_555 1_555
O8 Cl2 1_555 1_555
O9 Cl2 1_555 1_555
O1A Cu1 1_555 1_555
O1B C1 1_555 1_555
C2C N1 1_555 1_555
H1C C2C 1_555 1_555
C3C C4 1_555 1_555
H2C C3C 1_555 1_555
N1F C2F 1_555 1_555
C2F H1F 1_555 1_555
C3F C2F 1_555 1_555
H2F C3F 1_555 1_555
C4F C3F 1_555 1_555
C5F C5 1_555 1_555
C2I N1F 1_555 1_555
H1I C2I 1_555 1_555
C3I C4F 1_555 1_555
H2I C3I 1_555 1_555
Cu1A O1A 1_555 1_555
N1A Cu1A 1_555 1_555
C2A N1A 1_555 1_555
H1A C2A 1_555 1_555
C3A C2A 1_555 1_555
H2A C3A 1_555 1_555
C4A C3A 1_555 1_555
C5A C4A 1_555 1_555
C2D N1A 1_555 1_555
H1D C2D 1_555 1_555
C3D C4A 1_555 1_555
H2D C3D 1_555 1_555
N1G C2G 1_555 1_555
C2G H1G 1_555 1_555
C3G C2G 1_555 1_555
H2G C3G 1_555 1_555
C4G C3G 1_555 1_555
C5G C5A 1_555 1_555
C2J N1G 1_555 1_555
H1J C2J 1_555 1_555
C3J C4G 1_555 1_555
H2J C3J 1_555 1_555
Cu1B O1 1_555 1_555
N1B Cu1B 1_555 1_555
C2B N1B 1_555 1_555
H1B C2B 1_555 1_555
C3B C2B 1_555 1_555
H2B C3B 1_555 1_555
C4B C3B 1_555 1_555
C5B C4B 1_555 1_555
C2E N1B 1_555 1_555
H1E C2E 1_555 1_555
C3E C4B 1_555 1_555
H2E C3E 1_555 1_555
N1H C2H 1_555 1_555
C2H H1H 1_555 1_555
C3H C2H 1_555 1_555
H2H C3H 1_555 1_555
C4H C3H 1_555 1_555
C5H C5B 1_555 1_555
C2K N1H 1_555 1_555
H1K C2K 1_555 1_555
C3K C4H 1_555 1_555
H2K C3K 1_555 1_555
O1C Cu1 1_555 1_555
C1C O1C 1_555 1_555
O1D Cu1 1_555 1_555
O1E C1C 1_555 1_555
Cu1_2 N1F 1_555 1_555
Cu1A_2 O1D 1_555 1_555
Cu1A_3 N1G 1_555 1_555
Cu1B_2 O1C 1_555 1_555
Cu1B_3 N1H 1_555 1_555
O1C_2 Cu1B 1_555 1_555
O1D_2 Cu1A 1_555 1_555
O1E_2 Cu1B 1_555 1_555
O1E_3 Cu1A 1_555 1_555
N1F_2 Cu1 1_555 1_555
N1G_2 Cu1A 1_555 1_555
N1H_2 Cu1B 1_555 1_555
Cl1A O4 1_555 1_555
O2A Cl1A 1_555 1_555
O4A Cl1 1_555 1_555
O5A O2 1_555 1_555
Cl1B O4 1_555 1_555
O2B O2 1_555 1_555
O4B Cl1 1_555 1_555
O5B O2A 1_555 1_555
Cl1C O4 1_555 1_555
O2C O2 1_555 1_555
O4C Cl1 1_555 1_555
O5C O2 1_555 1_555
Cl1D O4 1_555 1_555
O2D O2A 1_555 1_555
O4D Cl1 1_555 1_555
O5D O2A 1_555 1_555
Cl1E O4 1_555 1_555
O2E O2B 1_555 1_555
O4E Cl1 1_555 1_555
O5E O2B 1_555 1_555
Cl1F O4 1_555 1_555
O2F Cl1F 1_555 1_555
O4F Cl1 1_555 1_555
O5F Cl1F 1_555 1_555
Cl1G O4 1_555 1_555
O2G O2F 1_555 1_555
O4G Cl1 1_555 1_555
O5G O2F 1_555 1_555
Cl1H O4 1_555 1_555
O2H O2F 1_555 1_555
O4H Cl1 1_555 1_555
O5H O2G 1_555 1_555
Cl1I O4 1_555 1_555
O2I O2F 1_555 1_555
O4I Cl1 1_555 1_555
O5I O2F 1_555 1_555
Cl1J O4 1_555 1_555
O2J O2G 1_555 1_555
O4J Cl1 1_555 1_555
O5J O2G 1_555 1_555
Cl1K O4 1_555 1_555
O2K O2H 1_555 1_555
O4K Cl1 1_555 1_555
O5K O2H 1_555 1_555
Cl2A O7 1_555 1_555
O6A O9 1_555 1_555
O7A Cl2 1_555 1_555
O8A O8 1_555 1_555
O9A Cl2A 1_555 1_555
Cl2B O7 1_555 1_555
O6B O9A 1_555 1_555
O7B Cl2 1_555 1_555
O8B Cl2 1_555 1_555
O9B Cl2B 1_555 1_555
Cl2C O7 1_555 1_555
O6C O9A 1_555 1_555
O7C Cl2 1_555 1_555
O8C O8 1_555 1_555
O9C O6B 1_555 1_555
Cl2D O7 1_555 1_555
O6D O9B 1_555 1_555
O7D Cl2 1_555 1_555
O8D O8A 1_555 1_555
O9D O6 1_555 1_555
Cl2E O7 1_555 1_555
O6E O9 1_555 1_555
O7E Cl2 1_555 1_555
O8E O8B 1_555 1_555
O9E O6A 1_555 1_555
Cl2F O7 1_555 1_555
O6F O9A 1_555 1_555
O7F Cl2 1_555 1_555
O8F O6A 1_555 1_555
O9F O6B 1_555 1_555
Cl2G O7 1_555 1_555
O6G O8 1_555 1_555
O7G Cl2 1_555 1_555
O8G O6B 1_555 1_555
O9G O6 1_555 1_555
Cl2H O7 1_555 1_555
O6H O9 1_555 1_555
O7H Cl2 1_555 1_555
O8H O6 1_555 1_555
O9H O6A 1_555 1_555
Cl2I O7 1_555 1_555
O6I O8A 1_555 1_555
O7I Cl2 1_555 1_555
O8I O6B 1_555 1_555
O9I O6A 1_555 1_555
Cl2J O7 1_555 1_555
O6J O9 1_555 1_555
O7J Cl2 1_555 1_555
O8J O6 1_555 1_555
O9J O6B 1_555 1_555
Cl2K O7 1_555 1_555
O6K O8 1_555 1_555
O7K Cl2 1_555 1_555
O8K O6A 1_555 1_555
O9K O6 1_555 1_555
O5 O2B 1_555 1_555
O5 O2C 1_555 1_555
O8 Cl2A 1_555 1_555
O8 O8B 1_555 1_555
O1B Cu1A 1_555 1_555
O1B Cu1B 1_555 1_555
C2C C3C 1_555 1_555
C4F C5F 1_555 1_555
C2I C3I 1_555 1_555
C2D C3D 1_555 1_555
C4G C5G 1_555 1_555
C2J C3J 1_555 1_555
C2E C3E 1_555 1_555
C4H C5H 1_555 1_555
C2K C3K 1_555 1_555
C1C O1D 1_555 1_555
O1E Cu1A_2 1_555 1_555
O1E Cu1B_2 1_555 1_555
Cl1A O4A 1_555 1_555
Cl1A O5A 1_555 1_555
Cl1A O4B 1_555 1_555
Cl1A O4C 1_555 1_555
Cl1A O4D 1_555 1_555
Cl1A O4E 1_555 1_555
Cl1A O4F 1_555 1_555
Cl1A O4G 1_555 1_555
Cl1A O4H 1_555 1_555
Cl1A O4I 1_555 1_555
Cl1A O4J 1_555 1_555
Cl1A O4K 1_555 1_555
O2A O2B 1_555 1_555
O4A Cl1B 1_555 1_555
O4A Cl1C 1_555 1_555
O4A Cl1D 1_555 1_555
O4A Cl1E 1_555 1_555
O4A Cl1F 1_555 1_555
O4A Cl1G 1_555 1_555
O4A Cl1H 1_555 1_555
O4A Cl1I 1_555 1_555
O4A Cl1J 1_555 1_555
O4A Cl1K 1_555 1_555
O5A O2D 1_555 1_555
Cl1B O2B 1_555 1_555
Cl1B O4B 1_555 1_555
Cl1B O5B 1_555 1_555
Cl1B O4C 1_555 1_555
Cl1B O4D 1_555 1_555
Cl1B O4E 1_555 1_555
Cl1B O4F 1_555 1_555
Cl1B O4G 1_555 1_555
Cl1B O4H 1_555 1_555
Cl1B O4I 1_555 1_555
Cl1B O4J 1_555 1_555
Cl1B O4K 1_555 1_555
O4B Cl1C 1_555 1_555
O4B Cl1D 1_555 1_555
O4B Cl1E 1_555 1_555
O4B Cl1F 1_555 1_555
O4B Cl1G 1_555 1_555
O4B Cl1H 1_555 1_555
O4B Cl1I 1_555 1_555
O4B Cl1J 1_555 1_555
O4B Cl1K 1_555 1_555
O5B O2E 1_555 1_555
Cl1C O2C 1_555 1_555
Cl1C O4C 1_555 1_555
Cl1C O5C 1_555 1_555
Cl1C O4D 1_555 1_555
Cl1C O4E 1_555 1_555
Cl1C O4F 1_555 1_555
Cl1C O4G 1_555 1_555
Cl1C O4H 1_555 1_555
Cl1C O4I 1_555 1_555
Cl1C O4J 1_555 1_555
Cl1C O4K 1_555 1_555
O2C O2D 1_555 1_555
O2C O5D 1_555 1_555
O2C O2E 1_555 1_555
O4C Cl1D 1_555 1_555
O4C Cl1E 1_555 1_555
O4C Cl1F 1_555 1_555
O4C Cl1G 1_555 1_555
O4C Cl1H 1_555 1_555
O4C Cl1I 1_555 1_555
O4C Cl1J 1_555 1_555
O4C Cl1K 1_555 1_555
O5C O2E 1_555 1_555
Cl1D O2D 1_555 1_555
Cl1D O4D 1_555 1_555
Cl1D O5D 1_555 1_555
Cl1D O4E 1_555 1_555
Cl1D O4F 1_555 1_555
Cl1D O4G 1_555 1_555
Cl1D O4H 1_555 1_555
Cl1D O4I 1_555 1_555
Cl1D O4J 1_555 1_555
Cl1D O4K 1_555 1_555
O2D O2E 1_555 1_555
O2D O5E 1_555 1_555
O4D Cl1E 1_555 1_555
O4D Cl1F 1_555 1_555
O4D Cl1G 1_555 1_555
O4D Cl1H 1_555 1_555
O4D Cl1I 1_555 1_555
O4D Cl1J 1_555 1_555
O4D Cl1K 1_555 1_555
Cl1E O2E 1_555 1_555
Cl1E O4E 1_555 1_555
Cl1E O5E 1_555 1_555
Cl1E O4F 1_555 1_555
Cl1E O4G 1_555 1_555
Cl1E O4H 1_555 1_555
Cl1E O4I 1_555 1_555
Cl1E O4J 1_555 1_555
Cl1E O4K 1_555 1_555
O4E Cl1F 1_555 1_555
O4E Cl1G 1_555 1_555
O4E Cl1H 1_555 1_555
O4E Cl1I 1_555 1_555
O4E Cl1J 1_555 1_555
O4E Cl1K 1_555 1_555
Cl1F O4F 1_555 1_555
Cl1F O4G 1_555 1_555
Cl1F O4H 1_555 1_555
Cl1F O4I 1_555 1_555
Cl1F O4J 1_555 1_555
Cl1F O4K 1_555 1_555
O4F Cl1G 1_555 1_555
O4F Cl1H 1_555 1_555
O4F Cl1I 1_555 1_555
O4F Cl1J 1_555 1_555
O4F Cl1K 1_555 1_555
O5F O2H 1_555 1_555
O5F O2I 1_555 1_555
Cl1G O2G 1_555 1_555
Cl1G O4G 1_555 1_555
Cl1G O5G 1_555 1_555
Cl1G O4H 1_555 1_555
Cl1G O4I 1_555 1_555
Cl1G O4J 1_555 1_555
Cl1G O4K 1_555 1_555
O2G O2H 1_555 1_555
O4G Cl1H 1_555 1_555
O4G Cl1I 1_555 1_555
O4G Cl1J 1_555 1_555
O4G Cl1K 1_555 1_555
O5G O2J 1_555 1_555
Cl1H O2H 1_555 1_555
Cl1H O4H 1_555 1_555
Cl1H O5H 1_555 1_555
Cl1H O4I 1_555 1_555
Cl1H O4J 1_555 1_555
Cl1H O4K 1_555 1_555
O4H Cl1I 1_555 1_555
O4H Cl1J 1_555 1_555
O4H Cl1K 1_555 1_555
O5H O2K 1_555 1_555
Cl1I O2I 1_555 1_555
Cl1I O4I 1_555 1_555
Cl1I O5I 1_555 1_555
Cl1I O4J 1_555 1_555
Cl1I O4K 1_555 1_555
O2I O2J 1_555 1_555
O2I O5J 1_555 1_555
O2I O2K 1_555 1_555
O4I Cl1J 1_555 1_555
O4I Cl1K 1_555 1_555
O5I O2K 1_555 1_555
Cl1J O2J 1_555 1_555
Cl1J O4J 1_555 1_555
Cl1J O5J 1_555 1_555
Cl1J O4K 1_555 1_555
O2J O2K 1_555 1_555
O2J O5K 1_555 1_555
O4J Cl1K 1_555 1_555
Cl1K O2K 1_555 1_555
Cl1K O4K 1_555 1_555
Cl1K O5K 1_555 1_555
Cl2A O6A 1_555 1_555
Cl2A O7A 1_555 1_555
Cl2A O8A 1_555 1_555
Cl2A O7B 1_555 1_555
Cl2A O7C 1_555 1_555
Cl2A O7D 1_555 1_555
Cl2A O7E 1_555 1_555
Cl2A O7F 1_555 1_555
Cl2A O7G 1_555 1_555
Cl2A O7H 1_555 1_555
Cl2A O7I 1_555 1_555
Cl2A O7J 1_555 1_555
Cl2A O7K 1_555 1_555
O7A Cl2B 1_555 1_555
O7A Cl2C 1_555 1_555
O7A Cl2D 1_555 1_555
O7A Cl2E 1_555 1_555
O7A Cl2F 1_555 1_555
O7A Cl2G 1_555 1_555
O7A Cl2H 1_555 1_555
O7A Cl2I 1_555 1_555
O7A Cl2J 1_555 1_555
O7A Cl2K 1_555 1_555
O8A Cl2B 1_555 1_555
O8A O8B 1_555 1_555
O8A O6H 1_555 1_555
O9A O6K 1_555 1_555
Cl2B O6B 1_555 1_555
Cl2B O7B 1_555 1_555
Cl2B O8B 1_555 1_555
Cl2B O7C 1_555 1_555
Cl2B O7D 1_555 1_555
Cl2B O7E 1_555 1_555
Cl2B O7F 1_555 1_555
Cl2B O7G 1_555 1_555
Cl2B O7H 1_555 1_555
Cl2B O7I 1_555 1_555
Cl2B O7J 1_555 1_555
Cl2B O7K 1_555 1_555
O7B Cl2C 1_555 1_555
O7B Cl2D 1_555 1_555
O7B Cl2E 1_555 1_555
O7B Cl2F 1_555 1_555
O7B Cl2G 1_555 1_555
O7B Cl2H 1_555 1_555
O7B Cl2I 1_555 1_555
O7B Cl2J 1_555 1_555
O7B Cl2K 1_555 1_555
O8B O6F 1_555 1_555
O8B O6J 1_555 1_555
O9B O6G 1_555 1_555
O9B O6I 1_555 1_555
Cl2C O6C 1_555 1_555
Cl2C O7C 1_555 1_555
Cl2C O8C 1_555 1_555
Cl2C O9C 1_555 1_555
Cl2C O7D 1_555 1_555
Cl2C O7E 1_555 1_555
Cl2C O8E 1_555 1_555
Cl2C O7F 1_555 1_555
Cl2C O7G 1_555 1_555
Cl2C O7H 1_555 1_555
Cl2C O7I 1_555 1_555
Cl2C O7J 1_555 1_555
Cl2C O7K 1_555 1_555
O6C O9E 1_555 1_555
O6C O8G 1_555 1_555
O6C O9H 1_555 1_555
O6C O9J 1_555 1_555
O6C O8K 1_555 1_555
O7C Cl2D 1_555 1_555
O7C Cl2E 1_555 1_555
O7C Cl2F 1_555 1_555
O7C Cl2G 1_555 1_555
O7C Cl2H 1_555 1_555
O7C Cl2I 1_555 1_555
O7C Cl2J 1_555 1_555
O7C Cl2K 1_555 1_555
O8C Cl2D 1_555 1_555
O8C O8D 1_555 1_555
O8C O8E 1_555 1_555
O8C O6H 1_555 1_555
O8C O6J 1_555 1_555
O9C O6D 1_555 1_555
O9C O6G 1_555 1_555
O9C O6K 1_555 1_555
Cl2D O6D 1_555 1_555
Cl2D O7D 1_555 1_555
Cl2D O8D 1_555 1_555
Cl2D O9D 1_555 1_555
Cl2D O7E 1_555 1_555
Cl2D O7F 1_555 1_555
Cl2D O7G 1_555 1_555
Cl2D O7H 1_555 1_555
Cl2D O7I 1_555 1_555
Cl2D O7J 1_555 1_555
Cl2D O7K 1_555 1_555
O6D O9F 1_555 1_555
O6D O8H 1_555 1_555
O6D O8I 1_555 1_555
O6D O9K 1_555 1_555
O7D Cl2E 1_555 1_555
O7D Cl2F 1_555 1_555
O7D Cl2G 1_555 1_555
O7D Cl2H 1_555 1_555
O7D Cl2I 1_555 1_555
O7D Cl2J 1_555 1_555
O7D Cl2K 1_555 1_555
O8D Cl2E 1_555 1_555
O8D O8E 1_555 1_555
O8D O6F 1_555 1_555
O8D O6K 1_555 1_555
O9D O6E 1_555 1_555
O9D O6H 1_555 1_555
O9D O6I 1_555 1_555
Cl2E O6E 1_555 1_555
Cl2E O7E 1_555 1_555
Cl2E O8E 1_555 1_555
Cl2E O9E 1_555 1_555
Cl2E O7F 1_555 1_555
Cl2E O7G 1_555 1_555
Cl2E O7H 1_555 1_555
Cl2E O7I 1_555 1_555
Cl2E O7J 1_555 1_555
Cl2E O7K 1_555 1_555
O6E O8F 1_555 1_555
O6E O9G 1_555 1_555
O6E O9I 1_555 1_555
O6E O8J 1_555 1_555
O7E Cl2F 1_555 1_555
O7E Cl2G 1_555 1_555
O7E Cl2H 1_555 1_555
O7E Cl2I 1_555 1_555
O7E Cl2J 1_555 1_555
O7E Cl2K 1_555 1_555
O8E O6G 1_555 1_555
O8E O6I 1_555 1_555
O9E O6F 1_555 1_555
O9E O6J 1_555 1_555
Cl2F O6F 1_555 1_555
Cl2F O7F 1_555 1_555
Cl2F O8F 1_555 1_555
Cl2F O9F 1_555 1_555
Cl2F O7G 1_555 1_555
Cl2F O7H 1_555 1_555
Cl2F O8H 1_555 1_555
Cl2F O7I 1_555 1_555
Cl2F O7J 1_555 1_555
Cl2F O7K 1_555 1_555
O6F O9H 1_555 1_555
O6F O9J 1_555 1_555
O7F Cl2G 1_555 1_555
O7F Cl2H 1_555 1_555
O7F Cl2I 1_555 1_555
O7F Cl2J 1_555 1_555
O7F Cl2K 1_555 1_555
O8F Cl2G 1_555 1_555
O8F O8G 1_555 1_555
O8F O8H 1_555 1_555
O8F O8I 1_555 1_555
O9F O6G 1_555 1_555
O9F O6K 1_555 1_555
Cl2G O6G 1_555 1_555
Cl2G O7G 1_555 1_555
Cl2G O8G 1_555 1_555
Cl2G O9G 1_555 1_555
Cl2G O7H 1_555 1_555
Cl2G O7I 1_555 1_555
Cl2G O7J 1_555 1_555
Cl2G O7K 1_555 1_555
O6G O9K 1_555 1_555
O7G Cl2H 1_555 1_555
O7G Cl2I 1_555 1_555
O7G Cl2J 1_555 1_555
O7G Cl2K 1_555 1_555
O8G Cl2H 1_555 1_555
O8G O8H 1_555 1_555
O8G O8J 1_555 1_555
O9G O6H 1_555 1_555
O9G O6I 1_555 1_555
Cl2H O6H 1_555 1_555
Cl2H O7H 1_555 1_555
Cl2H O8H 1_555 1_555
Cl2H O9H 1_555 1_555
Cl2H O7I 1_555 1_555
Cl2H O7J 1_555 1_555
Cl2H O7K 1_555 1_555
O6H O9I 1_555 1_555
O7H Cl2I 1_555 1_555
O7H Cl2J 1_555 1_555
O7H Cl2K 1_555 1_555
O8H O8K 1_555 1_555
O9H O6J 1_555 1_555
Cl2I O6I 1_555 1_555
Cl2I O7I 1_555 1_555
Cl2I O8I 1_555 1_555
Cl2I O9I 1_555 1_555
Cl2I O7J 1_555 1_555
Cl2I O7K 1_555 1_555
Cl2I O8K 1_555 1_555
O6I O9K 1_555 1_555
O7I Cl2J 1_555 1_555
O7I Cl2K 1_555 1_555
O8I Cl2J 1_555 1_555
O8I O8J 1_555 1_555
O8I O8K 1_555 1_555
O9I O6J 1_555 1_555
Cl2J O6J 1_555 1_555
Cl2J O7J 1_555 1_555
Cl2J O8J 1_555 1_555
Cl2J O9J 1_555 1_555
Cl2J O7K 1_555 1_555
O7J Cl2K 1_555 1_555
O8J Cl2K 1_555 1_555
O8J O8K 1_555 1_555
O9J O6K 1_555 1_555
Cl2K O6K 1_555 1_555
Cl2K O7K 1_555 1_555
Cl2K O8K 1_555 1_555
Cl2K O9K 1_555 1_555

#END
