
#######################################################################
#
#                 Cambridge Crystallographic Data Centre
#                                CCDC 
#
#######################################################################
#
# If this CIF has been generated from an entry in the Cambridge 
# Structural Database, then it will include bibliographic, chemical, 
# crystal, experimental, refinement or atomic coordinate data resulting 
# from the CCDC's data processing and validation procedures.
#
#######################################################################

data_CUGXAF
_chemical_formula_moiety         '(C180 H138 Co9 N18 O42)n'
_chemical_name_systematic        
"catena-[nonakis(\m-biphenyl-4,4'-dicarboxylato)-bis(\m-2,4,6-tri(pyridin-4-yl)-1,3,5-triazine)-hexakis(N,N-dimethylformamide)-nona-cobalt unknown solvate]"
_symmetry_cell_setting           rhombohedral
_symmetry_space_group_name_H-M   'R -3 c'
_symmetry_Int_Tables_number      167
_space_group_name_Hall           '-R 3 2"c'
loop_
_symmetry_equiv_pos_site_id
_symmetry_equiv_pos_as_xyz
1 x,y,z
2 -y,x-y,z
3 -x+y,-x,z
4 y,x,1/2-z
5 -x,-x+y,1/2-z
6 x-y,-y,1/2-z
7 2/3+x,1/3+y,1/3+z
8 2/3-y,1/3+x-y,1/3+z
9 2/3-x+y,1/3-x,1/3+z
10 2/3+y,1/3+x,5/6-z
11 2/3-x,1/3-x+y,5/6-z
12 2/3+x-y,1/3-y,5/6-z
13 1/3+x,2/3+y,2/3+z
14 1/3-y,2/3+x-y,2/3+z
15 1/3-x+y,2/3-x,2/3+z
16 1/3+y,2/3+x,1/6-z
17 1/3-x,2/3-x+y,1/6-z
18 1/3+x-y,2/3-y,1/6-z
19 -x,-y,-z
20 y,-x+y,-z
21 x-y,x,-z
22 -y,-x,1/2+z
23 x,x-y,1/2+z
24 -x+y,y,1/2+z
25 1/3-x,2/3-y,2/3-z
26 1/3+y,2/3-x+y,2/3-z
27 1/3+x-y,2/3+x,2/3-z
28 1/3-y,2/3-x,1/6+z
29 1/3+x,2/3+x-y,1/6+z
30 1/3-x+y,2/3+y,1/6+z
31 2/3-x,1/3-y,1/3-z
32 2/3+y,1/3-x+y,1/3-z
33 2/3+x-y,1/3+x,1/3-z
34 2/3-y,1/3-x,5/6+z
35 2/3+x,1/3+x-y,5/6+z
36 2/3-x+y,1/3+y,5/6+z
_cell_length_a                   38.012(7)
_cell_length_b                   38.012(7)
_cell_length_c                   29.603(12)
_cell_angle_alpha                90
_cell_angle_beta                 90
_cell_angle_gamma                120
_cell_volume                     37043.1
_exptl_crystal_colour            pink
_exptl_crystal_description       block
_cell_formula_units_Z            6
loop_
_atom_site_label
_atom_site_type_symbol
_atom_site_fract_x
_atom_site_fract_y
_atom_site_fract_z
Co1 Co 0.3333 0.149889(18) -0.0833
Co2 Co 0.233287(15) 0.107416(16) -0.047448(17)
O1 O 0.24285(8) 0.08148(9) 0.01165(9)
O2 O 0.29570(8) 0.13040(8) -0.02285(8)
O3 O 0.23624(10) 0.15601(10) -0.00576(11)
O4 O 0.49771(9) 0.10114(8) 0.24473(10)
O5 O 0.42890(9) 0.24002(9) -0.06780(11)
O6 O 0.36367(9) 0.20459(9) -0.04901(10)
O7 O 0.46199(11) 0.03555(9) 0.22508(11)
N1 N 0.02244(9) 0.04167(10) -0.05715(13)
N2 N 0.16931(10) 0.07812(10) -0.04889(12)
N3 N 0.26866(14) 0.22520(14) 0.00060(17)
C1 C 0.37467(13) 0.12688(14) 0.07630(14)
H1 H 0.4021 0.1463 0.0769
C2 C 0.03951(12) 0.01835(11) -0.05707(15)
C3 C 0.08476(11) 0.03903(11) -0.05522(15)
C4 C 0.38709(13) 0.08973(13) 0.13882(14)
C5 C 0.34939(12) 0.13033(13) 0.04462(14)
H2 H 0.3602 0.1516 0.0240
C6 C 0.40663(13) 0.26410(12) -0.00755(14)
C7 C 0.44008(13) 0.07859(13) 0.19582(13)
C8 C 0.30805(12) 0.10208(13) 0.04379(13)
C9 C 0.46927(13) 0.07126(13) 0.22390(14)
C10 C 0.10491(12) 0.01742(13) -0.05217(18)
H3 H 0.0904 -0.0108 -0.0520
C11 C 0.28071(12) 0.10461(12) 0.00899(12)
C12 C 0.10843(12) 0.08137(12) -0.05512(17)
H4 H 0.0962 0.0973 -0.0572
C13 C 0.35937(13) 0.09475(13) 0.10722(14)
C14 C 0.44984(15) 0.11722(14) 0.18163(16)
H5 H 0.4740 0.1397 0.1910
C15 C 0.39884(13) 0.23367(12) -0.04432(14)
C16 C 0.14993(13) 0.09921(14) -0.05191(16)
H6 H 0.1653 0.1274 -0.0518
C17 C 0.40398(14) 0.04567(14) 0.18165(15)
H7 H 0.3972 0.0196 0.1908
C18 C 0.29230(14) 0.07086(15) 0.07533(15)
H8 H 0.2646 0.0521 0.0756
C19 C 0.39504(17) 0.27957(16) 0.06739(17)
H9 H 0.3803 0.2711 0.0941
C20 C 0.37770(14) 0.05111(14) 0.15393(16)
H10 H 0.3533 0.0286 0.1452
C21 C 0.31785(14) 0.06757(16) 0.10643(16)
H11 H 0.3068 0.0465 0.1274
C22 C 0.42369(15) 0.12243(14) 0.15358(16)
H12 H 0.4307 0.1485 0.1443
C23 C 0.14663(13) 0.03788(13) -0.04937(16)
H13 H 0.1597 0.0227 -0.0477
C24 C 0.38543(16) 0.25205(15) 0.03147(16)
H14 H 0.3644 0.2254 0.0346
C25 C 0.44590(18) 0.33135(15) 0.02232(16)
H15 H 0.4656 0.3584 0.0182
C26 C 0.42620(17) 0.31900(15) 0.06310(16)
C27 C 0.43675(17) 0.30400(14) -0.01255(17)
H16 H 0.4510 0.3126 -0.0396
C28 C 0.26615(17) 0.19088(18) -0.01250(19)
H17 H 0.2882 0.1926 -0.0280
C29 C 0.3047(2) 0.2655(2) -0.0102(3)
H18 H 0.3290 0.2641 -0.0065
H19 H 0.3053 0.2857 0.0098
H20 H 0.3028 0.2727 -0.0409
C30 C 0.2346(3) 0.2246(2) 0.0234(3)
H21 H 0.2097 0.2040 0.0101
H22 H 0.2365 0.2506 0.0204
H23 H 0.2351 0.2186 0.0548
O5Q O 0.52221(13) 0.42665(9) 0.23447(11)
O6Q O 0.49241(13) 0.46208(9) 0.21568(10)
C6Q C 0.47586(18) 0.40257(12) 0.17422(14)
C15Q C 0.49850(18) 0.43300(12) 0.21099(14)
C19Q C 0.44880(23) 0.38710(16) 0.09928(17)
H9Q H 0.4425 0.3956 0.0726
C24Q C 0.46671(22) 0.41462(15) 0.13520(16)
H14Q H 0.4723 0.4413 0.1321
C25Q C 0.44788(23) 0.33532(15) 0.14435(16)
H15Q H 0.4405 0.3083 0.1485
C26Q C 0.44053(23) 0.34767(15) 0.10357(16)
C27Q C 0.46608(22) 0.36267(14) 0.17922(17)
H16Q H 0.4717 0.3541 0.2063
N1A N -0.04167(10) -0.01923(13) -0.05715(13)
N2A N -0.07812(10) 0.09119(14) -0.04889(12)
C2A C -0.01835(11) 0.02116(16) -0.05707(15)
C3A C -0.03903(11) 0.04573(16) -0.05522(15)
C10A C -0.01742(13) 0.08749(18) -0.05217(18)
H3A H 0.0108 0.1012 -0.0520
C12A C -0.08137(12) 0.02706(17) -0.05512(17)
H4A H -0.0973 -0.0011 -0.0572
C16A C -0.09921(14) 0.05072(19) -0.05191(16)
H6A H -0.1274 0.0379 -0.0518
C23A C -0.03788(13) 0.10875(18) -0.04937(16)
H13A H -0.0227 0.1370 -0.0477
N1B N 0.01923(13) -0.02244(9) -0.05715(13)
N2B N -0.09119(14) -0.16931(10) -0.04889(12)
C2B C -0.02116(16) -0.03951(12) -0.05707(15)
C3B C -0.04573(16) -0.08476(11) -0.05522(15)
C10B C -0.08749(18) -0.10491(12) -0.05217(18)
H3B H -0.1012 -0.0904 -0.0520
C12B C -0.02706(17) -0.10843(12) -0.05512(17)
H4B H 0.0011 -0.0962 -0.0572
C16B C -0.05072(19) -0.14993(13) -0.05191(16)
H6B H -0.0379 -0.1653 -0.0518
C23B C -0.10875(18) -0.14663(13) -0.04937(16)
H13B H -0.1370 -0.1597 -0.0477
Co1A Co -0.149889(18) 0.183411(18) -0.0833
Co2A Co -0.107416(16) 0.125871(22) -0.047448(17)
O1A O -0.08148(9) 0.16137(12) 0.01165(9)
O2A O -0.13040(8) 0.16530(11) -0.02285(8)
O3A O -0.15601(10) 0.08023(14) -0.00576(11)
O4A O -0.10114(8) 0.39657(12) 0.24473(10)
O7A O -0.03555(9) 0.42644(14) 0.22508(11)
N3A N -0.22520(14) 0.04346(20) 0.00060(17)
C1A C -0.12688(14) 0.24779(19) 0.07630(14)
H1A H -0.1463 0.2558 0.0769
C4A C -0.08973(13) 0.29736(18) 0.13882(14)
C5A C -0.13033(13) 0.21906(18) 0.04462(14)
H2A H -0.1516 0.2086 0.0240
C7A C -0.07859(13) 0.36149(18) 0.19582(13)
C8A C -0.10208(13) 0.20597(18) 0.04379(13)
C9A C -0.07126(13) 0.39801(18) 0.22390(14)
C11A C -0.10461(12) 0.17610(17) 0.00899(12)
C13A C -0.09475(13) 0.26462(18) 0.10722(14)
C14A C -0.11722(14) 0.33262(21) 0.18163(16)
H5A H -0.1397 0.3343 0.1910
C17A C -0.04567(14) 0.35831(20) 0.18165(15)
H7A H -0.0196 0.3776 0.1908
C18A C -0.07086(15) 0.22144(21) 0.07533(15)
H8A H -0.0521 0.2125 0.0756
C20A C -0.05111(14) 0.32659(20) 0.15393(16)
H10A H -0.0286 0.3247 0.1452
C21A C -0.06757(16) 0.25028(21) 0.10643(16)
H11A H -0.0465 0.2603 0.1274
C22A C -0.12243(14) 0.30126(21) 0.15358(16)
H12A H -0.1485 0.2822 0.1443
C28A C -0.19088(18) 0.07527(25) -0.01250(19)
H17A H -0.1926 0.0956 -0.0280
C29A C -0.2655(2) 0.0392(3) -0.0102(3)
H18A H -0.2641 0.0649 -0.0065
H19A H -0.2857 0.0196 0.0098
H20A H -0.2727 0.0301 -0.0409
C30A C -0.2246(2) 0.0100(4) 0.0234(3)
H21A H -0.2040 0.0057 0.0101
H22A H -0.2506 -0.0141 0.0204
H23A H -0.2186 0.0165 0.0548
Co2B Co -0.125871(22) -0.233287(15) -0.047448(17)
O1B O -0.16137(12) -0.24285(8) 0.01165(9)
O2B O -0.16530(11) -0.29570(8) -0.02285(8)
O3B O -0.08023(14) -0.23624(10) -0.00576(11)
O4B O -0.39657(12) -0.49771(9) 0.24473(10)
O7B O -0.42644(14) -0.46199(11) 0.22508(11)
N3B N -0.04346(20) -0.26866(14) 0.00060(17)
C1B C -0.24779(19) -0.37467(13) 0.07630(14)
H1B H -0.2558 -0.4021 0.0769
C4B C -0.29736(18) -0.38709(13) 0.13882(14)
C5B C -0.21906(18) -0.34939(12) 0.04462(14)
H2B H -0.2086 -0.3602 0.0240
C7B C -0.36149(18) -0.44008(13) 0.19582(13)
C8B C -0.20597(18) -0.30805(12) 0.04379(13)
C9B C -0.39801(18) -0.46927(13) 0.22390(14)
C11B C -0.17610(17) -0.28071(12) 0.00899(12)
C13B C -0.26462(18) -0.35937(13) 0.10722(14)
C14B C -0.33262(21) -0.44984(15) 0.18163(16)
H5B H -0.3343 -0.4740 0.1910
C17B C -0.35831(20) -0.40398(14) 0.18165(15)
H7B H -0.3776 -0.3972 0.1908
C18B C -0.22144(21) -0.29230(14) 0.07533(15)
H8B H -0.2125 -0.2646 0.0756
C20B C -0.32659(20) -0.37770(14) 0.15393(16)
H10B H -0.3247 -0.3533 0.1452
C21B C -0.25028(21) -0.31785(14) 0.10643(16)
H11B H -0.2603 -0.3068 0.1274
C22B C -0.30126(21) -0.42369(15) 0.15358(16)
H12B H -0.2822 -0.4307 0.1443
C28B C -0.07527(25) -0.26615(17) -0.01250(19)
H17B H -0.0956 -0.2882 -0.0280
C29B C -0.0392(3) -0.3047(2) -0.0102(3)
H18B H -0.0649 -0.3290 -0.0065
H19B H -0.0196 -0.3053 0.0098
H20B H -0.0301 -0.3028 -0.0409
C30B C -0.0100(4) -0.2346(3) 0.0234(3)
H21B H -0.0057 -0.2097 0.0101
H22B H 0.0141 -0.2365 0.0204
H23B H -0.0165 -0.2351 0.0548
Co2J Co 0.433380(15) 0.207462(22) -0.119219(17)
O1J O 0.42382(8) 0.17196(12) -0.17832(9)
O2J O 0.37097(8) 0.16803(11) -0.14382(8)
O3J O 0.43043(10) 0.25310(14) -0.16091(11)
O4J O 0.16896(9) -0.06324(12) -0.41140(10)
O7J O 0.20468(11) -0.09311(14) -0.39175(11)
N3J N 0.39801(14) 0.28987(20) -0.16727(17)
C1J C 0.29200(13) 0.08554(19) -0.24297(14)
H1J H 0.2646 0.0775 -0.2436
C4J C 0.27958(13) 0.03597(18) -0.30549(14)
C5J C 0.31728(12) 0.11427(18) -0.21129(14)
H2J H 0.3065 0.1247 -0.1907
C7J C 0.22659(13) -0.02816(18) -0.36249(13)
C8J C 0.35862(12) 0.12736(18) -0.21046(13)
C9J C 0.19740(13) -0.06468(18) -0.39057(14)
C11J C 0.38596(12) 0.15723(17) -0.17566(12)
C13J C 0.30730(13) 0.06871(18) -0.27389(14)
C14J C 0.21683(15) 0.00071(21) -0.34830(16)
H5J H 0.1927 -0.0010 -0.3577
C17J C 0.26269(14) -0.02498(20) -0.34832(15)
H7J H 0.2695 -0.0443 -0.3575
C18J C 0.37437(14) 0.11189(21) -0.24200(15)
H8J H 0.4021 0.1208 -0.2423
C20J C 0.28897(14) 0.00674(20) -0.32060(16)
H10J H 0.3134 0.0086 -0.3119
C21J C 0.34882(14) 0.08305(21) -0.27310(16)
H11J H 0.3599 0.0730 -0.2941
C22J C 0.24298(15) 0.03207(21) -0.32025(16)
H12J H 0.2360 0.0511 -0.3110
C28J C 0.40052(17) 0.25806(25) -0.15417(19)
H17J H 0.3785 0.2377 -0.1387
C29J C 0.3620(2) 0.2941(3) -0.1565(3)
H18J H 0.3377 0.2684 -0.1602
H19J H 0.3614 0.3137 -0.1765
H20J H 0.3639 0.3032 -0.1258
C30J C 0.4321(3) 0.3233(4) -0.1901(3)
H21J H 0.4570 0.3276 -0.1768
H22J H 0.4302 0.3474 -0.1871
H23J H 0.4316 0.3168 -0.2215
Co2O Co 0.440749(16) -0.100046(15) 0.214115(17)
O1O O 0.41481(9) -0.09048(8) 0.15502(9)
O2O O 0.46373(8) -0.03763(8) 0.18952(8)
O3O O 0.48934(10) -0.09709(10) 0.17243(11)
O4O O 0.43447(8) 0.16438(9) -0.07806(10)
O7O O 0.36888(9) 0.12866(11) -0.05841(11)
N3O N 0.55853(14) -0.06467(14) 0.16607(17)
C1O C 0.46021(14) 0.04134(13) 0.09037(14)
H1O H 0.4796 0.0688 0.0898
C4O C 0.42306(13) 0.05376(13) 0.02785(14)
C5O C 0.46366(13) 0.01606(12) 0.12205(14)
H2O H 0.4849 0.0269 0.1427
C7O C 0.41192(13) 0.10675(13) -0.02915(13)
C8O C 0.43541(13) -0.02528(12) 0.12288(13)
C9O C 0.40459(13) 0.13594(13) -0.05723(14)
C11O C 0.43794(12) -0.05262(12) 0.15768(12)
C13O C 0.42808(13) 0.02604(13) 0.05945(14)
C14O C 0.45055(14) 0.11651(15) -0.01496(16)
H5O H 0.4730 0.1407 -0.0243
C17O C 0.37900(14) 0.07065(14) -0.01498(15)
H7O H 0.3529 0.0639 -0.0241
C18O C 0.40419(15) -0.04103(14) 0.09134(15)
H8O H 0.3854 -0.0687 0.0911
C20O C 0.38444(14) 0.04437(14) 0.01274(16)
H10O H 0.3619 0.0200 0.0215
C21O C 0.40090(16) -0.01548(14) 0.06024(16)
H11O H 0.3798 -0.0265 0.0393
C22O C 0.45576(14) 0.09036(15) 0.01309(16)
H12O H 0.4818 0.0974 0.0224
C28O C 0.52421(18) -0.06718(17) 0.17917(19)
H17O H 0.5259 -0.0451 0.1947
C29O C 0.5988(2) -0.0286(2) 0.1769(3)
H18O H 0.5974 -0.0043 0.1732
H19O H 0.6190 -0.0280 0.1569
H20O H 0.6060 -0.0305 0.2076
C30O C 0.5579(2) -0.0987(3) 0.1433(3)
H21O H 0.5373 -0.1236 0.1566
H22O H 0.5839 -0.0968 0.1463
H23O H 0.5519 -0.0982 0.1119
Co2M Co 0.225917(16) -0.207462(22) -0.380781(17)
O1M O 0.25185(9) -0.17196(12) -0.32168(9)
O2M O 0.20293(8) -0.16803(11) -0.35618(8)
O3M O 0.17732(10) -0.25310(14) -0.33909(11)
O4M O 0.23219(8) 0.06324(12) -0.08860(10)
O7M O 0.29778(9) 0.09311(14) -0.10825(11)
N3M N 0.10813(14) -0.28987(20) -0.33273(17)
C1M C 0.20645(14) -0.08554(19) -0.25703(14)
H1M H 0.1870 -0.0775 -0.2564
C4M C 0.24360(13) -0.03597(18) -0.19451(14)
C5M C 0.20300(13) -0.11427(18) -0.28871(14)
H2M H 0.1817 -0.1247 -0.3093
C7M C 0.25474(13) 0.02816(18) -0.13751(13)
C8M C 0.23125(13) -0.12736(18) -0.28954(13)
C9M C 0.26207(13) 0.06468(18) -0.10943(14)
C11M C 0.22872(12) -0.15723(17) -0.32434(12)
C13M C 0.23858(13) -0.06871(18) -0.22611(14)
C14M C 0.21611(14) -0.00071(21) -0.15170(16)
H5M H 0.1936 0.0010 -0.1423
C17M C 0.28766(14) 0.02498(20) -0.15168(15)
H7M H 0.3137 0.0443 -0.1425
C18M C 0.26247(15) -0.11189(21) -0.25800(15)
H8M H 0.2812 -0.1208 -0.2577
C20M C 0.28222(14) -0.00674(20) -0.17940(16)
H10M H 0.3047 -0.0086 -0.1881
C21M C 0.26576(16) -0.08305(21) -0.22690(16)
H11M H 0.2868 -0.0730 -0.2059
C22M C 0.21090(14) -0.03207(21) -0.17975(16)
H12M H 0.1848 -0.0511 -0.1890
C28M C 0.14245(18) -0.25806(25) -0.34583(19)
H17M H 0.1407 -0.2377 -0.3613
C29M C 0.0678(2) -0.2941(3) -0.3435(3)
H18M H 0.0692 -0.2684 -0.3398
H19M H 0.0476 -0.3137 -0.3235
H20M H 0.0606 -0.3032 -0.3742
C30M C 0.1087(2) -0.3233(4) -0.3099(3)
H21M H 0.1293 -0.3276 -0.3232
H22M H 0.0827 -0.3474 -0.3129
H23M H 0.1147 -0.3168 -0.2785
N1J N 0.64423(9) 0.35256(13) -0.10952(13)
N2J N 0.49736(10) 0.24214(14) -0.11778(12)
C2J C 0.62716(12) 0.31217(16) -0.10960(15)
C3J C 0.58191(11) 0.28760(16) -0.11145(15)
C10J C 0.56176(12) 0.24584(18) -0.11450(18)
H3J H 0.5763 0.2321 -0.1147
C12J C 0.55824(12) 0.30627(17) -0.11155(17)
H4J H 0.5705 0.3344 -0.1095
C16J C 0.51674(13) 0.28261(19) -0.11476(16)
H6J H 0.5014 0.2954 -0.1149
C23J C 0.52004(13) 0.22458(18) -0.11730(16)
H13J H 0.5070 0.1963 -0.1190
N1I N 0.70834(10) 0.35577(9) -0.10952(13)
N2I N 0.74479(10) 0.50264(10) -0.11778(12)
C2I C 0.68502(11) 0.37284(12) -0.10960(15)
C3I C 0.70570(11) 0.41809(11) -0.11145(15)
C10I C 0.68409(13) 0.43824(12) -0.11450(18)
H3I H 0.6559 0.4237 -0.1147
C12I C 0.74804(12) 0.44176(12) -0.11155(17)
H4I H 0.7640 0.4295 -0.1095
C16I C 0.76588(14) 0.48326(13) -0.11476(16)
H6I H 0.7941 0.4986 -0.1149
C23I C 0.70455(13) 0.47996(13) -0.11730(16)
H13I H 0.6894 0.4930 -0.1190
N1K N 0.64744(13) 0.29166(10) -0.10952(13)
N2K N 0.75786(14) 0.25521(10) -0.11778(12)
C2K C 0.68783(16) 0.31498(11) -0.10960(15)
C3K C 0.71240(16) 0.29430(11) -0.11145(15)
C10K C 0.75416(18) 0.31591(13) -0.11450(18)
H3K H 0.7679 0.3441 -0.1147
C12K C 0.69373(17) 0.25196(12) -0.11155(17)
H4K H 0.6656 0.2360 -0.1095
C16K C 0.71739(19) 0.23412(14) -0.11476(16)
H6K H 0.7046 0.2059 -0.1149
C23K C 0.77542(18) 0.29545(13) -0.11730(16)
H13K H 0.8037 0.3106 -0.1190
O5J O 0.23777(9) 0.14445(13) -0.09887(11)
O6J O 0.30300(9) 0.17425(13) -0.11766(10)
C6J C 0.26004(13) 0.19080(18) -0.15912(14)
C15J C 0.26783(13) 0.16816(18) -0.12235(14)
C19J C 0.27163(17) 0.21786(23) -0.23406(17)
H9J H 0.2864 0.2241 -0.2608
C24J C 0.28124(16) 0.19995(22) -0.19814(16)
H14J H 0.3023 0.1943 -0.2013
C25J C 0.22077(18) 0.21878(23) -0.18899(16)
H15J H 0.2011 0.2261 -0.1849
C26J C 0.24047(17) 0.22613(23) -0.22977(16)
C27J C 0.22992(17) 0.20058(22) -0.15412(17)
H16J H 0.2157 0.1949 -0.1271
O5N O 0.14445(13) 0.23777(9) -0.40113(11)
O6N O 0.17425(13) 0.30300(9) -0.38234(10)
C6N C 0.19080(18) 0.26004(13) -0.34088(14)
C15N C 0.16816(18) 0.26783(13) -0.37765(14)
C19N C 0.21786(23) 0.27163(17) -0.26594(17)
H9N H 0.2241 0.2864 -0.2392
C24N C 0.19995(22) 0.28124(16) -0.30186(16)
H14N H 0.1943 0.3023 -0.2987
C25N C 0.21878(23) 0.22077(18) -0.31101(16)
H15N H 0.2261 0.2011 -0.3151
C26N C 0.22613(23) 0.24047(17) -0.27023(16)
C27N C 0.20058(22) 0.22992(17) -0.34588(17)
H16N H 0.1949 0.2157 -0.3729
O5A O -0.24002(9) 0.18888(13) -0.06780(11)
O6A O -0.20459(9) 0.15908(13) -0.04901(10)
C6A C -0.26410(12) 0.14253(18) -0.00755(14)
C15A C -0.23367(12) 0.16517(18) -0.04432(14)
C19A C -0.27957(16) 0.11547(23) 0.06739(17)
H9A H -0.2711 0.1092 0.0941
C24A C -0.25205(15) 0.13338(22) 0.03147(16)
H14A H -0.2254 0.1390 0.0346
C25A C -0.33135(15) 0.11455(23) 0.02232(16)
H15A H -0.3584 0.1072 0.0182
C26A C -0.31900(15) 0.10720(23) 0.06310(16)
C27A C -0.30400(14) 0.13275(22) -0.01255(17)
H16A H -0.3126 0.1384 -0.0396
O5O O -0.42665(9) 0.09557(9) 0.23447(11)
O6O O -0.46208(9) 0.03034(9) 0.21568(10)
C6O C -0.40257(12) 0.07330(13) 0.17422(14)
C15O C -0.43300(12) 0.06551(13) 0.21099(14)
C19O C -0.38710(16) 0.06171(17) 0.09928(17)
H9O H -0.3956 0.0470 0.0726
C24O C -0.41462(15) 0.05210(16) 0.13520(16)
H14O H -0.4413 0.0311 0.1321
C25O C -0.33532(15) 0.11257(18) 0.14435(16)
H15O H -0.3083 0.1323 0.1485
C26O C -0.34767(15) 0.09287(17) 0.10357(16)
C27O C -0.36267(14) 0.10342(17) 0.17922(17)
H16O H -0.3541 0.1177 0.2063
Co1H Co 0.483256(18) 0.0000 0.2500
Co1B Co -0.183411(18) -0.3333 -0.0833
Co1C Co 0.149889(18) 0.3333 -0.4167
Co1E Co 0.183411(18) -0.149889(18) -0.4167
Co1F Co -0.0000 0.483222(18) 0.2500
Co1G Co -0.483222(18) -0.483256(18) 0.2500
Co1G_2 Co 0.516778(18) 0.516744(18) 0.2500
Co1H_2 Co -0.516744(18) 0.0000 0.2500
Co2C Co 0.107416(16) 0.233287(15) -0.452552(17)
Co2E Co 0.125871(22) -0.107416(16) -0.452552(17)
Co2F Co -0.100046(15) 0.440749(16) 0.285885(17)
Co2G Co -0.440749(16) -0.540796(22) 0.285885(17)
Co2G_2 Co 0.559251(16) 0.459204(22) 0.285885(17)
Co2H Co -0.459204(22) 0.100046(15) 0.285885(17)
Co2H_2 Co 0.540796(22) 0.100046(15) 0.285885(17)
Co2I Co 0.774083(16) 0.566620(15) -0.119219(17)
Co2K Co -0.207462(22) 0.225917(16) -0.119219(17)
Co2K_2 Co 0.792538(22) 0.225917(16) -0.119219(17)
O2H O 0.50137(11) 0.03763(8) 0.31048(8)
O2K O -0.16803(11) 0.20293(8) -0.14382(8)
O4E O 0.39657(12) -0.10114(8) 0.25527(10)
O4H O 0.27010(12) -0.16438(9) -0.42194(10)
O4L O -0.16896(9) -0.23219(8) -0.08860(10)
O4N O -0.06324(12) 0.16896(9) -0.08860(10)
O5E O 0.18888(13) -0.24002(9) -0.43220(11)
O5H O 0.47779(13) -0.09557(9) 0.26553(11)
O5I O -0.09331(9) -0.23777(9) -0.09887(11)
O5K O -0.14445(13) 0.09331(9) -0.09887(11)
O6H O 0.50759(13) -0.03034(9) 0.28432(10)
O6K O -0.17425(13) 0.12874(9) -0.11766(10)
O6O_2 O 0.53792(9) 0.03034(9) 0.21568(10)
O7E O 0.42644(14) -0.03555(9) 0.27492(11)
O7N O -0.09311(14) 0.20468(11) -0.10825(11)
O7P O -0.12866(11) 0.24023(14) -0.05841(11)
N2M N 0.25521(10) -0.24214(14) -0.38222(12)
N2O N 0.41145(10) -0.16402(10) 0.21556(12)
loop_
_geom_bond_atom_site_label_1
_geom_bond_atom_site_label_2
_geom_bond_site_symmetry_1
_geom_bond_site_symmetry_2
Co1 O2 1_555 1_555
Co2 O1 1_555 1_555
O1 C11 1_555 1_555
O2 Co2 1_555 1_555
O3 Co2 1_555 1_555
O4 C9 1_555 1_555
O5 C15 1_555 1_555
O6 Co1 1_555 1_555
O7 C9 1_555 1_555
N1 C2 1_555 1_555
N2 Co2 1_555 1_555
N3 C28 1_555 1_555
C1 H1 1_555 1_555
C2 C3 1_555 1_555
C3 C10 1_555 1_555
C4 C13 1_555 1_555
C5 C1 1_555 1_555
H2 C5 1_555 1_555
C6 C15 1_555 1_555
C7 C9 1_555 1_555
C8 C5 1_555 1_555
C10 H3 1_555 1_555
C11 O2 1_555 1_555
C12 C3 1_555 1_555
H4 C12 1_555 1_555
C13 C1 1_555 1_555
C14 C7 1_555 1_555
H5 C14 1_555 1_555
C15 O6 1_555 1_555
C16 N2 1_555 1_555
H6 C16 1_555 1_555
C17 C7 1_555 1_555
H7 C17 1_555 1_555
C18 C8 1_555 1_555
H8 C18 1_555 1_555
C19 H9 1_555 1_555
C20 C4 1_555 1_555
H10 C20 1_555 1_555
C21 C13 1_555 1_555
H11 C21 1_555 1_555
C22 C4 1_555 1_555
H12 C22 1_555 1_555
C23 N2 1_555 1_555
H13 C23 1_555 1_555
C24 C6 1_555 1_555
H14 C24 1_555 1_555
C25 H15 1_555 1_555
C26 C19 1_555 1_555
C27 C6 1_555 1_555
H16 C27 1_555 1_555
C28 O3 1_555 1_555
H17 C28 1_555 1_555
C29 N3 1_555 1_555
H18 C29 1_555 1_555
H19 C29 1_555 1_555
H20 C29 1_555 1_555
C30 N3 1_555 1_555
H21 C30 1_555 1_555
H22 C30 1_555 1_555
H23 C30 1_555 1_555
O5Q C15Q 1_555 1_555
O6Q C15Q 1_555 1_555
C6Q C15Q 1_555 1_555
C19Q H9Q 1_555 1_555
C24Q C6Q 1_555 1_555
H14Q C24Q 1_555 1_555
C25Q H15Q 1_555 1_555
C26Q C26 1_555 1_555
C27Q C6Q 1_555 1_555
H16Q C27Q 1_555 1_555
N1A C2A 1_555 1_555
N2A C16A 1_555 1_555
C2A N1 1_555 1_555
C3A C2A 1_555 1_555
C10A C3A 1_555 1_555
H3A C10A 1_555 1_555
C12A C3A 1_555 1_555
H4A C12A 1_555 1_555
C16A C12A 1_555 1_555
H6A C16A 1_555 1_555
C23A N2A 1_555 1_555
H13A C23A 1_555 1_555
N1B C2 1_555 1_555
N2B C16B 1_555 1_555
C2B N1A 1_555 1_555
C3B C2B 1_555 1_555
C10B C3B 1_555 1_555
H3B C10B 1_555 1_555
C12B C3B 1_555 1_555
H4B C12B 1_555 1_555
C16B C12B 1_555 1_555
H6B C16B 1_555 1_555
C23B N2B 1_555 1_555
H13B C23B 1_555 1_555
Co1A O2A 1_555 1_555
Co2A N2A 1_555 1_555
O1A Co2A 1_555 1_555
O2A Co2A 1_555 1_555
O3A Co2A 1_555 1_555
O4A C9A 1_555 1_555
O7A C9A 1_555 1_555
N3A C28A 1_555 1_555
C1A H1A 1_555 1_555
C4A C13A 1_555 1_555
C5A C1A 1_555 1_555
H2A C5A 1_555 1_555
C7A C9A 1_555 1_555
C8A C5A 1_555 1_555
C11A O1A 1_555 1_555
C13A C1A 1_555 1_555
C14A C7A 1_555 1_555
H5A C14A 1_555 1_555
C17A C7A 1_555 1_555
H7A C17A 1_555 1_555
C18A C8A 1_555 1_555
H8A C18A 1_555 1_555
C20A C4A 1_555 1_555
H10A C20A 1_555 1_555
C21A C13A 1_555 1_555
H11A C21A 1_555 1_555
C22A C4A 1_555 1_555
H12A C22A 1_555 1_555
C28A O3A 1_555 1_555
H17A C28A 1_555 1_555
C29A N3A 1_555 1_555
H18A C29A 1_555 1_555
H19A C29A 1_555 1_555
H20A C29A 1_555 1_555
C30A N3A 1_555 1_555
H21A C30A 1_555 1_555
H22A C30A 1_555 1_555
H23A C30A 1_555 1_555
Co2B N2B 1_555 1_555
O1B Co2B 1_555 1_555
O2B Co2B 1_555 1_555
O3B Co2B 1_555 1_555
O4B C9B 1_555 1_555
O7B C9B 1_555 1_555
N3B C28B 1_555 1_555
C1B H1B 1_555 1_555
C4B C13B 1_555 1_555
C5B C1B 1_555 1_555
H2B C5B 1_555 1_555
C7B C9B 1_555 1_555
C8B C5B 1_555 1_555
C11B O1B 1_555 1_555
C13B C1B 1_555 1_555
C14B C7B 1_555 1_555
H5B C14B 1_555 1_555
C17B C7B 1_555 1_555
H7B C17B 1_555 1_555
C18B C8B 1_555 1_555
H8B C18B 1_555 1_555
C20B C4B 1_555 1_555
H10B C20B 1_555 1_555
C21B C13B 1_555 1_555
H11B C21B 1_555 1_555
C22B C4B 1_555 1_555
H12B C22B 1_555 1_555
C28B O3B 1_555 1_555
H17B C28B 1_555 1_555
C29B N3B 1_555 1_555
H18B C29B 1_555 1_555
H19B C29B 1_555 1_555
H20B C29B 1_555 1_555
C30B N3B 1_555 1_555
H21B C30B 1_555 1_555
H22B C30B 1_555 1_555
H23B C30B 1_555 1_555
Co2J O5 1_555 1_555
O1J Co2J 1_555 1_555
O2J Co1 1_555 1_555
O3J Co2J 1_555 1_555
O4J C9J 1_555 1_555
O7J C9J 1_555 1_555
N3J C28J 1_555 1_555
C1J H1J 1_555 1_555
C4J C13J 1_555 1_555
C5J C1J 1_555 1_555
H2J C5J 1_555 1_555
C7J C9J 1_555 1_555
C8J C5J 1_555 1_555
C11J O1J 1_555 1_555
C13J C1J 1_555 1_555
C14J C7J 1_555 1_555
H5J C14J 1_555 1_555
C17J C7J 1_555 1_555
H7J C17J 1_555 1_555
C18J C8J 1_555 1_555
H8J C18J 1_555 1_555
C20J C4J 1_555 1_555
H10J C20J 1_555 1_555
C21J C13J 1_555 1_555
H11J C21J 1_555 1_555
C22J C4J 1_555 1_555
H12J C22J 1_555 1_555
C28J O3J 1_555 1_555
H17J C28J 1_555 1_555
C29J N3J 1_555 1_555
H18J C29J 1_555 1_555
H19J C29J 1_555 1_555
H20J C29J 1_555 1_555
C30J N3J 1_555 1_555
H21J C30J 1_555 1_555
H22J C30J 1_555 1_555
H23J C30J 1_555 1_555
Co2O O1O 1_555 1_555
O1O C11O 1_555 1_555
O2O Co2O 1_555 1_555
O3O Co2O 1_555 1_555
O4O Co2J 1_555 1_555
O7O Co1 1_555 1_555
N3O C28O 1_555 1_555
C1O H1O 1_555 1_555
C4O C13O 1_555 1_555
C5O C1O 1_555 1_555
H2O C5O 1_555 1_555
C7O C9O 1_555 1_555
C8O C5O 1_555 1_555
C9O O4O 1_555 1_555
C11O O2O 1_555 1_555
C13O C1O 1_555 1_555
C14O C7O 1_555 1_555
H5O C14O 1_555 1_555
C17O C7O 1_555 1_555
H7O C17O 1_555 1_555
C18O C8O 1_555 1_555
H8O C18O 1_555 1_555
C20O C4O 1_555 1_555
H10O C20O 1_555 1_555
C21O C13O 1_555 1_555
H11O C21O 1_555 1_555
C22O C4O 1_555 1_555
H12O C22O 1_555 1_555
C28O O3O 1_555 1_555
H17O C28O 1_555 1_555
C29O N3O 1_555 1_555
H18O C29O 1_555 1_555
H19O C29O 1_555 1_555
H20O C29O 1_555 1_555
C30O N3O 1_555 1_555
H21O C30O 1_555 1_555
H22O C30O 1_555 1_555
H23O C30O 1_555 1_555
Co2M O1M 1_555 1_555
O1M C11M 1_555 1_555
O2M Co2M 1_555 1_555
O3M Co2M 1_555 1_555
O4M Co2 1_555 1_555
O7M Co1 1_555 1_555
N3M C28M 1_555 1_555
C1M H1M 1_555 1_555
C4M C13M 1_555 1_555
C5M C1M 1_555 1_555
H2M C5M 1_555 1_555
C7M C9M 1_555 1_555
C8M C5M 1_555 1_555
C9M O4M 1_555 1_555
C11M O2M 1_555 1_555
C13M C1M 1_555 1_555
C14M C7M 1_555 1_555
H5M C14M 1_555 1_555
C17M C7M 1_555 1_555
H7M C17M 1_555 1_555
C18M C8M 1_555 1_555
H8M C18M 1_555 1_555
C20M C4M 1_555 1_555
H10M C20M 1_555 1_555
C21M C13M 1_555 1_555
H11M C21M 1_555 1_555
C22M C4M 1_555 1_555
H12M C22M 1_555 1_555
C28M O3M 1_555 1_555
H17M C28M 1_555 1_555
C29M N3M 1_555 1_555
H18M C29M 1_555 1_555
H19M C29M 1_555 1_555
H20M C29M 1_555 1_555
C30M N3M 1_555 1_555
H21M C30M 1_555 1_555
H22M C30M 1_555 1_555
H23M C30M 1_555 1_555
N1J C2J 1_555 1_555
N2J Co2J 1_555 1_555
C2J C3J 1_555 1_555
C3J C10J 1_555 1_555
C10J H3J 1_555 1_555
C12J C3J 1_555 1_555
H4J C12J 1_555 1_555
C16J N2J 1_555 1_555
H6J C16J 1_555 1_555
C23J N2J 1_555 1_555
H13J C23J 1_555 1_555
N1I C2I 1_555 1_555
N2I C16I 1_555 1_555
C2I N1J 1_555 1_555
C3I C2I 1_555 1_555
C10I C3I 1_555 1_555
H3I C10I 1_555 1_555
C12I C3I 1_555 1_555
H4I C12I 1_555 1_555
C16I C12I 1_555 1_555
H6I C16I 1_555 1_555
C23I N2I 1_555 1_555
H13I C23I 1_555 1_555
N1K C2J 1_555 1_555
N2K C16K 1_555 1_555
C2K N1I 1_555 1_555
C3K C2K 1_555 1_555
C10K C3K 1_555 1_555
H3K C10K 1_555 1_555
C12K C3K 1_555 1_555
H4K C12K 1_555 1_555
C16K C12K 1_555 1_555
H6K C16K 1_555 1_555
C23K N2K 1_555 1_555
H13K C23K 1_555 1_555
O5J Co2 1_555 1_555
O6J Co1 1_555 1_555
C6J C15J 1_555 1_555
C15J O5J 1_555 1_555
C19J H9J 1_555 1_555
C24J C6J 1_555 1_555
H14J C24J 1_555 1_555
C25J H15J 1_555 1_555
C26J C19J 1_555 1_555
C27J C6J 1_555 1_555
H16J C27J 1_555 1_555
O5N C15N 1_555 1_555
O6N C15N 1_555 1_555
C6N C15N 1_555 1_555
C19N H9N 1_555 1_555
C24N C6N 1_555 1_555
H14N C24N 1_555 1_555
C25N H15N 1_555 1_555
C26N C26J 1_555 1_555
C27N C6N 1_555 1_555
H16N C27N 1_555 1_555
O5A C15A 1_555 1_555
O6A Co1A 1_555 1_555
C6A C15A 1_555 1_555
C15A O6A 1_555 1_555
C19A H9A 1_555 1_555
C24A C6A 1_555 1_555
H14A C24A 1_555 1_555
C25A H15A 1_555 1_555
C26A C19A 1_555 1_555
C27A C6A 1_555 1_555
H16A C27A 1_555 1_555
O5O C15O 1_555 1_555
O6O C15O 1_555 1_555
C6O C15O 1_555 1_555
C19O H9O 1_555 1_555
C24O C6O 1_555 1_555
H14O C24O 1_555 1_555
C25O H15O 1_555 1_555
C26O C26A 1_555 1_555
C27O C6O 1_555 1_555
H16O C27O 1_555 1_555
Co1H O7 1_555 1_555
Co1B O2B 1_555 1_555
Co1C O6N 1_555 1_555
Co1E O7J 1_555 1_555
Co1F O7A 1_555 1_555
Co1G O7B 1_555 1_555
Co1G_2 O6Q 1_555 1_555
Co1H_2 O6O 1_555 1_555
Co2C O5N 1_555 1_555
Co2E O4J 1_555 1_555
Co2F O4A 1_555 1_555
Co2G O4B 1_555 1_555
Co2G_2 O5Q 1_555 1_555
Co2H O5O 1_555 1_555
Co2H_2 O4 1_555 1_555
Co2I N2I 1_555 1_555
Co2K O5A 1_555 1_555
Co2K_2 N2K 1_555 1_555
O2H Co1H 1_555 1_555
O2K Co1A 1_555 1_555
O4E Co2O 1_555 1_555
O4H Co2M 1_555 1_555
O4L Co2B 1_555 1_555
O4N Co2A 1_555 1_555
O5E Co2M 1_555 1_555
O5H Co2O 1_555 1_555
O5I Co2B 1_555 1_555
O5K Co2A 1_555 1_555
O6H Co1H 1_555 1_555
O6K Co1A 1_555 1_555
O6O_2 Co1H 1_555 1_555
O7E Co1H 1_555 1_555
O7N Co1A 1_555 1_555
O7P Co1A 1_555 1_555
N2M Co2M 1_555 1_555
N2O Co2O 1_555 1_555
C8 C11 1_555 1_555
C10 C23 1_555 1_555
C12 C16 1_555 1_555
C14 C22 1_555 1_555
C17 C20 1_555 1_555
C18 C21 1_555 1_555
C19 C24 1_555 1_555
C25 C26 1_555 1_555
C25 C27 1_555 1_555
C19Q C24Q 1_555 1_555
C19Q C26Q 1_555 1_555
C25Q C26Q 1_555 1_555
C25Q C27Q 1_555 1_555
C10A C23A 1_555 1_555
N1B C2B 1_555 1_555
C10B C23B 1_555 1_555
O2A C11A 1_555 1_555
C8A C11A 1_555 1_555
C14A C22A 1_555 1_555
C17A C20A 1_555 1_555
C18A C21A 1_555 1_555
O2B C11B 1_555 1_555
C8B C11B 1_555 1_555
C14B C22B 1_555 1_555
C17B C20B 1_555 1_555
C18B C21B 1_555 1_555
Co2J O2J 1_555 1_555
O2J C11J 1_555 1_555
C8J C11J 1_555 1_555
C14J C22J 1_555 1_555
C17J C20J 1_555 1_555
C18J C21J 1_555 1_555
O2O Co1H 1_555 1_555
O7O C9O 1_555 1_555
C8O C11O 1_555 1_555
C14O C22O 1_555 1_555
C17O C20O 1_555 1_555
C18O C21O 1_555 1_555
O2M Co1E 1_555 1_555
O7M C9M 1_555 1_555
C8M C11M 1_555 1_555
C14M C22M 1_555 1_555
C17M C20M 1_555 1_555
C18M C21M 1_555 1_555
C10J C23J 1_555 1_555
C12J C16J 1_555 1_555
C10I C23I 1_555 1_555
N1K C2K 1_555 1_555
C10K C23K 1_555 1_555
O6J C15J 1_555 1_555
C19J C24J 1_555 1_555
C25J C26J 1_555 1_555
C25J C27J 1_555 1_555
C19N C24N 1_555 1_555
C19N C26N 1_555 1_555
C25N C26N 1_555 1_555
C25N C27N 1_555 1_555
C19A C24A 1_555 1_555
C25A C26A 1_555 1_555
C25A C27A 1_555 1_555
C19O C24O 1_555 1_555
C19O C26O 1_555 1_555
C25O C26O 1_555 1_555
C25O C27O 1_555 1_555
Co2H_2 O2H 1_555 1_555
Co2K O2K 1_555 1_555

#END
