
#######################################################################
#
#                 Cambridge Crystallographic Data Centre
#                                CCDC 
#
#######################################################################
#
# If this CIF has been generated from an entry in the Cambridge 
# Structural Database, then it will include bibliographic, chemical, 
# crystal, experimental, refinement or atomic coordinate data resulting 
# from the CCDC's data processing and validation procedures.
#
#######################################################################

data_SIQKIP
_chemical_name_common            SUMOF-5
_chemical_formula_moiety         '(C52 H34 Cu3 N2 O15)n'
_chemical_name_systematic        
'catena-[bis(\m-pyridine-2,4,6-tribenzoato)-tris(aqua)-tri-copper(ii) unknown solvate]'
_symmetry_cell_setting           cubic
_symmetry_space_group_name_H-M   'F m -3 m'
_symmetry_Int_Tables_number      225
_space_group_name_Hall           '-F 4 2 3'
loop_
_symmetry_equiv_pos_site_id
_symmetry_equiv_pos_as_xyz
1 x,y,z
2 -x,-y,z
3 -x,y,-z
4 x,-y,-z
5 z,x,y
6 z,-x,-y
7 -z,-x,y
8 -z,x,-y
9 y,z,x
10 -y,z,-x
11 y,-z,-x
12 -y,-z,x
13 y,x,-z
14 -y,-x,-z
15 y,-x,z
16 -y,x,z
17 x,z,-y
18 -x,z,y
19 -x,-z,-y
20 x,-z,y
21 z,y,-x
22 z,-y,x
23 -z,y,x
24 -z,-y,-x
25 x,1/2+y,1/2+z
26 -x,1/2-y,1/2+z
27 -x,1/2+y,1/2-z
28 x,1/2-y,1/2-z
29 z,1/2+x,1/2+y
30 z,1/2-x,1/2-y
31 -z,1/2-x,1/2+y
32 -z,1/2+x,1/2-y
33 y,1/2+z,1/2+x
34 -y,1/2+z,1/2-x
35 y,1/2-z,1/2-x
36 -y,1/2-z,1/2+x
37 y,1/2+x,1/2-z
38 -y,1/2-x,1/2-z
39 y,1/2-x,1/2+z
40 -y,1/2+x,1/2+z
41 x,1/2+z,1/2-y
42 -x,1/2+z,1/2+y
43 -x,1/2-z,1/2-y
44 x,1/2-z,1/2+y
45 z,1/2+y,1/2-x
46 z,1/2-y,1/2+x
47 -z,1/2+y,1/2+x
48 -z,1/2-y,1/2-x
49 1/2+x,y,1/2+z
50 1/2-x,-y,1/2+z
51 1/2-x,y,1/2-z
52 1/2+x,-y,1/2-z
53 1/2+z,x,1/2+y
54 1/2+z,-x,1/2-y
55 1/2-z,-x,1/2+y
56 1/2-z,x,1/2-y
57 1/2+y,z,1/2+x
58 1/2-y,z,1/2-x
59 1/2+y,-z,1/2-x
60 1/2-y,-z,1/2+x
61 1/2+y,x,1/2-z
62 1/2-y,-x,1/2-z
63 1/2+y,-x,1/2+z
64 1/2-y,x,1/2+z
65 1/2+x,z,1/2-y
66 1/2-x,z,1/2+y
67 1/2-x,-z,1/2-y
68 1/2+x,-z,1/2+y
69 1/2+z,y,1/2-x
70 1/2+z,-y,1/2+x
71 1/2-z,y,1/2+x
72 1/2-z,-y,1/2-x
73 1/2+x,1/2+y,z
74 1/2-x,1/2-y,z
75 1/2-x,1/2+y,-z
76 1/2+x,1/2-y,-z
77 1/2+z,1/2+x,y
78 1/2+z,1/2-x,-y
79 1/2-z,1/2-x,y
80 1/2-z,1/2+x,-y
81 1/2+y,1/2+z,x
82 1/2-y,1/2+z,-x
83 1/2+y,1/2-z,-x
84 1/2-y,1/2-z,x
85 1/2+y,1/2+x,-z
86 1/2-y,1/2-x,-z
87 1/2+y,1/2-x,z
88 1/2-y,1/2+x,z
89 1/2+x,1/2+z,-y
90 1/2-x,1/2+z,y
91 1/2-x,1/2-z,-y
92 1/2+x,1/2-z,y
93 1/2+z,1/2+y,-x
94 1/2+z,1/2-y,x
95 1/2-z,1/2+y,x
96 1/2-z,1/2-y,-x
97 -x,-y,-z
98 x,y,-z
99 x,-y,z
100 -x,y,z
101 -z,-x,-y
102 -z,x,y
103 z,x,-y
104 z,-x,y
105 -y,-z,-x
106 y,-z,x
107 -y,z,x
108 y,z,-x
109 -y,-x,z
110 y,x,z
111 -y,x,-z
112 y,-x,-z
113 -x,-z,y
114 x,-z,-y
115 x,z,y
116 -x,z,-y
117 -z,-y,x
118 -z,y,-x
119 z,-y,-x
120 z,y,x
121 -x,1/2-y,1/2-z
122 x,1/2+y,1/2-z
123 x,1/2-y,1/2+z
124 -x,1/2+y,1/2+z
125 -z,1/2-x,1/2-y
126 -z,1/2+x,1/2+y
127 z,1/2+x,1/2-y
128 z,1/2-x,1/2+y
129 -y,1/2-z,1/2-x
130 y,1/2-z,1/2+x
131 -y,1/2+z,1/2+x
132 y,1/2+z,1/2-x
133 -y,1/2-x,1/2+z
134 y,1/2+x,1/2+z
135 -y,1/2+x,1/2-z
136 y,1/2-x,1/2-z
137 -x,1/2-z,1/2+y
138 x,1/2-z,1/2-y
139 x,1/2+z,1/2+y
140 -x,1/2+z,1/2-y
141 -z,1/2-y,1/2+x
142 -z,1/2+y,1/2-x
143 z,1/2-y,1/2-x
144 z,1/2+y,1/2+x
145 1/2-x,-y,1/2-z
146 1/2+x,y,1/2-z
147 1/2+x,-y,1/2+z
148 1/2-x,y,1/2+z
149 1/2-z,-x,1/2-y
150 1/2-z,x,1/2+y
151 1/2+z,x,1/2-y
152 1/2+z,-x,1/2+y
153 1/2-y,-z,1/2-x
154 1/2+y,-z,1/2+x
155 1/2-y,z,1/2+x
156 1/2+y,z,1/2-x
157 1/2-y,-x,1/2+z
158 1/2+y,x,1/2+z
159 1/2-y,x,1/2-z
160 1/2+y,-x,1/2-z
161 1/2-x,-z,1/2+y
162 1/2+x,-z,1/2-y
163 1/2+x,z,1/2+y
164 1/2-x,z,1/2-y
165 1/2-z,-y,1/2+x
166 1/2-z,y,1/2-x
167 1/2+z,-y,1/2-x
168 1/2+z,y,1/2+x
169 1/2-x,1/2-y,-z
170 1/2+x,1/2+y,-z
171 1/2+x,1/2-y,z
172 1/2-x,1/2+y,z
173 1/2-z,1/2-x,-y
174 1/2-z,1/2+x,y
175 1/2+z,1/2+x,-y
176 1/2+z,1/2-x,y
177 1/2-y,1/2-z,-x
178 1/2+y,1/2-z,x
179 1/2-y,1/2+z,x
180 1/2+y,1/2+z,-x
181 1/2-y,1/2-x,z
182 1/2+y,1/2+x,z
183 1/2-y,1/2+x,-z
184 1/2+y,1/2-x,-z
185 1/2-x,1/2-z,y
186 1/2+x,1/2-z,-y
187 1/2+x,1/2+z,y
188 1/2-x,1/2+z,-y
189 1/2-z,1/2-y,x
190 1/2-z,1/2+y,-x
191 1/2+z,1/2-y,-x
192 1/2+z,1/2+y,x
_cell_length_a                   47.272(3)
_cell_length_b                   47.272(3)
_cell_length_c                   47.272(3)
_cell_angle_alpha                90
_cell_angle_beta                 90
_cell_angle_gamma                90
_cell_volume                     105636
_exptl_crystal_colour            green
_exptl_crystal_description       tetrahedral
_cell_formula_units_Z            16
loop_
_atom_site_label
_atom_site_type_symbol
_atom_site_fract_x
_atom_site_fract_y
_atom_site_fract_z
_atom_site_U_iso_or_equiv
_atom_site_thermal_displace_type
Cu1 Cu 0.230177(13) 0.230177(13) 0.0000 0.1359 Uani
O1 O 0.25282(6) 0.21277(6) -0.02856(6) 0.1633 Uani
O2 O 0.19708(9) 0.19708(9) 0.0000 0.2960 Uani
C1 C 0.27482(8) 0.22518(8) -0.03771(11) 0.1400 Uani
C2 C 0.33138(8) 0.16862(8) -0.13361(11) 0.1527 Uani
C3 C 0.31866(13) 0.14510(10) -0.14510(10) 0.1780 Uani
H1 H 0.3035 0.1380 -0.1380 0.2130 Uiso
C4 C 0.31733(9) 0.18267(9) -0.10893(14) 0.1673 Uani
C5 C 0.28992(9) 0.21008(9) -0.06327(13) 0.1527 Uani
C6 C 0.29820(15) 0.16809(17) -0.09200(16) 0.1470 Uiso
H2 H 0.2943 0.1491 -0.0953 0.1760 Uiso
C7 C 0.28790(16) 0.17808(17) -0.10197(17) 0.1470 Uiso
H3 H 0.2778 0.1655 -0.1132 0.1760 Uiso
C8 C 0.28539(16) 0.18210(16) -0.07060(17) 0.1384 Uiso
H4 H 0.2724 0.1720 -0.0598 0.1660 Uiso
C9 C 0.27360(17) 0.19079(15) -0.08003(16) 0.1384 Uiso
H5 H 0.2546 0.1871 -0.0763 0.1660 Uiso
O1GB O 0.28723(6) 0.02856(6) -0.24718(6) 0.1633 Uani
C1GB C 0.27482(8) 0.03771(11) -0.22518(8) 0.1400 Uani
C2GB C 0.33138(8) 0.13361(11) -0.16862(8) 0.1527 Uani
C3GB C 0.35490(10) 0.14510(10) -0.18134(13) 0.1780 Uani
H1GB H 0.3620 0.1380 -0.1965 0.2130 Uiso
C4GB C 0.31733(9) 0.10893(14) -0.18267(9) 0.1673 Uani
C5GB C 0.28992(9) 0.06327(13) -0.21008(9) 0.1527 Uani
C6GB C 0.33191(17) 0.09200(16) -0.20180(15) 0.1470 Uiso
H2GB H 0.3509 0.0953 -0.2057 0.1760 Uiso
C7GB C 0.32192(17) 0.10197(17) -0.21210(16) 0.1470 Uiso
H3GB H 0.3345 0.1132 -0.2222 0.1760 Uiso
C8GB C 0.31790(16) 0.07060(17) -0.21461(16) 0.1384 Uiso
H4GB H 0.3280 0.0598 -0.2276 0.1660 Uiso
C9GB C 0.30921(15) 0.08003(16) -0.22640(17) 0.1384 Uiso
H5GB H 0.3129 0.0763 -0.2454 0.1660 Uiso
O1YB O 0.47144(6) 0.24718(6) -0.21277(6) 0.1633 Uani
C1YB C 0.46229(11) 0.22518(8) -0.22518(8) 0.1400 Uani
C2YB C 0.36639(11) 0.16862(8) -0.16862(8) 0.1527 Uani
C3YB C 0.35490(10) 0.18134(13) -0.14510(10) 0.1780 Uani
H1YB H 0.3620 0.1965 -0.1380 0.2130 Uiso
C4YB C 0.39107(14) 0.18267(9) -0.18267(9) 0.1673 Uani
C5YB C 0.43673(13) 0.21008(9) -0.21008(9) 0.1527 Uani
C6YB C 0.40800(16) 0.20180(15) -0.16809(17) 0.1470 Uiso
H2YB H 0.4047 0.2057 -0.1491 0.1760 Uiso
C7YB C 0.39803(17) 0.21210(16) -0.17808(17) 0.1470 Uiso
H3YB H 0.3868 0.2222 -0.1655 0.1760 Uiso
C8YB C 0.42940(17) 0.21461(16) -0.18210(16) 0.1384 Uiso
H4YB H 0.4402 0.2276 -0.1720 0.1660 Uiso
C9YB C 0.41997(16) 0.22640(17) -0.19079(15) 0.1384 Uiso
H5YB H 0.4237 0.2454 -0.1871 0.1660 Uiso
O1ID O 0.25282(6) 0.02856(6) -0.21277(6) 0.1633 Uani
C6ID C 0.29820(15) 0.09200(16) -0.16809(17) 0.1470 Uiso
H2ID H 0.2943 0.0953 -0.1491 0.1760 Uiso
C7ID C 0.28790(16) 0.10197(17) -0.17808(17) 0.1470 Uiso
H3ID H 0.2778 0.1132 -0.1655 0.1760 Uiso
C8ID C 0.28539(16) 0.07060(17) -0.18210(16) 0.1384 Uiso
H4ID H 0.2724 0.0598 -0.1720 0.1660 Uiso
C9ID C 0.27360(17) 0.08003(16) -0.19079(15) 0.1384 Uiso
H5ID H 0.2546 0.0763 -0.1871 0.1660 Uiso
O1KF O 0.47144(6) 0.21277(6) -0.24718(6) 0.1633 Uani
C6KF C 0.40800(16) 0.16809(17) -0.20180(15) 0.1470 Uiso
H2KF H 0.4047 0.1491 -0.2057 0.1760 Uiso
C7KF C 0.39803(17) 0.17808(17) -0.21210(16) 0.1470 Uiso
H3KF H 0.3868 0.1655 -0.2222 0.1760 Uiso
C8KF C 0.42940(17) 0.18210(16) -0.21461(16) 0.1384 Uiso
H4KF H 0.4402 0.1720 -0.2276 0.1660 Uiso
C9KF C 0.41997(16) 0.19079(15) -0.22640(17) 0.1384 Uiso
H5KF H 0.4237 0.1871 -0.2454 0.1660 Uiso
O1XF O 0.28723(6) 0.24718(6) -0.02856(6) 0.1633 Uani
C6XF C 0.33191(17) 0.20180(15) -0.09200(16) 0.1470 Uiso
H2XF H 0.3509 0.2057 -0.0953 0.1760 Uiso
C7XF C 0.32192(17) 0.21210(16) -0.10197(17) 0.1470 Uiso
H3XF H 0.3345 0.2222 -0.1132 0.1760 Uiso
C8XF C 0.31790(16) 0.21461(16) -0.07060(17) 0.1384 Uiso
H4XF H 0.3280 0.2276 -0.0598 0.1660 Uiso
C9XF C 0.30921(15) 0.22640(17) -0.08003(16) 0.1384 Uiso
H5XF H 0.3129 0.2454 -0.0763 0.1660 Uiso
Cu1G Cu 0.0000 0.230177(13) -0.230177(13) 0.1359 Uani
O1G O 0.02856(6) 0.25282(6) -0.21277(6) 0.1633 Uani
O2G O 0.0000 0.19708(9) -0.19708(9) 0.2960 Uani
C1G C 0.03771(11) 0.27482(8) -0.22518(8) 0.1400 Uani
C2G C 0.13361(11) 0.33138(8) -0.16862(8) 0.1527 Uani
C3G C 0.14510(10) 0.31866(13) -0.14510(10) 0.1780 Uani
H1G H 0.1380 0.3035 -0.1380 0.2130 Uiso
C4G C 0.10893(14) 0.31733(9) -0.18267(9) 0.1673 Uani
C5G C 0.06327(13) 0.28992(9) -0.21008(9) 0.1527 Uani
C6G C 0.09200(16) 0.29820(15) -0.16809(17) 0.1470 Uiso
H2G H 0.0953 0.2943 -0.1491 0.1760 Uiso
C7G C 0.10197(17) 0.28790(16) -0.17808(17) 0.1470 Uiso
H3G H 0.1132 0.2778 -0.1655 0.1760 Uiso
C8G C 0.07060(17) 0.28539(16) -0.18210(16) 0.1384 Uiso
H4G H 0.0598 0.2724 -0.1720 0.1660 Uiso
C9G C 0.08003(16) 0.27360(17) -0.19079(15) 0.1384 Uiso
H5G H 0.0763 0.2546 -0.1871 0.1660 Uiso
O1UB O 0.24718(6) 0.28723(6) -0.02856(6) 0.1633 Uani
C1UB C 0.22518(8) 0.27482(8) -0.03771(11) 0.1400 Uani
C2UB C 0.16862(8) 0.33138(8) -0.13361(11) 0.1527 Uani
C3UB C 0.18134(13) 0.35490(10) -0.14510(10) 0.1780 Uani
H1UB H 0.1965 0.3620 -0.1380 0.2130 Uiso
C4UB C 0.18267(9) 0.31733(9) -0.10893(14) 0.1673 Uani
C5UB C 0.21008(9) 0.28992(9) -0.06327(13) 0.1527 Uani
C6UB C 0.20180(15) 0.33191(17) -0.09200(16) 0.1470 Uiso
H2UB H 0.2057 0.3509 -0.0953 0.1760 Uiso
C7UB C 0.21210(16) 0.32192(17) -0.10197(17) 0.1470 Uiso
H3UB H 0.2222 0.3345 -0.1132 0.1760 Uiso
C8UB C 0.21461(16) 0.31790(16) -0.07060(17) 0.1384 Uiso
H4UB H 0.2276 0.3280 -0.0598 0.1660 Uiso
C9UB C 0.22640(17) 0.30921(15) -0.08003(16) 0.1384 Uiso
H5UB H 0.2454 0.3129 -0.0763 0.1660 Uiso
O1FA O 0.21277(6) 0.47144(6) -0.24718(6) 0.1633 Uani
C1FA C 0.22518(8) 0.46229(11) -0.22518(8) 0.1400 Uani
C2FA C 0.16862(8) 0.36639(11) -0.16862(8) 0.1527 Uani
C3FA C 0.14510(10) 0.35490(10) -0.18134(13) 0.1780 Uani
H1FA H 0.1380 0.3620 -0.1965 0.2130 Uiso
C4FA C 0.18267(9) 0.39107(14) -0.18267(9) 0.1673 Uani
C5FA C 0.21008(9) 0.43673(13) -0.21008(9) 0.1527 Uani
C6FA C 0.16809(17) 0.40800(16) -0.20180(15) 0.1470 Uiso
H2FA H 0.1491 0.4047 -0.2057 0.1760 Uiso
C7FA C 0.17808(17) 0.39803(17) -0.21210(16) 0.1470 Uiso
H3FA H 0.1655 0.3868 -0.2222 0.1760 Uiso
C8FA C 0.18210(16) 0.42940(17) -0.21461(16) 0.1384 Uiso
H4FA H 0.1720 0.4402 -0.2276 0.1660 Uiso
C9FA C 0.19079(15) 0.41997(16) -0.22640(17) 0.1384 Uiso
H5FA H 0.1871 0.4237 -0.2454 0.1660 Uiso
O1ED O 0.21277(6) 0.25282(6) -0.02856(6) 0.1633 Uani
C6ED C 0.16809(17) 0.29820(15) -0.09200(16) 0.1470 Uiso
H2ED H 0.1491 0.2943 -0.0953 0.1760 Uiso
C7ED C 0.17808(17) 0.28790(16) -0.10197(17) 0.1470 Uiso
H3ED H 0.1655 0.2778 -0.1132 0.1760 Uiso
C8ED C 0.18210(16) 0.28539(16) -0.07060(17) 0.1384 Uiso
H4ED H 0.1720 0.2724 -0.0598 0.1660 Uiso
C9ED C 0.19079(15) 0.27360(17) -0.08003(16) 0.1384 Uiso
H5ED H 0.1871 0.2546 -0.0763 0.1660 Uiso
O1EG O 0.24718(6) 0.47144(6) -0.21277(6) 0.1633 Uani
C6EG C 0.20180(15) 0.40800(16) -0.16809(17) 0.1470 Uiso
H2EG H 0.2057 0.4047 -0.1491 0.1760 Uiso
C7EG C 0.21210(16) 0.39803(17) -0.17808(17) 0.1470 Uiso
H3EG H 0.2222 0.3868 -0.1655 0.1760 Uiso
C8EG C 0.21461(16) 0.42940(17) -0.18210(16) 0.1384 Uiso
H4EG H 0.2276 0.4402 -0.1720 0.1660 Uiso
C9EG C 0.22640(17) 0.41997(16) -0.19079(15) 0.1384 Uiso
H5EG H 0.2454 0.4237 -0.1871 0.1660 Uiso
O1JE O 0.02856(6) 0.28723(6) -0.24718(6) 0.1633 Uani
C6JE C 0.09200(16) 0.33191(17) -0.20180(15) 0.1470 Uiso
H2JE H 0.0953 0.3509 -0.2057 0.1760 Uiso
C7JE C 0.10197(17) 0.32192(17) -0.21210(16) 0.1470 Uiso
H3JE H 0.1132 0.3345 -0.2222 0.1760 Uiso
C8JE C 0.07060(17) 0.31790(16) -0.21461(16) 0.1384 Uiso
H4JE H 0.0598 0.3280 -0.2276 0.1660 Uiso
C9JE C 0.08003(16) 0.30921(15) -0.22640(17) 0.1384 Uiso
H5JE H 0.0763 0.3129 -0.2454 0.1660 Uiso
Cu1J Cu 0.230177(13) 0.0000 -0.230177(13) 0.1359 Uani
O2J O 0.19708(9) 0.0000 -0.19708(9) 0.2960 Uani
Cu1DA Cu 0.0000 0.269823(13) -0.269823(13) 0.1359 Uani
Cu1FA Cu 0.230177(13) 0.5000 -0.269823(13) 0.1359 Uani
Cu1ZA Cu 0.5000 0.230177(13) -0.269823(13) 0.1359 Uani
Cu1GB Cu 0.269823(13) 0.0000 -0.269823(13) 0.1359 Uani
Cu1UB Cu 0.269823(13) 0.269823(13) 0.0000 0.1359 Uani
Cu1YB Cu 0.5000 0.269823(13) -0.230177(13) 0.1359 Uani
Cu1CC Cu 0.269823(13) 0.5000 -0.230177(13) 0.1359 Uani
O1J O 0.21277(6) 0.02856(6) -0.25282(6) 0.1633 Uani
O1L O 0.21277(6) 0.25282(6) 0.02856(6) 0.1633 Uani
O1P O 0.25282(6) -0.02856(6) -0.21277(6) 0.1633 Uani
O1T O -0.02856(6) 0.21277(6) -0.25282(6) 0.1633 Uani
O1SC O 0.25282(6) 0.21277(6) 0.02856(6) 0.1633 Uani
O1XC O -0.02856(6) 0.25282(6) -0.21277(6) 0.1633 Uani
O1CD O 0.21277(6) -0.02856(6) -0.25282(6) 0.1633 Uani
O1MD O 0.02856(6) 0.21277(6) -0.25282(6) 0.1633 Uani
N1? N 0.31866(13) 0.14510(10) -0.14510(10) 0.1780 Uani
loop_
_atom_site_aniso_label
_atom_site_aniso_U_11
_atom_site_aniso_U_22
_atom_site_aniso_U_33
_atom_site_aniso_U_23
_atom_site_aniso_U_13
_atom_site_aniso_U_12
Cu1 0.1389(6) 0.1389(6) 0.1300(8) 0.000 0.000 -0.0290(6)
O1 0.156(2) 0.169(3) 0.165(2) -0.0169(19) 0.030(2) -0.034(2)
O2 0.254(5) 0.254(5) 0.380(11) 0.000 0.000 -0.145(6)
C1 0.168(4) 0.168(4) 0.084(4) -0.017(2) 0.017(2) 0.052(5)
C2 0.173(3) 0.173(3) 0.112(5) -0.028(3) 0.028(3) 0.023(5)
C3 0.216(6) 0.159(3) 0.159(3) -0.073(4) 0.041(4) -0.041(4)
C4 0.154(3) 0.154(3) 0.194(6) -0.029(4) 0.029(4) -0.056(4)
C5 0.145(3) 0.145(3) 0.168(5) -0.001(3) 0.001(3) -0.047(4)
O1GB 0.169 0.165 0.156 -0.03 0.034 -0.0169
C1GB 0.168 0.084 0.168 -0.017 -0.052 -0.017
C2GB 0.173 0.112 0.173 -0.028 -0.023 -0.028
C3GB 0.159 0.159 0.216 -0.041 0.041 -0.073
C4GB 0.154 0.194 0.154 -0.029 0.056 -0.029
C5GB 0.145 0.168 0.145 -0.001 0.047 -0.001
O1YB 0.165 0.156 0.169 -0.034 0.0169 -0.03
C1YB 0.084 0.168 0.168 0.052 0.017 -0.017
C2YB 0.112 0.173 0.173 0.023 0.028 -0.028
C3YB 0.159 0.216 0.159 -0.041 0.073 -0.041
C4YB 0.194 0.154 0.154 -0.056 0.029 -0.029
C5YB 0.168 0.145 0.145 -0.047 0.001 -0.001
O1ID 0.156 0.165 0.169 -0.0169 0.034 -0.03
O1KF 0.165 0.169 0.156 -0.034 0.03 -0.0169
O1XF 0.169 0.156 0.165 -0.03 0.0169 -0.034
Cu1G 0.13 0.1389 0.1389 0.029 0 0
O1G 0.165 0.156 0.169 0.034 -0.0169 -0.03
O2G 0.38 0.254 0.254 0.145 0 0
C1G 0.084 0.168 0.168 -0.052 -0.017 -0.017
C2G 0.112 0.173 0.173 -0.023 -0.028 -0.028
C3G 0.159 0.216 0.159 0.041 -0.073 -0.041
C4G 0.194 0.154 0.154 0.056 -0.029 -0.029
C5G 0.168 0.145 0.145 0.047 -0.001 -0.001
O1UB 0.156 0.169 0.165 0.0169 -0.03 -0.034
C1UB 0.168 0.168 0.084 0.017 -0.017 0.052
C2UB 0.173 0.173 0.112 0.028 -0.028 0.023
C3UB 0.216 0.159 0.159 0.073 -0.041 -0.041
C4UB 0.154 0.154 0.194 0.029 -0.029 -0.056
C5UB 0.145 0.145 0.168 0.001 -0.001 -0.047
O1FA 0.169 0.165 0.156 0.03 -0.034 -0.0169
C1FA 0.168 0.084 0.168 0.017 0.052 -0.017
C2FA 0.173 0.112 0.173 0.028 0.023 -0.028
C3FA 0.159 0.159 0.216 0.041 -0.041 -0.073
C4FA 0.154 0.194 0.154 0.029 -0.056 -0.029
C5FA 0.145 0.168 0.145 0.001 -0.047 -0.001
O1ED 0.169 0.156 0.165 0.03 -0.0169 -0.034
O1EG 0.156 0.165 0.169 0.0169 -0.034 -0.03
O1JE 0.165 0.169 0.156 0.034 -0.03 -0.0169
Cu1J 0.1389 0.13 0.1389 0 0.029 0
O2J 0.254 0.38 0.254 0 0.145 0
Cu1DA 0.13 0.1389 0.1389 0.029 0 0
Cu1FA 0.1389 0.13 0.1389 0 -0.029 0
Cu1ZA 0.13 0.1389 0.1389 -0.029 0 0
Cu1GB 0.1389 0.13 0.1389 0 0.029 0
Cu1UB 0.1389 0.1389 0.13 0 0 -0.029
Cu1YB 0.13 0.1389 0.1389 -0.029 0 0
Cu1CC 0.1389 0.13 0.1389 0 -0.029 0
O1J 0.169 0.165 0.156 0.03 0.034 0.0169
O1L 0.169 0.156 0.165 -0.03 0.0169 -0.034
O1P 0.156 0.165 0.169 0.0169 0.034 0.03
O1T 0.165 0.169 0.156 0.034 -0.03 -0.0169
O1SC 0.156 0.169 0.165 0.0169 -0.03 -0.034
O1XC 0.165 0.156 0.169 0.034 0.0169 0.03
O1CD 0.169 0.165 0.156 -0.03 0.034 -0.0169
O1MD 0.165 0.169 0.156 0.034 0.03 0.0169
N1? 0.216(6) 0.159(3) 0.159(3) -0.073(4) 0.041(4) -0.041(4)
loop_
_geom_bond_atom_site_label_1
_geom_bond_atom_site_label_2
_geom_bond_site_symmetry_1
_geom_bond_site_symmetry_2
Cu1 O1 1_555 1_555
O1 C1 1_555 1_555
O2 Cu1 1_555 1_555
C1 C5 1_555 1_555
C2 C3 1_555 1_555
C3 H1 1_555 1_555
C4 C2 1_555 1_555
C5 C8 1_555 1_555
C6 C4 1_555 1_555
H2 C6 1_555 1_555
C7 C4 1_555 1_555
H3 C7 1_555 1_555
C8 C6 1_555 1_555
H4 C8 1_555 1_555
C9 C5 1_555 1_555
H5 C9 1_555 1_555
O1GB C1GB 1_555 1_555
C1GB C5GB 1_555 1_555
C2GB C3 1_555 1_555
C3GB C2GB 1_555 1_555
H1GB C3GB 1_555 1_555
C4GB C2GB 1_555 1_555
C5GB C8GB 1_555 1_555
C6GB C4GB 1_555 1_555
H2GB C6GB 1_555 1_555
C7GB C4GB 1_555 1_555
H3GB C7GB 1_555 1_555
C8GB C6GB 1_555 1_555
H4GB C8GB 1_555 1_555
C9GB C5GB 1_555 1_555
H5GB C9GB 1_555 1_555
O1YB C1YB 1_555 1_555
C1YB C5YB 1_555 1_555
C2YB C3GB 1_555 1_555
C3YB C2 1_555 1_555
H1YB C3YB 1_555 1_555
C4YB C2YB 1_555 1_555
C5YB C8YB 1_555 1_555
C6YB C4YB 1_555 1_555
H2YB C6YB 1_555 1_555
C7YB C4YB 1_555 1_555
H3YB C7YB 1_555 1_555
C8YB C6YB 1_555 1_555
H4YB C8YB 1_555 1_555
C9YB C5YB 1_555 1_555
H5YB C9YB 1_555 1_555
O1ID C1GB 1_555 1_555
C6ID C4GB 1_555 1_555
H2ID C6ID 1_555 1_555
C7ID C4GB 1_555 1_555
H3ID C7ID 1_555 1_555
C8ID C5GB 1_555 1_555
H4ID C8ID 1_555 1_555
C9ID C5GB 1_555 1_555
H5ID C9ID 1_555 1_555
O1KF C1YB 1_555 1_555
C6KF C4YB 1_555 1_555
H2KF C6KF 1_555 1_555
C7KF C4YB 1_555 1_555
H3KF C7KF 1_555 1_555
C8KF C5YB 1_555 1_555
H4KF C8KF 1_555 1_555
C9KF C5YB 1_555 1_555
H5KF C9KF 1_555 1_555
O1XF C1 1_555 1_555
C6XF C4 1_555 1_555
H2XF C6XF 1_555 1_555
C7XF C4 1_555 1_555
H3XF C7XF 1_555 1_555
C8XF C5 1_555 1_555
H4XF C8XF 1_555 1_555
C9XF C5 1_555 1_555
H5XF C9XF 1_555 1_555
Cu1G O1G 1_555 1_555
O1G C1G 1_555 1_555
O2G Cu1G 1_555 1_555
C1G C5G 1_555 1_555
C2G C3G 1_555 1_555
C3G H1G 1_555 1_555
C4G C2G 1_555 1_555
C5G C8G 1_555 1_555
C6G C4G 1_555 1_555
H2G C6G 1_555 1_555
C7G C4G 1_555 1_555
H3G C7G 1_555 1_555
C8G C6G 1_555 1_555
H4G C8G 1_555 1_555
C9G C5G 1_555 1_555
H5G C9G 1_555 1_555
O1UB C1UB 1_555 1_555
C1UB C5UB 1_555 1_555
C2UB C3G 1_555 1_555
C3UB C2UB 1_555 1_555
H1UB C3UB 1_555 1_555
C4UB C2UB 1_555 1_555
C5UB C8UB 1_555 1_555
C6UB C4UB 1_555 1_555
H2UB C6UB 1_555 1_555
C7UB C4UB 1_555 1_555
H3UB C7UB 1_555 1_555
C8UB C6UB 1_555 1_555
H4UB C8UB 1_555 1_555
C9UB C5UB 1_555 1_555
H5UB C9UB 1_555 1_555
O1FA C1FA 1_555 1_555
C1FA C5FA 1_555 1_555
C2FA C3UB 1_555 1_555
C3FA C2G 1_555 1_555
H1FA C3FA 1_555 1_555
C4FA C2FA 1_555 1_555
C5FA C8FA 1_555 1_555
C6FA C4FA 1_555 1_555
H2FA C6FA 1_555 1_555
C7FA C4FA 1_555 1_555
H3FA C7FA 1_555 1_555
C8FA C6FA 1_555 1_555
H4FA C8FA 1_555 1_555
C9FA C5FA 1_555 1_555
H5FA C9FA 1_555 1_555
O1ED Cu1 1_555 1_555
C6ED C4UB 1_555 1_555
H2ED C6ED 1_555 1_555
C7ED C4UB 1_555 1_555
H3ED C7ED 1_555 1_555
C8ED C5UB 1_555 1_555
H4ED C8ED 1_555 1_555
C9ED C5UB 1_555 1_555
H5ED C9ED 1_555 1_555
O1EG C1FA 1_555 1_555
C6EG C4FA 1_555 1_555
H2EG C6EG 1_555 1_555
C7EG C4FA 1_555 1_555
H3EG C7EG 1_555 1_555
C8EG C5FA 1_555 1_555
H4EG C8EG 1_555 1_555
C9EG C5FA 1_555 1_555
H5EG C9EG 1_555 1_555
O1JE C1G 1_555 1_555
C6JE C4G 1_555 1_555
H2JE C6JE 1_555 1_555
C7JE C4G 1_555 1_555
H3JE C7JE 1_555 1_555
C8JE C5G 1_555 1_555
H4JE C8JE 1_555 1_555
C9JE C5G 1_555 1_555
H5JE C9JE 1_555 1_555
Cu1J O1ID 1_555 1_555
O2J Cu1J 1_555 1_555
Cu1DA Cu1G 1_555 1_555
Cu1FA O1FA 1_555 1_555
Cu1ZA O1KF 1_555 1_555
Cu1GB O1GB 1_555 1_555
Cu1UB Cu1 1_555 1_555
Cu1YB O1YB 1_555 1_555
Cu1CC O1EG 1_555 1_555
O1J Cu1J 1_555 1_555
O1L Cu1 1_555 1_555
O1P Cu1J 1_555 1_555
O1T Cu1G 1_555 1_555
O1SC Cu1 1_555 1_555
O1XC Cu1G 1_555 1_555
O1CD Cu1J 1_555 1_555
O1MD Cu1G 1_555 1_555
C6 C7 1_555 1_555
C7 C9 1_555 1_555
C8 C9 1_555 1_555
H4 C9 1_555 1_555
C6GB C7GB 1_555 1_555
C7GB C9GB 1_555 1_555
C8GB C9GB 1_555 1_555
H4GB C9GB 1_555 1_555
C2YB C3YB 1_555 1_555
C6YB C7YB 1_555 1_555
C7YB C9YB 1_555 1_555
C8YB C9YB 1_555 1_555
H4YB C9YB 1_555 1_555
C6ID C7ID 1_555 1_555
C6ID C8ID 1_555 1_555
C7ID C9ID 1_555 1_555
C8ID C9ID 1_555 1_555
H4ID C9ID 1_555 1_555
C6KF C7KF 1_555 1_555
C6KF C8KF 1_555 1_555
C7KF C9KF 1_555 1_555
C8KF C9KF 1_555 1_555
H4KF C9KF 1_555 1_555
O1XF Cu1UB 1_555 1_555
C6XF C7XF 1_555 1_555
C6XF C8XF 1_555 1_555
C7XF C9XF 1_555 1_555
C8XF C9XF 1_555 1_555
H4XF C9XF 1_555 1_555
C6G C7G 1_555 1_555
C7G C9G 1_555 1_555
C8G C9G 1_555 1_555
H4G C9G 1_555 1_555
O1UB Cu1UB 1_555 1_555
C1UB O1ED 1_555 1_555
C6UB C7UB 1_555 1_555
C7UB C9UB 1_555 1_555
C8UB C9UB 1_555 1_555
H4UB C9UB 1_555 1_555
C2FA C3FA 1_555 1_555
C6FA C7FA 1_555 1_555
C7FA C9FA 1_555 1_555
C8FA C9FA 1_555 1_555
H4FA C9FA 1_555 1_555
C6ED C7ED 1_555 1_555
C6ED C8ED 1_555 1_555
C7ED C9ED 1_555 1_555
C8ED C9ED 1_555 1_555
H4ED C9ED 1_555 1_555
C6EG C7EG 1_555 1_555
C6EG C8EG 1_555 1_555
C7EG C9EG 1_555 1_555
C8EG C9EG 1_555 1_555
H4EG C9EG 1_555 1_555
O1JE Cu1DA 1_555 1_555
C6JE C7JE 1_555 1_555
C6JE C8JE 1_555 1_555
C7JE C9JE 1_555 1_555
C8JE C9JE 1_555 1_555
H4JE C9JE 1_555 1_555
Cu1J Cu1GB 1_555 1_555
Cu1FA Cu1CC 1_555 1_555
Cu1ZA Cu1YB 1_555 1_555

#END
