
#######################################################################
#
#                 Cambridge Crystallographic Data Centre
#                                CCDC 
#
#######################################################################
#
# If this CIF has been generated from an entry in the Cambridge 
# Structural Database, then it will include bibliographic, chemical, 
# crystal, experimental, refinement or atomic coordinate data resulting 
# from the CCDC's data processing and validation procedures.
#
#######################################################################

data_JAZHIE
_chemical_name_common            FDM-4
_chemical_formula_moiety         '(C96 H48 Cu18 N48 O53 Zn20)n,6(H6 O4 Zn1)'
_chemical_name_systematic        
'catena-[tetracosakis(\m-pyrazol-1-yl-4-carboxylato)-pentakis(\m-oxido)-octadeca-copper(i)-icosa-zinc(ii) hexakis(diaqua-dihydroxo-zinc(ii)) unknown solvate]'
_symmetry_cell_setting           hexagonal
_symmetry_space_group_name_H-M   'P 63 m c'
_symmetry_Int_Tables_number      186
_space_group_name_Hall           'P 6c -2c'
loop_
_symmetry_equiv_pos_site_id
_symmetry_equiv_pos_as_xyz
1 x,y,z
2 x-y,x,1/2+z
3 -y,x-y,z
4 -x,-y,1/2+z
5 -x+y,-x,z
6 y,-x+y,1/2+z
7 y,x,1/2+z
8 -x+y,y,z
9 -x,-x+y,1/2+z
10 -y,-x,z
11 x-y,-y,1/2+z
12 x,x-y,z
_cell_length_a                   27.3490(15)
_cell_length_b                   27.3490(15)
_cell_length_c                   45.793(3)
_cell_angle_alpha                90
_cell_angle_beta                 90
_cell_angle_gamma                120
_cell_volume                     29662.8
_exptl_crystal_colour            blue
_exptl_crystal_description       'hexagonal block'
_cell_formula_units_Z            2
loop_
_atom_site_label
_atom_site_type_symbol
_atom_site_fract_x
_atom_site_fract_y
_atom_site_fract_z
Zn1 Zn 0.68133(6) 0.84066(3) 0.18697(4)
Zn2 Zn 0.6667 0.3333 -0.05609(6)
Zn3 Zn 0.70508(4) 0.41017(9) 0.00011(4)
Zn4 Zn 0.96108(7) 1.03892(7) 0.01612(5)
Zn5 Zn 1.0000 1.0000 -0.03953(8)
Zn6 Zn 0.81138(7) 0.90569(4) 0.20739(5)
Zn7 Zn 0.77440(5) 0.82964(6) 0.15094(4)
Cu1 Cu 0.47166(7) 0.52834(7) 0.14412(8)
Cu2 Cu 0.57998(9) 0.53711(9) 0.10457(7)
Cu3 Cu 0.74635(18) 0.87317(9) 0.36179(8)
Cu4 Cu 0.60651(15) 0.80326(7) 0.35203(7)
Cu5 Cu 0.83541(10) 1.16459(10) -0.08269(10)
O1 O 0.7076(3) 0.7565(4) 0.1498(2)
O2 O 0.6380(3) 0.7618(3) 0.17337(17)
O3 O 0.7592(4) 0.87961(18) 0.1744(2)
O4 O 0.7973(6) 0.8616(6) 0.1129(3)
O5 O 0.6693(5) 0.8347(3) 0.2301(3)
O6 O 0.7637(5) 0.8818(2) 0.2417(3)
O7 O 1.0000 1.0000 0.0040(5)
O8 O 0.7019(3) 0.4039(6) -0.0738(3)
O9 O 0.6667 0.3333 -0.0113(3)
O10 O 0.6566(3) 0.4249(4) 0.0267(2)
O11 O 0.7289(3) 0.4577(6) -0.0326(3)
O12 O 0.9660(5) 1.0340(5) -0.0562(5)
O13 O 0.9374(3) 1.0626(3) -0.0207(4)
N1 N 0.8366(4) 1.0094(5) 0.1693(3)
N2 N 0.8586(4) 0.9883(5) 0.2008(3)
N3 N 0.5711(4) 0.4775(4) 0.0810(3)
N4 N 0.5845(5) 0.5964(4) 0.1268(3)
N5 N 0.5442(4) 0.5952(4) 0.1434(3)
N6 N 0.6542(6) 0.8271(3) 0.3180(4)
N7 N 0.7057(11) 0.8528(5) 0.3254(4)
N8 N 0.8980(6) 0.9796(6) 0.0388(2)
N9 N 0.8943(7) 1.1057(7) -0.1015(7)
N10 N 0.8747(6) 1.1253(6) -0.0766(7)
N11 N 0.7817(5) 0.5633(9) -0.1112(5)
N12 N 0.7959(7) 0.5919(14) -0.0863(6)
C1 C 0.6599(5) 0.7396(5) 0.1574(3)
C2 C 0.6181(4) 0.6789(4) 0.1485(3)
C3 C 0.6289(6) 0.6442(6) 0.1302(4)
H1 H 0.6636 0.6546 0.1216
C4 C 0.5613(5) 0.6428(5) 0.1547(3)
H2 H 0.5391 0.6527 0.1658
C5 C 0.6062(6) 0.4695(6) 0.0655(3)
H3 H 0.6433 0.4970 0.0614
C6 C 0.5824(4) 0.4176(4) 0.0564(4)
C7 C 0.6989(8) 0.8495(4) 0.2778(3)
C8 C 0.6485(7) 0.8243(4) 0.2918(4)
H4 H 0.6137 0.8069 0.2823
C9 C 0.7548(4) 0.5097(8) -0.1078(4)
H5 H 0.7409 0.4818 -0.1221
C10 C 0.9162(5) 1.0838(5) -0.0929(6)
H6 H 0.9322 1.0678 -0.1046
C11 C 0.9168(6) 1.0832(6) -0.0627(6)
C12 C 0.7133(14) 0.8566(7) 0.2443(6)
C13 C 0.7512(5) 0.5025(11) -0.0752(5)
C14 C 0.7239(5) 0.4477(10) -0.0601(5)
C15 C 0.8097(13) 0.9048(6) 0.1057(10)
C16 C 0.9253(4) 1.0747(4) 0.1850(5)
C17 C 0.9083(9) 1.0312(9) 0.2052(6)
C18 C 0.8497(9) 0.9249(5) 0.0776(5)
C19 C 0.6072(4) 0.3928(4) 0.0327(3)
C20 C 0.7369(13) 0.8685(6) 0.2975(6)
H7 H 0.7759 0.8879 0.2949
C21 C 0.8927(11) 1.1073(11) -0.0534(12)
H8 H 0.8875 1.1125 -0.0338
C22 C 0.9428(7) 1.0572(7) -0.0464(6)
C23 C 0.8712(11) 0.9764(11) 0.0613(5)
H9 H 0.8653 1.0056 0.0673
C24 C 0.7805(6) 0.5611(12) -0.0635(6)
H10 H 0.7863 0.5725 -0.0441
C25 C 0.8811(8) 1.0571(9) 0.1653(6)
C26 C 0.8666(9) 1.0192(9) 0.1839(9)
O4K O 0.7973(6) 0.9357(8) 0.1129(3)
N8K N 0.8980(6) 0.9184(8) 0.0388(2)
C23K C 0.8712(11) 0.8948(16) 0.0613(5)
H9K H 0.8653 0.8597 0.0673
O10I O 0.5751(4) 0.3434(3) 0.0267(2)
N3I N 0.5225(4) 0.4289(4) 0.0810(3)
C5I C 0.5305(6) 0.3938(6) 0.0655(3)
H3I H 0.5030 0.3567 0.0614
N1I N 0.9906(5) 1.1634(4) 0.1693(3)
N2I N 1.0117(5) 1.1414(4) 0.2008(3)
C17I C 0.9688(9) 1.0917(9) 0.2052(6)
C25I C 0.9429(9) 1.1189(8) 0.1653(6)
C26I C 0.9808(9) 1.1334(9) 0.1839(9)
Zn3B Zn 0.58983(9) 0.29491(10) 0.00011(4)
Zn7B Zn 0.17036(6) -0.05524(8) 0.15094(4)
Cu1B Cu 0.47166(7) -0.05668(10) 0.14412(8)
Cu2B Cu 0.46289(9) 0.04287(13) 0.10457(7)
O1B O 0.2435(4) -0.0489(5) 0.1498(2)
O2B O 0.2382(3) -0.1238(4) 0.17337(17)
O4B O 0.1384(6) -0.0643(8) 0.1129(3)
O8B O 0.5961(6) 0.2980(7) -0.0738(3)
O10B O 0.5751(4) 0.2317(5) 0.0267(2)
O11B O 0.5423(6) 0.2712(7) -0.0326(3)
N3B N 0.5225(4) 0.0936(6) 0.0810(3)
N4B N 0.4036(4) -0.0119(6) 0.1268(3)
N5B N 0.4048(4) -0.0510(6) 0.1434(3)
N8B N 0.0204(6) -0.0816(8) 0.0388(2)
N11B N 0.4367(9) 0.2184(10) -0.1112(5)
N12B N 0.4081(14) 0.2040(16) -0.0863(6)
C1B C 0.2604(5) -0.0797(7) 0.1574(3)
C2B C 0.3211(4) -0.0608(6) 0.1485(3)
C3B C 0.3558(6) -0.0153(8) 0.1302(4)
H1B H 0.3454 0.0090 0.1216
C4B C 0.3572(5) -0.0815(7) 0.1547(3)
H2B H 0.3473 -0.1136 0.1658
C5B C 0.5305(6) 0.1367(8) 0.0655(3)
H3B H 0.5030 0.1463 0.0614
C6B C 0.5824(4) 0.1648(6) 0.0564(4)
C9B C 0.4903(8) 0.2451(9) -0.1078(4)
H5B H 0.5182 0.2591 -0.1221
C13B C 0.4975(11) 0.2487(12) -0.0752(5)
C14B C 0.5523(10) 0.2762(11) -0.0601(5)
C15B C 0.0952(6) -0.0951(14) 0.1057(10)
C18B C 0.0751(5) -0.0752(10) 0.0776(5)
C19B C 0.6072(4) 0.2144(6) 0.0327(3)
C23B C 0.0236(11) -0.1052(16) 0.0613(5)
H9B H -0.0056 -0.1403 0.0673
C24B C 0.4389(12) 0.2194(13) -0.0635(6)
H10B H 0.4275 0.2138 -0.0441
O4G O 0.0643(8) -0.1384(6) 0.1129(3)
N8G N 0.0816(8) -0.0204(6) 0.0388(2)
C23G C 0.1052(16) -0.0236(11) 0.0613(5)
H9G H 0.1403 0.0056 0.0673
O10K O 0.6566(3) 0.2317(5) 0.0267(2)
N3K N 0.5711(4) 0.0936(6) 0.0810(3)
C5K C 0.6062(6) 0.1367(8) 0.0655(3)
H3K H 0.6433 0.1463 0.0614
Zn3D Zn 0.70509(10) 0.29492(4) 0.00011(4)
Zn7D Zn 1.05524(8) 0.22560(5) 0.15094(4)
Cu1D Cu 1.05668(10) 0.52834(7) 0.14412(8)
Cu2D Cu 0.95713(13) 0.42002(9) 0.10457(7)
O1D O 1.0489(5) 0.2924(3) 0.1498(2)
O2D O 1.1238(4) 0.3620(3) 0.17337(17)
O8D O 0.7020(7) 0.2981(3) -0.0738(3)
O10D O 0.7683(5) 0.3434(3) 0.0267(2)
O11D O 0.7288(7) 0.2711(3) -0.0326(3)
N3D N 0.9064(6) 0.4289(4) 0.0810(3)
N4D N 1.0119(6) 0.4155(5) 0.1268(3)
N5D N 1.0510(6) 0.4558(4) 0.1434(3)
N11D N 0.7816(10) 0.2183(5) -0.1112(5)
N12D N 0.7960(16) 0.2041(7) -0.0863(6)
C1D C 1.0797(7) 0.3401(5) 0.1574(3)
C2D C 1.0608(6) 0.3819(4) 0.1485(3)
C3D C 1.0153(8) 0.3711(6) 0.1302(4)
H1D H 0.9910 0.3364 0.1216
C4D C 1.0815(7) 0.4387(5) 0.1547(3)
H2D H 1.1136 0.4609 0.1658
C5D C 0.8633(8) 0.3938(6) 0.0655(3)
H3D H 0.8537 0.3567 0.0614
C6D C 0.8352(6) 0.4176(4) 0.0564(4)
C9D C 0.7549(9) 0.2452(4) -0.1078(4)
H5D H 0.7409 0.2591 -0.1221
C13D C 0.7513(12) 0.2488(5) -0.0752(5)
C14D C 0.7238(11) 0.2761(5) -0.0601(5)
C19D C 0.7856(6) 0.3928(4) 0.0327(3)
C24D C 0.7806(13) 0.2195(6) -0.0635(6)
H10D H 0.7862 0.2137 -0.0441
O10G O 0.7683(5) 0.4249(4) 0.0267(2)
N3G N 0.9064(6) 0.4775(4) 0.0810(3)
C5G C 0.8633(8) 0.4695(6) 0.0655(3)
H3G H 0.8537 0.4970 0.0614
Zn1B Zn 1.15934(3) 0.84067(7) 0.18697(4)
Zn4D Zn 1.07784(10) 1.03892(7) 0.01612(5)
Zn6B Zn 1.09431(4) 0.90569(8) 0.20739(5)
Zn7G Zn 1.05524(8) 0.82964(6) 0.15094(4)
Cu2G Cu 0.95713(13) 0.53711(9) 0.10457(7)
Cu3B Cu 1.12683(9) 0.87318(20) 0.36179(8)
Cu4B Cu 1.19674(7) 0.80325(17) 0.35203(7)
Cu5D Cu 1.32918(14) 1.16459(10) -0.08269(10)
O1G O 1.0489(5) 0.7565(4) 0.1498(2)
O2G O 1.1238(4) 0.7618(3) 0.17337(17)
O3B O 1.12039(18) 0.87959(44) 0.1744(2)
O4G_2 O 1.0643(8) 0.8616(6) 0.1129(3)
O5B O 1.1653(3) 0.8346(6) 0.2301(3)
O6B O 1.1182(2) 0.8819(5) 0.2417(3)
O12D O 1.0680(7) 1.0340(5) -0.0562(5)
O13D O 1.1252(4) 1.0626(3) -0.0207(4)
N1G N 1.1728(6) 1.0094(5) 0.1693(3)
N2G N 1.1297(6) 0.9883(5) 0.2008(3)
N4G N 1.0119(6) 0.5964(4) 0.1268(3)
N5G N 1.0510(6) 0.5952(4) 0.1434(3)
N6B N 1.1729(3) 0.8271(7) 0.3180(4)
N7B N 1.1472(5) 0.8529(12) 0.3254(4)
N8G_2 N 1.0816(8) 0.9796(6) 0.0388(2)
N9D N 1.2114(10) 1.1057(7) -0.1015(7)
N10D N 1.2506(8) 1.1253(6) -0.0766(7)
C1G C 1.0797(7) 0.7396(5) 0.1574(3)
C2G C 1.0608(6) 0.6789(4) 0.1485(3)
C3G C 1.0153(8) 0.6442(6) 0.1302(4)
H1G H 0.9910 0.6546 0.1216
C4G C 1.0815(7) 0.6428(5) 0.1547(3)
H2G H 1.1136 0.6527 0.1658
C7B C 1.1505(4) 0.8494(9) 0.2778(3)
C8B C 1.1757(4) 0.8242(8) 0.2918(4)
H4B H 1.1931 0.8068 0.2823
C10D C 1.1676(7) 1.0838(5) -0.0929(6)
H6D H 1.1356 1.0678 -0.1046
C11D C 1.1664(8) 1.0832(6) -0.0627(6)
C12B C 1.1434(7) 0.8567(16) 0.2443(6)
C15B_2 C 1.0952(6) 0.9049(14) 0.1057(10)
C16D C 1.1494(6) 1.0747(4) 0.1850(5)
C17G C 1.1229(13) 1.0312(9) 0.2052(6)
C18B_2 C 1.0751(5) 0.9248(10) 0.0776(5)
C20B C 1.1315(6) 0.8684(14) 0.2975(6)
H7B H 1.1121 0.8880 0.2949
C21D C 1.2146(16) 1.1073(11) -0.0534(12)
H8D H 1.2250 1.1125 -0.0338
C22D C 1.1144(10) 1.0572(7) -0.0464(6)
C23G_2 C 1.1052(16) 0.9764(11) 0.0613(5)
H9G_2 H 1.1403 1.0056 0.0673
C25G C 1.1760(12) 1.0571(9) 0.1653(6)
C26G C 1.1526(13) 1.0192(9) 0.1839(9)
O4B_2 O 1.1384(6) 0.9357(8) 0.1129(3)
N8B_2 N 1.0204(6) 0.9184(8) 0.0388(2)
C23B_2 C 1.0236(11) 0.8948(16) 0.0613(5)
H9B_2 H 0.9944 0.8597 0.0673
N1D N 1.1728(6) 1.1634(4) 0.1693(3)
N2D N 1.1297(6) 1.1414(4) 0.2008(3)
C17D C 1.1229(13) 1.0917(9) 0.2052(6)
C25D C 1.1760(12) 1.1189(8) 0.1653(6)
C26D C 1.1526(13) 1.1334(9) 0.1839(9)
Zn1D Zn 0.15933(7) 0.31867(6) 0.18697(4)
Zn6D Zn 0.09431(8) 0.18862(7) 0.20739(5)
Zn7I Zn 0.17036(6) 0.22560(5) 0.15094(4)
Cu2I Cu 0.46289(9) 0.42002(9) 0.10457(7)
O1I O 0.2435(4) 0.2924(3) 0.1498(2)
O2I O 0.2382(3) 0.3620(3) 0.17337(17)
O3D O 0.12041(44) 0.2408(4) 0.1744(2)
N4I N 0.4036(4) 0.4155(5) 0.1268(3)
N5I N 0.4048(4) 0.4558(4) 0.1434(3)
C1I C 0.2604(5) 0.3401(5) 0.1574(3)
C2I C 0.3211(4) 0.3819(4) 0.1485(3)
C3I C 0.3558(6) 0.3711(6) 0.1302(4)
H1I H 0.3454 0.3364 0.1216
C4I C 0.3572(5) 0.4387(5) 0.1547(3)
H2I H 0.3473 0.4609 0.1658
Zn7K Zn 0.77440(5) -0.05524(8) 0.15094(4)
Cu2K Cu 0.57998(9) 0.04287(13) 0.10457(7)
O1K O 0.7076(3) -0.0489(5) 0.1498(2)
O2K O 0.6380(3) -0.1238(4) 0.17337(17)
N4K N 0.5845(5) -0.0119(6) 0.1268(3)
N5K N 0.5442(4) -0.0510(6) 0.1434(3)
C1K C 0.6599(5) -0.0797(7) 0.1574(3)
C2K C 0.6181(4) -0.0608(6) 0.1485(3)
C3K C 0.6289(6) -0.0153(8) 0.1302(4)
H1K H 0.6636 0.0090 0.1216
C4K C 0.5613(5) -0.0815(7) 0.1547(3)
H2K H 0.5391 -0.1136 0.1658
Zn4B Zn 0.96108(7) 0.92216(10) 0.01612(5)
Cu5B Cu 0.83541(10) 0.67082(14) -0.08269(10)
O12B O 0.9660(5) 0.9320(7) -0.0562(5)
O13B O 0.9374(3) 0.8748(4) -0.0207(4)
N9B N 0.8943(7) 0.7886(10) -0.1015(7)
N10B N 0.8747(6) 0.7494(8) -0.0766(7)
C10B C 0.9162(5) 0.8324(7) -0.0929(6)
H6B H 0.9322 0.8644 -0.1046
C11B C 0.9168(6) 0.8336(8) -0.0627(6)
C21B C 0.8927(11) 0.7854(16) -0.0534(12)
H8B H 0.8875 0.7750 -0.0338
C22B C 0.9428(7) 0.8856(10) -0.0464(6)
N1K N 0.8366(4) 0.8272(6) 0.1693(3)
N2K N 0.8586(4) 0.8703(6) 0.2008(3)
C16B C 0.9253(4) 0.8506(6) 0.1850(5)
C17K C 0.9083(9) 0.8771(13) 0.2052(6)
C25K C 0.8811(8) 0.8240(12) 0.1653(6)
C26K C 0.8666(9) 0.8474(13) 0.1839(9)
N1B N 0.9906(5) 0.8272(6) 0.1693(3)
N2B N 1.0117(5) 0.8703(6) 0.2008(3)
C17B C 0.9688(9) 0.8771(13) 0.2052(6)
C25B C 0.9429(9) 0.8240(12) 0.1653(6)
C26B C 0.9808(9) 0.8474(13) 0.1839(9)
O5D O 0.1654(6) 0.3307(5) 0.2301(3)
O6D O 0.1181(5) 0.2363(5) 0.2417(3)
N6D N 0.1729(7) 0.3458(6) 0.3180(4)
N7D N 0.1471(12) 0.2943(11) 0.3254(4)
C7D C 0.1506(9) 0.3011(8) 0.2778(3)
C8D C 0.1758(8) 0.3515(7) 0.2918(4)
H4D H 0.1932 0.3863 0.2823
C12D C 0.1433(16) 0.2867(14) 0.2443(6)
C20D C 0.1316(14) 0.2631(13) 0.2975(6)
H7D H 0.1120 0.2241 0.2949
Cu3E Cu 0.87317(9) 1.12682(20) -0.13821(8)
Cu4A Cu 0.80325(17) 0.60651(15) -0.14797(7)
Zn1_2 Zn 0.68133(6) -0.15934(3) 0.18697(4)
Zn1B_2 Zn 0.15934(3) -0.15933(7) 0.18697(4)
Zn1D_2 Zn 1.15933(7) 0.31867(6) 0.18697(4)
Zn4B_2 Zn -0.03892(7) -0.07784(10) 0.01612(5)
Zn4D_2 Zn 0.07784(10) 0.03892(7) 0.01612(5)
Zn6D_2 Zn 1.09431(8) 1.18862(7) 0.20739(5)
Zn7B_2 Zn 1.17036(6) 0.94476(8) 0.15094(4)
Zn7D_2 Zn 0.05524(8) 0.22560(5) 0.15094(4)
Zn7D_3 Zn 1.05524(8) 1.22560(5) 0.15094(4)
Zn7G_2 Zn 0.05524(8) -0.17036(6) 0.15094(4)
Zn7I_2 Zn 1.17036(6) 1.22560(5) 0.15094(4)
Zn7K_2 Zn 0.77440(5) 0.94476(8) 0.15094(4)
Cu3A Cu 0.87318(20) 0.74635(18) -0.13821(8)
Cu3C Cu 1.25365(18) 1.12683(9) -0.13821(8)
Cu3D Cu 0.12682(20) 0.25365(18) 0.36179(8)
Cu4C Cu 0.39349(15) 0.19674(7) -0.14797(7)
Cu4D Cu 0.19675(17) 0.39349(15) 0.35203(7)
Cu4E Cu 0.80326(7) 0.19675(17) -0.14797(7)
Cu5_2 Cu 0.83541(10) 0.16459(10) -0.08269(10)
Cu5D_2 Cu 0.32918(14) 0.16459(10) -0.08269(10)
O2B_2 O 1.2382(3) 0.8762(4) 0.17337(17)
O2D_2 O 0.1238(4) 0.3620(3) 0.17337(17)
O2K_2 O 0.6380(3) 0.8762(4) 0.17337(17)
O3_2 O 0.7592(4) -0.12039(18) 0.1744(2)
O3B_2 O 0.12039(18) -0.12041(44) 0.1744(2)
O3D_2 O 1.12041(44) 0.2408(4) 0.1744(2)
O4D O 1.0643(8) 0.2027(6) 0.1129(3)
O4I O 0.1384(6) 0.2027(6) 0.1129(3)
O4K_2 O 0.7973(6) -0.0643(8) 0.1129(3)
N1_2 N 0.8366(4) 0.0094(5) 0.1693(3)
N1D_2 N 0.1728(6) 0.1634(4) 0.1693(3)
N1G_2 N 0.1728(6) 0.0094(5) 0.1693(3)
N1I_2 N 0.9906(5) 0.1634(4) 0.1693(3)
N2D_2 N 0.1297(6) 0.1414(4) 0.2008(3)
N2I_2 N 0.0117(5) 0.1414(4) 0.2008(3)
N6A N 0.8271(7) 0.6542(6) -0.1820(4)
N7E N 0.8528(5) 1.1471(12) -0.1746(4)
N8D N 1.0816(8) 1.1020(6) 0.0388(2)
N8I N 1.0204(6) 1.1020(6) 0.0388(2)
N9A N 0.7886(10) 0.8943(7) 0.3985(7)
N9C N 1.1057(7) 0.8943(7) 0.3985(7)
N11A N 1.2184(10) 0.7817(5) 0.3888(5)
N11E N 0.5633(9) 0.7816(10) 0.3888(5)
N12B_2 N 1.4081(14) 1.2040(16) -0.0863(6)
N12D_2 N 0.7960(16) 1.2041(7) -0.0863(6)
loop_
_geom_bond_atom_site_label_1
_geom_bond_atom_site_label_2
_geom_bond_site_symmetry_1
_geom_bond_site_symmetry_2
Zn1 O2 1_555 1_555
Zn2 O8 1_555 1_555
Zn3 O9 1_555 1_555
Zn4 O7 1_555 1_555
Zn5 O7 1_555 1_555
Zn6 O3 1_555 1_555
Zn7 O1 1_555 1_555
Cu1 N5 1_555 1_555
Cu2 N3 1_555 1_555
Cu3 N7 1_555 1_555
Cu4 N6 1_555 1_555
Cu5 N10 1_555 1_555
O1 C1 1_555 1_555
O2 C1 1_555 1_555
O3 Zn1 1_555 1_555
O4 Zn7 1_555 1_555
O5 Zn1 1_555 1_555
O6 Zn6 1_555 1_555
O7 Zn4D 1_555 1_555
O8 C14 1_555 1_555
O9 Zn2 1_555 1_555
O10 Zn3 1_555 1_555
O11 Zn3 1_555 1_555
O12 Zn5 1_555 1_555
O13 Zn4 1_555 1_555
N1 N2 1_555 1_555
N2 Zn6 1_555 1_555
N3 C5 1_555 1_555
N4 Cu2 1_555 1_555
N5 N4 1_555 1_555
N6 N7 1_555 1_555
N7 C20 1_555 1_555
N8 Zn4 1_555 1_555
N9 N10 1_555 1_555
N10 C21 1_555 1_555
N11 N12 1_555 1_555
N12 C24 1_555 1_555
C1 C2 1_555 1_555
C2 C3 1_555 1_555
C3 N4 1_555 1_555
H1 C3 1_555 1_555
C4 N5 1_555 1_555
H2 C4 1_555 1_555
C5 H3 1_555 1_555
C6 C5 1_555 1_555
C7 C8 1_555 1_555
C8 N6 1_555 1_555
H4 C8 1_555 1_555
C9 N11 1_555 1_555
H5 C9 1_555 1_555
C10 N9 1_555 1_555
H6 C10 1_555 1_555
C11 C10 1_555 1_555
C12 O5 1_555 1_555
C13 C9 1_555 1_555
C14 O11 1_555 1_555
C15 O4 1_555 1_555
C16 C17 1_555 1_555
C17 N2 1_555 1_555
C18 C15 1_555 1_555
C19 O10 1_555 1_555
C20 C7 1_555 1_555
H7 C20 1_555 1_555
C21 C11 1_555 1_555
H8 C21 1_555 1_555
C22 O12 1_555 1_555
C23 N8 1_555 1_555
H9 C23 1_555 1_555
C24 C13 1_555 1_555
H10 C24 1_555 1_555
C25 N1 1_555 1_555
C26 N1 1_555 1_555
O4K C15 1_555 1_555
N8K N8 1_555 1_555
C23K C18 1_555 1_555
H9K C23K 1_555 1_555
O10I C19 1_555 1_555
N3I N3 1_555 1_555
C5I C6 1_555 1_555
H3I C5I 1_555 1_555
N1I N2I 1_555 1_555
N2I C17I 1_555 1_555
C17I C16 1_555 1_555
C25I C16 1_555 1_555
C26I C16 1_555 1_555
Zn3B O9 1_555 1_555
Zn7B O1B 1_555 1_555
Cu1B N5B 1_555 1_555
Cu2B N3B 1_555 1_555
O1B C1B 1_555 1_555
O2B C1B 1_555 1_555
O4B Zn7B 1_555 1_555
O8B Zn2 1_555 1_555
O10B Zn3B 1_555 1_555
O11B Zn3B 1_555 1_555
N3B C5B 1_555 1_555
N4B Cu2B 1_555 1_555
N5B N4B 1_555 1_555
N8B C23B 1_555 1_555
N11B N12B 1_555 1_555
N12B C24B 1_555 1_555
C1B C2B 1_555 1_555
C2B C3B 1_555 1_555
C3B N4B 1_555 1_555
H1B C3B 1_555 1_555
C4B N5B 1_555 1_555
H2B C4B 1_555 1_555
C5B H3B 1_555 1_555
C6B C5B 1_555 1_555
C9B N11B 1_555 1_555
H5B C9B 1_555 1_555
C13B C9B 1_555 1_555
C14B O8B 1_555 1_555
C15B O4B 1_555 1_555
C18B C15B 1_555 1_555
C19B O10B 1_555 1_555
C23B C18B 1_555 1_555
H9B C23B 1_555 1_555
C24B C13B 1_555 1_555
H10B C24B 1_555 1_555
O4G C15B 1_555 1_555
N8G N8B 1_555 1_555
C23G C18B 1_555 1_555
H9G C23G 1_555 1_555
O10K C19B 1_555 1_555
N3K N3B 1_555 1_555
C5K C6B 1_555 1_555
H3K C5K 1_555 1_555
Zn3D O9 1_555 1_555
Zn7D O1D 1_555 1_555
Cu1D N5D 1_555 1_555
Cu2D N3D 1_555 1_555
O1D C1D 1_555 1_555
O2D C1D 1_555 1_555
O8D Zn2 1_555 1_555
O10D Zn3D 1_555 1_555
O11D Zn3D 1_555 1_555
N3D C5D 1_555 1_555
N4D Cu2D 1_555 1_555
N5D N4D 1_555 1_555
N11D N12D 1_555 1_555
N12D C24D 1_555 1_555
C1D C2D 1_555 1_555
C2D C3D 1_555 1_555
C3D N4D 1_555 1_555
H1D C3D 1_555 1_555
C4D N5D 1_555 1_555
H2D C4D 1_555 1_555
C5D H3D 1_555 1_555
C6D C5D 1_555 1_555
C9D N11D 1_555 1_555
H5D C9D 1_555 1_555
C13D C9D 1_555 1_555
C14D O8D 1_555 1_555
C19D O10D 1_555 1_555
C24D C13D 1_555 1_555
H10D C24D 1_555 1_555
O10G Zn3 1_555 1_555
N3G N3D 1_555 1_555
C5G C6D 1_555 1_555
H3G C5G 1_555 1_555
Zn1B O2G 1_555 1_555
Zn4D O13D 1_555 1_555
Zn6B O3B 1_555 1_555
Zn7G O1G 1_555 1_555
Cu2G N3G 1_555 1_555
Cu3B N7B 1_555 1_555
Cu4B N6B 1_555 1_555
Cu5D N10D 1_555 1_555
O1G C1G 1_555 1_555
O2G C1G 1_555 1_555
O3B Zn1B 1_555 1_555
O4G_2 Zn7G 1_555 1_555
O5B Zn1B 1_555 1_555
O6B Zn6B 1_555 1_555
O12D Zn5 1_555 1_555
O13D C22D 1_555 1_555
N1G N2G 1_555 1_555
N2G Zn6B 1_555 1_555
N4G Cu2G 1_555 1_555
N5G Cu1D 1_555 1_555
N6B N7B 1_555 1_555
N7B C20B 1_555 1_555
N8G_2 Zn4D 1_555 1_555
N9D N10D 1_555 1_555
N10D C21D 1_555 1_555
C1G C2G 1_555 1_555
C2G C3G 1_555 1_555
C3G N4G 1_555 1_555
H1G C3G 1_555 1_555
C4G N5G 1_555 1_555
H2G C4G 1_555 1_555
C7B C8B 1_555 1_555
C8B N6B 1_555 1_555
H4B C8B 1_555 1_555
C10D N9D 1_555 1_555
H6D C10D 1_555 1_555
C11D C10D 1_555 1_555
C12B O5B 1_555 1_555
C15B_2 O4G_2 1_555 1_555
C16D C17G 1_555 1_555
C17G N2G 1_555 1_555
C18B_2 C15B_2 1_555 1_555
C20B C7B 1_555 1_555
H7B C20B 1_555 1_555
C21D C11D 1_555 1_555
H8D C21D 1_555 1_555
C22D O12D 1_555 1_555
C23G_2 N8G_2 1_555 1_555
H9G_2 C23G_2 1_555 1_555
C25G N1G 1_555 1_555
C26G N1G 1_555 1_555
O4B_2 C15B_2 1_555 1_555
N8B_2 N8G_2 1_555 1_555
C23B_2 C18B_2 1_555 1_555
H9B_2 C23B_2 1_555 1_555
N1D N2D 1_555 1_555
N2D C17D 1_555 1_555
C17D C16D 1_555 1_555
C25D C16D 1_555 1_555
C26D C16D 1_555 1_555
Zn1D O2I 1_555 1_555
Zn6D O3D 1_555 1_555
Zn7I O1I 1_555 1_555
Cu2I N3I 1_555 1_555
O1I C1I 1_555 1_555
O2I C1I 1_555 1_555
O3D Zn1D 1_555 1_555
N4I Cu2I 1_555 1_555
N5I Cu1 1_555 1_555
C1I C2I 1_555 1_555
C2I C3I 1_555 1_555
C3I N4I 1_555 1_555
H1I C3I 1_555 1_555
C4I N5I 1_555 1_555
H2I C4I 1_555 1_555
Zn7K O1K 1_555 1_555
Cu2K N3K 1_555 1_555
O1K C1K 1_555 1_555
O2K C1K 1_555 1_555
N4K Cu2K 1_555 1_555
N5K Cu1B 1_555 1_555
C1K C2K 1_555 1_555
C2K C3K 1_555 1_555
C3K N4K 1_555 1_555
H1K C3K 1_555 1_555
C4K N5K 1_555 1_555
H2K C4K 1_555 1_555
Zn4B O7 1_555 1_555
Cu5B N12 1_555 1_555
O12B Zn5 1_555 1_555
O13B Zn4B 1_555 1_555
N9B N10B 1_555 1_555
N10B Cu5B 1_555 1_555
C10B N9B 1_555 1_555
H6B C10B 1_555 1_555
C11B C10B 1_555 1_555
C21B N10B 1_555 1_555
H8B C21B 1_555 1_555
C22B O12B 1_555 1_555
N1K Zn7 1_555 1_555
N2K Zn6 1_555 1_555
C16B C17K 1_555 1_555
C17K N2K 1_555 1_555
C25K N1K 1_555 1_555
C26K N1K 1_555 1_555
N1B Zn7G 1_555 1_555
N2B Zn6B 1_555 1_555
C17B C16B 1_555 1_555
C25B C16B 1_555 1_555
C26B C16B 1_555 1_555
O5D Zn1D 1_555 1_555
O6D Zn6D 1_555 1_555
N6D N7D 1_555 1_555
N7D C20D 1_555 1_555
C7D C8D 1_555 1_555
C8D N6D 1_555 1_555
H4D C8D 1_555 1_555
C12D O5D 1_555 1_555
C20D C7D 1_555 1_555
H7D C20D 1_555 1_555
Cu3E N9 1_555 1_555
Cu4A N11 1_555 1_555
Zn1_2 O2K 1_555 1_555
Zn1B_2 O2B 1_555 1_555
Zn1D_2 O2D 1_555 1_555
Zn4B_2 N8B 1_555 1_555
Zn4D_2 N8G 1_555 1_555
Zn6D_2 N2I 1_555 1_555
Zn7B_2 O3B 1_555 1_555
Zn7D_2 O3D 1_555 1_555
Zn7D_3 N1I 1_555 1_555
Zn7G_2 O4G 1_555 1_555
Zn7I_2 N1D 1_555 1_555
Zn7K_2 O3 1_555 1_555
Cu3A N9B 1_555 1_555
Cu3C N9D 1_555 1_555
Cu3D N7D 1_555 1_555
Cu4C N11B 1_555 1_555
Cu4D N6D 1_555 1_555
Cu4E N11D 1_555 1_555
Cu5_2 N12D 1_555 1_555
Cu5D_2 N12B 1_555 1_555
O2B_2 Zn1B 1_555 1_555
O2D_2 Zn1D 1_555 1_555
O2K_2 Zn1 1_555 1_555
O3_2 Zn7K 1_555 1_555
O3B_2 Zn7B 1_555 1_555
O3D_2 Zn7D 1_555 1_555
O4D Zn7D 1_555 1_555
O4I Zn7I 1_555 1_555
O4K_2 Zn7K 1_555 1_555
N1_2 Zn7K 1_555 1_555
N1D_2 Zn7I 1_555 1_555
N1G_2 Zn7B 1_555 1_555
N1I_2 Zn7D 1_555 1_555
N2D_2 Zn6D 1_555 1_555
N2I_2 Zn6D 1_555 1_555
N6A Cu4A 1_555 1_555
N7E Cu3E 1_555 1_555
N8D Zn4D 1_555 1_555
N8I Zn4 1_555 1_555
N9A Cu3 1_555 1_555
N9C Cu3B 1_555 1_555
N11A Cu4B 1_555 1_555
N11E Cu4 1_555 1_555
N12B_2 Cu5D 1_555 1_555
N12D_2 Cu5 1_555 1_555
Zn7 O3 1_555 1_555
O6 C12 1_555 1_555
O13 C22 1_555 1_555
N1 Zn7K_2 1_555 1_555
N2 C26 1_555 1_555
C2 C4 1_555 1_555
C6 C19 1_555 1_555
C7 C12 1_555 1_555
C11 C22 1_555 1_555
C13 C14 1_555 1_555
C16 C25 1_555 1_555
C16 C26 1_555 1_555
C17 C26 1_555 1_555
C17 C17I 1_555 1_555
C18 C23 1_555 1_555
C25 C26 1_555 1_555
C25 C25I 1_555 1_555
O4K Zn7K_2 1_555 1_555
N8K C23K 1_555 1_555
N8K Zn4B 1_555 1_555
O10I Zn3B 1_555 1_555
N3I C5I 1_555 1_555
N1I C25I 1_555 1_555
N1I C26I 1_555 1_555
N2I C26I 1_555 1_555
C17I C26I 1_555 1_555
C25I C26I 1_555 1_555
O11B C14B 1_555 1_555
C2B C4B 1_555 1_555
C6B C19B 1_555 1_555
C13B C14B 1_555 1_555
N8G C23G 1_555 1_555
O10K Zn3D 1_555 1_555
N3K C5K 1_555 1_555
O11D C14D 1_555 1_555
C2D C4D 1_555 1_555
C6D C19D 1_555 1_555
C13D C14D 1_555 1_555
C19D O10G 1_555 1_555
N3G C5G 1_555 1_555
Zn7G O3B 1_555 1_555
O6B C12B 1_555 1_555
N1G Zn7B_2 1_555 1_555
N2G C26G 1_555 1_555
N4G N5G 1_555 1_555
C2G C4G 1_555 1_555
C7B C12B 1_555 1_555
C11D C22D 1_555 1_555
C16D C25G 1_555 1_555
C16D C26G 1_555 1_555
C17G C26G 1_555 1_555
C17G C17D 1_555 1_555
C18B_2 C23G_2 1_555 1_555
C25G C26G 1_555 1_555
C25G C25D 1_555 1_555
O4B_2 Zn7B_2 1_555 1_555
N8B_2 C23B_2 1_555 1_555
N8B_2 Zn4B 1_555 1_555
N1D C25D 1_555 1_555
N1D C26D 1_555 1_555
N2D C26D 1_555 1_555
N2D Zn6D_2 1_555 1_555
C17D C26D 1_555 1_555
C25D C26D 1_555 1_555
Zn7I O3D 1_555 1_555
N4I N5I 1_555 1_555
C2I C4I 1_555 1_555
N4K N5K 1_555 1_555
C2K C4K 1_555 1_555
O13B C22B 1_555 1_555
C11B C21B 1_555 1_555
C11B C22B 1_555 1_555
N1K N2K 1_555 1_555
N2K C26K 1_555 1_555
C16B C25K 1_555 1_555
C16B C26K 1_555 1_555
C17K C26K 1_555 1_555
C17K C17B 1_555 1_555
C25K C26K 1_555 1_555
C25K C25B 1_555 1_555
N1B N2B 1_555 1_555
N1B C25B 1_555 1_555
N1B C26B 1_555 1_555
N2B C17B 1_555 1_555
N2B C26B 1_555 1_555
C17B C26B 1_555 1_555
C25B C26B 1_555 1_555
O6D C12D 1_555 1_555
C7D C12D 1_555 1_555
Zn1_2 O3_2 1_555 1_555
Zn1B_2 O3B_2 1_555 1_555
Zn1D_2 O3D_2 1_555 1_555
Zn7G_2 O3B_2 1_555 1_555
N1D_2 N2D_2 1_555 1_555
N8D N8I 1_555 1_555

#END
