
#######################################################################
#
#                 Cambridge Crystallographic Data Centre
#                                CCDC 
#
#######################################################################
#
# If this CIF has been generated from an entry in the Cambridge 
# Structural Database, then it will include bibliographic, chemical, 
# crystal, experimental, refinement or atomic coordinate data resulting 
# from the CCDC's data processing and validation procedures.
#
#######################################################################

data_RALZEL
_chemical_formula_moiety         '(C44 H25 N4 O13 S4 Sm1 V1)n,2n(N2)'
_chemical_name_systematic        
'catena-((\m~9~-Hydrogen 5,10,15,20-tetrakis(4-sulfonatophenyl)porphyrinato)-oxo-samarium-vanadium bis(dinitrogen))'
_symmetry_cell_setting           tetragonal
_symmetry_space_group_name_H-M   'P 4/m c c'
_symmetry_Int_Tables_number      124
_space_group_name_Hall           '-P 4 2c'
loop_
_symmetry_equiv_pos_site_id
_symmetry_equiv_pos_as_xyz
1 x,y,z
2 -x,-y,z
3 x,-y,1/2-z
4 -x,y,1/2-z
5 -y,-x,1/2-z
6 y,x,1/2-z
7 y,-x,z
8 -y,x,z
9 -x,-y,-z
10 x,y,-z
11 -x,y,1/2+z
12 x,-y,1/2+z
13 y,x,1/2+z
14 -y,-x,1/2+z
15 -y,x,-z
16 y,-x,-z
_cell_length_a                   15.3904(8)
_cell_length_b                   15.3904(8)
_cell_length_c                   9.8586(5)
_cell_angle_alpha                90
_cell_angle_beta                 90
_cell_angle_gamma                90
_cell_volume                     2335.15
_exptl_crystal_colour            red
_exptl_crystal_description       block
_cell_formula_units_Z            2
loop_
_atom_site_label
_atom_site_type_symbol
_atom_site_fract_x
_atom_site_fract_y
_atom_site_fract_z
_atom_site_U_iso_or_equiv
_atom_site_thermal_displace_type
Sm1 Sm 0.5000 0.5000 0.2500 0.0213 Uani
S1 S 0.32117(13) 0.47399(15) 0.0000 0.0293 Uani
O1 O 0.2530(4) 0.4104(4) 0.0000 0.0360 Uani
C1 C 0.2684(5) 0.5755(6) 0.0000 0.0287 Uani
C2 C 0.1697(6) 0.7271(5) 0.0000 0.0373 Uani
C3 C 0.2591(6) 0.8945(7) 0.0000 0.0480 Uani
H1 H 0.2999 0.8481 0.0000 0.0580 Uiso
N1 N 0.1304(6) 0.9700(6) 0.0000 0.0620 Uani
C4 C 0.1948(4) 0.6879(5) 0.1208(9) 0.0453 Uani
H2 H 0.1777 0.7127 0.2049 0.0540 Uiso
C5 C 0.2444(4) 0.6132(5) 0.1197(8) 0.0413 Uani
H3 H 0.2620 0.5877 0.2031 0.0500 Uiso
C6 C 0.1171(6) 0.8090(6) 0.0000 0.0440 Uani
C7 C 0.1635(6) 0.8867(7) 0.0000 0.0463 Uani
C8 C 0.0274(6) 0.8037(7) 0.0000 0.0507 Uani
O2 O 0.3736(4) 0.4694(3) 0.1223(7) 0.0577 Uani
C9 C 0.2774(6) 0.9799(7) 0.0000 0.0483 Uani
H4 H 0.3339 1.0047 0.0000 0.0580 Uiso
O3 O 0.0000 1.0000 0.2500 0.1013 Uani
V1 V 0.0000 1.0000 0.088(4) 0.3100 Uani
N1F N -0.0300(6) 0.8696(6) 0.0000 0.0620 Uani
N1A N -0.1304(6) 1.0300(6) 0.0000 0.0620 Uani
N1G N 0.0300(6) 1.1304(6) 0.0000 0.0620 Uani
C4I C 0.1948(4) 0.6879(5) -0.1208(9) 0.0453 Uani
C5I C 0.2444(4) 0.6132(5) -0.1197(8) 0.0413 Uani
C8G C 0.1963(7) 1.0274(6) 0.0000 0.0507 Uani
O2A O 0.6264(4) 0.5306(3) 0.1223(7) 0.0577 Uani
O2B O 0.3736(4) 0.5306(3) 0.3777(7) 0.0577 Uani
O2C O 0.6264(4) 0.4694(3) 0.3777(7) 0.0577 Uani
O2D O 0.5306(3) 0.6264(4) 0.3777(7) 0.0577 Uani
O2E O 0.4694(3) 0.3736(4) 0.3777(7) 0.0577 Uani
O2F O 0.4694(3) 0.6264(4) 0.1223(7) 0.0577 Uani
O2G O 0.5306(3) 0.3736(4) 0.1223(7) 0.0577 Uani
O2I O 0.3736(4) 0.4694(3) -0.1223(7) 0.0577 Uani
C9F C -0.0201(7) 0.7226(6) 0.0000 0.0483 Uani
V1H V 0.0000 1.0000 -0.088(4) 0.3100 Uani
V1B V 0.0000 1.0000 0.412(4) 0.3100 Uani
N2 N 0.0693(15) 0.479(3) 0.0000 0.0570 Uiso
N3 N 0.0000 0.5000 0.0000 0.2300 Uiso
N2A N -0.0693(15) 0.521(3) 0.0000 0.0570 Uiso
N4? N 0.0000 0.5000 0.2500 0.1700 Uiso
N5? N 0.0000 0.5000 0.362(2) 0.2100 Uiso
loop_
_atom_site_aniso_label
_atom_site_aniso_U_11
_atom_site_aniso_U_22
_atom_site_aniso_U_33
_atom_site_aniso_U_23
_atom_site_aniso_U_13
_atom_site_aniso_U_12
Sm1 0.0160(4) 0.0160(4) 0.0320(6) 0.000 0.000 0.000
S1 0.0198(10) 0.0193(10) 0.0489(13) 0.000 0.000 0.0008(8)
O1 0.025(3) 0.026(3) 0.057(4) 0.000 0.000 -0.004(2)
C1 0.015(4) 0.019(4) 0.052(5) 0.000 0.000 0.004(3)
C2 0.022(4) 0.015(4) 0.075(7) 0.000 0.000 0.000(3)
C3 0.020(4) 0.032(5) 0.092(9) 0.000 0.000 0.003(4)
N1 0.031(5) 0.024(4) 0.131(10) 0.000 0.000 0.004(4)
C4 0.029(3) 0.037(4) 0.070(5) -0.015(3) -0.002(3) 0.009(3)
C5 0.032(3) 0.040(4) 0.052(5) -0.004(3) -0.008(3) 0.014(3)
C6 0.024(4) 0.011(4) 0.097(9) 0.000 0.000 0.005(3)
C7 0.012(4) 0.032(5) 0.095(9) 0.000 0.000 0.001(4)
C8 0.023 0.018 0.111 0 0 0.004
O2 0.056(3) 0.027(3) 0.090(4) -0.009(3) -0.040(3) 0.008(2)
C9 0.015(4) 0.029(4) 0.101(10) 0.000 0.000 0.002(4)
O3 0.102 0.102 0.1 0 0 0
V1 0.3 0.3 0.33 0 0 0
N1F 0.024 0.031 0.131 0 0 -0.004
N1A 0.031 0.024 0.131 0 0 0.004
N1G 0.024 0.031 0.131 0 0 -0.004
C4I 0.029 0.037 0.07 0.015 0.002 0.009
C5I 0.032 0.04 0.052 0.004 0.008 0.014
C8G 0.018(4) 0.023(5) 0.111(10) 0.000 0.000 -0.004(4)
O2A 0.056 0.027 0.09 0.009 0.04 0.008
O2B 0.056 0.027 0.09 -0.009 0.04 -0.008
O2C 0.056 0.027 0.09 0.009 -0.04 -0.008
O2D 0.027 0.056 0.09 -0.04 -0.009 0.008
O2E 0.027 0.056 0.09 0.04 0.009 0.008
O2F 0.027 0.056 0.09 0.04 -0.009 -0.008
O2G 0.027 0.056 0.09 -0.04 0.009 -0.008
O2I 0.056 0.027 0.09 0.009 0.04 0.008
C9F 0.029 0.015 0.101 0 0 -0.002
V1H 0.3 0.3 0.33 0 0 0
V1B 0.3 0.3 0.33 0 0 0
loop_
_geom_bond_atom_site_label_1
_geom_bond_atom_site_label_2
_geom_bond_site_symmetry_1
_geom_bond_site_symmetry_2
Sm1 O2 1_555 1_555
S1 O1 1_555 1_555
C1 S1 1_555 1_555
C2 C4 1_555 1_555
C3 H1 1_555 1_555
N1 C7 1_555 1_555
C4 H2 1_555 1_555
C5 C1 1_555 1_555
H3 C5 1_555 1_555
C6 C2 1_555 1_555
C7 C3 1_555 1_555
C8 C6 1_555 1_555
O2 S1 1_555 1_555
C9 C3 1_555 1_555
H4 C9 1_555 1_555
O3 V1 1_555 1_555
V1 N1 1_555 1_555
N2 N3 1_555 1_555
N3 N2A 1_555 1_555
N1F C8 1_555 1_555
N1A V1 1_555 1_555
N1G V1 1_555 1_555
C4I C2 1_555 1_555
C5I C1 1_555 1_555
C8G N1 1_555 1_555
O2A Sm1 1_555 1_555
O2B Sm1 1_555 1_555
O2C Sm1 1_555 1_555
O2D Sm1 1_555 1_555
O2E Sm1 1_555 1_555
O2F Sm1 1_555 1_555
O2G Sm1 1_555 1_555
O2I S1 1_555 1_555
C9F C8 1_555 1_555
V1H N1 1_555 1_555
V1B O3 1_555 1_555
C4 C5 1_555 1_555
C6 C7 1_555 1_555
C9 C8G 1_555 1_555
V1 N1F 1_555 1_555
V1 V1H 1_555 1_555
N1F V1H 1_555 1_555
N1A V1H 1_555 1_555
N1G V1H 1_555 1_555
C4I C5I 1_555 1_555

#END
