
#######################################################################
#
#                 Cambridge Crystallographic Data Centre
#                                CCDC 
#
#######################################################################
#
# If this CIF has been generated from an entry in the Cambridge 
# Structural Database, then it will include bibliographic, chemical, 
# crystal, experimental, refinement or atomic coordinate data resulting 
# from the CCDC's data processing and validation procedures.
#
#######################################################################

data_FEFCUQ
_chemical_formula_moiety         '(C38 H24 N2 O8 Zn2)n,12.6n(C4 H8 O2)'
_chemical_name_systematic        
"catena-((\m~2~-Biphenyl-4,4'-dicarboxylato)-(\m~2~-4,4'-bipyridine)-di-zinc ethyl acetate solvate)"
_symmetry_cell_setting           triclinic
_symmetry_space_group_name_H-M   'P -1'
_symmetry_Int_Tables_number      2
_space_group_name_Hall           '-P 1'
loop_
_symmetry_equiv_pos_site_id
_symmetry_equiv_pos_as_xyz
1 x,y,z
2 -x,-y,-z
_cell_length_a                   14.071(5)
_cell_length_b                   15.265(5)
_cell_length_c                   15.351(6)
_cell_angle_alpha                88.337(13)
_cell_angle_beta                 85.779(14)
_cell_angle_gamma                85.205(11)
_cell_volume                     3275.98
_exptl_crystal_colour            colorless
_exptl_crystal_description       block
_cell_formula_units_Z            2
loop_
_atom_site_label
_atom_site_type_symbol
_atom_site_fract_x
_atom_site_fract_y
_atom_site_fract_z
Zn1 Zn 0.10503(3) 0.16471(3) 0.39952(3)
Zn2 Zn 0.31379(3) 0.14899(3) 0.38591(3)
O1 O 0.3014(2) 0.0172(2) 0.3923(3)
O2 O 0.1418(2) 0.0333(2) 0.3869(2)
O3 O 0.1387(2) 0.1843(2) 1.2674(2)
O4 O 0.2966(2) 0.1475(2) 1.2553(2)
O5 O 0.2768(2) -0.7181(2) 0.3821(3)
O6 O 0.1180(2) -0.7046(2) 0.4128(2)
O7 O 0.2821(3) 0.1526(2) 0.5186(2)
O8 O 0.1222(3) 0.1513(2) 0.5330(2)
N1 N -0.0392(2) 0.1608(2) 0.3933(3)
N2 N -0.5414(3) 0.1500(2) 0.3878(3)
C1 C 0.2163(4) 0.1675(3) 1.2234(3)
C2 C 0.2175(4) 0.1745(4) 1.1267(3)
C3 C 0.1397(5) 0.2094(5) 1.0848(4)
H1 H 0.0851 0.2305 1.1182
C4 C 0.1395(5) 0.2145(6) 0.9944(4)
H2 H 0.0871 0.2434 0.9693
C5 C 0.2915(4) 0.1450(6) 0.9832(4)
H3 H 0.3449 0.1219 0.9495
C6 C 0.2026(4) 0.1548(3) 0.5617(3)
C7 C 0.2056(4) 0.1623(3) 0.6608(3)
C8 C 0.2933(4) 0.1733(6) 0.7879(4)
H4 H 0.3519 0.1757 0.8116
C9 C 0.2951(5) 0.1435(5) 1.0727(4)
H5 H 0.3509 0.1213 1.0972
C10 C 0.2919(4) 0.1668(5) 0.6987(4)
H6 H 0.3488 0.1654 0.6637
C11 C 0.1228(4) 0.1669(5) 0.7158(4)
H7 H 0.0643 0.1655 0.6917
C12 C 0.1243(4) 0.1737(5) 0.8054(4)
H8 H 0.0671 0.1765 0.8400
C13 C 0.2102(4) 0.1764(4) 0.8448(4)
C14 C 0.2135(4) 0.1788(5) 0.9413(4)
C15 C 0.2202(3) -0.0129(3) 0.3880(3)
C16 C 0.2161(3) -0.1106(3) 0.3849(3)
C17 C 0.1301(3) -0.1484(3) 0.3852(4)
H9 H 0.0733 -0.1126 0.3851
C18 C 0.3017(3) -0.1658(3) 0.3842(4)
H10 H 0.3604 -0.1417 0.3833
C19 C 0.2978(3) -0.2555(3) 0.3846(4)
H11 H 0.3546 -0.2914 0.3844
C20 C 0.1276(4) -0.2382(3) 0.3855(4)
H12 H 0.0686 -0.2616 0.3859
C21 C 0.2098(4) -0.2955(3) 0.3854(4)
C22 C 0.2060(4) -0.3917(3) 0.3877(4)
C23 C 0.1302(4) -0.4321(3) 0.4274(4)
H13 H 0.0795 -0.3974 0.4542
C24 C 0.1262(4) -0.5209(3) 0.4291(4)
H14 H 0.0720 -0.5449 0.4549
C25 C 0.1999(3) -0.5754(3) 0.3939(4)
C26 C -0.0815(3) 0.0837(3) 0.3946(4)
H15 H -0.0425 0.0314 0.3953
C27 C -0.0960(4) 0.2340(3) 0.3878(4)
H16 H -0.0687 0.2875 0.3858
C28 C -0.1934(3) 0.2349(3) 0.3849(4)
H17 H -0.2301 0.2881 0.3799
C29 C -0.2380(3) 0.1554(3) 0.3896(3)
C30 C -0.1761(3) 0.0790(4) 0.3949(4)
H18 H -0.2010 0.0244 0.3986
C31 C -0.3422(3) 0.1541(3) 0.3887(4)
C32 C -0.4037(8) 0.2275(8) 0.3571(9)
H19 H -0.3753 0.2757 0.3316
C33 C -0.3895(9) 0.0806(9) 0.4188(8)
H20 H -0.3538 0.0320 0.4410
C34 C -0.4983(9) 0.2291(9) 0.3629(9)
H21 H -0.5356 0.2807 0.3509
C35 C -0.4852(10) 0.0778(10) 0.4168(9)
H22 H -0.5135 0.0269 0.4352
C36 C 0.1976(4) -0.6732(3) 0.3964(3)
C37 C 0.2793(4) -0.5365(4) 0.3522(4)
H23 H 0.3298 -0.5719 0.3260
C38 C 0.2824(4) -0.4468(4) 0.3502(5)
H24 H 0.3358 -0.4221 0.3237
Zn1_2 Zn 0.10503(3) -0.83529(3) 0.39952(3)
Zn1_3 Zn 0.10503(3) 0.16471(3) 1.39952(3)
Zn2_2 Zn -0.68621(3) 0.14899(3) 0.38591(3)
Zn2_3 Zn 0.31379(3) -0.85101(3) 0.38591(3)
Zn2_4 Zn 0.31379(3) 0.14899(3) 1.38591(3)
O3_2 O 0.1387(2) 0.1843(2) 0.2674(2)
O4_2 O 0.2966(2) 0.1475(2) 0.2553(2)
O5_2 O 0.2768(2) 0.2819(2) 0.3821(3)
O6_2 O 0.1180(2) 0.2954(2) 0.4128(2)
N2_2 N 0.4586(3) 0.1500(2) 0.3878(3)
C39? C -0.4016(8) 0.2239(9) 0.4073(9)
C40? C -0.4991(9) 0.2178(9) 0.4088(9)
C41? C -0.3844(9) 0.0781(9) 0.3726(8)
C42? C -0.4826(10) 0.0803(10) 0.3736(9)
H25? H -0.3778 0.2769 0.4194
H26? H -0.5382 0.2672 0.4265
H27? H -0.3469 0.0260 0.3612
H28? H -0.5090 0.0280 0.3634
loop_
_geom_bond_atom_site_label_1
_geom_bond_atom_site_label_2
_geom_bond_site_symmetry_1
_geom_bond_site_symmetry_2
Zn1 O2 1_555 1_555
Zn2 O1 1_555 1_555
O1 C15 1_555 1_555
O2 C15 1_555 1_555
O3 C1 1_555 1_555
O4 C1 1_555 1_555
O5 C36 1_555 1_555
O6 C36 1_555 1_555
O7 Zn2 1_555 1_555
O8 Zn1 1_555 1_555
N1 Zn1 1_555 1_555
N2 C34 1_555 1_555
C1 C2 1_555 1_555
C2 C3 1_555 1_555
C3 H1 1_555 1_555
C4 C3 1_555 1_555
H2 C4 1_555 1_555
C5 H3 1_555 1_555
C6 O7 1_555 1_555
C7 C6 1_555 1_555
C8 H4 1_555 1_555
C9 C2 1_555 1_555
H5 C9 1_555 1_555
C10 C7 1_555 1_555
H6 C10 1_555 1_555
C11 C7 1_555 1_555
H7 C11 1_555 1_555
C12 C11 1_555 1_555
H8 C12 1_555 1_555
C13 C8 1_555 1_555
C14 C4 1_555 1_555
C15 C16 1_555 1_555
C16 C17 1_555 1_555
C17 H9 1_555 1_555
C18 C16 1_555 1_555
H10 C18 1_555 1_555
C19 C18 1_555 1_555
H11 C19 1_555 1_555
C20 C17 1_555 1_555
H12 C20 1_555 1_555
C21 C19 1_555 1_555
C22 C21 1_555 1_555
C23 C22 1_555 1_555
H13 C23 1_555 1_555
C24 C23 1_555 1_555
H14 C24 1_555 1_555
C25 C24 1_555 1_555
C26 N1 1_555 1_555
H15 C26 1_555 1_555
C27 N1 1_555 1_555
H16 C27 1_555 1_555
C28 C27 1_555 1_555
H17 C28 1_555 1_555
C29 C28 1_555 1_555
C30 C26 1_555 1_555
H18 C30 1_555 1_555
C31 C29 1_555 1_555
C32 C31 1_555 1_555
H19 C32 1_555 1_555
C33 C31 1_555 1_555
H20 C33 1_555 1_555
C34 C32 1_555 1_555
H21 C34 1_555 1_555
C35 N2 1_555 1_555
H22 C35 1_555 1_555
C36 C25 1_555 1_555
C37 C25 1_555 1_555
H23 C37 1_555 1_555
C38 C22 1_555 1_555
H24 C38 1_555 1_555
Zn1_2 O6 1_555 1_555
Zn1_3 O3 1_555 1_555
Zn2_2 N2 1_555 1_555
Zn2_3 O5 1_555 1_555
Zn2_4 O4 1_555 1_555
O3_2 Zn1 1_555 1_555
O4_2 Zn2 1_555 1_555
O5_2 Zn2 1_555 1_555
O6_2 Zn1 1_555 1_555
N2_2 Zn2 1_555 1_555
O8 C6 1_555 1_555
C5 C9 1_555 1_555
C5 C14 1_555 1_555
C8 C10 1_555 1_555
C12 C13 1_555 1_555
C13 C14 1_555 1_555
C20 C21 1_555 1_555
C29 C30 1_555 1_555
C33 C35 1_555 1_555
C37 C38 1_555 1_555

#END
