
#######################################################################
#
#                 Cambridge Crystallographic Data Centre
#                                CCDC 
#
#######################################################################
#
# If this CIF has been generated from an entry in the Cambridge 
# Structural Database, then it will include bibliographic, chemical, 
# crystal, experimental, refinement or atomic coordinate data resulting 
# from the CCDC's data processing and validation procedures.
#
#######################################################################

data_REYNOA01
_chemical_formula_moiety         '(C5 H9 Cd1 N5 O3)n'
_chemical_name_systematic        
catena-((\m~3~-N-(2-(Tetrazolato-5-yl)ethyl)glycinato)-aqua-cadmium(ii))
_symmetry_cell_setting           monoclinic
_symmetry_space_group_name_H-M   'C 2/c'
_symmetry_Int_Tables_number      15
_space_group_name_Hall           '-C 2yc'
loop_
_symmetry_equiv_pos_site_id
_symmetry_equiv_pos_as_xyz
1 x,y,z
2 -x,y,1/2-z
3 1/2+x,1/2+y,z
4 1/2-x,1/2+y,1/2-z
5 -x,-y,-z
6 x,-y,1/2+z
7 1/2-x,1/2-y,-z
8 1/2+x,1/2-y,1/2+z
_cell_length_a                   18.628(3)
_cell_length_b                   7.5600(12)
_cell_length_c                   14.269(2)
_cell_angle_alpha                90
_cell_angle_beta                 119.874(2)
_cell_angle_gamma                90
_cell_volume                     1742.46
_exptl_crystal_colour            white
_exptl_crystal_description       prismatic
_cell_formula_units_Z            8
loop_
_atom_site_label
_atom_site_type_symbol
_atom_site_fract_x
_atom_site_fract_y
_atom_site_fract_z
_atom_site_U_iso_or_equiv
_atom_site_thermal_displace_type
Cd1 Cd 0.279614(12) 0.81582(3) 0.147954(15) 0.0127 Uani
N1 N 0.32277(14) 0.5654(3) 0.10037(18) 0.0138 Uani
N2 N 0.30069(14) 0.5096(3) -0.00045(19) 0.0146 Uani
N3 N 0.33525(15) 0.3562(3) 0.0049(2) 0.0168 Uani
N4 N 0.38109(15) 0.3087(3) 0.1095(2) 0.0156 Uani
C1 C 0.37241(16) 0.4394(4) 0.1663(2) 0.0134 Uani
C2 C 0.41298(17) 0.4423(4) 0.2874(2) 0.0146 Uani
H1 H 0.4589 0.3597 0.3165 0.0170 Uiso
H2 H 0.3734 0.4001 0.3075 0.0170 Uiso
C3 C 0.44533(17) 0.6226(4) 0.3407(2) 0.0148 Uani
H3 H 0.4824 0.6060 0.4175 0.0180 Uiso
H4 H 0.4768 0.6763 0.3107 0.0180 Uiso
N5 N 0.37775(14) 0.7427(3) 0.32436(18) 0.0122 Uani
C4 C 0.40837(17) 0.9079(4) 0.3856(2) 0.0150 Uani
H5 H 0.4515 0.9566 0.3740 0.0180 Uiso
H6 H 0.4324 0.8831 0.4621 0.0180 Uiso
C5 C 0.33923(16) 1.0440(4) 0.3518(2) 0.0132 Uani
O1 O 0.27784(12) 1.0362(3) 0.25783(15) 0.0168 Uani
O2 O 0.34760(12) 1.1617(2) 0.41932(16) 0.0151 Uani
O3 O 0.39408(12) 0.9373(3) 0.13307(15) 0.0170 Uani
H7 H 0.3847 0.9063 0.0763 0.0200 Uiso
H8 H 0.3923 1.0423 0.1303 0.0200 Uiso
H9 H 0.344(2) 0.688(4) 0.345(3) 0.0170 Uiso
Cd1C Cd 0.220386(12) 1.31582(3) 0.352046(15) 0.0127 Uani
Cd1F Cd 0.220386(12) 0.68418(3) -0.147954(15) 0.0127 Uani
N2F N 0.19931(14) 0.9904(3) 0.00045(19) 0.0146 Uani
O2C O 0.15240(12) 0.6617(2) 0.08068(16) 0.0151 Uani
loop_
_atom_site_aniso_label
_atom_site_aniso_U_11
_atom_site_aniso_U_22
_atom_site_aniso_U_33
_atom_site_aniso_U_23
_atom_site_aniso_U_13
_atom_site_aniso_U_12
Cd1 0.01430(13) 0.01223(14) 0.00951(14) -0.00033(7) 0.00435(10) 0.00237(7)
N1 0.0155(12) 0.0135(12) 0.0108(11) -0.0007(9) 0.0053(10) 0.0009(10)
N2 0.0161(12) 0.0145(12) 0.0126(12) -0.0002(9) 0.0068(10) 0.0005(10)
N3 0.0185(13) 0.0156(12) 0.0153(13) 0.0000(10) 0.0077(11) 0.0026(10)
N4 0.0168(13) 0.0143(12) 0.0142(13) 0.0011(9) 0.0065(11) 0.0034(9)
C1 0.0126(13) 0.0129(13) 0.0142(14) 0.0008(11) 0.0062(12) -0.0006(11)
C2 0.0163(14) 0.0151(14) 0.0119(13) 0.0026(11) 0.0067(12) 0.0033(11)
C3 0.0133(13) 0.0186(15) 0.0102(14) 0.0008(11) 0.0041(11) 0.0022(12)
N5 0.0123(11) 0.0116(11) 0.0136(12) -0.0012(10) 0.0072(10) -0.0016(10)
C4 0.0146(14) 0.0150(14) 0.0130(14) 0.0002(11) 0.0050(12) -0.0014(12)
C5 0.0142(14) 0.0122(13) 0.0162(14) 0.0006(11) 0.0098(12) -0.0024(11)
O1 0.0157(10) 0.0191(10) 0.0118(10) -0.0021(8) 0.0040(9) 0.0036(8)
O2 0.0168(10) 0.0152(10) 0.0130(10) -0.0021(8) 0.0072(9) -0.0010(8)
O3 0.0230(10) 0.0120(10) 0.0158(10) 0.0002(8) 0.0095(9) 0.0013(8)
Cd1C 0.0143 0.01223 0.00951 0.00033 0.00435 -0.00237
Cd1F 0.0143 0.01223 0.00951 -0.00033 0.00435 0.00237
N2F 0.0161 0.0145 0.0126 -0.0002 0.0068 0.0005
O2C 0.0168 0.0152 0.013 0.0021 0.0072 0.001
loop_
_geom_bond_atom_site_label_1
_geom_bond_atom_site_label_2
_geom_bond_site_symmetry_1
_geom_bond_site_symmetry_2
Cd1 N1 1_555 1_555
N1 N2 1_555 1_555
N2 N3 1_555 1_555
N3 N4 1_555 1_555
N4 C1 1_555 1_555
C1 N1 1_555 1_555
C2 C1 1_555 1_555
H1 C2 1_555 1_555
H2 C2 1_555 1_555
C3 C2 1_555 1_555
H3 C3 1_555 1_555
H4 C3 1_555 1_555
N5 Cd1 1_555 1_555
C4 N5 1_555 1_555
H5 C4 1_555 1_555
H6 C4 1_555 1_555
C5 C4 1_555 1_555
O1 Cd1 1_555 1_555
O2 C5 1_555 1_555
O3 Cd1 1_555 1_555
H7 O3 1_555 1_555
H8 O3 1_555 1_555
H9 N5 1_555 1_555
Cd1C O2 1_555 1_555
Cd1F N2 1_555 1_555
N2F Cd1 1_555 1_555
O2C Cd1 1_555 1_555
C3 N5 1_555 1_555
C5 O1 1_555 1_555

#END
