
#######################################################################
#
#                 Cambridge Crystallographic Data Centre
#                                CCDC 
#
#######################################################################
#
# If this CIF has been generated from an entry in the Cambridge 
# Structural Database, then it will include bibliographic, chemical, 
# crystal, experimental, refinement or atomic coordinate data resulting 
# from the CCDC's data processing and validation procedures.
#
#######################################################################

data_REYNUG01
_chemical_formula_moiety         '(C5 H7 N5 O2 Zn1)n'
_chemical_name_systematic        
catena-((\m~3~-N-(2-(Tetrazolato-5-yl)ethyl)glycinato)-zinc(ii))
_symmetry_cell_setting           tetragonal
_symmetry_space_group_name_H-M   'I 41/a'
_symmetry_Int_Tables_number      88
_space_group_name_Hall           '-I 4ad'
loop_
_symmetry_equiv_pos_site_id
_symmetry_equiv_pos_as_xyz
1 x,y,z
2 1/2-x,-y,1/2+z
3 3/4-y,1/4+x,1/4+z
4 3/4+y,3/4-x,3/4+z
5 1/2+x,1/2+y,1/2+z
6 -x,1/2-y,z
7 1/4-y,3/4+x,3/4+z
8 1/4+y,1/4-x,1/4+z
9 -x,-y,-z
10 1/2+x,y,1/2-z
11 1/4+y,3/4-x,3/4-z
12 1/4-y,1/4+x,1/4-z
13 1/2-x,1/2-y,1/2-z
14 x,1/2+y,-z
15 3/4+y,1/4-x,1/4-z
16 3/4-y,3/4+x,3/4-z
_cell_length_a                   21.710(3)
_cell_length_b                   21.710(3)
_cell_length_c                   6.8793(11)
_cell_angle_alpha                90
_cell_angle_beta                 90
_cell_angle_gamma                90
_cell_volume                     3242.38
_exptl_crystal_colour            white
_exptl_crystal_description       prismatic
_cell_formula_units_Z            16
loop_
_atom_site_label
_atom_site_type_symbol
_atom_site_fract_x
_atom_site_fract_y
_atom_site_fract_z
_atom_site_U_iso_or_equiv
_atom_site_thermal_displace_type
Zn1 Zn 0.119151(14) 0.360398(14) 0.06177(5) 0.0152 Uani
N1 N 0.31077(11) 0.36213(11) 0.1523(3) 0.0181 Uani
N2 N 0.30795(12) 0.36671(13) -0.0450(4) 0.0241 Uani
N3 N 0.25054(12) 0.36245(13) -0.0996(4) 0.0259 Uani
N4 N 0.21459(11) 0.35583(12) 0.0589(3) 0.0206 Uani
C1 C 0.25279(13) 0.35510(13) 0.2112(4) 0.0184 Uani
C2 C 0.23417(13) 0.34844(15) 0.4200(4) 0.0221 Uani
H1 H 0.2308 0.3891 0.4772 0.0270 Uiso
H2 H 0.2664 0.3265 0.4889 0.0270 Uiso
C3 C 0.17352(13) 0.31458(14) 0.4492(4) 0.0208 Uani
H3 H 0.1757 0.2745 0.3873 0.0250 Uiso
H4 H 0.1665 0.3082 0.5870 0.0250 Uiso
N5 N 0.12108(10) 0.35022(11) 0.3652(4) 0.0163 Uani
C4 C 0.06166(13) 0.32243(14) 0.4261(4) 0.0197 Uani
H5 H 0.0542 0.3312 0.5624 0.0240 Uiso
H6 H 0.0634 0.2781 0.4099 0.0240 Uiso
C5 C 0.00977(13) 0.34874(12) 0.3038(4) 0.0162 Uani
O1 O 0.02337(9) 0.37491(10) 0.1479(3) 0.0233 Uani
O2 O -0.04394(9) 0.34108(9) 0.3643(3) 0.0208 Uani
H7 H 0.1271(17) 0.3847(18) 0.412(5) 0.0290 Uiso
Zn1B Zn 0.389602(14) 0.369151(14) 0.31177(5) 0.0152 Uani
Zn1K Zn -0.110398(14) 0.369151(14) 0.18823(5) 0.0152 Uani
N1C N 0.11213(11) 0.43923(11) -0.0977(3) 0.0181 Uani
O2N O 0.09108(9) 0.29394(9) -0.1143(3) 0.0208 Uani
loop_
_atom_site_aniso_label
_atom_site_aniso_U_11
_atom_site_aniso_U_22
_atom_site_aniso_U_33
_atom_site_aniso_U_23
_atom_site_aniso_U_13
_atom_site_aniso_U_12
Zn1 0.0142(2) 0.0137(2) 0.0178(2) -0.00033(12) -0.00107(11) -0.00001(11)
N1 0.0141(12) 0.0193(12) 0.0210(12) 0.0018(10) 0.0006(9) 0.0014(9)
N2 0.0170(12) 0.0325(15) 0.0228(13) 0.0027(11) 0.0012(10) -0.0012(11)
N3 0.0177(13) 0.0401(16) 0.0198(13) 0.0032(11) 0.0012(10) -0.0010(11)
N4 0.0162(12) 0.0272(14) 0.0184(12) 0.0011(10) 0.0001(9) -0.0013(10)
C1 0.0160(14) 0.0181(14) 0.0212(15) 0.0008(11) 0.0003(11) 0.0007(11)
C2 0.0144(14) 0.0335(17) 0.0184(14) 0.0014(12) -0.0004(11) -0.0008(12)
C3 0.0161(14) 0.0265(16) 0.0198(15) 0.0030(11) -0.0003(11) 0.0014(12)
N5 0.0128(11) 0.0149(12) 0.0212(12) -0.0031(10) -0.0002(9) -0.0003(9)
C4 0.0151(13) 0.0218(14) 0.0222(14) 0.0024(11) -0.0001(11) -0.0015(11)
C5 0.0189 0.0125 0.0171 -0.0035 0.0015 0.0018
O1 0.0156 0.0314 0.023 0.0057 0.0009 0.001
O2 0.0156 0.0228 0.0239 0.0047 -0.0009 0.0003
Zn1B 0.0137 0.0142 0.0178 -0.00107 0.00033 1e-05
Zn1K 0.0137 0.0142 0.0178 0.00107 -0.00033 1e-05
N1C 0.0193 0.0141 0.021 -0.0006 0.0018 -0.0014
O2N 0.0228 0.0156 0.0239 -0.0009 -0.0047 -0.0003
loop_
_geom_bond_atom_site_label_1
_geom_bond_atom_site_label_2
_geom_bond_site_symmetry_1
_geom_bond_site_symmetry_2
Zn1 N4 1_555 1_555
N1 N2 1_555 1_555
N2 N3 1_555 1_555
N3 N4 1_555 1_555
N4 C1 1_555 1_555
C1 N1 1_555 1_555
C2 C1 1_555 1_555
H1 C2 1_555 1_555
H2 C2 1_555 1_555
C3 C2 1_555 1_555
H3 C3 1_555 1_555
H4 C3 1_555 1_555
N5 Zn1 1_555 1_555
C4 N5 1_555 1_555
H5 C4 1_555 1_555
H6 C4 1_555 1_555
C5 C4 1_555 1_555
O1 Zn1 1_555 1_555
O2 C5 1_555 1_555
H7 N5 1_555 1_555
Zn1B N1 1_555 1_555
Zn1K O2 1_555 1_555
N1C Zn1 1_555 1_555
O2N Zn1 1_555 1_555
C3 N5 1_555 1_555
C5 O1 1_555 1_555

#END
