
#######################################################################
#
#                 Cambridge Crystallographic Data Centre
#                                CCDC 
#
#######################################################################
#
# If this CIF has been generated from an entry in the Cambridge 
# Structural Database, then it will include bibliographic, chemical, 
# crystal, experimental, refinement or atomic coordinate data resulting 
# from the CCDC's data processing and validation procedures.
#
#######################################################################

data_IMUTUG
_chemical_name_common            CPM-5
_chemical_formula_moiety         
'(C2 H8 N1 1+)n,n(C72 H36 In9 O56 1-),7n(C3 H7 N1 O1),23n(H2 O1)'
_chemical_name_systematic        
"catena-[Dimethylammonium bis(\m~6~-benzene-1,3,5-tricarboxylato-O,O',O'',O''',O'''',O''''')-hexakis(\m~4~-benzene-1,3,5-tricarboxylato-O,O',O'',O''',O'''',O''''')-bis(\m~3~-oxo)-hexa-aqua-nona-indium(iii) dimethylformamide solvate tricosahydrate]"
_symmetry_cell_setting           cubic
_symmetry_space_group_name_H-M   'I -4 3 m'
_symmetry_Int_Tables_number      217
_space_group_name_Hall           'I -4 2 3'
loop_
_symmetry_equiv_pos_site_id
_symmetry_equiv_pos_as_xyz
1 x,y,z
2 -x,-y,z
3 -x,y,-z
4 x,-y,-z
5 z,x,y
6 z,-x,-y
7 -z,-x,y
8 -z,x,-y
9 y,z,x
10 -y,z,-x
11 y,-z,-x
12 -y,-z,x
13 y,x,z
14 -y,-x,z
15 y,-x,-z
16 -y,x,-z
17 x,z,y
18 -x,z,-y
19 -x,-z,y
20 x,-z,-y
21 z,y,x
22 z,-y,-x
23 -z,y,-x
24 -z,-y,x
25 1/2+x,1/2+y,1/2+z
26 1/2-x,1/2-y,1/2+z
27 1/2-x,1/2+y,1/2-z
28 1/2+x,1/2-y,1/2-z
29 1/2+z,1/2+x,1/2+y
30 1/2+z,1/2-x,1/2-y
31 1/2-z,1/2-x,1/2+y
32 1/2-z,1/2+x,1/2-y
33 1/2+y,1/2+z,1/2+x
34 1/2-y,1/2+z,1/2-x
35 1/2+y,1/2-z,1/2-x
36 1/2-y,1/2-z,1/2+x
37 1/2+y,1/2+x,1/2+z
38 1/2-y,1/2-x,1/2+z
39 1/2+y,1/2-x,1/2-z
40 1/2-y,1/2+x,1/2-z
41 1/2+x,1/2+z,1/2+y
42 1/2-x,1/2+z,1/2-y
43 1/2-x,1/2-z,1/2+y
44 1/2+x,1/2-z,1/2-y
45 1/2+z,1/2+y,1/2+x
46 1/2+z,1/2-y,1/2-x
47 1/2-z,1/2+y,1/2-x
48 1/2-z,1/2-y,1/2+x
_cell_length_a                   25.7140(13)
_cell_length_b                   25.7140(13)
_cell_length_c                   25.7140(13)
_cell_angle_alpha                90
_cell_angle_beta                 90
_cell_angle_gamma                90
_cell_volume                     17002.3
_cell_formula_units_Z            4
loop_
_atom_site_label
_atom_site_type_symbol
_atom_site_fract_x
_atom_site_fract_y
_atom_site_fract_z
C11 C 0.2027(14) 1.088(5) 0.722(4)
N2 N 0.258(3) 1.080(5) 0.742(3)
C11V C 0.278(4) 1.088(5) 0.7973(14)
In1 In 0.10423(5) 0.89577(5) 0.79860(6)
In2 In 0.2500 1.0000 0.5000
O1 O 0.0724(6) 0.9276(6) 0.7302(9)
O2 O 0.1343(6) 0.8657(6) 0.8657(6)
O3 O 0.2278(9) 0.9637(9) 0.5828(7)
O4 O 0.1790(5) 0.9090(6) 0.7612(6)
O5 O 0.1068(6) 0.9725(4) 0.8311(5)
O6 O 0.3044(7) 0.9752(7) 0.5617(7)
C1 C 0.1296(8) 1.0637(6) 0.9363(6)
H1 H 0.1626 1.0500 0.9500
C2 C 0.1070(5) 1.0426(7) 0.8930(5)
C3 C 0.2235(6) 0.9149(9) 0.7765(6)
C4 C 0.1309(5) 0.9921(9) 0.8691(5)
C5 C 0.3375(8) 0.9609(12) 0.6625(8)
H2 H 0.3631 0.9704 0.6369
C6 C 0.2724(12) 0.9637(9) 0.5960(9)
C7 C 0.2450(10) 0.9362(7) 0.6844(7)
H3 H 0.2105 0.9304 0.6752
C8 C 0.2861(11) 0.9535(7) 0.6475(9)
C9 C 0.2650(7) 0.9297(10) 0.7350(7)
In1F In 0.20140(6) 0.89577(5) 0.89577(5)
In1C In 0.10423(5) 1.10423(5) 0.20140(6)
In1G In 0.20140(6) 1.10423(5) 0.10423(5)
In1FA In 0.39577(5) 1.29860(6) 0.60423(5)
In1CA In 0.29860(6) 1.39577(5) 0.60423(5)
In1HA In 0.39577(5) 0.70140(6) 0.39577(5)
In1BA In 0.29860(6) 0.60423(5) 0.39577(5)
In1I In 0.10423(5) 0.79860(6) 0.89577(5)
In1D In 0.79860(6) 1.10423(5) 0.89577(5)
In1A In 0.89577(5) 1.10423(5) 0.79860(6)
In1Z In 0.39577(5) 1.39577(5) 0.70140(6)
In1J In -0.10423(5) 1.20140(6) 0.89577(5)
In1A_2 In -0.10423(5) 1.10423(5) 0.79860(6)
In1G_2 In 0.20140(6) 1.10423(5) 1.10423(5)
In1K In 0.10423(5) 1.20140(6) 1.10423(5)
In1D_2 In -0.20140(6) 1.10423(5) 0.89577(5)
In1H In -0.10423(5) 0.79860(6) 1.10423(5)
In1E In -0.20140(6) 0.89577(5) 1.10423(5)
In1IA In 0.60423(5) 0.70140(6) 0.60423(5)
In1AA In 0.60423(5) 0.60423(5) 0.70140(6)
In1E_2 In 0.79860(6) 0.89577(5) 0.10423(5)
In1B In 0.89577(5) 0.89577(5) 0.20140(6)
In1Y In 0.39577(5) 0.60423(5) 0.29860(6)
In1GA In 0.60423(5) 1.29860(6) 0.39577(5)
In1X In 0.60423(5) 1.39577(5) 0.29860(6)
In1DA In -0.29860(6) 1.39577(5) 0.39577(5)
In1GA_2 In -0.39577(5) 1.29860(6) 0.39577(5)
In1C_2 In 0.10423(5) 1.10423(5) 1.20140(6)
In1B_2 In -0.10423(5) 0.89577(5) 1.20140(6)
In1K_2 In 0.10423(5) 1.20140(6) 0.10423(5)
In1H_2 In -0.10423(5) 0.79860(6) 0.10423(5)
In1B_3 In -0.10423(5) 0.89577(5) 0.20140(6)
In1F_2 In 0.20140(6) 0.89577(5) -0.10423(5)
In1I_2 In 0.10423(5) 0.79860(6) -0.10423(5)
In2U In 0.5000 1.0000 0.7500
In2T In 0.5000 1.0000 0.2500
In2L In 0.0000 1.2500 0.5000
In2M In 0.0000 0.7500 0.5000
In2I In 0.0000 0.5000 0.7500
In2A In 0.7500 1.0000 0.5000
In2D In 0.5000 1.2500 1.0000
In2E In 0.5000 0.7500 1.0000
In2E_2 In 0.5000 0.7500 0.0000
In2D_2 In 0.5000 1.2500 0.0000
In2A_2 In -0.2500 1.0000 0.5000
O1F O 0.2698(9) 0.9276(6) 0.9276(6)
O1C O 0.0724(6) 1.0724(6) 0.2698(9)
O1G O 0.2698(9) 1.0724(6) 0.0724(6)
O1FA O 0.4276(6) 1.2302(9) 0.5724(6)
O1CA O 0.2302(9) 1.4276(6) 0.5724(6)
O1HA O 0.4276(6) 0.7698(9) 0.4276(6)
O1BA O 0.2302(9) 0.5724(6) 0.4276(6)
O1I O 0.0724(6) 0.7302(9) 0.9276(6)
O1D O 0.7302(9) 1.0724(6) 0.9276(6)
O1A O 0.9276(6) 1.0724(6) 0.7302(9)
O1Z O 0.4276(6) 1.4276(6) 0.7698(9)
O2C O 0.1343(6) 1.1343(6) 0.1343(6)
O2Z O 0.3657(6) 1.3657(6) 0.6343(6)
O2Y O 0.3657(6) 0.6343(6) 0.3657(6)
O2A O 0.8657(6) 1.1343(6) 0.8657(6)
O3V O 0.4172(7) 0.9637(9) 0.7722(9)
O3C O 0.2278(9) 1.0363(9) 0.4172(7)
O3W O 0.4172(7) 1.0363(9) 0.2278(9)
O3OA O 0.2722(9) 1.0828(7) 0.5363(9)
O3CA O 0.0828(7) 1.2722(9) 0.5363(9)
O3PA O 0.2722(9) 0.9172(7) 0.4637(9)
O3BA O 0.0828(7) 0.7278(9) 0.4637(9)
O3M O 0.0363(9) 0.7722(9) 0.5828(7)
O3I O 0.0363(9) 0.5828(7) 0.7722(9)
O3U O 0.5828(7) 1.0363(9) 0.7722(9)
O3A O 0.7722(9) 1.0363(9) 0.5828(7)
O3FA O 0.4637(9) 1.0828(7) 0.7278(9)
O3LA O 0.4637(9) 1.2722(9) 0.9172(7)
O3IA O 0.5363(9) 0.9172(7) 0.7278(9)
O3MA O 0.5363(9) 0.7278(9) 0.9172(7)
O3T O 0.5828(7) 0.9637(9) 0.2278(9)
O3B O 0.7722(9) 0.9637(9) 0.4172(7)
O3HA O 0.4637(9) 0.9172(7) 0.2722(9)
O3JA O 0.4637(9) 0.7278(9) 0.0828(7)
O3GA O 0.5363(9) 1.0828(7) 0.2722(9)
O3KA O 0.5363(9) 1.2722(9) 0.0828(7)
O3DA O -0.0828(7) 1.2722(9) 0.4637(9)
O3NA O -0.2722(9) 1.0828(7) 0.4637(9)
O3O O 0.0363(9) 1.2278(9) 0.4172(7)
O3L O -0.0363(9) 1.2278(9) 0.5828(7)
O3EA O -0.0828(7) 0.7278(9) 0.5363(9)
O3N O -0.0363(9) 0.7722(9) 0.4172(7)
O3J O -0.0363(9) 0.4172(7) 0.7722(9)
O3UA O -0.0828(7) 0.5363(9) 0.7278(9)
O3RA O 0.0828(7) 0.4637(9) 0.7278(9)
O4V O 0.2388(6) 0.9090(6) 0.8210(5)
O4C O 0.1790(5) 1.0910(6) 0.2388(6)
O4W O 0.2388(6) 1.0910(6) 0.1790(5)
O4OA O 0.3210(5) 1.2612(6) 0.5910(6)
O4CA O 0.2612(6) 1.3210(5) 0.5910(6)
O4PA O 0.3210(5) 0.7388(6) 0.4090(6)
O4BA O 0.2612(6) 0.6790(5) 0.4090(6)
O4M O 0.0910(6) 0.8210(5) 0.7612(6)
O4I O 0.0910(6) 0.7612(6) 0.8210(5)
O4U O 0.7612(6) 1.0910(6) 0.8210(5)
O4A O 0.8210(5) 1.0910(6) 0.7612(6)
O4FA O 0.4090(6) 1.2612(6) 0.6790(5)
O4LA O 0.4090(6) 1.3210(5) 0.7388(6)
O4IA O 0.5910(6) 0.7388(6) 0.6790(5)
O4MA O 0.5910(6) 0.6790(5) 0.7388(6)
O4T O 0.7612(6) 0.9090(6) 0.1790(5)
O4B O 0.8210(5) 0.9090(6) 0.2388(6)
O4HA O 0.4090(6) 0.7388(6) 0.3210(5)
O4JA O 0.4090(6) 0.6790(5) 0.2612(6)
O4GA O 0.5910(6) 1.2612(6) 0.3210(5)
O4KA O 0.5910(6) 1.3210(5) 0.2612(6)
O4DA O -0.2612(6) 1.3210(5) 0.4090(6)
O4NA O -0.3210(5) 1.2612(6) 0.4090(6)
O4F O 0.2388(6) 0.8210(5) 0.9090(6)
O4O O 0.0910(6) 1.1790(5) 0.2388(6)
O4G O 0.2388(6) 1.1790(5) 0.0910(6)
O4RA O 0.2612(6) 1.4090(6) 0.6790(5)
O4SA O 0.2612(6) 0.5910(6) 0.3210(5)
O4P O 0.1790(5) 0.7612(6) 0.9090(6)
O4D O 0.7612(6) 1.1790(5) 0.9090(6)
O4L O 0.9090(6) 1.1790(5) 0.7612(6)
O4Z O 0.3210(5) 1.4090(6) 0.7388(6)
O5V O 0.1689(5) 0.9725(4) 0.8932(6)
O5J O -0.0275(4) 1.1689(5) 0.8932(6)
O5L O -0.0275(4) 1.1068(6) 0.8311(5)
O5G O 0.1689(5) 1.1068(6) 1.0275(4)
O5S O 0.1068(6) 1.1689(5) 1.0275(4)
O5M O 0.0275(4) 0.8932(6) 0.8311(5)
O5I O 0.0275(4) 0.8311(5) 0.8932(6)
O5U O -0.1689(5) 1.0275(4) 0.8932(6)
O5A O -0.1068(6) 1.0275(4) 0.8311(5)
O5Q O -0.1068(6) 0.8311(5) 1.0275(4)
O5E O -0.1689(5) 0.8932(6) 1.0275(4)
O5F O 0.1689(5) 0.8932(6) 0.9725(4)
O5P O 0.1068(6) 0.8311(5) 0.9725(4)
O5C O 0.1068(6) 1.0275(4) 1.1689(5)
O5W O 0.1689(5) 1.0275(4) 1.1068(6)
O5H O -0.0275(4) 0.8311(5) 1.1068(6)
O5N O -0.0275(4) 0.8932(6) 1.1689(5)
O5C_2 O 0.1068(6) 1.0275(4) 0.1689(5)
O5W_2 O 0.1689(5) 1.0275(4) 0.1068(6)
O5H_2 O -0.0275(4) 0.8311(5) 0.1068(6)
O5N_2 O -0.0275(4) 0.8932(6) 0.1689(5)
O5F_2 O 0.1689(5) 0.8932(6) -0.0275(4)
O5P_2 O 0.1068(6) 0.8311(5) -0.0275(4)
O5O O 0.0275(4) 1.1068(6) 0.1689(5)
O5G_2 O 0.1689(5) 1.1068(6) 0.0275(4)
O5OA O 0.3932(6) 1.3311(5) 0.5275(4)
O5FA O 0.4725(4) 1.3311(5) 0.6068(6)
O5CA O 0.3311(5) 1.3932(6) 0.5275(4)
O5RA O 0.3311(5) 1.4725(4) 0.6068(6)
O5PA O 0.3932(6) 0.6689(5) 0.4725(4)
O5HA O 0.4725(4) 0.6689(5) 0.3932(6)
O5BA O 0.3311(5) 0.6068(6) 0.4725(4)
O5SA O 0.3311(5) 0.5275(4) 0.3932(6)
O5U_2 O 0.8311(5) 1.0275(4) 0.8932(6)
O5D O 0.8311(5) 1.1068(6) 0.9725(4)
O5A_2 O 0.8932(6) 1.0275(4) 0.8311(5)
O5L_2 O 0.9725(4) 1.1068(6) 0.8311(5)
O5LA O 0.4725(4) 1.3932(6) 0.6689(5)
O5Z O 0.3932(6) 1.4725(4) 0.6689(5)
O6V O 0.4383(7) 0.9752(7) 0.6956(7)
O6C O 0.3044(7) 1.0248(7) 0.4383(7)
O6W O 0.4383(7) 1.0248(7) 0.3044(7)
O6OA O 0.1956(7) 1.0617(7) 0.5248(7)
O6CA O 0.0617(7) 1.1956(7) 0.5248(7)
O6PA O 0.1956(7) 0.9383(7) 0.4752(7)
O6BA O 0.0617(7) 0.8044(7) 0.4752(7)
O6M O 0.0248(7) 0.6956(7) 0.5617(7)
O6I O 0.0248(7) 0.5617(7) 0.6956(7)
O6U O 0.5617(7) 1.0248(7) 0.6956(7)
O6A O 0.6956(7) 1.0248(7) 0.5617(7)
O6FA O 0.4752(7) 1.0617(7) 0.8044(7)
O6LA O 0.4752(7) 1.1956(7) 0.9383(7)
O6IA O 0.5248(7) 0.9383(7) 0.8044(7)
O6MA O 0.5248(7) 0.8044(7) 0.9383(7)
O6T O 0.5617(7) 0.9752(7) 0.3044(7)
O6B O 0.6956(7) 0.9752(7) 0.4383(7)
O6HA O 0.4752(7) 0.9383(7) 0.1956(7)
O6JA O 0.4752(7) 0.8044(7) 0.0617(7)
O6GA O 0.5248(7) 1.0617(7) 0.1956(7)
O6KA O 0.5248(7) 1.1956(7) 0.0617(7)
O6DA O -0.0617(7) 1.1956(7) 0.4752(7)
O6NA O -0.1956(7) 1.0617(7) 0.4752(7)
O6O O 0.0248(7) 1.3044(7) 0.4383(7)
O6L O -0.0248(7) 1.3044(7) 0.5617(7)
O6EA O -0.0617(7) 0.8044(7) 0.5248(7)
O6N O -0.0248(7) 0.6956(7) 0.4383(7)
O6J O -0.0248(7) 0.4383(7) 0.6956(7)
O6UA O -0.0617(7) 0.5248(7) 0.8044(7)
O6RA O 0.0617(7) 0.4752(7) 0.8044(7)
C1G C 0.0637(6) 1.1296(8) 0.9363(6)
C1J C 0.0637(6) 1.0637(6) 0.8704(8)
C1E C -0.0637(6) 0.8704(8) 0.9363(6)
C1A C -0.1296(8) 0.9363(6) 0.9363(6)
C1I C -0.0637(6) 0.9363(6) 0.8704(8)
C1F C 0.0637(6) 0.8704(8) 1.0637(6)
C1H C 0.0637(6) 0.9363(6) 1.1296(8)
C1C C 0.1296(8) 0.9363(6) 1.0637(6)
C1C_2 C 0.1296(8) 0.9363(6) 0.0637(6)
C1F_2 C 0.0637(6) 0.8704(8) 0.0637(6)
C1H_2 C 0.0637(6) 0.9363(6) 0.1296(8)
H1G H 0.0500 1.1626 0.9500
H1J H 0.0500 1.0500 0.8374
H1E H -0.0500 0.8374 0.9500
H1A H -0.1626 0.9500 0.9500
H1I H -0.0500 0.9500 0.8374
H1F H 0.0500 0.8374 1.0500
H1H H 0.0500 0.9500 1.1626
H1C H 0.1626 0.9500 1.0500
H1C_2 H 0.1626 0.9500 0.0500
H1F_2 H 0.0500 0.8374 0.0500
H1H_2 H 0.0500 0.9500 0.1626
C2G C 0.1070(5) 1.1070(5) 0.9574(7)
C2J C 0.0426(7) 1.1070(5) 0.8930(5)
C2I C -0.0426(7) 0.8930(5) 0.8930(5)
C2E C -0.1070(5) 0.8930(5) 0.9574(7)
C2A C -0.1070(5) 0.9574(7) 0.8930(5)
C2F C 0.1070(5) 0.8930(5) 1.0426(7)
C2H C 0.0426(7) 0.8930(5) 1.1070(5)
C2C C 0.1070(5) 0.9574(7) 1.1070(5)
C2C_2 C 0.1070(5) 0.9574(7) 0.1070(5)
C2F_2 C 0.1070(5) 0.8930(5) 0.0426(7)
C2H_2 C 0.0426(7) 0.8930(5) 0.1070(5)
C3C C 0.2235(6) 1.0851(9) 0.2235(6)
C3CA C 0.2765(6) 1.2765(6) 0.5851(9)
C3BA C 0.2765(6) 0.7235(6) 0.4149(9)
C3I C 0.0851(9) 0.7765(6) 0.7765(6)
C3A C 0.7765(6) 1.0851(9) 0.7765(6)
C3FA C 0.4149(9) 1.2765(6) 0.7235(6)
C3IA C 0.5851(9) 0.7235(6) 0.7235(6)
C3B C 0.7765(6) 0.9149(9) 0.2235(6)
C3HA C 0.4149(9) 0.7235(6) 0.2765(6)
C3GA C 0.5851(9) 1.2765(6) 0.2765(6)
C3DA C -0.2765(6) 1.2765(6) 0.4149(9)
C4J C -0.0079(9) 1.1309(5) 0.8691(5)
C4G C 0.1309(5) 1.1309(5) 1.0079(9)
C4I C 0.0079(9) 0.8691(5) 0.8691(5)
C4A C -0.1309(5) 1.0079(9) 0.8691(5)
C4E C -0.1309(5) 0.8691(5) 1.0079(9)
C4F C 0.1309(5) 0.8691(5) 0.9921(9)
C4C C 0.1309(5) 1.0079(9) 1.1309(5)
C4H C -0.0079(9) 0.8691(5) 1.1309(5)
C4C_2 C 0.1309(5) 1.0079(9) 0.1309(5)
C4H_2 C -0.0079(9) 0.8691(5) 0.1309(5)
C4F_2 C 0.1309(5) 0.8691(5) -0.0079(9)
C5C C 0.3375(8) 1.0391(12) 0.3375(8)
C5CA C 0.1625(8) 1.1625(8) 0.5391(12)
C5BA C 0.1625(8) 0.8375(8) 0.4609(12)
C5I C 0.0391(12) 0.6625(8) 0.6625(8)
C5A C 0.6625(8) 1.0391(12) 0.6625(8)
C5FA C 0.4609(12) 1.1625(8) 0.8375(8)
C5IA C 0.5391(12) 0.8375(8) 0.8375(8)
C5B C 0.6625(8) 0.9609(12) 0.3375(8)
C5HA C 0.4609(12) 0.8375(8) 0.1625(8)
C5GA C 0.5391(12) 1.1625(8) 0.1625(8)
C5DA C -0.1625(8) 1.1625(8) 0.4609(12)
H2C H 0.3631 1.0296 0.3631
H2CA H 0.1369 1.1369 0.5296
H2BA H 0.1369 0.8631 0.4704
H2I H 0.0296 0.6369 0.6369
H2A H 0.6369 1.0296 0.6369
H2FA H 0.4704 1.1369 0.8631
H2IA H 0.5296 0.8631 0.8631
H2B H 0.6369 0.9704 0.3631
H2HA H 0.4704 0.8631 0.1369
H2GA H 0.5296 1.1369 0.1369
H2DA H -0.1369 1.1369 0.4704
C6V C 0.4040(9) 0.9637(9) 0.7276(12)
C6C C 0.2724(12) 1.0363(9) 0.4040(9)
C6W C 0.4040(9) 1.0363(9) 0.2724(12)
C6OA C 0.2276(12) 1.0960(9) 0.5363(9)
C6CA C 0.0960(9) 1.2276(12) 0.5363(9)
C6PA C 0.2276(12) 0.9040(9) 0.4637(9)
C6BA C 0.0960(9) 0.7724(12) 0.4637(9)
C6M C 0.0363(9) 0.7276(12) 0.5960(9)
C6I C 0.0363(9) 0.5960(9) 0.7276(12)
C6U C 0.5960(9) 1.0363(9) 0.7276(12)
C6A C 0.7276(12) 1.0363(9) 0.5960(9)
C6FA C 0.4637(9) 1.0960(9) 0.7724(12)
C6LA C 0.4637(9) 1.2276(12) 0.9040(9)
C6IA C 0.5363(9) 0.9040(9) 0.7724(12)
C6MA C 0.5363(9) 0.7724(12) 0.9040(9)
C6T C 0.5960(9) 0.9637(9) 0.2724(12)
C6B C 0.7276(12) 0.9637(9) 0.4040(9)
C6HA C 0.4637(9) 0.9040(9) 0.2276(12)
C6JA C 0.4637(9) 0.7724(12) 0.0960(9)
C6GA C 0.5363(9) 1.0960(9) 0.2276(12)
C6KA C 0.5363(9) 1.2276(12) 0.0960(9)
C6DA C -0.0960(9) 1.2276(12) 0.4637(9)
C6NA C -0.2276(12) 1.0960(9) 0.4637(9)
C7V C 0.3156(7) 0.9362(7) 0.7550(10)
C7C C 0.2450(10) 1.0638(7) 0.3156(7)
C7W C 0.3156(7) 1.0638(7) 0.2450(10)
C7OA C 0.2550(10) 1.1844(7) 0.5638(7)
C7CA C 0.1844(7) 1.2550(10) 0.5638(7)
C7PA C 0.2550(10) 0.8156(7) 0.4362(7)
C7BA C 0.1844(7) 0.7450(10) 0.4362(7)
C7M C 0.0638(7) 0.7550(10) 0.6844(7)
C7I C 0.0638(7) 0.6844(7) 0.7550(10)
C7U C 0.6844(7) 1.0638(7) 0.7550(10)
C7A C 0.7550(10) 1.0638(7) 0.6844(7)
C7FA C 0.4362(7) 1.1844(7) 0.7450(10)
C7LA C 0.4362(7) 1.2550(10) 0.8156(7)
C7IA C 0.5638(7) 0.8156(7) 0.7450(10)
C7MA C 0.5638(7) 0.7450(10) 0.8156(7)
C7T C 0.6844(7) 0.9362(7) 0.2450(10)
C7B C 0.7550(10) 0.9362(7) 0.3156(7)
C7HA C 0.4362(7) 0.8156(7) 0.2550(10)
C7JA C 0.4362(7) 0.7450(10) 0.1844(7)
C7GA C 0.5638(7) 1.1844(7) 0.2550(10)
C7KA C 0.5638(7) 1.2550(10) 0.1844(7)
C7DA C -0.1844(7) 1.2550(10) 0.4362(7)
C7NA C -0.2550(10) 1.1844(7) 0.4362(7)
H3V H 0.3248 0.9304 0.7895
H3C H 0.2105 1.0696 0.3248
H3W H 0.3248 1.0696 0.2105
H3OA H 0.2895 1.1752 0.5696
H3CA H 0.1752 1.2895 0.5696
H3PA H 0.2895 0.8248 0.4304
H3BA H 0.1752 0.7105 0.4304
H3M H 0.0696 0.7895 0.6752
H3I H 0.0696 0.6752 0.7895
H3U H 0.6752 1.0696 0.7895
H3A H 0.7895 1.0696 0.6752
H3FA H 0.4304 1.1752 0.7105
H3LA H 0.4304 1.2895 0.8248
H3IA H 0.5696 0.8248 0.7105
H3MA H 0.5696 0.7105 0.8248
H3T H 0.6752 0.9304 0.2105
H3B H 0.7895 0.9304 0.3248
H3HA H 0.4304 0.8248 0.2895
H3JA H 0.4304 0.7105 0.1752
H3GA H 0.5696 1.1752 0.2895
H3KA H 0.5696 1.2895 0.1752
H3DA H -0.1752 1.2895 0.4304
H3NA H -0.2895 1.1752 0.4304
C8V C 0.3525(9) 0.9535(7) 0.7139(11)
C8C C 0.2861(11) 1.0465(7) 0.3525(9)
C8W C 0.3525(9) 1.0465(7) 0.2861(11)
C8OA C 0.2139(11) 1.1475(9) 0.5465(7)
C8CA C 0.1475(9) 1.2139(11) 0.5465(7)
C8PA C 0.2139(11) 0.8525(9) 0.4535(7)
C8BA C 0.1475(9) 0.7861(11) 0.4535(7)
C8M C 0.0465(7) 0.7139(11) 0.6475(9)
C8I C 0.0465(7) 0.6475(9) 0.7139(11)
C8U C 0.6475(9) 1.0465(7) 0.7139(11)
C8A C 0.7139(11) 1.0465(7) 0.6475(9)
C8FA C 0.4535(7) 1.1475(9) 0.7861(11)
C8LA C 0.4535(7) 1.2139(11) 0.8525(9)
C8IA C 0.5465(7) 0.8525(9) 0.7861(11)
C8MA C 0.5465(7) 0.7861(11) 0.8525(9)
C8T C 0.6475(9) 0.9535(7) 0.2861(11)
C8B C 0.7139(11) 0.9535(7) 0.3525(9)
C8HA C 0.4535(7) 0.8525(9) 0.2139(11)
C8JA C 0.4535(7) 0.7861(11) 0.1475(9)
C8GA C 0.5465(7) 1.1475(9) 0.2139(11)
C8KA C 0.5465(7) 1.2139(11) 0.1475(9)
C8DA C -0.1475(9) 1.2139(11) 0.4535(7)
C8NA C -0.2139(11) 1.1475(9) 0.4535(7)
C9C C 0.2650(7) 1.0703(10) 0.2650(7)
C9CA C 0.2350(7) 1.2350(7) 0.5703(10)
C9BA C 0.2350(7) 0.7650(7) 0.4297(10)
C9I C 0.0703(10) 0.7350(7) 0.7350(7)
C9A C 0.7350(7) 1.0703(10) 0.7350(7)
C9FA C 0.4297(10) 1.2350(7) 0.7650(7)
C9IA C 0.5703(10) 0.7650(7) 0.7650(7)
C9B C 0.7350(7) 0.9297(10) 0.2650(7)
C9HA C 0.4297(10) 0.7650(7) 0.2350(7)
C9GA C 0.5703(10) 1.2350(7) 0.2350(7)
C9DA C -0.2350(7) 1.2350(7) 0.4297(10)
In3? In 0.2911(5) 1.0000 0.5000
N1? N 0.0000 1.0000 1.0000
C10? C 0.0509(16) 1.0218(19) 1.0218(19)
loop_
_geom_bond_atom_site_label_1
_geom_bond_atom_site_label_2
_geom_bond_site_symmetry_1
_geom_bond_site_symmetry_2
In1 O1 1_555 1_555
In2 O3 1_555 1_555
O2 In1 1_555 1_555
O3 C6 1_555 1_555
O4 In1 1_555 1_555
O5 In1 1_555 1_555
O6 In2 1_555 1_555
C1 H1 1_555 1_555
C2 C1 1_555 1_555
C3 O4 1_555 1_555
C4 O5 1_555 1_555
C5 H2 1_555 1_555
C6 O6 1_555 1_555
C7 H3 1_555 1_555
C8 C5 1_555 1_555
C9 C3 1_555 1_555
C11 N2 1_555 1_555
N2 C11V 1_555 1_555
In1F O2 1_555 1_555
In1C O1C 1_555 1_555
In1G O1G 1_555 1_555
In1FA O1FA 1_555 1_555
In1CA O1CA 1_555 1_555
In1HA O1HA 1_555 1_555
In1BA O1BA 1_555 1_555
In1I O2 1_555 1_555
In1D O1D 1_555 1_555
In1A O1A 1_555 1_555
In1Z O1Z 1_555 1_555
In1J O5J 1_555 1_555
In1A_2 O5L 1_555 1_555
In1G_2 O5G 1_555 1_555
In1K O5S 1_555 1_555
In1D_2 O5U 1_555 1_555
In1H O5Q 1_555 1_555
In1E O5E 1_555 1_555
In1IA O4IA 1_555 1_555
In1AA O4MA 1_555 1_555
In1E_2 O4T 1_555 1_555
In1B O4B 1_555 1_555
In1Y O2Y 1_555 1_555
In1GA O4GA 1_555 1_555
In1X O4KA 1_555 1_555
In1DA O4DA 1_555 1_555
In1GA_2 O4NA 1_555 1_555
In1C_2 O5C 1_555 1_555
In1B_2 O5N 1_555 1_555
In1K_2 O2C 1_555 1_555
In1H_2 O5H_2 1_555 1_555
In1B_3 O5N_2 1_555 1_555
In1F_2 O5F_2 1_555 1_555
In1I_2 O5P_2 1_555 1_555
In2U O3V 1_555 1_555
In2T O3W 1_555 1_555
In2L O3CA 1_555 1_555
In2M O3BA 1_555 1_555
In2I O3I 1_555 1_555
In2A O3A 1_555 1_555
In2D O3LA 1_555 1_555
In2E O3MA 1_555 1_555
In2E_2 O3JA 1_555 1_555
In2D_2 O3KA 1_555 1_555
In2A_2 O3NA 1_555 1_555
O1F In1F 1_555 1_555
O1I In1I 1_555 1_555
O2C In1C 1_555 1_555
O2Z In1FA 1_555 1_555
O2Y In1HA 1_555 1_555
O2A In1D 1_555 1_555
O3V C6V 1_555 1_555
O3C In2 1_555 1_555
O3W C6W 1_555 1_555
O3OA In2 1_555 1_555
O3CA C6CA 1_555 1_555
O3PA In2 1_555 1_555
O3BA C6BA 1_555 1_555
O3M In2M 1_555 1_555
O3I C6I 1_555 1_555
O3U In2U 1_555 1_555
O3A C6A 1_555 1_555
O3FA In2U 1_555 1_555
O3LA C6LA 1_555 1_555
O3IA In2U 1_555 1_555
O3MA C6MA 1_555 1_555
O3T In2T 1_555 1_555
O3B In2A 1_555 1_555
O3HA In2T 1_555 1_555
O3JA C6JA 1_555 1_555
O3GA In2T 1_555 1_555
O3KA C6KA 1_555 1_555
O3DA In2L 1_555 1_555
O3NA C6NA 1_555 1_555
O3O In2L 1_555 1_555
O3L In2L 1_555 1_555
O3EA In2M 1_555 1_555
O3N In2M 1_555 1_555
O3J In2I 1_555 1_555
O3UA In2I 1_555 1_555
O3RA In2I 1_555 1_555
O4V C3 1_555 1_555
O4C In1C 1_555 1_555
O4W In1G 1_555 1_555
O4OA In1FA 1_555 1_555
O4CA In1CA 1_555 1_555
O4PA In1HA 1_555 1_555
O4BA In1BA 1_555 1_555
O4M In1 1_555 1_555
O4I In1I 1_555 1_555
O4U In1D 1_555 1_555
O4A In1A 1_555 1_555
O4FA In1FA 1_555 1_555
O4LA In1Z 1_555 1_555
O4IA C3IA 1_555 1_555
O4MA C3IA 1_555 1_555
O4T C3B 1_555 1_555
O4B C3B 1_555 1_555
O4HA In1HA 1_555 1_555
O4JA In1Y 1_555 1_555
O4GA C3GA 1_555 1_555
O4KA C3GA 1_555 1_555
O4DA C3DA 1_555 1_555
O4NA C3DA 1_555 1_555
O4F In1F 1_555 1_555
O4O In1C 1_555 1_555
O4G In1G 1_555 1_555
O4RA In1CA 1_555 1_555
O4SA In1BA 1_555 1_555
O4P In1I 1_555 1_555
O4D In1D 1_555 1_555
O4L In1A 1_555 1_555
O4Z In1Z 1_555 1_555
O5V C4 1_555 1_555
O5J C4J 1_555 1_555
O5L C4J 1_555 1_555
O5G C4G 1_555 1_555
O5S C4G 1_555 1_555
O5M In1 1_555 1_555
O5I In1I 1_555 1_555
O5U C4A 1_555 1_555
O5A In1A_2 1_555 1_555
O5Q C4E 1_555 1_555
O5E C4E 1_555 1_555
O5F In1F 1_555 1_555
O5P In1I 1_555 1_555
O5C C4C 1_555 1_555
O5W In1G_2 1_555 1_555
O5H In1H 1_555 1_555
O5N C4H 1_555 1_555
O5C_2 In1C 1_555 1_555
O5W_2 In1G 1_555 1_555
O5H_2 C4H_2 1_555 1_555
O5N_2 C4H_2 1_555 1_555
O5F_2 C4F_2 1_555 1_555
O5P_2 C4F_2 1_555 1_555
O5O In1C 1_555 1_555
O5G_2 In1G 1_555 1_555
O5OA In1FA 1_555 1_555
O5FA In1FA 1_555 1_555
O5CA In1CA 1_555 1_555
O5RA In1CA 1_555 1_555
O5PA In1HA 1_555 1_555
O5HA In1HA 1_555 1_555
O5BA In1BA 1_555 1_555
O5SA In1BA 1_555 1_555
O5U_2 In1D 1_555 1_555
O5D In1D 1_555 1_555
O5A_2 In1A 1_555 1_555
O5L_2 In1A 1_555 1_555
O5LA In1Z 1_555 1_555
O5Z In1Z 1_555 1_555
O6V In2U 1_555 1_555
O6C In2 1_555 1_555
O6W In2T 1_555 1_555
O6OA In2 1_555 1_555
O6CA In2L 1_555 1_555
O6PA In2 1_555 1_555
O6BA In2M 1_555 1_555
O6M In2M 1_555 1_555
O6I In2I 1_555 1_555
O6U In2U 1_555 1_555
O6A In2A 1_555 1_555
O6FA In2U 1_555 1_555
O6LA In2D 1_555 1_555
O6IA In2U 1_555 1_555
O6MA In2E 1_555 1_555
O6T In2T 1_555 1_555
O6B In2A 1_555 1_555
O6HA In2T 1_555 1_555
O6JA In2E_2 1_555 1_555
O6GA In2T 1_555 1_555
O6KA In2D_2 1_555 1_555
O6DA In2L 1_555 1_555
O6NA In2A_2 1_555 1_555
O6O In2L 1_555 1_555
O6L In2L 1_555 1_555
O6EA In2M 1_555 1_555
O6N In2M 1_555 1_555
O6J In2I 1_555 1_555
O6UA In2I 1_555 1_555
O6RA In2I 1_555 1_555
C1G H1G 1_555 1_555
C1J C2 1_555 1_555
C1E H1E 1_555 1_555
C1A H1A 1_555 1_555
C1I H1I 1_555 1_555
C1F H1F 1_555 1_555
C1H H1H 1_555 1_555
C1C H1C 1_555 1_555
C1C_2 H1C_2 1_555 1_555
C1F_2 H1F_2 1_555 1_555
C1H_2 H1H_2 1_555 1_555
H1J C1J 1_555 1_555
C2G C1 1_555 1_555
C2J C1G 1_555 1_555
C2I C1E 1_555 1_555
C2E C1E 1_555 1_555
C2A C1A 1_555 1_555
C2F C1F 1_555 1_555
C2H C1F 1_555 1_555
C2C C1H 1_555 1_555
C2C_2 C1C_2 1_555 1_555
C2F_2 C1C_2 1_555 1_555
C2H_2 C1F_2 1_555 1_555
C3C O4C 1_555 1_555
C3CA O4OA 1_555 1_555
C3BA O4PA 1_555 1_555
C3I O4M 1_555 1_555
C3A O4U 1_555 1_555
C3FA O4FA 1_555 1_555
C3IA C9IA 1_555 1_555
C3B C9B 1_555 1_555
C3HA O4HA 1_555 1_555
C3GA C9GA 1_555 1_555
C3DA C9DA 1_555 1_555
C4J C2J 1_555 1_555
C4G C2G 1_555 1_555
C4I O5M 1_555 1_555
C4A O5A 1_555 1_555
C4E C2E 1_555 1_555
C4F O5F 1_555 1_555
C4C O5W 1_555 1_555
C4H O5H 1_555 1_555
C4C_2 O5C_2 1_555 1_555
C4H_2 C2H_2 1_555 1_555
C4F_2 C2F_2 1_555 1_555
C5C H2C 1_555 1_555
C5CA H2CA 1_555 1_555
C5BA H2BA 1_555 1_555
C5I H2I 1_555 1_555
C5A H2A 1_555 1_555
C5FA H2FA 1_555 1_555
C5IA H2IA 1_555 1_555
C5B H2B 1_555 1_555
C5HA H2HA 1_555 1_555
C5GA H2GA 1_555 1_555
C5DA H2DA 1_555 1_555
C6V O6V 1_555 1_555
C6C O3C 1_555 1_555
C6W O6W 1_555 1_555
C6OA O3OA 1_555 1_555
C6CA O6CA 1_555 1_555
C6PA O3PA 1_555 1_555
C6BA O6BA 1_555 1_555
C6M O3M 1_555 1_555
C6I O6I 1_555 1_555
C6U O3U 1_555 1_555
C6A O6A 1_555 1_555
C6FA O3FA 1_555 1_555
C6LA O6LA 1_555 1_555
C6IA O3IA 1_555 1_555
C6MA O6MA 1_555 1_555
C6T O3T 1_555 1_555
C6B O3B 1_555 1_555
C6HA O3HA 1_555 1_555
C6JA O6JA 1_555 1_555
C6GA O3GA 1_555 1_555
C6KA O6KA 1_555 1_555
C6DA O3DA 1_555 1_555
C6NA O6NA 1_555 1_555
C7V C9 1_555 1_555
C7C H3C 1_555 1_555
C7W H3W 1_555 1_555
C7OA H3OA 1_555 1_555
C7CA H3CA 1_555 1_555
C7PA H3PA 1_555 1_555
C7BA H3BA 1_555 1_555
C7M H3M 1_555 1_555
C7I H3I 1_555 1_555
C7U H3U 1_555 1_555
C7A H3A 1_555 1_555
C7FA H3FA 1_555 1_555
C7LA H3LA 1_555 1_555
C7IA H3IA 1_555 1_555
C7MA H3MA 1_555 1_555
C7T H3T 1_555 1_555
C7B H3B 1_555 1_555
C7HA H3HA 1_555 1_555
C7JA H3JA 1_555 1_555
C7GA H3GA 1_555 1_555
C7KA H3KA 1_555 1_555
C7DA H3DA 1_555 1_555
C7NA H3NA 1_555 1_555
H3V C7V 1_555 1_555
C8V C5 1_555 1_555
C8C C5C 1_555 1_555
C8W C5C 1_555 1_555
C8OA C5CA 1_555 1_555
C8CA C5CA 1_555 1_555
C8PA C5BA 1_555 1_555
C8BA C5BA 1_555 1_555
C8M C5I 1_555 1_555
C8I C5I 1_555 1_555
C8U C5A 1_555 1_555
C8A C5A 1_555 1_555
C8FA C5FA 1_555 1_555
C8LA C5FA 1_555 1_555
C8IA C5IA 1_555 1_555
C8MA C5IA 1_555 1_555
C8T C5B 1_555 1_555
C8B C5B 1_555 1_555
C8HA C5HA 1_555 1_555
C8JA C5HA 1_555 1_555
C8GA C5GA 1_555 1_555
C8KA C5GA 1_555 1_555
C8DA C5DA 1_555 1_555
C8NA C5DA 1_555 1_555
C9C C3C 1_555 1_555
C9CA C3CA 1_555 1_555
C9BA C3BA 1_555 1_555
C9I C3I 1_555 1_555
C9A C3A 1_555 1_555
C9FA C3FA 1_555 1_555
C9IA C7IA 1_555 1_555
C9B C7T 1_555 1_555
C9HA C3HA 1_555 1_555
C9GA C7GA 1_555 1_555
C9DA C7DA 1_555 1_555
C2 C4 1_555 1_555
C6 C8 1_555 1_555
C7 C8 1_555 1_555
C7 C9 1_555 1_555
In1F O4V 1_555 1_555
In1F O5V 1_555 1_555
In1G O2C 1_555 1_555
In1CA O2Z 1_555 1_555
In1BA O2Y 1_555 1_555
In1A O2A 1_555 1_555
In1Z O2Z 1_555 1_555
O4W C3C 1_555 1_555
O4CA C3CA 1_555 1_555
O4BA C3BA 1_555 1_555
O4I C3I 1_555 1_555
O4A C3A 1_555 1_555
O4LA C3FA 1_555 1_555
O4JA C3HA 1_555 1_555
O5I C4I 1_555 1_555
O5P C4F 1_555 1_555
O5W_2 C4C_2 1_555 1_555
O6C C6C 1_555 1_555
O6OA C6OA 1_555 1_555
O6PA C6PA 1_555 1_555
O6M C6M 1_555 1_555
O6U C6U 1_555 1_555
O6FA C6FA 1_555 1_555
O6IA C6IA 1_555 1_555
O6T C6T 1_555 1_555
O6B C6B 1_555 1_555
O6HA C6HA 1_555 1_555
O6GA C6GA 1_555 1_555
O6DA C6DA 1_555 1_555
C1G C2G 1_555 1_555
C1J C2J 1_555 1_555
C1A C2E 1_555 1_555
C1I C2I 1_555 1_555
C1I C2A 1_555 1_555
C1H C2H 1_555 1_555
C1C C2F 1_555 1_555
C1C C2C 1_555 1_555
C1F_2 C2F_2 1_555 1_555
C1H_2 C2C_2 1_555 1_555
C1H_2 C2H_2 1_555 1_555
C2I C4I 1_555 1_555
C2A C4A 1_555 1_555
C2F C4F 1_555 1_555
C2H C4H 1_555 1_555
C2C C4C 1_555 1_555
C2C_2 C4C_2 1_555 1_555
C6V C8V 1_555 1_555
C6C C8C 1_555 1_555
C6W C8W 1_555 1_555
C6OA C8OA 1_555 1_555
C6CA C8CA 1_555 1_555
C6PA C8PA 1_555 1_555
C6BA C8BA 1_555 1_555
C6M C8M 1_555 1_555
C6I C8I 1_555 1_555
C6U C8U 1_555 1_555
C6A C8A 1_555 1_555
C6FA C8FA 1_555 1_555
C6LA C8LA 1_555 1_555
C6IA C8IA 1_555 1_555
C6MA C8MA 1_555 1_555
C6T C8T 1_555 1_555
C6B C8B 1_555 1_555
C6HA C8HA 1_555 1_555
C6JA C8JA 1_555 1_555
C6GA C8GA 1_555 1_555
C6KA C8KA 1_555 1_555
C6DA C8DA 1_555 1_555
C6NA C8NA 1_555 1_555
C7V C8V 1_555 1_555
C7C C8C 1_555 1_555
C7C C9C 1_555 1_555
C7W C8W 1_555 1_555
C7W C9C 1_555 1_555
C7OA C8OA 1_555 1_555
C7OA C9CA 1_555 1_555
C7CA C8CA 1_555 1_555
C7CA C9CA 1_555 1_555
C7PA C8PA 1_555 1_555
C7PA C9BA 1_555 1_555
C7BA C8BA 1_555 1_555
C7BA C9BA 1_555 1_555
C7M C8M 1_555 1_555
C7M C9I 1_555 1_555
C7I C8I 1_555 1_555
C7I C9I 1_555 1_555
C7U C8U 1_555 1_555
C7U C9A 1_555 1_555
C7A C8A 1_555 1_555
C7A C9A 1_555 1_555
C7FA C8FA 1_555 1_555
C7FA C9FA 1_555 1_555
C7LA C8LA 1_555 1_555
C7LA C9FA 1_555 1_555
C7IA C8IA 1_555 1_555
C7MA C8MA 1_555 1_555
C7MA C9IA 1_555 1_555
C7T C8T 1_555 1_555
C7B C8B 1_555 1_555
C7B C9B 1_555 1_555
C7HA C8HA 1_555 1_555
C7HA C9HA 1_555 1_555
C7JA C8JA 1_555 1_555
C7JA C9HA 1_555 1_555
C7GA C8GA 1_555 1_555
C7KA C8KA 1_555 1_555
C7KA C9GA 1_555 1_555
C7DA C8DA 1_555 1_555
C7NA C8NA 1_555 1_555
C7NA C9DA 1_555 1_555

#END
