
#######################################################################
#
#                 Cambridge Crystallographic Data Centre
#                                CCDC 
#
#######################################################################
#
# If this CIF has been generated from an entry in the Cambridge 
# Structural Database, then it will include bibliographic, chemical, 
# crystal, experimental, refinement or atomic coordinate data resulting 
# from the CCDC's data processing and validation procedures.
#
#######################################################################

data_IMUVES
_chemical_name_common            CPM-6
_chemical_formula_moiety         '(C1 H6 N1 1+)n,n(C72 H36 In9 O56 1-)'
_chemical_name_systematic        
"catena-[Methylammonium bis(\m~6~-benzene-1,3,5-tricarboxylato-O,O',O'',O''',O'''',O''''')-hexakis(\m~4~-benzene-1,3,5-tricarboxylato-O,O',O'',O''',O'''',O''''')-bis(\m~3~-oxo)-hexa-aqua-nona-indium(iii) unknown solvate]"
_symmetry_cell_setting           cubic
_symmetry_space_group_name_H-M   'I -4 3 m'
_symmetry_Int_Tables_number      217
_space_group_name_Hall           'I -4 2 3'
loop_
_symmetry_equiv_pos_site_id
_symmetry_equiv_pos_as_xyz
1 x,y,z
2 -x,-y,z
3 -x,y,-z
4 x,-y,-z
5 z,x,y
6 z,-x,-y
7 -z,-x,y
8 -z,x,-y
9 y,z,x
10 -y,z,-x
11 y,-z,-x
12 -y,-z,x
13 y,x,z
14 -y,-x,z
15 y,-x,-z
16 -y,x,-z
17 x,z,y
18 -x,z,-y
19 -x,-z,y
20 x,-z,-y
21 z,y,x
22 z,-y,-x
23 -z,y,-x
24 -z,-y,x
25 1/2+x,1/2+y,1/2+z
26 1/2-x,1/2-y,1/2+z
27 1/2-x,1/2+y,1/2-z
28 1/2+x,1/2-y,1/2-z
29 1/2+z,1/2+x,1/2+y
30 1/2+z,1/2-x,1/2-y
31 1/2-z,1/2-x,1/2+y
32 1/2-z,1/2+x,1/2-y
33 1/2+y,1/2+z,1/2+x
34 1/2-y,1/2+z,1/2-x
35 1/2+y,1/2-z,1/2-x
36 1/2-y,1/2-z,1/2+x
37 1/2+y,1/2+x,1/2+z
38 1/2-y,1/2-x,1/2+z
39 1/2+y,1/2-x,1/2-z
40 1/2-y,1/2+x,1/2-z
41 1/2+x,1/2+z,1/2+y
42 1/2-x,1/2+z,1/2-y
43 1/2-x,1/2-z,1/2+y
44 1/2+x,1/2-z,1/2-y
45 1/2+z,1/2+y,1/2+x
46 1/2+z,1/2-y,1/2-x
47 1/2-z,1/2+y,1/2-x
48 1/2-z,1/2-y,1/2+x
_cell_length_a                   25.8066(11)
_cell_length_b                   25.8066(11)
_cell_length_c                   25.8066(11)
_cell_angle_alpha                90
_cell_angle_beta                 90
_cell_angle_gamma                90
_cell_volume                     17186.7
_cell_formula_units_Z            4
loop_
_atom_site_label
_atom_site_type_symbol
_atom_site_fract_x
_atom_site_fract_y
_atom_site_fract_z
N1 N 0.180(2) -0.060(6) 0.320(5)
C10 C 0.150(7) -0.040(7) 0.277(6)
In1 In 0.20020(9) 0.09634(12) 0.11055(12)
O1 O 0.2373(6) 0.0910(7) 0.1763(6)
O2 O 0.2647(7) 0.0702(7) 0.0702(7)
O3 O 0.2287(11) 0.0261(10) 0.4170(10)
O4 O 0.1669(5) 0.1061(7) 0.0264(5)
O5 O 0.1370(8) 0.1370(8) 0.1370(8)
C1 C 0.1087(5) 0.1087(5) -0.0419(8)
C2 C 0.1306(5) 0.1306(5) 0.0067(10)
C3 C 0.0633(7) 0.1317(8) -0.0633(7)
C4 C 0.2221(7) 0.0834(11) 0.2221(7)
C5 C 0.2453(8) 0.0575(8) 0.3163(8)
C6 C 0.2874(14) 0.0413(10) 0.3489(9)
C7 C 0.2627(9) 0.0703(14) 0.2627(9)
C8 C 0.3306(11) 0.0392(15) 0.3306(11)
C9 C 0.2706(14) 0.0317(13) 0.4017(12)
O6 O 0.3015(11) 0.0196(7) 0.4374(9)
In3 In 0.2595(9) 0.0000 0.5000
In1T In 0.11055(12) 0.09634(12) 0.20020(9)
In1PA In 0.29980(9) 0.38945(12) 0.59634(12)
In1DA In 0.38945(12) 0.29980(9) 0.59634(12)
In1C In 0.20020(9) -0.09634(12) 0.88945(12)
In1U In 0.11055(12) -0.09634(12) 0.79980(9)
In1OA In 0.29980(9) -0.38945(12) 0.40366(12)
In1EA In 0.38945(12) -0.29980(9) 0.40366(12)
In1P In 0.20020(9) 0.11055(12) 0.09634(12)
In1H In 0.09634(12) 0.11055(12) 0.20020(9)
In1Y In 0.29980(9) 0.40366(12) 0.61055(12)
In1KA In 0.40366(12) 0.29980(9) 0.61055(12)
In1S In 0.20020(9) -0.11055(12) 0.90366(12)
In1J In 0.09634(12) -0.11055(12) 0.79980(9)
In1Z In 0.29980(9) -0.40366(12) 0.38945(12)
In1MA In 0.40366(12) -0.29980(9) 0.38945(12)
In1D In 0.11055(12) 0.20020(9) 0.09634(12)
In1HA In 0.59634(12) 0.38945(12) 0.29980(9)
In1LA In 0.59634(12) 0.29980(9) 0.38945(12)
In1W In 0.88945(12) -0.09634(12) 0.20020(9)
In1A In 0.79980(9) -0.09634(12) 0.11055(12)
In1GA In 0.40366(12) -0.38945(12) 0.29980(9)
In1FA In 0.59634(12) -0.38945(12) 0.70020(9)
In1JA In 0.59634(12) -0.29980(9) 0.61055(12)
In1V In 0.88945(12) 0.09634(12) 0.79980(9)
In1B In 0.79980(9) 0.09634(12) 0.88945(12)
In1IA In 0.40366(12) 0.38945(12) 0.70020(9)
In1L In 0.09634(12) 0.20020(9) 0.11055(12)
In1E In 0.11055(12) -0.20020(9) 0.90366(12)
In1N In 0.09634(12) -0.20020(9) 0.88945(12)
In1G In -0.11055(12) 0.20020(9) -0.09634(12)
In1V_2 In -0.11055(12) 0.09634(12) -0.20020(9)
In1J_2 In 0.09634(12) -0.11055(12) -0.20020(9)
In1S_2 In 0.20020(9) -0.11055(12) -0.09634(12)
In1W_2 In -0.11055(12) -0.09634(12) 0.20020(9)
In1F In -0.11055(12) -0.20020(9) 0.09634(12)
In1N_2 In 0.09634(12) -0.20020(9) -0.11055(12)
In1C_2 In 0.20020(9) -0.09634(12) -0.11055(12)
In1O In -0.09634(12) 0.20020(9) -0.11055(12)
In1B_2 In -0.20020(9) 0.09634(12) -0.11055(12)
In1R In -0.20020(9) -0.11055(12) 0.09634(12)
In1K In -0.09634(12) -0.11055(12) 0.20020(9)
In1F_2 In -0.11055(12) -0.20020(9) 1.09634(12)
In1W_3 In -0.11055(12) -0.09634(12) 1.20020(9)
In1H_2 In 0.09634(12) 0.11055(12) 1.20020(9)
In1P_2 In 0.20020(9) 0.11055(12) 1.09634(12)
In1V_3 In -0.11055(12) 0.09634(12) 0.79980(9)
In1G_2 In -0.11055(12) 0.20020(9) 0.90366(12)
O1T O 0.1763(6) 0.0910(7) 0.2373(6)
O1PA O 0.2627(6) 0.3237(6) 0.5910(7)
O1DA O 0.3237(6) 0.2627(6) 0.5910(7)
O1C O 0.2373(6) -0.0910(7) 0.8237(6)
O1U O 0.1763(6) -0.0910(7) 0.7627(6)
O1OA O 0.2627(6) -0.3237(6) 0.4090(7)
O1EA O 0.3237(6) -0.2627(6) 0.4090(7)
O1P O 0.2373(6) 0.1763(6) 0.0910(7)
O1D O 0.1763(6) 0.2373(6) 0.0910(7)
O1HA O 0.5910(7) 0.3237(6) 0.2627(6)
O1LA O 0.5910(7) 0.2627(6) 0.3237(6)
O1W O 0.8237(6) -0.0910(7) 0.2373(6)
O1A O 0.7627(6) -0.0910(7) 0.1763(6)
O1GA O 0.4090(7) -0.3237(6) 0.2627(6)
O1MA O 0.4090(7) -0.2627(6) 0.3237(6)
O1FA O 0.5910(7) -0.3237(6) 0.7373(6)
O1JA O 0.5910(7) -0.2627(6) 0.6763(6)
O1V O 0.8237(6) 0.0910(7) 0.7627(6)
O1B O 0.7627(6) 0.0910(7) 0.8237(6)
O1IA O 0.4090(7) 0.3237(6) 0.7373(6)
O1KA O 0.4090(7) 0.2627(6) 0.6763(6)
O1H O 0.0910(7) 0.1763(6) 0.2373(6)
O1L O 0.0910(7) 0.2373(6) 0.1763(6)
O1S O 0.2373(6) -0.1763(6) 0.9090(7)
O1E O 0.1763(6) -0.2373(6) 0.9090(7)
O1J O 0.0910(7) -0.1763(6) 0.7627(6)
O1N O 0.0910(7) -0.2373(6) 0.8237(6)
O1NA O 0.7373(6) -0.3237(6) 0.5910(7)
O1BA O 0.6763(6) -0.2627(6) 0.5910(7)
O1QA O 0.7373(6) 0.3237(6) 0.4090(7)
O1CA O 0.6763(6) 0.2627(6) 0.4090(7)
O1K O 0.9090(7) -0.1763(6) 0.2373(6)
O1M O 0.9090(7) -0.2373(6) 0.1763(6)
O1R O 0.7627(6) -0.1763(6) 0.0910(7)
O1F O 0.8237(6) -0.2373(6) 0.0910(7)
O1I O 0.9090(7) 0.1763(6) 0.7627(6)
O1O O 0.9090(7) 0.2373(6) 0.8237(6)
O1Q O 0.7627(6) 0.1763(6) 0.9090(7)
O1G O 0.8237(6) 0.2373(6) 0.9090(7)
O2H O 0.0702(7) 0.0702(7) 0.2647(7)
O2C O 0.2647(7) -0.0702(7) 0.9298(7)
O2J O 0.0702(7) -0.0702(7) 0.7353(7)
O2K O 0.9298(7) -0.0702(7) 0.2647(7)
O2A O 0.7353(7) -0.0702(7) 0.0702(7)
O2I O 0.9298(7) 0.0702(7) 0.7353(7)
O2B O 0.7353(7) 0.0702(7) 0.9298(7)
O3T O 0.4170(10) 0.0261(10) 0.2287(11)
O3PA O 0.2713(11) 0.0830(10) 0.5261(10)
O3DA O 0.0830(10) 0.2713(11) 0.5261(10)
O3C O 0.2287(11) -0.0261(10) 0.5830(10)
O3U O 0.4170(10) -0.0261(10) 0.7713(11)
O3OA O 0.2713(11) -0.0830(10) 0.4739(10)
O3EA O 0.0830(10) -0.2713(11) 0.4739(10)
O3P O 0.2287(11) 0.4170(10) 0.0261(10)
O3D O 0.4170(10) 0.2287(11) 0.0261(10)
O3HA O 0.5261(10) 0.0830(10) 0.2713(11)
O3LA O 0.5261(10) 0.2713(11) 0.0830(10)
O3W O 0.5830(10) -0.0261(10) 0.2287(11)
O3A O 0.7713(11) -0.0261(10) 0.4170(10)
O3GA O 0.4739(10) -0.0830(10) 0.2713(11)
O3MA O 0.4739(10) -0.2713(11) 0.0830(10)
O3FA O 0.5261(10) -0.0830(10) 0.7287(11)
O3JA O 0.5261(10) -0.2713(11) 0.9170(10)
O3V O 0.5830(10) 0.0261(10) 0.7713(11)
O3B O 0.7713(11) 0.0261(10) 0.5830(10)
O3IA O 0.4739(10) 0.0830(10) 0.7287(11)
O3KA O 0.4739(10) 0.2713(11) 0.9170(10)
O3H O 0.0261(10) 0.4170(10) 0.2287(11)
O3L O 0.0261(10) 0.2287(11) 0.4170(10)
O3S O 0.2287(11) -0.4170(10) 0.9739(10)
O3E O 0.4170(10) -0.2287(11) 0.9739(10)
O3J O 0.0261(10) -0.4170(10) 0.7713(11)
O3N O 0.0261(10) -0.2287(11) 0.5830(10)
O3NA O 0.7287(11) -0.0830(10) 0.5261(10)
O3BA O 0.9170(10) -0.2713(11) 0.5261(10)
O3QA O 0.7287(11) 0.0830(10) 0.4739(10)
O3CA O 0.9170(10) 0.2713(11) 0.4739(10)
O3K O 0.9739(10) -0.4170(10) 0.2287(11)
O3M O 0.9739(10) -0.2287(11) 0.4170(10)
O3R O 0.7713(11) -0.4170(10) 0.0261(10)
O3F O 0.5830(10) -0.2287(11) 0.0261(10)
O3I O 0.9739(10) 0.4170(10) 0.7713(11)
O3O O 0.9739(10) 0.2287(11) 0.5830(10)
O3Q O 0.7713(11) 0.4170(10) 0.9739(10)
O3G O 0.5830(10) 0.2287(11) 0.9739(10)
O4L O 0.1061(7) 0.1669(5) 0.0264(5)
O4G O -0.0264(5) 0.1669(5) -0.1061(7)
O4V O -0.0264(5) 0.1061(7) -0.1669(5)
O4J O 0.1061(7) -0.0264(5) -0.1669(5)
O4S O 0.1669(5) -0.0264(5) -0.1061(7)
O4P O 0.1669(5) 0.0264(5) 0.1061(7)
O4H O 0.1061(7) 0.0264(5) 0.1669(5)
O4W O -0.0264(5) -0.1061(7) 0.1669(5)
O4F O -0.0264(5) -0.1669(5) 0.1061(7)
O4N O 0.1061(7) -0.1669(5) -0.0264(5)
O4C O 0.1669(5) -0.1061(7) -0.0264(5)
O4T O 0.0264(5) 0.1061(7) 0.1669(5)
O4D O 0.0264(5) 0.1669(5) 0.1061(7)
O4O O -0.1061(7) 0.1669(5) -0.0264(5)
O4B O -0.1669(5) 0.1061(7) -0.0264(5)
O4R O -0.1669(5) -0.0264(5) 0.1061(7)
O4K O -0.1061(7) -0.0264(5) 0.1669(5)
O4C_2 O 0.1669(5) -0.1061(7) 0.9736(5)
O4N_2 O 0.1061(7) -0.1669(5) 0.9736(5)
O4F_2 O -0.0264(5) -0.1669(5) 1.1061(7)
O4W_2 O -0.0264(5) -0.1061(7) 1.1669(5)
O4H_2 O 0.1061(7) 0.0264(5) 1.1669(5)
O4P_2 O 0.1669(5) 0.0264(5) 1.1061(7)
O4S_2 O 0.1669(5) -0.0264(5) 0.8939(7)
O4J_2 O 0.1061(7) -0.0264(5) 0.8331(5)
O4V_2 O -0.0264(5) 0.1061(7) 0.8331(5)
O4G_2 O -0.0264(5) 0.1669(5) 0.8939(7)
O4L_2 O 0.1061(7) 0.1669(5) 1.0264(5)
O4_2 O 0.1669(5) 0.1061(7) 1.0264(5)
O4U O 0.0264(5) -0.1061(7) 0.8331(5)
O4E O 0.0264(5) -0.1669(5) 0.8939(7)
O4M O -0.1061(7) -0.1669(5) 1.0264(5)
O4A O -0.1669(5) -0.1061(7) 1.0264(5)
O4Q O -0.1669(5) 0.0264(5) 0.8939(7)
O4I O -0.1061(7) 0.0264(5) 0.8331(5)
O4W_3 O 0.9736(5) -0.1061(7) 0.1669(5)
O4F_3 O 0.9736(5) -0.1669(5) 0.1061(7)
O4N_3 O 1.1061(7) -0.1669(5) -0.0264(5)
O4C_3 O 1.1669(5) -0.1061(7) -0.0264(5)
O4P_3 O 1.1669(5) 0.0264(5) 0.1061(7)
O4H_3 O 1.1061(7) 0.0264(5) 0.1669(5)
O4K_2 O 0.8939(7) -0.0264(5) 0.1669(5)
O4R_2 O 0.8331(5) -0.0264(5) 0.1061(7)
O4B_2 O 0.8331(5) 0.1061(7) -0.0264(5)
O4O_2 O 0.8939(7) 0.1669(5) -0.0264(5)
O4D_2 O 1.0264(5) 0.1669(5) 0.1061(7)
O4T_2 O 1.0264(5) 0.1061(7) 0.1669(5)
O4A_2 O 0.8331(5) -0.1061(7) 0.0264(5)
O4M_2 O 0.8939(7) -0.1669(5) 0.0264(5)
O4E_2 O 1.0264(5) -0.1669(5) -0.1061(7)
O4U_2 O 1.0264(5) -0.1061(7) -0.1669(5)
O4I_2 O 0.8939(7) 0.0264(5) -0.1669(5)
O4Q_2 O 0.8331(5) 0.0264(5) -0.1061(7)
O4V_3 O 0.9736(5) 0.1061(7) 0.8331(5)
O4G_3 O 0.9736(5) 0.1669(5) 0.8939(7)
O4L_3 O 1.1061(7) 0.1669(5) 1.0264(5)
O4_3 O 1.1669(5) 0.1061(7) 1.0264(5)
O4S_3 O 1.1669(5) -0.0264(5) 0.8939(7)
O4J_3 O 1.1061(7) -0.0264(5) 0.8331(5)
O4I_3 O 0.8939(7) 0.0264(5) 0.8331(5)
O4Q_3 O 0.8331(5) 0.0264(5) 0.8939(7)
O4A_3 O 0.8331(5) -0.1061(7) 1.0264(5)
O4M_3 O 0.8939(7) -0.1669(5) 1.0264(5)
O4E_3 O 1.0264(5) -0.1669(5) 0.8939(7)
O4U_3 O 1.0264(5) -0.1061(7) 0.8331(5)
O4B_3 O 0.8331(5) 0.1061(7) 0.9736(5)
O4O_3 O 0.8939(7) 0.1669(5) 0.9736(5)
O4D_3 O 1.0264(5) 0.1669(5) 1.1061(7)
O4T_3 O 1.0264(5) 0.1061(7) 1.1669(5)
O4K_3 O 0.8939(7) -0.0264(5) 1.1669(5)
O4R_3 O 0.8331(5) -0.0264(5) 1.1061(7)
O5C O 0.1370(8) -0.1370(8) 0.8630(8)
O5A O 0.8630(8) -0.1370(8) 0.1370(8)
O5B O 0.8630(8) 0.1370(8) 0.8630(8)
C1G C 0.0419(8) 0.1087(5) -0.1087(5)
C1J C 0.1087(5) 0.0419(8) -0.1087(5)
C1H C 0.1087(5) -0.0419(8) 0.1087(5)
C1F C 0.0419(8) -0.1087(5) 0.1087(5)
C1C C 0.1087(5) -0.1087(5) 0.0419(8)
C1D C -0.0419(8) 0.1087(5) 0.1087(5)
C1B C -0.1087(5) 0.1087(5) 0.0419(8)
C1K C -0.1087(5) 0.0419(8) 0.1087(5)
C1C_2 C 0.1087(5) -0.1087(5) 1.0419(8)
C1F_2 C 0.0419(8) -0.1087(5) 1.1087(5)
C1H_2 C 0.1087(5) -0.0419(8) 1.1087(5)
C1J_2 C 0.1087(5) 0.0419(8) 0.8913(5)
C1G_2 C 0.0419(8) 0.1087(5) 0.8913(5)
C1_2 C 0.1087(5) 0.1087(5) 0.9581(8)
C1E C -0.0419(8) -0.1087(5) 0.8913(5)
C1A C -0.1087(5) -0.1087(5) 0.9581(8)
C1I C -0.1087(5) -0.0419(8) 0.8913(5)
C1F_3 C 1.0419(8) -0.1087(5) 0.1087(5)
C1C_3 C 1.1087(5) -0.1087(5) 0.0419(8)
C1H_3 C 1.1087(5) -0.0419(8) 0.1087(5)
C1K_2 C 0.8913(5) 0.0419(8) 0.1087(5)
C1B_2 C 0.8913(5) 0.1087(5) 0.0419(8)
C1D_2 C 0.9581(8) 0.1087(5) 0.1087(5)
C1A_2 C 0.8913(5) -0.1087(5) -0.0419(8)
C1E_2 C 0.9581(8) -0.1087(5) -0.1087(5)
C1I_2 C 0.8913(5) -0.0419(8) -0.1087(5)
C1G_3 C 1.0419(8) 0.1087(5) 0.8913(5)
C1_3 C 1.1087(5) 0.1087(5) 0.9581(8)
C1J_3 C 1.1087(5) 0.0419(8) 0.8913(5)
C1I_3 C 0.8913(5) -0.0419(8) 0.8913(5)
C1A_3 C 0.8913(5) -0.1087(5) 0.9581(8)
C1E_3 C 0.9581(8) -0.1087(5) 0.8913(5)
C1B_3 C 0.8913(5) 0.1087(5) 1.0419(8)
C1D_3 C 0.9581(8) 0.1087(5) 1.1087(5)
C1K_3 C 0.8913(5) 0.0419(8) 1.1087(5)
C2G C -0.0067(10) 0.1306(5) -0.1306(5)
C2J C 0.1306(5) -0.0067(10) -0.1306(5)
C2H C 0.1306(5) 0.0067(10) 0.1306(5)
C2F C -0.0067(10) -0.1306(5) 0.1306(5)
C2C C 0.1306(5) -0.1306(5) -0.0067(10)
C2D C 0.0067(10) 0.1306(5) 0.1306(5)
C2B C -0.1306(5) 0.1306(5) -0.0067(10)
C2K C -0.1306(5) -0.0067(10) 0.1306(5)
C2C_2 C 0.1306(5) -0.1306(5) 0.9933(10)
C2F_2 C -0.0067(10) -0.1306(5) 1.1306(5)
C2H_2 C 0.1306(5) 0.0067(10) 1.1306(5)
C2J_2 C 0.1306(5) -0.0067(10) 0.8694(5)
C2G_2 C -0.0067(10) 0.1306(5) 0.8694(5)
C2_2 C 0.1306(5) 0.1306(5) 1.0067(10)
C2E C 0.0067(10) -0.1306(5) 0.8694(5)
C2A C -0.1306(5) -0.1306(5) 1.0067(10)
C2I C -0.1306(5) 0.0067(10) 0.8694(5)
C2F_3 C 0.9933(10) -0.1306(5) 0.1306(5)
C2C_3 C 1.1306(5) -0.1306(5) -0.0067(10)
C2H_3 C 1.1306(5) 0.0067(10) 0.1306(5)
C2K_2 C 0.8694(5) -0.0067(10) 0.1306(5)
C2B_2 C 0.8694(5) 0.1306(5) -0.0067(10)
C2D_2 C 1.0067(10) 0.1306(5) 0.1306(5)
C2A_2 C 0.8694(5) -0.1306(5) 0.0067(10)
C2E_2 C 1.0067(10) -0.1306(5) -0.1306(5)
C2I_2 C 0.8694(5) 0.0067(10) -0.1306(5)
C2G_3 C 0.9933(10) 0.1306(5) 0.8694(5)
C2_3 C 1.1306(5) 0.1306(5) 1.0067(10)
C2J_3 C 1.1306(5) -0.0067(10) 0.8694(5)
C2I_3 C 0.8694(5) 0.0067(10) 0.8694(5)
C2A_3 C 0.8694(5) -0.1306(5) 1.0067(10)
C2E_3 C 1.0067(10) -0.1306(5) 0.8694(5)
C2B_3 C 0.8694(5) 0.1306(5) 0.9933(10)
C2D_3 C 1.0067(10) 0.1306(5) 1.1306(5)
C2K_3 C 0.8694(5) -0.0067(10) 1.1306(5)
C3G C 0.0633(7) 0.0633(7) -0.1317(8)
C3J C 0.1317(8) 0.0633(7) -0.0633(7)
C3F C 0.0633(7) -0.0633(7) 0.1317(8)
C3C C 0.0633(7) -0.1317(8) 0.0633(7)
C3H C 0.1317(8) -0.0633(7) 0.0633(7)
C3B C -0.0633(7) 0.1317(8) 0.0633(7)
C3K C -0.1317(8) 0.0633(7) 0.0633(7)
C3D C -0.0633(7) 0.0633(7) 0.1317(8)
C3C_2 C 0.0633(7) -0.1317(8) 1.0633(7)
C3F_2 C 0.0633(7) -0.0633(7) 1.1317(8)
C3H_2 C 0.1317(8) -0.0633(7) 1.0633(7)
C3G_2 C 0.0633(7) 0.0633(7) 0.8683(8)
C3_2 C 0.0633(7) 0.1317(8) 0.9367(7)
C3J_2 C 0.1317(8) 0.0633(7) 0.9367(7)
C3A C -0.0633(7) -0.1317(8) 0.9367(7)
C3I C -0.1317(8) -0.0633(7) 0.9367(7)
C3E C -0.0633(7) -0.0633(7) 0.8683(8)
C3C_3 C 1.0633(7) -0.1317(8) 0.0633(7)
C3H_3 C 1.1317(8) -0.0633(7) 0.0633(7)
C3F_3 C 1.0633(7) -0.0633(7) 0.1317(8)
C3K_2 C 0.8683(8) 0.0633(7) 0.0633(7)
C3B_2 C 0.9367(7) 0.1317(8) 0.0633(7)
C3D_2 C 0.9367(7) 0.0633(7) 0.1317(8)
C3A_2 C 0.9367(7) -0.1317(8) -0.0633(7)
C3E_2 C 0.9367(7) -0.0633(7) -0.1317(8)
C3I_2 C 0.8683(8) -0.0633(7) -0.0633(7)
C3_3 C 1.0633(7) 0.1317(8) 0.9367(7)
C3J_3 C 1.1317(8) 0.0633(7) 0.9367(7)
C3G_3 C 1.0633(7) 0.0633(7) 0.8683(8)
C3I_3 C 0.8683(8) -0.0633(7) 0.9367(7)
C3A_3 C 0.9367(7) -0.1317(8) 0.9367(7)
C3E_3 C 0.9367(7) -0.0633(7) 0.8683(8)
C3B_3 C 0.9367(7) 0.1317(8) 1.0633(7)
C3D_3 C 0.9367(7) 0.0633(7) 1.1317(8)
C3K_3 C 0.8683(8) 0.0633(7) 1.0633(7)
C4DA C 0.2779(7) 0.2779(7) 0.5834(11)
C4C C 0.2221(7) -0.0834(11) 0.7779(7)
C4EA C 0.2779(7) -0.2779(7) 0.4166(11)
C4D C 0.2221(7) 0.2221(7) 0.0834(11)
C4HA C 0.5834(11) 0.2779(7) 0.2779(7)
C4A C 0.7779(7) -0.0834(11) 0.2221(7)
C4GA C 0.4166(11) -0.2779(7) 0.2779(7)
C4FA C 0.5834(11) -0.2779(7) 0.7221(7)
C4B C 0.7779(7) 0.0834(11) 0.7779(7)
C4IA C 0.4166(11) 0.2779(7) 0.7221(7)
C4H C 0.0834(11) 0.2221(7) 0.2221(7)
C4E C 0.2221(7) -0.2221(7) 0.9166(11)
C4J C 0.0834(11) -0.2221(7) 0.7779(7)
C4BA C 0.7221(7) -0.2779(7) 0.5834(11)
C4CA C 0.7221(7) 0.2779(7) 0.4166(11)
C4K C 0.9166(11) -0.2221(7) 0.2221(7)
C4F C 0.7779(7) -0.2221(7) 0.0834(11)
C4I C 0.9166(11) 0.2221(7) 0.7779(7)
C4G C 0.7779(7) 0.2221(7) 0.9166(11)
C5T C 0.3163(8) 0.0575(8) 0.2453(8)
C5PA C 0.2547(8) 0.1837(8) 0.5575(8)
C5DA C 0.1837(8) 0.2547(8) 0.5575(8)
C5C C 0.2453(8) -0.0575(8) 0.6837(8)
C5U C 0.3163(8) -0.0575(8) 0.7547(8)
C5OA C 0.2547(8) -0.1837(8) 0.4425(8)
C5EA C 0.1837(8) -0.2547(8) 0.4425(8)
C5P C 0.2453(8) 0.3163(8) 0.0575(8)
C5D C 0.3163(8) 0.2453(8) 0.0575(8)
C5HA C 0.5575(8) 0.1837(8) 0.2547(8)
C5LA C 0.5575(8) 0.2547(8) 0.1837(8)
C5W C 0.6837(8) -0.0575(8) 0.2453(8)
C5A C 0.7547(8) -0.0575(8) 0.3163(8)
C5GA C 0.4425(8) -0.1837(8) 0.2547(8)
C5MA C 0.4425(8) -0.2547(8) 0.1837(8)
C5FA C 0.5575(8) -0.1837(8) 0.7453(8)
C5JA C 0.5575(8) -0.2547(8) 0.8163(8)
C5V C 0.6837(8) 0.0575(8) 0.7547(8)
C5B C 0.7547(8) 0.0575(8) 0.6837(8)
C5IA C 0.4425(8) 0.1837(8) 0.7453(8)
C5KA C 0.4425(8) 0.2547(8) 0.8163(8)
C5H C 0.0575(8) 0.3163(8) 0.2453(8)
C5L C 0.0575(8) 0.2453(8) 0.3163(8)
C5S C 0.2453(8) -0.3163(8) 0.9425(8)
C5E C 0.3163(8) -0.2453(8) 0.9425(8)
C5J C 0.0575(8) -0.3163(8) 0.7547(8)
C5N C 0.0575(8) -0.2453(8) 0.6837(8)
C5NA C 0.7453(8) -0.1837(8) 0.5575(8)
C5BA C 0.8163(8) -0.2547(8) 0.5575(8)
C5QA C 0.7453(8) 0.1837(8) 0.4425(8)
C5CA C 0.8163(8) 0.2547(8) 0.4425(8)
C5K C 0.9425(8) -0.3163(8) 0.2453(8)
C5M C 0.9425(8) -0.2453(8) 0.3163(8)
C5R C 0.7547(8) -0.3163(8) 0.0575(8)
C5F C 0.6837(8) -0.2453(8) 0.0575(8)
C5I C 0.9425(8) 0.3163(8) 0.7547(8)
C5O C 0.9425(8) 0.2453(8) 0.6837(8)
C5Q C 0.7547(8) 0.3163(8) 0.9425(8)
C5G C 0.6837(8) 0.2453(8) 0.9425(8)
C6T C 0.3489(9) 0.0413(10) 0.2874(14)
C6PA C 0.2126(14) 0.1511(9) 0.5413(10)
C6DA C 0.1511(9) 0.2126(14) 0.5413(10)
C6C C 0.2874(14) -0.0413(10) 0.6511(9)
C6U C 0.3489(9) -0.0413(10) 0.7126(14)
C6OA C 0.2126(14) -0.1511(9) 0.4587(10)
C6EA C 0.1511(9) -0.2126(14) 0.4587(10)
C6P C 0.2874(14) 0.3489(9) 0.0413(10)
C6D C 0.3489(9) 0.2874(14) 0.0413(10)
C6HA C 0.5413(10) 0.1511(9) 0.2126(14)
C6LA C 0.5413(10) 0.2126(14) 0.1511(9)
C6W C 0.6511(9) -0.0413(10) 0.2874(14)
C6A C 0.7126(14) -0.0413(10) 0.3489(9)
C6GA C 0.4587(10) -0.1511(9) 0.2126(14)
C6MA C 0.4587(10) -0.2126(14) 0.1511(9)
C6FA C 0.5413(10) -0.1511(9) 0.7874(14)
C6JA C 0.5413(10) -0.2126(14) 0.8489(9)
C6V C 0.6511(9) 0.0413(10) 0.7126(14)
C6B C 0.7126(14) 0.0413(10) 0.6511(9)
C6IA C 0.4587(10) 0.1511(9) 0.7874(14)
C6KA C 0.4587(10) 0.2126(14) 0.8489(9)
C6H C 0.0413(10) 0.3489(9) 0.2874(14)
C6L C 0.0413(10) 0.2874(14) 0.3489(9)
C6S C 0.2874(14) -0.3489(9) 0.9587(10)
C6E C 0.3489(9) -0.2874(14) 0.9587(10)
C6J C 0.0413(10) -0.3489(9) 0.7126(14)
C6N C 0.0413(10) -0.2874(14) 0.6511(9)
C6NA C 0.7874(14) -0.1511(9) 0.5413(10)
C6BA C 0.8489(9) -0.2126(14) 0.5413(10)
C6QA C 0.7874(14) 0.1511(9) 0.4587(10)
C6CA C 0.8489(9) 0.2126(14) 0.4587(10)
C6K C 0.9587(10) -0.3489(9) 0.2874(14)
C6M C 0.9587(10) -0.2874(14) 0.3489(9)
C6R C 0.7126(14) -0.3489(9) 0.0413(10)
C6F C 0.6511(9) -0.2874(14) 0.0413(10)
C6I C 0.9587(10) 0.3489(9) 0.7126(14)
C6O C 0.9587(10) 0.2874(14) 0.6511(9)
C6Q C 0.7126(14) 0.3489(9) 0.9587(10)
C6G C 0.6511(9) 0.2874(14) 0.9587(10)
C7DA C 0.2373(9) 0.2373(9) 0.5703(14)
C7C C 0.2627(9) -0.0703(14) 0.7373(9)
C7EA C 0.2373(9) -0.2373(9) 0.4297(14)
C7D C 0.2627(9) 0.2627(9) 0.0703(14)
C7HA C 0.5703(14) 0.2373(9) 0.2373(9)
C7A C 0.7373(9) -0.0703(14) 0.2627(9)
C7GA C 0.4297(14) -0.2373(9) 0.2373(9)
C7FA C 0.5703(14) -0.2373(9) 0.7627(9)
C7B C 0.7373(9) 0.0703(14) 0.7373(9)
C7IA C 0.4297(14) 0.2373(9) 0.7627(9)
C7H C 0.0703(14) 0.2627(9) 0.2627(9)
C7E C 0.2627(9) -0.2627(9) 0.9297(14)
C7J C 0.0703(14) -0.2627(9) 0.7373(9)
C7BA C 0.7627(9) -0.2373(9) 0.5703(14)
C7CA C 0.7627(9) 0.2373(9) 0.4297(14)
C7K C 0.9297(14) -0.2627(9) 0.2627(9)
C7F C 0.7373(9) -0.2627(9) 0.0703(14)
C7I C 0.9297(14) 0.2627(9) 0.7373(9)
C7G C 0.7373(9) 0.2627(9) 0.9297(14)
C8DA C 0.1694(11) 0.1694(11) 0.5392(15)
C8C C 0.3306(11) -0.0392(15) 0.6694(11)
C8EA C 0.1694(11) -0.1694(11) 0.4608(15)
C8D C 0.3306(11) 0.3306(11) 0.0392(15)
C8HA C 0.5392(15) 0.1694(11) 0.1694(11)
C8A C 0.6694(11) -0.0392(15) 0.3306(11)
C8GA C 0.4608(15) -0.1694(11) 0.1694(11)
C8FA C 0.5392(15) -0.1694(11) 0.8306(11)
C8B C 0.6694(11) 0.0392(15) 0.6694(11)
C8IA C 0.4608(15) 0.1694(11) 0.8306(11)
C8H C 0.0392(15) 0.3306(11) 0.3306(11)
C8E C 0.3306(11) -0.3306(11) 0.9608(15)
C8J C 0.0392(15) -0.3306(11) 0.6694(11)
C8BA C 0.8306(11) -0.1694(11) 0.5392(15)
C8CA C 0.8306(11) 0.1694(11) 0.4608(15)
C8K C 0.9608(15) -0.3306(11) 0.3306(11)
C8F C 0.6694(11) -0.3306(11) 0.0392(15)
C8I C 0.9608(15) 0.3306(11) 0.6694(11)
C8G C 0.6694(11) 0.3306(11) 0.9608(15)
C9T C 0.4017(12) 0.0317(13) 0.2706(14)
C9PA C 0.2294(14) 0.0983(12) 0.5317(13)
C9DA C 0.0983(12) 0.2294(14) 0.5317(13)
C9C C 0.2706(14) -0.0317(13) 0.5983(12)
C9U C 0.4017(12) -0.0317(13) 0.7294(14)
C9OA C 0.2294(14) -0.0983(12) 0.4683(13)
C9EA C 0.0983(12) -0.2294(14) 0.4683(13)
C9P C 0.2706(14) 0.4017(12) 0.0317(13)
C9D C 0.4017(12) 0.2706(14) 0.0317(13)
C9HA C 0.5317(13) 0.0983(12) 0.2294(14)
C9LA C 0.5317(13) 0.2294(14) 0.0983(12)
C9W C 0.5983(12) -0.0317(13) 0.2706(14)
C9A C 0.7294(14) -0.0317(13) 0.4017(12)
C9GA C 0.4683(13) -0.0983(12) 0.2294(14)
C9MA C 0.4683(13) -0.2294(14) 0.0983(12)
C9FA C 0.5317(13) -0.0983(12) 0.7706(14)
C9JA C 0.5317(13) -0.2294(14) 0.9017(12)
C9V C 0.5983(12) 0.0317(13) 0.7294(14)
C9B C 0.7294(14) 0.0317(13) 0.5983(12)
C9IA C 0.4683(13) 0.0983(12) 0.7706(14)
C9KA C 0.4683(13) 0.2294(14) 0.9017(12)
C9H C 0.0317(13) 0.4017(12) 0.2706(14)
C9L C 0.0317(13) 0.2706(14) 0.4017(12)
C9S C 0.2706(14) -0.4017(12) 0.9683(13)
C9E C 0.4017(12) -0.2706(14) 0.9683(13)
C9J C 0.0317(13) -0.4017(12) 0.7294(14)
C9N C 0.0317(13) -0.2706(14) 0.5983(12)
C9NA C 0.7706(14) -0.0983(12) 0.5317(13)
C9BA C 0.9017(12) -0.2294(14) 0.5317(13)
C9QA C 0.7706(14) 0.0983(12) 0.4683(13)
C9CA C 0.9017(12) 0.2294(14) 0.4683(13)
C9K C 0.9683(13) -0.4017(12) 0.2706(14)
C9M C 0.9683(13) -0.2706(14) 0.4017(12)
C9R C 0.7294(14) -0.4017(12) 0.0317(13)
C9F C 0.5983(12) -0.2706(14) 0.0317(13)
C9I C 0.9683(13) 0.4017(12) 0.7294(14)
C9O C 0.9683(13) 0.2706(14) 0.5983(12)
C9Q C 0.7294(14) 0.4017(12) 0.9683(13)
C9G C 0.5983(12) 0.2706(14) 0.9683(13)
O6T O 0.4374(9) 0.0196(7) 0.3015(11)
O6PA O 0.1985(11) 0.0626(9) 0.5196(7)
O6DA O 0.0626(9) 0.1985(11) 0.5196(7)
O6C O 0.3015(11) -0.0196(7) 0.5626(9)
O6U O 0.4374(9) -0.0196(7) 0.6985(11)
O6OA O 0.1985(11) -0.0626(9) 0.4804(7)
O6EA O 0.0626(9) -0.1985(11) 0.4804(7)
O6P O 0.3015(11) 0.4374(9) 0.0196(7)
O6D O 0.4374(9) 0.3015(11) 0.0196(7)
O6HA O 0.5196(7) 0.0626(9) 0.1985(11)
O6LA O 0.5196(7) 0.1985(11) 0.0626(9)
O6W O 0.5626(9) -0.0196(7) 0.3015(11)
O6A O 0.6985(11) -0.0196(7) 0.4374(9)
O6GA O 0.4804(7) -0.0626(9) 0.1985(11)
O6MA O 0.4804(7) -0.1985(11) 0.0626(9)
O6FA O 0.5196(7) -0.0626(9) 0.8015(11)
O6JA O 0.5196(7) -0.1985(11) 0.9374(9)
O6V O 0.5626(9) 0.0196(7) 0.6985(11)
O6B O 0.6985(11) 0.0196(7) 0.5626(9)
O6IA O 0.4804(7) 0.0626(9) 0.8015(11)
O6KA O 0.4804(7) 0.1985(11) 0.9374(9)
O6H O 0.0196(7) 0.4374(9) 0.3015(11)
O6L O 0.0196(7) 0.3015(11) 0.4374(9)
O6S O 0.3015(11) -0.4374(9) 0.9804(7)
O6E O 0.4374(9) -0.3015(11) 0.9804(7)
O6J O 0.0196(7) -0.4374(9) 0.6985(11)
O6N O 0.0196(7) -0.3015(11) 0.5626(9)
O6NA O 0.8015(11) -0.0626(9) 0.5196(7)
O6BA O 0.9374(9) -0.1985(11) 0.5196(7)
O6QA O 0.8015(11) 0.0626(9) 0.4804(7)
O6CA O 0.9374(9) 0.1985(11) 0.4804(7)
O6K O 0.9804(7) -0.4374(9) 0.3015(11)
O6M O 0.9804(7) -0.3015(11) 0.4374(9)
O6R O 0.6985(11) -0.4374(9) 0.0196(7)
O6F O 0.5626(9) -0.3015(11) 0.0196(7)
O6I O 0.9804(7) 0.4374(9) 0.6985(11)
O6O O 0.9804(7) 0.3015(11) 0.5626(9)
O6Q O 0.6985(11) 0.4374(9) 0.9804(7)
O6G O 0.5626(9) 0.3015(11) 0.9804(7)
In3T In 0.5000 0.0000 0.2595(9)
In3OA In 0.2405(9) 0.0000 0.5000
In3CA In 0.0000 0.2405(9) 0.5000
In3U In 0.5000 0.0000 0.7405(9)
In3BA In 0.0000 -0.2405(9) 0.5000
In3GA In 0.5000 0.0000 0.2405(9)
In3L In 0.0000 0.2595(9) 0.5000
In3FA In 0.5000 0.0000 0.7595(9)
In3M In 0.0000 -0.2595(9) 0.5000
In3P In 0.2595(9) 0.5000 0.0000
In3D In 0.5000 0.2595(9) 0.0000
In3KA In 0.5000 0.2405(9) 0.0000
In3A In 0.7405(9) 0.0000 0.5000
In3JA In 0.5000 -0.2405(9) 0.0000
In3JA_2 In 0.5000 -0.2405(9) 1.0000
In3KA_2 In 0.5000 0.2405(9) 1.0000
In3H In 0.0000 0.5000 0.2595(9)
In3P_2 In 0.2595(9) -0.5000 1.0000
In3E In 0.5000 -0.2595(9) 1.0000
In3I In 0.0000 -0.5000 0.7405(9)
In3Y In 0.2405(9) 0.5000 0.0000
In3NA In 0.7595(9) 0.0000 0.5000
In3E_2 In 0.5000 -0.2595(9) 0.0000
In3D_2 In 0.5000 0.2595(9) 1.0000
In3SA In 0.0000 0.5000 0.2405(9)
In3Y_2 In 0.2405(9) -0.5000 1.0000
In3RA In 0.0000 -0.5000 0.7595(9)
In3BA_2 In 1.0000 -0.2405(9) 0.5000
In3CA_2 In 1.0000 0.2405(9) 0.5000
In3H_2 In 1.0000 -0.5000 0.2595(9)
In3M_2 In 1.0000 -0.2595(9) 0.5000
In3Q In 0.7405(9) -0.5000 0.0000
In3I_2 In 1.0000 0.5000 0.7405(9)
In3L_2 In 1.0000 0.2595(9) 0.5000
In3Q_2 In 0.7405(9) 0.5000 1.0000
In3SA_2 In 1.0000 -0.5000 0.2405(9)
In3X In 0.7595(9) -0.5000 0.0000
In3RA_2 In 1.0000 0.5000 0.7595(9)
In3X_2 In 0.7595(9) 0.5000 1.0000
In2? In 0.2110(3) 0.0000 0.5000
loop_
_geom_bond_atom_site_label_1
_geom_bond_atom_site_label_2
_geom_bond_site_symmetry_1
_geom_bond_site_symmetry_2
In1 O1 1_555 1_555
O1 C4 1_555 1_555
O2 In1 1_555 1_555
O3 C9 1_555 1_555
O4 In1 1_555 1_555
O5 In1 1_555 1_555
C1 C2 1_555 1_555
C2 O4 1_555 1_555
C3 C1 1_555 1_555
C4 C7 1_555 1_555
C5 C6 1_555 1_555
C6 C8 1_555 1_555
C7 C5 1_555 1_555
C8 C6T 1_555 1_555
C9 C6 1_555 1_555
O6 C9 1_555 1_555
N1 C10 1_555 1_555
In3 O3 1_555 1_555
In1T O5 1_555 1_555
In1PA In1Y 1_555 1_555
In1DA In1KA 1_555 1_555
In1C In1S 1_555 1_555
In1U In1J 1_555 1_555
In1OA In1Z 1_555 1_555
In1EA In1MA 1_555 1_555
In1P In1 1_555 1_555
In1H O5 1_555 1_555
In1Y O1PA 1_555 1_555
In1KA O1DA 1_555 1_555
In1S O1C 1_555 1_555
In1J O1U 1_555 1_555
In1Z O1OA 1_555 1_555
In1MA O1EA 1_555 1_555
In1D O5 1_555 1_555
In1HA O1HA 1_555 1_555
In1LA O1LA 1_555 1_555
In1W O1W 1_555 1_555
In1A O1A 1_555 1_555
In1GA O1GA 1_555 1_555
In1FA O1FA 1_555 1_555
In1JA O1JA 1_555 1_555
In1V O1V 1_555 1_555
In1B O1B 1_555 1_555
In1IA O1IA 1_555 1_555
In1L O5 1_555 1_555
In1E In1N 1_555 1_555
In1N O1E 1_555 1_555
In1G In1O 1_555 1_555
In1V_2 O4V 1_555 1_555
In1J_2 O4J 1_555 1_555
In1S_2 In1C_2 1_555 1_555
In1W_2 In1K 1_555 1_555
In1F O4F 1_555 1_555
In1N_2 O4N 1_555 1_555
In1C_2 O4S 1_555 1_555
In1O O4G 1_555 1_555
In1B_2 O4B 1_555 1_555
In1R O4R 1_555 1_555
In1K O4W 1_555 1_555
In1F_2 O4F_2 1_555 1_555
In1W_3 O4W_2 1_555 1_555
In1H_2 O4H_2 1_555 1_555
In1P_2 O4P_2 1_555 1_555
In1V_3 O4V_2 1_555 1_555
In1G_2 O4G_2 1_555 1_555
O1T C4 1_555 1_555
O1PA In1PA 1_555 1_555
O1DA In1DA 1_555 1_555
O1C In1C 1_555 1_555
O1U In1U 1_555 1_555
O1OA In1OA 1_555 1_555
O1EA In1EA 1_555 1_555
O1P In1 1_555 1_555
O1D In1D 1_555 1_555
O1HA C4HA 1_555 1_555
O1LA C4HA 1_555 1_555
O1W C4A 1_555 1_555
O1A C4A 1_555 1_555
O1GA C4GA 1_555 1_555
O1MA In1EA 1_555 1_555
O1FA C4FA 1_555 1_555
O1JA C4FA 1_555 1_555
O1V C4B 1_555 1_555
O1B C4B 1_555 1_555
O1IA C4IA 1_555 1_555
O1KA In1DA 1_555 1_555
O1H In1T 1_555 1_555
O1L In1D 1_555 1_555
O1S In1C 1_555 1_555
O1E In1E 1_555 1_555
O1J In1U 1_555 1_555
O1N In1E 1_555 1_555
O1NA C4BA 1_555 1_555
O1BA In1JA 1_555 1_555
O1QA C4CA 1_555 1_555
O1CA In1LA 1_555 1_555
O1K In1W 1_555 1_555
O1M C4K 1_555 1_555
O1R In1A 1_555 1_555
O1F C4F 1_555 1_555
O1I In1V 1_555 1_555
O1O C4I 1_555 1_555
O1Q In1B 1_555 1_555
O1G C4G 1_555 1_555
O2H In1T 1_555 1_555
O2C In1C 1_555 1_555
O2J In1U 1_555 1_555
O2K In1W 1_555 1_555
O2A In1A 1_555 1_555
O2I In1V 1_555 1_555
O2B In1B 1_555 1_555
O3T C9T 1_555 1_555
O3PA In3 1_555 1_555
O3DA C9DA 1_555 1_555
O3C In3 1_555 1_555
O3U C9U 1_555 1_555
O3OA In3 1_555 1_555
O3EA C9EA 1_555 1_555
O3P C9P 1_555 1_555
O3D C9D 1_555 1_555
O3HA C9HA 1_555 1_555
O3LA C9LA 1_555 1_555
O3W C9W 1_555 1_555
O3A C9A 1_555 1_555
O3GA C9GA 1_555 1_555
O3MA C9MA 1_555 1_555
O3FA C9FA 1_555 1_555
O3JA C9JA 1_555 1_555
O3V C9V 1_555 1_555
O3B C9B 1_555 1_555
O3IA C9IA 1_555 1_555
O3KA C9KA 1_555 1_555
O3H C9H 1_555 1_555
O3L C9L 1_555 1_555
O3S C9S 1_555 1_555
O3E C9E 1_555 1_555
O3J C9J 1_555 1_555
O3N C9N 1_555 1_555
O3NA C9NA 1_555 1_555
O3BA C9BA 1_555 1_555
O3QA C9QA 1_555 1_555
O3CA C9CA 1_555 1_555
O3K C9K 1_555 1_555
O3M C9M 1_555 1_555
O3R C9R 1_555 1_555
O3F C9F 1_555 1_555
O3I C9I 1_555 1_555
O3O C9O 1_555 1_555
O3Q C9Q 1_555 1_555
O3G C9G 1_555 1_555
O4L C2 1_555 1_555
O4G In1G 1_555 1_555
O4V C2G 1_555 1_555
O4J C2J 1_555 1_555
O4S In1S_2 1_555 1_555
O4P In1 1_555 1_555
O4H In1T 1_555 1_555
O4W In1W_2 1_555 1_555
O4F C2F 1_555 1_555
O4N C2C 1_555 1_555
O4C In1S_2 1_555 1_555
O4T In1T 1_555 1_555
O4D In1D 1_555 1_555
O4O In1G 1_555 1_555
O4B C2B 1_555 1_555
O4R C2K 1_555 1_555
O4K In1W_2 1_555 1_555
O4C_2 In1C 1_555 1_555
O4N_2 In1E 1_555 1_555
O4F_2 C2F_2 1_555 1_555
O4W_2 C2F_2 1_555 1_555
O4H_2 C2H_2 1_555 1_555
O4P_2 C2H_2 1_555 1_555
O4S_2 In1C 1_555 1_555
O4J_2 In1U 1_555 1_555
O4V_2 C2G_2 1_555 1_555
O4G_2 C2G_2 1_555 1_555
O4L_2 C2_2 1_555 1_555
O4_2 In1P_2 1_555 1_555
O4U In1U 1_555 1_555
O4E In1E 1_555 1_555
O4M In1F_2 1_555 1_555
O4A C2A 1_555 1_555
O4Q C2I 1_555 1_555
O4I In1V_3 1_555 1_555
O4W_3 In1W 1_555 1_555
O4F_3 C2F_3 1_555 1_555
O4N_3 C2C_3 1_555 1_555
O4C_3 C2C_3 1_555 1_555
O4P_3 C2H_3 1_555 1_555
O4H_3 C2H_3 1_555 1_555
O4K_2 In1W 1_555 1_555
O4R_2 In1A 1_555 1_555
O4B_2 C2B_2 1_555 1_555
O4O_2 C2B_2 1_555 1_555
O4D_2 C2D_2 1_555 1_555
O4T_2 C2D_2 1_555 1_555
O4A_2 In1A 1_555 1_555
O4M_2 C2A_2 1_555 1_555
O4E_2 C2E_2 1_555 1_555
O4U_2 C2E_2 1_555 1_555
O4I_2 C2I_2 1_555 1_555
O4Q_2 C2I_2 1_555 1_555
O4V_3 In1V 1_555 1_555
O4G_3 C2G_3 1_555 1_555
O4L_3 C2_3 1_555 1_555
O4_3 C2_3 1_555 1_555
O4S_3 C2J_3 1_555 1_555
O4J_3 C2J_3 1_555 1_555
O4I_3 In1V 1_555 1_555
O4Q_3 In1B 1_555 1_555
O4A_3 C2A_3 1_555 1_555
O4M_3 C2A_3 1_555 1_555
O4E_3 C2E_3 1_555 1_555
O4U_3 C2E_3 1_555 1_555
O4B_3 In1B 1_555 1_555
O4O_3 C2B_3 1_555 1_555
O4D_3 C2D_3 1_555 1_555
O4T_3 C2D_3 1_555 1_555
O4K_3 C2K_3 1_555 1_555
O4R_3 C2K_3 1_555 1_555
O5C In1C 1_555 1_555
O5A In1W 1_555 1_555
O5B In1V 1_555 1_555
C1G C3 1_555 1_555
C1J C2J 1_555 1_555
C1H C2H 1_555 1_555
C1F C2F 1_555 1_555
C1C C2C 1_555 1_555
C1D C2D 1_555 1_555
C1B C2B 1_555 1_555
C1K C2K 1_555 1_555
C1C_2 C2C_2 1_555 1_555
C1F_2 C2F_2 1_555 1_555
C1H_2 C2H_2 1_555 1_555
C1J_2 C2J_2 1_555 1_555
C1G_2 C2G_2 1_555 1_555
C1_2 C2_2 1_555 1_555
C1E C2E 1_555 1_555
C1A C2A 1_555 1_555
C1I C2I 1_555 1_555
C1F_3 C2F_3 1_555 1_555
C1C_3 C2C_3 1_555 1_555
C1H_3 C2H_3 1_555 1_555
C1K_2 C2K_2 1_555 1_555
C1B_2 C2B_2 1_555 1_555
C1D_2 C2D_2 1_555 1_555
C1A_2 C2A_2 1_555 1_555
C1E_2 C2E_2 1_555 1_555
C1I_2 C2I_2 1_555 1_555
C1G_3 C2G_3 1_555 1_555
C1_3 C2_3 1_555 1_555
C1J_3 C2J_3 1_555 1_555
C1I_3 C2I_3 1_555 1_555
C1A_3 C2A_3 1_555 1_555
C1E_3 C2E_3 1_555 1_555
C1B_3 C2B_3 1_555 1_555
C1D_3 C2D_3 1_555 1_555
C1K_3 C2K_3 1_555 1_555
C2G O4G 1_555 1_555
C2J O4S 1_555 1_555
C2H O4P 1_555 1_555
C2F O4W 1_555 1_555
C2C O4C 1_555 1_555
C2D O4T 1_555 1_555
C2B O4O 1_555 1_555
C2K O4K 1_555 1_555
C2C_2 O4C_2 1_555 1_555
C2J_2 O4S_2 1_555 1_555
C2_2 O4_2 1_555 1_555
C2E O4U 1_555 1_555
C2A O4M 1_555 1_555
C2I O4I 1_555 1_555
C2F_3 O4W_3 1_555 1_555
C2K_2 O4K_2 1_555 1_555
C2A_2 O4A_2 1_555 1_555
C2G_3 O4V_3 1_555 1_555
C2I_3 O4I_3 1_555 1_555
C2B_3 O4B_3 1_555 1_555
C3G C1G 1_555 1_555
C3J C1 1_555 1_555
C3F C1H 1_555 1_555
C3C C1F 1_555 1_555
C3H C1H 1_555 1_555
C3B C1D 1_555 1_555
C3K C1B 1_555 1_555
C3D C1D 1_555 1_555
C3C_2 C1C_2 1_555 1_555
C3F_2 C1F_2 1_555 1_555
C3H_2 C1C_2 1_555 1_555
C3G_2 C1J_2 1_555 1_555
C3_2 C1G_2 1_555 1_555
C3J_2 C1J_2 1_555 1_555
C3A C1E 1_555 1_555
C3I C1A 1_555 1_555
C3E C1E 1_555 1_555
C3C_3 C1F_3 1_555 1_555
C3H_3 C1C_3 1_555 1_555
C3F_3 C1F_3 1_555 1_555
C3K_2 C1K_2 1_555 1_555
C3B_2 C1B_2 1_555 1_555
C3D_2 C1K_2 1_555 1_555
C3A_2 C1A_2 1_555 1_555
C3E_2 C1E_2 1_555 1_555
C3I_2 C1A_2 1_555 1_555
C3_3 C1G_3 1_555 1_555
C3J_3 C1_3 1_555 1_555
C3G_3 C1G_3 1_555 1_555
C3I_3 C1I_3 1_555 1_555
C3A_3 C1A_3 1_555 1_555
C3E_3 C1I_3 1_555 1_555
C3B_3 C1B_3 1_555 1_555
C3D_3 C1D_3 1_555 1_555
C3K_3 C1B_3 1_555 1_555
C4DA O1PA 1_555 1_555
C4C O1C 1_555 1_555
C4EA O1OA 1_555 1_555
C4D O1P 1_555 1_555
C4HA C7HA 1_555 1_555
C4A C7A 1_555 1_555
C4GA O1MA 1_555 1_555
C4FA C7FA 1_555 1_555
C4B C7B 1_555 1_555
C4IA O1KA 1_555 1_555
C4H O1H 1_555 1_555
C4E O1S 1_555 1_555
C4J O1J 1_555 1_555
C4BA O1BA 1_555 1_555
C4CA O1CA 1_555 1_555
C4K O1K 1_555 1_555
C4F O1R 1_555 1_555
C4I O1I 1_555 1_555
C4G O1Q 1_555 1_555
C5T C7 1_555 1_555
C5PA C6PA 1_555 1_555
C5DA C6DA 1_555 1_555
C5C C6C 1_555 1_555
C5U C6U 1_555 1_555
C5OA C6OA 1_555 1_555
C5EA C6EA 1_555 1_555
C5P C6P 1_555 1_555
C5D C6D 1_555 1_555
C5HA C6HA 1_555 1_555
C5LA C6LA 1_555 1_555
C5W C6W 1_555 1_555
C5A C6A 1_555 1_555
C5GA C6GA 1_555 1_555
C5MA C6MA 1_555 1_555
C5FA C6FA 1_555 1_555
C5JA C6JA 1_555 1_555
C5V C6V 1_555 1_555
C5B C6B 1_555 1_555
C5IA C6IA 1_555 1_555
C5KA C6KA 1_555 1_555
C5H C6H 1_555 1_555
C5L C6L 1_555 1_555
C5S C6S 1_555 1_555
C5E C6E 1_555 1_555
C5J C6J 1_555 1_555
C5N C6N 1_555 1_555
C5NA C6NA 1_555 1_555
C5BA C6BA 1_555 1_555
C5QA C6QA 1_555 1_555
C5CA C6CA 1_555 1_555
C5K C6K 1_555 1_555
C5M C6M 1_555 1_555
C5R C6R 1_555 1_555
C5F C6F 1_555 1_555
C5I C6I 1_555 1_555
C5O C6O 1_555 1_555
C5Q C6Q 1_555 1_555
C5G C6G 1_555 1_555
C6T C5T 1_555 1_555
C6PA C8DA 1_555 1_555
C6DA C8DA 1_555 1_555
C6C C8C 1_555 1_555
C6U C8C 1_555 1_555
C6OA C8EA 1_555 1_555
C6EA C8EA 1_555 1_555
C6P C8D 1_555 1_555
C6D C8D 1_555 1_555
C6HA C8HA 1_555 1_555
C6LA C8HA 1_555 1_555
C6W C8A 1_555 1_555
C6A C8A 1_555 1_555
C6GA C8GA 1_555 1_555
C6MA C8GA 1_555 1_555
C6FA C8FA 1_555 1_555
C6JA C8FA 1_555 1_555
C6V C8B 1_555 1_555
C6B C8B 1_555 1_555
C6IA C8IA 1_555 1_555
C6KA C8IA 1_555 1_555
C6H C8H 1_555 1_555
C6L C8H 1_555 1_555
C6S C8E 1_555 1_555
C6E C8E 1_555 1_555
C6J C8J 1_555 1_555
C6N C8J 1_555 1_555
C6NA C8BA 1_555 1_555
C6BA C8BA 1_555 1_555
C6QA C8CA 1_555 1_555
C6CA C8CA 1_555 1_555
C6K C8K 1_555 1_555
C6M C8K 1_555 1_555
C6R C8F 1_555 1_555
C6F C8F 1_555 1_555
C6I C8I 1_555 1_555
C6O C8I 1_555 1_555
C6Q C8G 1_555 1_555
C6G C8G 1_555 1_555
C7DA C4DA 1_555 1_555
C7C C4C 1_555 1_555
C7EA C4EA 1_555 1_555
C7D C4D 1_555 1_555
C7HA C5HA 1_555 1_555
C7A C5W 1_555 1_555
C7GA C4GA 1_555 1_555
C7FA C5FA 1_555 1_555
C7B C5V 1_555 1_555
C7IA C4IA 1_555 1_555
C7H C4H 1_555 1_555
C7E C4E 1_555 1_555
C7J C4J 1_555 1_555
C7BA C4BA 1_555 1_555
C7CA C4CA 1_555 1_555
C7K C4K 1_555 1_555
C7F C4F 1_555 1_555
C7I C4I 1_555 1_555
C7G C4G 1_555 1_555
C9T C6T 1_555 1_555
C9PA O3PA 1_555 1_555
C9DA C6DA 1_555 1_555
C9C O3C 1_555 1_555
C9U C6U 1_555 1_555
C9OA O3OA 1_555 1_555
C9EA C6EA 1_555 1_555
C9P C6P 1_555 1_555
C9D C6D 1_555 1_555
C9HA C6HA 1_555 1_555
C9LA C6LA 1_555 1_555
C9W C6W 1_555 1_555
C9A C6A 1_555 1_555
C9GA C6GA 1_555 1_555
C9MA C6MA 1_555 1_555
C9FA C6FA 1_555 1_555
C9JA C6JA 1_555 1_555
C9V C6V 1_555 1_555
C9B C6B 1_555 1_555
C9IA C6IA 1_555 1_555
C9KA C6KA 1_555 1_555
C9H C6H 1_555 1_555
C9L C6L 1_555 1_555
C9S C6S 1_555 1_555
C9E C6E 1_555 1_555
C9J C6J 1_555 1_555
C9N C6N 1_555 1_555
C9NA C6NA 1_555 1_555
C9BA C6BA 1_555 1_555
C9QA C6QA 1_555 1_555
C9CA C6CA 1_555 1_555
C9K C6K 1_555 1_555
C9M C6M 1_555 1_555
C9R C6R 1_555 1_555
C9F C6F 1_555 1_555
C9I C6I 1_555 1_555
C9O C6O 1_555 1_555
C9Q C6Q 1_555 1_555
C9G C6G 1_555 1_555
O6T C9T 1_555 1_555
O6PA In3 1_555 1_555
O6DA C9DA 1_555 1_555
O6C In3 1_555 1_555
O6U C9U 1_555 1_555
O6OA In3 1_555 1_555
O6EA C9EA 1_555 1_555
O6P C9P 1_555 1_555
O6D C9D 1_555 1_555
O6HA C9HA 1_555 1_555
O6LA C9LA 1_555 1_555
O6W C9W 1_555 1_555
O6A C9A 1_555 1_555
O6GA C9GA 1_555 1_555
O6MA C9MA 1_555 1_555
O6FA C9FA 1_555 1_555
O6JA C9JA 1_555 1_555
O6V C9V 1_555 1_555
O6B C9B 1_555 1_555
O6IA C9IA 1_555 1_555
O6KA C9KA 1_555 1_555
O6H C9H 1_555 1_555
O6L C9L 1_555 1_555
O6S C9S 1_555 1_555
O6E C9E 1_555 1_555
O6J C9J 1_555 1_555
O6N C9N 1_555 1_555
O6NA C9NA 1_555 1_555
O6BA C9BA 1_555 1_555
O6QA C9QA 1_555 1_555
O6CA C9CA 1_555 1_555
O6K C9K 1_555 1_555
O6M C9M 1_555 1_555
O6R C9R 1_555 1_555
O6F C9F 1_555 1_555
O6I C9I 1_555 1_555
O6O C9O 1_555 1_555
O6Q C9Q 1_555 1_555
O6G C9G 1_555 1_555
In3T O3T 1_555 1_555
In3OA O3 1_555 1_555
In3CA O3DA 1_555 1_555
In3U O3U 1_555 1_555
In3BA O3EA 1_555 1_555
In3GA O3T 1_555 1_555
In3L O3DA 1_555 1_555
In3FA O3U 1_555 1_555
In3M O3EA 1_555 1_555
In3P O3P 1_555 1_555
In3D O3D 1_555 1_555
In3KA O3D 1_555 1_555
In3A O3A 1_555 1_555
In3JA O3MA 1_555 1_555
In3JA_2 O3JA 1_555 1_555
In3KA_2 O3KA 1_555 1_555
In3H O3H 1_555 1_555
In3P_2 O3S 1_555 1_555
In3E O3JA 1_555 1_555
In3I O3J 1_555 1_555
In3Y O3P 1_555 1_555
In3NA O3A 1_555 1_555
In3E_2 O3MA 1_555 1_555
In3D_2 O3KA 1_555 1_555
In3SA O3H 1_555 1_555
In3Y_2 O3S 1_555 1_555
In3RA O3J 1_555 1_555
In3BA_2 O3BA 1_555 1_555
In3CA_2 O3CA 1_555 1_555
In3H_2 O3K 1_555 1_555
In3M_2 O3BA 1_555 1_555
In3Q O3R 1_555 1_555
In3I_2 O3I 1_555 1_555
In3L_2 O3CA 1_555 1_555
In3Q_2 O3Q 1_555 1_555
In3SA_2 O3K 1_555 1_555
In3X O3R 1_555 1_555
In3RA_2 O3I 1_555 1_555
In3X_2 O3Q 1_555 1_555
O1 In1P 1_555 1_555
O2 In1P 1_555 1_555
O4 In1P 1_555 1_555
O5 In1P 1_555 1_555
O6 In3 1_555 1_555
O6 In3OA 1_555 1_555
In3 In3OA 1_555 1_555
In1T In1H 1_555 1_555
In1T O1T 1_555 1_555
In1U O5C 1_555 1_555
In1P O1P 1_555 1_555
In1P O4P 1_555 1_555
In1H O1T 1_555 1_555
In1H O1H 1_555 1_555
In1H O2H 1_555 1_555
In1H O4H 1_555 1_555
In1H O4T 1_555 1_555
In1KA O1KA 1_555 1_555
In1S O1S 1_555 1_555
In1S O2C 1_555 1_555
In1S O4C_2 1_555 1_555
In1S O4S_2 1_555 1_555
In1S O5C 1_555 1_555
In1J O1J 1_555 1_555
In1J O2J 1_555 1_555
In1J O4J_2 1_555 1_555
In1J O4U 1_555 1_555
In1J O5C 1_555 1_555
In1MA O1MA 1_555 1_555
In1D In1L 1_555 1_555
In1D O4L 1_555 1_555
In1A O5A 1_555 1_555
In1B O5B 1_555 1_555
In1L O1D 1_555 1_555
In1L O1L 1_555 1_555
In1L O4L 1_555 1_555
In1L O4D 1_555 1_555
In1E O5C 1_555 1_555
In1N O1N 1_555 1_555
In1N O4N_2 1_555 1_555
In1N O4E 1_555 1_555
In1N O5C 1_555 1_555
In1C_2 O4C 1_555 1_555
In1O O4O 1_555 1_555
In1K O4K 1_555 1_555
O1DA C4DA 1_555 1_555
O1U C4C 1_555 1_555
O1EA C4EA 1_555 1_555
O1D C4D 1_555 1_555
O1L C4H 1_555 1_555
O1E C4E 1_555 1_555
O1N C4J 1_555 1_555
O3PA In3OA 1_555 1_555
O3C In3OA 1_555 1_555
O3OA In3OA 1_555 1_555
O3HA In3T 1_555 1_555
O3HA In3GA 1_555 1_555
O3LA In3D 1_555 1_555
O3LA In3KA 1_555 1_555
O3W In3T 1_555 1_555
O3W In3GA 1_555 1_555
O3GA In3T 1_555 1_555
O3GA In3GA 1_555 1_555
O3FA In3U 1_555 1_555
O3FA In3FA 1_555 1_555
O3V In3U 1_555 1_555
O3V In3FA 1_555 1_555
O3B In3A 1_555 1_555
O3B In3NA 1_555 1_555
O3IA In3U 1_555 1_555
O3IA In3FA 1_555 1_555
O3L In3CA 1_555 1_555
O3L In3L 1_555 1_555
O3E In3JA_2 1_555 1_555
O3E In3E 1_555 1_555
O3N In3BA 1_555 1_555
O3N In3M 1_555 1_555
O3NA In3A 1_555 1_555
O3NA In3NA 1_555 1_555
O3QA In3A 1_555 1_555
O3QA In3NA 1_555 1_555
O3M In3BA_2 1_555 1_555
O3M In3M_2 1_555 1_555
O3F In3JA 1_555 1_555
O3F In3E_2 1_555 1_555
O3O In3CA_2 1_555 1_555
O3O In3L_2 1_555 1_555
O3G In3KA_2 1_555 1_555
O3G In3D_2 1_555 1_555
O4H C2H 1_555 1_555
O4D C2D 1_555 1_555
O4N_2 C2C_2 1_555 1_555
O4J_2 C2J_2 1_555 1_555
O4E C2E 1_555 1_555
O4R_2 C2K_2 1_555 1_555
O4Q_3 C2I_3 1_555 1_555
C1G C2G 1_555 1_555
C1J C3G 1_555 1_555
C1J C3J 1_555 1_555
C1F C3F 1_555 1_555
C1C C3C 1_555 1_555
C1C C3H 1_555 1_555
C1B C3B 1_555 1_555
C1K C3K 1_555 1_555
C1K C3D 1_555 1_555
C1F_2 C3C_2 1_555 1_555
C1H_2 C3F_2 1_555 1_555
C1H_2 C3H_2 1_555 1_555
C1G_2 C3G_2 1_555 1_555
C1_2 C3_2 1_555 1_555
C1_2 C3J_2 1_555 1_555
C1A C3A 1_555 1_555
C1I C3I 1_555 1_555
C1I C3E 1_555 1_555
C1C_3 C3C_3 1_555 1_555
C1H_3 C3H_3 1_555 1_555
C1H_3 C3F_3 1_555 1_555
C1B_2 C3K_2 1_555 1_555
C1D_2 C3B_2 1_555 1_555
C1D_2 C3D_2 1_555 1_555
C1E_2 C3A_2 1_555 1_555
C1I_2 C3E_2 1_555 1_555
C1I_2 C3I_2 1_555 1_555
C1_3 C3_3 1_555 1_555
C1J_3 C3J_3 1_555 1_555
C1J_3 C3G_3 1_555 1_555
C1A_3 C3I_3 1_555 1_555
C1E_3 C3A_3 1_555 1_555
C1E_3 C3E_3 1_555 1_555
C1D_3 C3B_3 1_555 1_555
C1K_3 C3D_3 1_555 1_555
C1K_3 C3K_3 1_555 1_555
C5PA C7DA 1_555 1_555
C5DA C7DA 1_555 1_555
C5C C7C 1_555 1_555
C5U C7C 1_555 1_555
C5OA C7EA 1_555 1_555
C5EA C7EA 1_555 1_555
C5P C7D 1_555 1_555
C5D C7D 1_555 1_555
C5LA C7HA 1_555 1_555
C5A C7A 1_555 1_555
C5GA C7GA 1_555 1_555
C5MA C7GA 1_555 1_555
C5JA C7FA 1_555 1_555
C5B C7B 1_555 1_555
C5IA C7IA 1_555 1_555
C5KA C7IA 1_555 1_555
C5H C7H 1_555 1_555
C5L C7H 1_555 1_555
C5S C7E 1_555 1_555
C5E C7E 1_555 1_555
C5J C7J 1_555 1_555
C5N C7J 1_555 1_555
C5NA C7BA 1_555 1_555
C5BA C7BA 1_555 1_555
C5QA C7CA 1_555 1_555
C5CA C7CA 1_555 1_555
C5K C7K 1_555 1_555
C5M C7K 1_555 1_555
C5R C7F 1_555 1_555
C5F C7F 1_555 1_555
C5I C7I 1_555 1_555
C5O C7I 1_555 1_555
C5Q C7G 1_555 1_555
C5G C7G 1_555 1_555
C6PA C9PA 1_555 1_555
C6C C9C 1_555 1_555
C6OA C9OA 1_555 1_555
C9PA O6PA 1_555 1_555
C9C O6C 1_555 1_555
C9OA O6OA 1_555 1_555
O6T In3T 1_555 1_555
O6T In3GA 1_555 1_555
O6PA In3OA 1_555 1_555
O6DA In3CA 1_555 1_555
O6DA In3L 1_555 1_555
O6C In3OA 1_555 1_555
O6U In3U 1_555 1_555
O6U In3FA 1_555 1_555
O6OA In3OA 1_555 1_555
O6EA In3BA 1_555 1_555
O6EA In3M 1_555 1_555
O6P In3P 1_555 1_555
O6P In3Y 1_555 1_555
O6D In3D 1_555 1_555
O6D In3KA 1_555 1_555
O6HA In3T 1_555 1_555
O6HA In3GA 1_555 1_555
O6LA In3D 1_555 1_555
O6LA In3KA 1_555 1_555
O6W In3T 1_555 1_555
O6W In3GA 1_555 1_555
O6A In3A 1_555 1_555
O6A In3NA 1_555 1_555
O6GA In3T 1_555 1_555
O6GA In3GA 1_555 1_555
O6MA In3JA 1_555 1_555
O6MA In3E_2 1_555 1_555
O6FA In3U 1_555 1_555
O6FA In3FA 1_555 1_555
O6JA In3JA_2 1_555 1_555
O6JA In3E 1_555 1_555
O6V In3U 1_555 1_555
O6V In3FA 1_555 1_555
O6B In3A 1_555 1_555
O6B In3NA 1_555 1_555
O6IA In3U 1_555 1_555
O6IA In3FA 1_555 1_555
O6KA In3KA_2 1_555 1_555
O6KA In3D_2 1_555 1_555
O6H In3H 1_555 1_555
O6H In3SA 1_555 1_555
O6L In3CA 1_555 1_555
O6L In3L 1_555 1_555
O6S In3P_2 1_555 1_555
O6S In3Y_2 1_555 1_555
O6E In3JA_2 1_555 1_555
O6E In3E 1_555 1_555
O6J In3I 1_555 1_555
O6J In3RA 1_555 1_555
O6N In3BA 1_555 1_555
O6N In3M 1_555 1_555
O6NA In3A 1_555 1_555
O6NA In3NA 1_555 1_555
O6BA In3BA_2 1_555 1_555
O6BA In3M_2 1_555 1_555
O6QA In3A 1_555 1_555
O6QA In3NA 1_555 1_555
O6CA In3CA_2 1_555 1_555
O6CA In3L_2 1_555 1_555
O6K In3H_2 1_555 1_555
O6K In3SA_2 1_555 1_555
O6M In3BA_2 1_555 1_555
O6M In3M_2 1_555 1_555
O6R In3Q 1_555 1_555
O6R In3X 1_555 1_555
O6F In3JA 1_555 1_555
O6F In3E_2 1_555 1_555
O6I In3I_2 1_555 1_555
O6I In3RA_2 1_555 1_555
O6O In3CA_2 1_555 1_555
O6O In3L_2 1_555 1_555
O6Q In3Q_2 1_555 1_555
O6Q In3X_2 1_555 1_555
O6G In3KA_2 1_555 1_555
O6G In3D_2 1_555 1_555
In3T In3GA 1_555 1_555
In3CA In3L 1_555 1_555
In3U In3FA 1_555 1_555
In3BA In3M 1_555 1_555
In3P In3Y 1_555 1_555
In3D In3KA 1_555 1_555
In3A In3NA 1_555 1_555
In3JA In3E_2 1_555 1_555
In3JA_2 In3E 1_555 1_555
In3KA_2 In3D_2 1_555 1_555
In3H In3SA 1_555 1_555
In3P_2 In3Y_2 1_555 1_555
In3I In3RA 1_555 1_555
In3BA_2 In3M_2 1_555 1_555
In3CA_2 In3L_2 1_555 1_555
In3H_2 In3SA_2 1_555 1_555
In3Q In3X 1_555 1_555
In3I_2 In3RA_2 1_555 1_555
In3Q_2 In3X_2 1_555 1_555

#END
