
#######################################################################
#
#                 Cambridge Crystallographic Data Centre
#                                CCDC 
#
#######################################################################
#
# If this CIF has been generated from an entry in the Cambridge 
# Structural Database, then it will include bibliographic, chemical, 
# crystal, experimental, refinement or atomic coordinate data resulting 
# from the CCDC's data processing and validation procedures.
#
#######################################################################

data_BAZFUF01
_chemical_formula_moiety         '(C108 H72 Cu6 O30)n'
_chemical_name_systematic        
catena-(tetrakis(\m~6~-benzene-1,3,5-tribenzoato)-hexaaqua-hexa-copper)
_symmetry_cell_setting           cubic
_symmetry_space_group_name_H-M   'P m -3 n'
_symmetry_Int_Tables_number      223
_space_group_name_Hall           '-P 4n 2 3'
loop_
_symmetry_equiv_pos_site_id
_symmetry_equiv_pos_as_xyz
1 x,y,z
2 x,-y,-z
3 -x,-y,z
4 -x,y,-z
5 1/2-y,1/2+x,1/2+z
6 1/2+y,1/2+x,1/2-z
7 1/2+y,1/2-x,1/2+z
8 1/2-y,1/2-x,1/2-z
9 y,z,x
10 -y,-z,x
11 y,-z,-x
12 -y,z,-x
13 1/2-z,1/2+y,1/2+x
14 1/2-z,1/2-y,1/2-x
15 1/2+z,1/2-y,1/2+x
16 1/2+z,1/2+y,1/2-x
17 z,x,y
18 -z,x,-y
19 -z,-x,y
20 z,-x,-y
21 1/2-x,1/2-z,1/2-y
22 1/2-x,1/2+z,1/2+y
23 1/2+x,1/2-z,1/2+y
24 1/2+x,1/2+z,1/2-y
25 -x,-y,-z
26 -x,y,z
27 x,y,-z
28 x,-y,z
29 1/2+y,1/2-x,1/2-z
30 1/2-y,1/2-x,1/2+z
31 1/2-y,1/2+x,1/2-z
32 1/2+y,1/2+x,1/2+z
33 -y,-z,-x
34 y,z,-x
35 -y,z,x
36 y,-z,x
37 1/2+z,1/2-y,1/2-x
38 1/2+z,1/2+y,1/2+x
39 1/2-z,1/2+y,1/2-x
40 1/2-z,1/2-y,1/2+x
41 -z,-x,-y
42 z,-x,y
43 z,x,-y
44 -z,x,y
45 1/2+x,1/2+z,1/2+y
46 1/2+x,1/2-z,1/2-y
47 1/2-x,1/2+z,1/2-y
48 1/2-x,1/2-z,1/2+y
_cell_length_a                   27.418(3)
_cell_length_b                   27.418(3)
_cell_length_c                   27.418(3)
_cell_angle_alpha                90
_cell_angle_beta                 90
_cell_angle_gamma                90
_cell_volume                     20611.4
_exptl_crystal_colour            blue
_exptl_crystal_description       block
_cell_formula_units_Z            2
loop_
_atom_site_label
_atom_site_type_symbol
_atom_site_fract_x
_atom_site_fract_y
_atom_site_fract_z
Cu1 Cu 0.0000 0.79822(4) 0.5000
O1 O -0.04953(13) 0.79068(13) 0.54980(13)
C1 C -0.1220(2) 0.7930(2) 0.6216(2)
H1 H -0.1106 0.8224 0.6090
C2 C -0.1564(2) 0.7938(2) 0.6573(2)
H2 H -0.1674 0.8234 0.6697
O2 O 0.0000 0.8768(3) 0.5000
C3 C -0.1035(2) 0.7500 0.6035(2)
C4 C -0.06525(16) 0.7500 0.56525(16)
C5 C -0.21518(17) 0.7500 0.71518(17)
C6 C -0.1754(2) 0.7500 0.6754(2)
C7 C -0.2500 0.7861(2) 0.7139(2)
H3 H -0.2500 0.8101 0.6899
Cu1M Cu 0.0000 0.70178(4) 0.5000
Cu1P Cu -0.5000 1.0000 0.79822(4)
Cu1T Cu -0.5000 1.0000 0.70178(4)
Cu1H Cu -0.20178(4) 0.5000 1.0000
Cu1D Cu -0.29822(4) 0.5000 1.0000
Cu1Q Cu 0.5000 1.0000 0.20178(4)
Cu1U Cu 0.5000 1.0000 0.29822(4)
Cu1I Cu 0.20178(4) 0.5000 0.0000
Cu1E Cu 0.29822(4) 0.5000 0.0000
Cu1P_2 Cu 0.5000 1.0000 0.79822(4)
Cu1T_2 Cu 0.5000 1.0000 0.70178(4)
Cu1I_2 Cu 0.20178(4) 0.5000 1.0000
Cu1E_2 Cu 0.29822(4) 0.5000 1.0000
Cu1Q_2 Cu -0.5000 1.0000 0.20178(4)
Cu1U_2 Cu -0.5000 1.0000 0.29822(4)
Cu1H_2 Cu -0.20178(4) 0.5000 0.0000
Cu1D_2 Cu -0.29822(4) 0.5000 0.0000
O1M O -0.04980(13) 0.70932(13) 0.54953(13)
O1P O -0.45020(13) 0.95047(13) 0.79068(13)
O1T O -0.45047(13) 0.95020(13) 0.70932(13)
O1H O -0.20932(13) 0.54980(13) 0.95047(13)
O1G O -0.29068(13) 0.54953(13) 0.95020(13)
O1C O 0.04953(13) 0.79068(13) 0.45020(13)
O1N O 0.04980(13) 0.70932(13) 0.45047(13)
O1Q O 0.45020(13) 0.95047(13) 0.20932(13)
O1V O 0.45047(13) 0.95020(13) 0.29068(13)
O1K O 0.20932(13) 0.54980(13) 0.04953(13)
O1F O 0.29068(13) 0.54953(13) 0.04980(13)
O1Y O 0.04953(13) 0.79068(13) 0.54980(13)
O1JA O 0.04980(13) 0.70932(13) 0.54953(13)
O1QA O 0.45020(13) 0.95047(13) 0.79068(13)
O1SA O 0.45047(13) 0.95020(13) 0.70932(13)
O1HA O 0.20932(13) 0.54980(13) 0.95047(13)
O1BA O 0.29068(13) 0.54953(13) 0.95020(13)
O1Z O -0.04953(13) 0.79068(13) 0.45020(13)
O1MA O -0.04980(13) 0.70932(13) 0.45047(13)
O1PA O -0.45020(13) 0.95047(13) 0.20932(13)
O1UA O -0.45047(13) 0.95020(13) 0.29068(13)
O1GA O -0.20932(13) 0.54980(13) 0.04953(13)
O1CA O -0.29068(13) 0.54953(13) 0.04980(13)
O1R O -0.54980(13) 1.04953(13) 0.79068(13)
O1OA O -0.45020(13) 1.04953(13) 0.79068(13)
O1QA_2 O -0.54980(13) 0.95047(13) 0.79068(13)
O1W O -0.54953(13) 1.04980(13) 0.70932(13)
O1SA_2 O -0.54953(13) 0.95020(13) 0.70932(13)
O1TA O -0.45047(13) 1.04980(13) 0.70932(13)
O1J O -0.20932(13) 0.45020(13) 1.04953(13)
O1GA_2 O -0.20932(13) 0.54980(13) 1.04953(13)
O1IA O -0.20932(13) 0.45020(13) 0.95047(13)
O1D O -0.29068(13) 0.45047(13) 1.04980(13)
O1DA O -0.29068(13) 0.45047(13) 0.95020(13)
O1CA_2 O -0.29068(13) 0.54953(13) 1.04980(13)
C1M C -0.1216(2) 0.7070(2) 0.6220(2)
C1P C -0.3784(2) 0.8780(2) 0.7930(2)
C1T C -0.3780(2) 0.8784(2) 0.7070(2)
C1H C -0.2070(2) 0.6216(2) 0.8780(2)
C1G C -0.2930(2) 0.6220(2) 0.8784(2)
C1C C 0.1220(2) 0.7930(2) 0.3784(2)
C1N C 0.1216(2) 0.7070(2) 0.3780(2)
C1Q C 0.3784(2) 0.8780(2) 0.2070(2)
C1V C 0.3780(2) 0.8784(2) 0.2930(2)
C1K C 0.2070(2) 0.6216(2) 0.1220(2)
C1F C 0.2930(2) 0.6220(2) 0.1216(2)
C1Y C 0.1220(2) 0.7930(2) 0.6216(2)
C1JA C 0.1216(2) 0.7070(2) 0.6220(2)
C1QA C 0.3784(2) 0.8780(2) 0.7930(2)
C1SA C 0.3780(2) 0.8784(2) 0.7070(2)
C1HA C 0.2070(2) 0.6216(2) 0.8780(2)
C1BA C 0.2930(2) 0.6220(2) 0.8784(2)
C1Z C -0.1220(2) 0.7930(2) 0.3784(2)
C1MA C -0.1216(2) 0.7070(2) 0.3780(2)
C1PA C -0.3784(2) 0.8780(2) 0.2070(2)
C1UA C -0.3780(2) 0.8784(2) 0.2930(2)
C1GA C -0.2070(2) 0.6216(2) 0.1220(2)
C1CA C -0.2930(2) 0.6220(2) 0.1216(2)
H1M H -0.1090 0.6776 0.6106
H1P H -0.3910 0.8894 0.8224
H1T H -0.3894 0.8910 0.6776
H1H H -0.1776 0.6090 0.8894
H1G H -0.3224 0.6106 0.8910
H1C H 0.1106 0.8224 0.3910
H1N H 0.1090 0.6776 0.3894
H1Q H 0.3910 0.8894 0.1776
H1V H 0.3894 0.8910 0.3224
H1K H 0.1776 0.6090 0.1106
H1F H 0.3224 0.6106 0.1090
H1Y H 0.1106 0.8224 0.6090
H1JA H 0.1090 0.6776 0.6106
H1QA H 0.3910 0.8894 0.8224
H1SA H 0.3894 0.8910 0.6776
H1HA H 0.1776 0.6090 0.8894
H1BA H 0.3224 0.6106 0.8910
H1Z H -0.1106 0.8224 0.3910
H1MA H -0.1090 0.6776 0.3894
H1PA H -0.3910 0.8894 0.1776
H1UA H -0.3894 0.8910 0.3224
H1GA H -0.1776 0.6090 0.1106
H1CA H -0.3224 0.6106 0.1090
C2M C -0.1573(2) 0.7062(2) 0.6564(2)
C2P C -0.3427(2) 0.8436(2) 0.7938(2)
C2T C -0.3436(2) 0.8427(2) 0.7062(2)
C2H C -0.2062(2) 0.6573(2) 0.8436(2)
C2G C -0.2938(2) 0.6564(2) 0.8427(2)
C2C C 0.1564(2) 0.7938(2) 0.3427(2)
C2N C 0.1573(2) 0.7062(2) 0.3436(2)
C2Q C 0.3427(2) 0.8436(2) 0.2062(2)
C2V C 0.3436(2) 0.8427(2) 0.2938(2)
C2K C 0.2062(2) 0.6573(2) 0.1564(2)
C2F C 0.2938(2) 0.6564(2) 0.1573(2)
C2Y C 0.1564(2) 0.7938(2) 0.6573(2)
C2JA C 0.1573(2) 0.7062(2) 0.6564(2)
C2QA C 0.3427(2) 0.8436(2) 0.7938(2)
C2SA C 0.3436(2) 0.8427(2) 0.7062(2)
C2HA C 0.2062(2) 0.6573(2) 0.8436(2)
C2BA C 0.2938(2) 0.6564(2) 0.8427(2)
C2Z C -0.1564(2) 0.7938(2) 0.3427(2)
C2MA C -0.1573(2) 0.7062(2) 0.3436(2)
C2PA C -0.3427(2) 0.8436(2) 0.2062(2)
C2UA C -0.3436(2) 0.8427(2) 0.2938(2)
C2GA C -0.2062(2) 0.6573(2) 0.1564(2)
C2CA C -0.2938(2) 0.6564(2) 0.1573(2)
H2M H -0.1697 0.6766 0.6674
H2T H -0.3326 0.8303 0.6766
H2P H -0.3303 0.8326 0.8234
H2G H -0.3234 0.6674 0.8303
H2H H -0.1766 0.6697 0.8326
H2C H 0.1674 0.8234 0.3303
H2N H 0.1697 0.6766 0.3326
H2V H 0.3326 0.8303 0.3234
H2Q H 0.3303 0.8326 0.1766
H2F H 0.3234 0.6674 0.1697
H2K H 0.1766 0.6697 0.1674
H2Y H 0.1674 0.8234 0.6697
H2JA H 0.1697 0.6766 0.6674
H2SA H 0.3326 0.8303 0.6766
H2QA H 0.3303 0.8326 0.8234
H2BA H 0.3234 0.6674 0.8303
H2HA H 0.1766 0.6697 0.8326
H2Z H -0.1674 0.8234 0.3303
H2MA H -0.1697 0.6766 0.3326
H2UA H -0.3326 0.8303 0.3234
H2PA H -0.3303 0.8326 0.1766
H2CA H -0.3234 0.6674 0.1697
H2GA H -0.1766 0.6697 0.1674
O2M O 0.0000 0.6232(3) 0.5000
O2P O -0.5000 1.0000 0.8768(3)
O2T O -0.5000 1.0000 0.6232(3)
O2H O -0.1232(3) 0.5000 1.0000
O2D O -0.3768(3) 0.5000 1.0000
C3P C -0.3965(2) 0.8965(2) 0.7500
C3G C -0.2500 0.6035(2) 0.8965(2)
C3C C 0.1035(2) 0.7500 0.3965(2)
C3Q C 0.3965(2) 0.8965(2) 0.2500
C3F C 0.2500 0.6035(2) 0.1035(2)
C3Y C 0.1035(2) 0.7500 0.6035(2)
C3QA C 0.3965(2) 0.8965(2) 0.7500
C3BA C 0.2500 0.6035(2) 0.8965(2)
C3Z C -0.1035(2) 0.7500 0.3965(2)
C3PA C -0.3965(2) 0.8965(2) 0.2500
C3CA C -0.2500 0.6035(2) 0.1035(2)
C4P C -0.43475(16) 0.93475(16) 0.7500
C4G C -0.2500 0.56525(16) 0.93475(16)
C4C C 0.06525(16) 0.7500 0.43475(16)
C4Q C 0.43475(16) 0.93475(16) 0.2500
C4F C 0.2500 0.56525(16) 0.06525(16)
C4Y C 0.06525(16) 0.7500 0.56525(16)
C4QA C 0.43475(16) 0.93475(16) 0.7500
C4BA C 0.2500 0.56525(16) 0.93475(16)
C4Z C -0.06525(16) 0.7500 0.43475(16)
C4PA C -0.43475(16) 0.93475(16) 0.2500
C4CA C -0.2500 0.56525(16) 0.06525(16)
C5P C -0.28482(17) 0.78482(17) 0.7500
C5G C -0.2500 0.71518(17) 0.78482(17)
C5C C 0.21518(17) 0.7500 0.28482(17)
C5Q C 0.28482(17) 0.78482(17) 0.2500
C5F C 0.2500 0.71518(17) 0.21518(17)
C5Y C 0.21518(17) 0.7500 0.71518(17)
C5QA C 0.28482(17) 0.78482(17) 0.7500
C5BA C 0.2500 0.71518(17) 0.78482(17)
C5Z C -0.21518(17) 0.7500 0.28482(17)
C5PA C -0.28482(17) 0.78482(17) 0.2500
C5CA C -0.2500 0.71518(17) 0.21518(17)
C6P C -0.3246(2) 0.8246(2) 0.7500
C6G C -0.2500 0.6754(2) 0.8246(2)
C6C C 0.1754(2) 0.7500 0.3246(2)
C6Q C 0.3246(2) 0.8246(2) 0.2500
C6F C 0.2500 0.6754(2) 0.1754(2)
C6Y C 0.1754(2) 0.7500 0.6754(2)
C6QA C 0.3246(2) 0.8246(2) 0.7500
C6BA C 0.2500 0.6754(2) 0.8246(2)
C6Z C -0.1754(2) 0.7500 0.3246(2)
C6PA C -0.3246(2) 0.8246(2) 0.2500
C6CA C -0.2500 0.6754(2) 0.1754(2)
C7G C -0.2861(2) 0.7500 0.7861(2)
C7H C -0.2139(2) 0.7139(2) 0.7500
C7C C 0.2500 0.7861(2) 0.2861(2)
C7F C 0.2861(2) 0.7500 0.2139(2)
C7K C 0.2139(2) 0.7139(2) 0.2500
C7Y C 0.2500 0.7861(2) 0.7139(2)
C7BA C 0.2861(2) 0.7500 0.7861(2)
C7HA C 0.2139(2) 0.7139(2) 0.7500
C7Z C -0.2500 0.7861(2) 0.2861(2)
C7CA C -0.2861(2) 0.7500 0.2139(2)
C7GA C -0.2139(2) 0.7139(2) 0.2500
H3H H -0.1899 0.6899 0.7500
H3G H -0.3101 0.7500 0.8101
H3C H 0.2500 0.8101 0.3101
H3K H 0.1899 0.6899 0.2500
H3F H 0.3101 0.7500 0.1899
H3Y H 0.2500 0.8101 0.6899
H3HA H 0.1899 0.6899 0.7500
H3BA H 0.3101 0.7500 0.8101
H3Z H -0.2500 0.8101 0.3101
H3GA H -0.1899 0.6899 0.2500
H3CA H -0.3101 0.7500 0.1899
loop_
_geom_bond_atom_site_label_1
_geom_bond_atom_site_label_2
_geom_bond_site_symmetry_1
_geom_bond_site_symmetry_2
Cu1 O1 1_555 1_555
O1 C4 1_555 1_555
C1 H1 1_555 1_555
C2 C1 1_555 1_555
H2 C2 1_555 1_555
O2 Cu1 1_555 1_555
C3 C1 1_555 1_555
C4 C3 1_555 1_555
C5 C6 1_555 1_555
C6 C2 1_555 1_555
C7 C5 1_555 1_555
H3 C7 1_555 1_555
Cu1M O1M 1_555 1_555
Cu1P O1P 1_555 1_555
Cu1T O1T 1_555 1_555
Cu1H O1H 1_555 1_555
Cu1D O1G 1_555 1_555
Cu1Q O1Q 1_555 1_555
Cu1U O1V 1_555 1_555
Cu1I O1K 1_555 1_555
Cu1E O1F 1_555 1_555
Cu1P_2 O1QA 1_555 1_555
Cu1T_2 O1SA 1_555 1_555
Cu1I_2 O1HA 1_555 1_555
Cu1E_2 O1BA 1_555 1_555
Cu1Q_2 O1PA 1_555 1_555
Cu1U_2 O1UA 1_555 1_555
Cu1H_2 O1GA 1_555 1_555
Cu1D_2 O1CA 1_555 1_555
O1M C4 1_555 1_555
O1P C4P 1_555 1_555
O1T C4P 1_555 1_555
O1H C4G 1_555 1_555
O1G C4G 1_555 1_555
O1C Cu1 1_555 1_555
O1N Cu1M 1_555 1_555
O1Q C4Q 1_555 1_555
O1V C4Q 1_555 1_555
O1K C4F 1_555 1_555
O1F C4F 1_555 1_555
O1Y Cu1 1_555 1_555
O1JA Cu1M 1_555 1_555
O1QA C4QA 1_555 1_555
O1SA C4QA 1_555 1_555
O1HA C4BA 1_555 1_555
O1BA C4BA 1_555 1_555
O1Z Cu1 1_555 1_555
O1MA Cu1M 1_555 1_555
O1PA C4PA 1_555 1_555
O1UA C4PA 1_555 1_555
O1GA C4CA 1_555 1_555
O1CA C4CA 1_555 1_555
O1R Cu1P 1_555 1_555
O1OA Cu1P 1_555 1_555
O1QA_2 Cu1P 1_555 1_555
O1W Cu1T 1_555 1_555
O1SA_2 Cu1T 1_555 1_555
O1TA Cu1T 1_555 1_555
O1J Cu1H 1_555 1_555
O1GA_2 Cu1H 1_555 1_555
O1IA Cu1H 1_555 1_555
O1D Cu1D 1_555 1_555
O1DA Cu1D 1_555 1_555
O1CA_2 Cu1D 1_555 1_555
C1M C3 1_555 1_555
C1P H1P 1_555 1_555
C1T H1T 1_555 1_555
C1H H1H 1_555 1_555
C1G H1G 1_555 1_555
C1C H1C 1_555 1_555
C1N H1N 1_555 1_555
C1Q H1Q 1_555 1_555
C1V H1V 1_555 1_555
C1K H1K 1_555 1_555
C1F H1F 1_555 1_555
C1Y H1Y 1_555 1_555
C1JA H1JA 1_555 1_555
C1QA H1QA 1_555 1_555
C1SA H1SA 1_555 1_555
C1HA H1HA 1_555 1_555
C1BA H1BA 1_555 1_555
C1Z H1Z 1_555 1_555
C1MA H1MA 1_555 1_555
C1PA H1PA 1_555 1_555
C1UA H1UA 1_555 1_555
C1GA H1GA 1_555 1_555
C1CA H1CA 1_555 1_555
H1M C1M 1_555 1_555
C2M C6 1_555 1_555
C2P C1P 1_555 1_555
C2T C1T 1_555 1_555
C2H C1H 1_555 1_555
C2G C1G 1_555 1_555
C2C C1C 1_555 1_555
C2N C1N 1_555 1_555
C2Q C1Q 1_555 1_555
C2V C1V 1_555 1_555
C2K C1K 1_555 1_555
C2F C1F 1_555 1_555
C2Y C1Y 1_555 1_555
C2JA C1JA 1_555 1_555
C2QA C1QA 1_555 1_555
C2SA C1SA 1_555 1_555
C2HA C1HA 1_555 1_555
C2BA C1BA 1_555 1_555
C2Z C1Z 1_555 1_555
C2MA C1MA 1_555 1_555
C2PA C1PA 1_555 1_555
C2UA C1UA 1_555 1_555
C2GA C1GA 1_555 1_555
C2CA C1CA 1_555 1_555
H2M C2M 1_555 1_555
H2T C2T 1_555 1_555
H2P C2P 1_555 1_555
H2G C2G 1_555 1_555
H2H C2H 1_555 1_555
H2C C2C 1_555 1_555
H2N C2N 1_555 1_555
H2V C2V 1_555 1_555
H2Q C2Q 1_555 1_555
H2F C2F 1_555 1_555
H2K C2K 1_555 1_555
H2Y C2Y 1_555 1_555
H2JA C2JA 1_555 1_555
H2SA C2SA 1_555 1_555
H2QA C2QA 1_555 1_555
H2BA C2BA 1_555 1_555
H2HA C2HA 1_555 1_555
H2Z C2Z 1_555 1_555
H2MA C2MA 1_555 1_555
H2UA C2UA 1_555 1_555
H2PA C2PA 1_555 1_555
H2CA C2CA 1_555 1_555
H2GA C2GA 1_555 1_555
O2M Cu1M 1_555 1_555
O2P Cu1P 1_555 1_555
O2T Cu1T 1_555 1_555
O2H Cu1H 1_555 1_555
O2D Cu1D 1_555 1_555
C3P C1P 1_555 1_555
C3G C1H 1_555 1_555
C3C C1C 1_555 1_555
C3Q C1Q 1_555 1_555
C3F C1K 1_555 1_555
C3Y C1Y 1_555 1_555
C3QA C1QA 1_555 1_555
C3BA C1HA 1_555 1_555
C3Z C1Z 1_555 1_555
C3PA C1PA 1_555 1_555
C3CA C1GA 1_555 1_555
C4P C3P 1_555 1_555
C4G C3G 1_555 1_555
C4C O1C 1_555 1_555
C4Q C3Q 1_555 1_555
C4F C3F 1_555 1_555
C4Y O1Y 1_555 1_555
C4QA C3QA 1_555 1_555
C4BA C3BA 1_555 1_555
C4Z O1Z 1_555 1_555
C4PA C3PA 1_555 1_555
C4CA C3CA 1_555 1_555
C5P C7 1_555 1_555
C5G C6G 1_555 1_555
C5C C6C 1_555 1_555
C5Q C6Q 1_555 1_555
C5F C6F 1_555 1_555
C5Y C6Y 1_555 1_555
C5QA C6QA 1_555 1_555
C5BA C6BA 1_555 1_555
C5Z C6Z 1_555 1_555
C5PA C6PA 1_555 1_555
C5CA C6CA 1_555 1_555
C6P C2P 1_555 1_555
C6G C2H 1_555 1_555
C6C C2C 1_555 1_555
C6Q C2Q 1_555 1_555
C6F C2K 1_555 1_555
C6Y C2Y 1_555 1_555
C6QA C2QA 1_555 1_555
C6BA C2HA 1_555 1_555
C6Z C2Z 1_555 1_555
C6PA C2PA 1_555 1_555
C6CA C2GA 1_555 1_555
C7G C5P 1_555 1_555
C7H C5 1_555 1_555
C7C C5C 1_555 1_555
C7F C5Q 1_555 1_555
C7K C5C 1_555 1_555
C7Y C5Y 1_555 1_555
C7BA C5QA 1_555 1_555
C7HA C5Y 1_555 1_555
C7Z C5Z 1_555 1_555
C7CA C5PA 1_555 1_555
C7GA C5Z 1_555 1_555
H3H C7H 1_555 1_555
H3G C7G 1_555 1_555
H3C C7C 1_555 1_555
H3K C7K 1_555 1_555
H3F C7F 1_555 1_555
H3Y C7Y 1_555 1_555
H3HA C7HA 1_555 1_555
H3BA C7BA 1_555 1_555
H3Z C7Z 1_555 1_555
H3GA C7GA 1_555 1_555
H3CA C7CA 1_555 1_555
O1N C4C 1_555 1_555
O1JA C4Y 1_555 1_555
O1MA C4Z 1_555 1_555
C1M C2M 1_555 1_555
C1T C3P 1_555 1_555
C1G C3G 1_555 1_555
C1N C3C 1_555 1_555
C1V C3Q 1_555 1_555
C1F C3F 1_555 1_555
C1JA C3Y 1_555 1_555
C1SA C3QA 1_555 1_555
C1BA C3BA 1_555 1_555
C1MA C3Z 1_555 1_555
C1UA C3PA 1_555 1_555
C1CA C3CA 1_555 1_555
C2T C6P 1_555 1_555
C2G C6G 1_555 1_555
C2N C6C 1_555 1_555
C2V C6Q 1_555 1_555
C2F C6F 1_555 1_555
C2JA C6Y 1_555 1_555
C2SA C6QA 1_555 1_555
C2BA C6BA 1_555 1_555
C2MA C6Z 1_555 1_555
C2UA C6PA 1_555 1_555
C2CA C6CA 1_555 1_555
C3C C4C 1_555 1_555
C3Y C4Y 1_555 1_555
C3Z C4Z 1_555 1_555
C5P C6P 1_555 1_555
C5G C7G 1_555 1_555
C5G C7H 1_555 1_555
C5Q C7C 1_555 1_555
C5F C7F 1_555 1_555
C5F C7K 1_555 1_555
C5QA C7Y 1_555 1_555
C5BA C7BA 1_555 1_555
C5BA C7HA 1_555 1_555
C5PA C7Z 1_555 1_555
C5CA C7CA 1_555 1_555
C5CA C7GA 1_555 1_555

#END
