
#######################################################################
#
#                 Cambridge Crystallographic Data Centre
#                                CCDC 
#
#######################################################################
#
# If this CIF has been generated from an entry in the Cambridge 
# Structural Database, then it will include bibliographic, chemical, 
# crystal, experimental, refinement or atomic coordinate data resulting 
# from the CCDC's data processing and validation procedures.
#
#######################################################################

data_ICAQIO
_chemical_formula_moiety         '(C138 H84 Co6 N6 O24)n'
_chemical_name_systematic        
catena-(tetrakis(\m~6~-benzene-1,3,5-tribenzoate)-tris(\m~2~-4,4'-bipyridine)-hexa-cobalt)
_symmetry_cell_setting           cubic
_symmetry_space_group_name_H-M   'P m -3 n'
_symmetry_Int_Tables_number      223
_space_group_name_Hall           '-P 4n 2 3'
loop_
_symmetry_equiv_pos_site_id
_symmetry_equiv_pos_as_xyz
1 x,y,z
2 -x,-y,z
3 -x,y,-z
4 x,-y,-z
5 z,x,y
6 z,-x,-y
7 -z,-x,y
8 -z,x,-y
9 y,z,x
10 -y,z,-x
11 y,-z,-x
12 -y,-z,x
13 1/2+y,1/2+x,1/2-z
14 1/2-y,1/2-x,1/2-z
15 1/2+y,1/2-x,1/2+z
16 1/2-y,1/2+x,1/2+z
17 1/2+x,1/2+z,1/2-y
18 1/2-x,1/2+z,1/2+y
19 1/2-x,1/2-z,1/2-y
20 1/2+x,1/2-z,1/2+y
21 1/2+z,1/2+y,1/2-x
22 1/2+z,1/2-y,1/2+x
23 1/2-z,1/2+y,1/2+x
24 1/2-z,1/2-y,1/2-x
25 -x,-y,-z
26 x,y,-z
27 x,-y,z
28 -x,y,z
29 -z,-x,-y
30 -z,x,y
31 z,x,-y
32 z,-x,y
33 -y,-z,-x
34 y,-z,x
35 -y,z,x
36 y,z,-x
37 1/2-y,1/2-x,1/2+z
38 1/2+y,1/2+x,1/2+z
39 1/2-y,1/2+x,1/2-z
40 1/2+y,1/2-x,1/2-z
41 1/2-x,1/2-z,1/2+y
42 1/2+x,1/2-z,1/2-y
43 1/2+x,1/2+z,1/2+y
44 1/2-x,1/2+z,1/2-y
45 1/2-z,1/2-y,1/2+x
46 1/2-z,1/2+y,1/2-x
47 1/2+z,1/2-y,1/2-x
48 1/2+z,1/2+y,1/2+x
_cell_length_a                   27.634(2)
_cell_length_b                   27.634(2)
_cell_length_c                   27.634(2)
_cell_angle_alpha                90
_cell_angle_beta                 90
_cell_angle_gamma                90
_cell_volume                     21102.4
_exptl_crystal_colour            violet
_exptl_crystal_description       block
_cell_formula_units_Z            2
loop_
_atom_site_label
_atom_site_type_symbol
_atom_site_fract_x
_atom_site_fract_y
_atom_site_fract_z
Co1 Co 0.5000 1.0000 0.298497(12)
N1 N 0.5000 1.0000 0.37270(10)
O1 O 0.55160(5) 0.94862(5) 0.29014(5)
C1 C 0.62293(9) 0.87765(9) 0.29286(8)
H1 H 0.6113 0.8895 0.3221
C2 C 0.56603(6) 0.93397(6) 0.2500
C3 C 0.65826(10) 0.84258(9) 0.29274(8)
H2 H 0.6703 0.8312 0.3220
C4 C 0.60451(6) 0.89549(6) 0.2500
C5 C 0.7500 0.78540(7) 0.28540(7)
H3 H 0.7500 0.8092 0.3092
C6 C 0.67611(7) 0.82389(7) 0.2500
C7 C 0.71405(7) 0.78595(7) 0.2500
C8 C 0.5000 1.0000 0.47306(12)
C9 C 0.5409(3) 1.0000 0.4469(2)
H4 H 0.5708 1.0000 0.4622
C10 C 0.5383(3) 1.0000 0.39787(19)
H5 H 0.5675 1.0000 0.3811
Co1B Co 0.5000 1.0000 0.701503(12)
Co1L Co 0.5000 1.0000 0.201503(12)
Co1F Co 0.701503(12) 0.5000 0.0000
Co1T Co 0.798497(12) 0.5000 0.0000
Co1J Co 1.0000 0.701503(12) 0.5000
Co1P Co 1.0000 0.798497(12) 0.5000
Co1D Co 0.298497(12) 1.5000 0.0000
Co1V Co 0.201503(12) 1.5000 0.0000
Co1H Co 0.0000 1.298497(12) 0.5000
Co1R Co 0.0000 1.201503(12) 0.5000
Co1F_2 Co 0.701503(12) 1.5000 0.0000
Co1T_2 Co 0.798497(12) 1.5000 0.0000
Co1H_2 Co 1.0000 1.298497(12) 0.5000
Co1R_2 Co 1.0000 1.201503(12) 0.5000
Co1D_2 Co 0.298497(12) 0.5000 0.0000
Co1V_2 Co 0.201503(12) 0.5000 0.0000
Co1J_2 Co 0.0000 0.701503(12) 0.5000
Co1P_2 Co 0.0000 0.798497(12) 0.5000
Co1N Co 0.5000 1.0000 -0.201503(12)
Co1H_3 Co 1.0000 0.298497(12) 0.5000
N1B N 0.5000 1.0000 0.62730(10)
N1L N 0.5000 1.0000 0.12730(10)
N1N N 0.5000 1.0000 -0.12730(10)
N1F N 0.62730(10) 0.5000 0.0000
N1T N 0.87270(10) 0.5000 0.0000
N1J N 1.0000 0.62730(10) 0.5000
N1H N 1.0000 0.37270(10) 0.5000
N1P N 1.0000 0.87270(10) 0.5000
O1M O 0.55138(5) 0.94840(5) 0.20986(5)
O1G O 0.70986(5) 0.55160(5) 0.05138(5)
O1U O 0.79014(5) 0.55138(5) 0.05160(5)
O1J O 0.94862(5) 0.70986(5) 0.44840(5)
O1Q O 0.94840(5) 0.79014(5) 0.44862(5)
O1A O 0.44840(5) 1.05138(5) 0.29014(5)
O1L O 0.44862(5) 1.05160(5) 0.20986(5)
O1E O 0.29014(5) 1.44840(5) 0.05138(5)
O1V O 0.20986(5) 1.44862(5) 0.05160(5)
O1I O 0.05138(5) 1.29014(5) 0.44840(5)
O1S O 0.05160(5) 1.20986(5) 0.44862(5)
O1Z O 0.55160(5) 1.05138(5) 0.29014(5)
O1LA O 0.55138(5) 1.05160(5) 0.20986(5)
O1BA O 0.70986(5) 1.44840(5) 0.05138(5)
O1UA O 0.79014(5) 1.44862(5) 0.05160(5)
O1IA O 0.94862(5) 1.29014(5) 0.44840(5)
O1NA O 0.94840(5) 1.20986(5) 0.44862(5)
O1AA O 0.44840(5) 0.94862(5) 0.29014(5)
O1MA O 0.44862(5) 0.94840(5) 0.20986(5)
O1DA O 0.29014(5) 0.55160(5) 0.05138(5)
O1RA O 0.20986(5) 0.55138(5) 0.05160(5)
O1FA O 0.05138(5) 0.70986(5) 0.44840(5)
O1PA O 0.05160(5) 0.79014(5) 0.44862(5)
O1GA O 0.94862(5) 0.70986(5) 0.55160(5)
O1QA O 0.94840(5) 0.79014(5) 0.55138(5)
O1F O 0.70986(5) 0.44840(5) -0.05138(5)
O1CA O 0.70986(5) 0.55160(5) -0.05138(5)
O1BA_2 O 0.70986(5) 0.44840(5) 0.05138(5)
O1T O 0.79014(5) 0.44862(5) -0.05160(5)
O1UA_2 O 0.79014(5) 0.44862(5) 0.05160(5)
O1TA O 0.79014(5) 0.55138(5) -0.05160(5)
O1K O 1.05138(5) 0.70986(5) 0.55160(5)
O1FA_2 O 1.05138(5) 0.70986(5) 0.44840(5)
O1P O 1.05160(5) 0.79014(5) 0.55138(5)
O1PA_2 O 1.05160(5) 0.79014(5) 0.44862(5)
C1M C 0.62235(9) 0.87707(9) 0.20714(8)
C1G C 0.70714(8) 0.62293(9) 0.12235(9)
C1U C 0.79286(8) 0.62235(9) 0.12293(9)
C1J C 0.87765(9) 0.70714(8) 0.37707(9)
C1Q C 0.87707(9) 0.79286(8) 0.37765(9)
C1A C 0.37707(9) 1.12235(9) 0.29286(8)
C1L C 0.37765(9) 1.12293(9) 0.20714(8)
C1E C 0.29286(8) 1.37707(9) 0.12235(9)
C1V C 0.20714(8) 1.37765(9) 0.12293(9)
C1I C 0.12235(9) 1.29286(8) 0.37707(9)
C1S C 0.12293(9) 1.20714(8) 0.37765(9)
C1Z C 0.62293(9) 1.12235(9) 0.29286(8)
C1LA C 0.62235(9) 1.12293(9) 0.20714(8)
C1BA C 0.70714(8) 1.37707(9) 0.12235(9)
C1UA C 0.79286(8) 1.37765(9) 0.12293(9)
C1IA C 0.87765(9) 1.29286(8) 0.37707(9)
C1NA C 0.87707(9) 1.20714(8) 0.37765(9)
C1AA C 0.37707(9) 0.87765(9) 0.29286(8)
C1MA C 0.37765(9) 0.87707(9) 0.20714(8)
C1DA C 0.29286(8) 0.62293(9) 0.12235(9)
C1RA C 0.20714(8) 0.62235(9) 0.12293(9)
C1FA C 0.12235(9) 0.70714(8) 0.37707(9)
C1PA C 0.12293(9) 0.79286(8) 0.37765(9)
H1M H 0.6105 0.8887 0.1779
H1G H 0.6779 0.6113 0.1105
H1U H 0.8221 0.6105 0.1113
H1J H 0.8895 0.6779 0.3887
H1Q H 0.8887 0.8221 0.3895
H1A H 0.3887 1.1105 0.3221
H1L H 0.3895 1.1113 0.1779
H1E H 0.3221 1.3887 0.1105
H1V H 0.1779 1.3895 0.1113
H1I H 0.1105 1.3221 0.3887
H1S H 0.1113 1.1779 0.3895
H1Z H 0.6113 1.1105 0.3221
H1LA H 0.6105 1.1113 0.1779
H1BA H 0.6779 1.3887 0.1105
H1UA H 0.8221 1.3895 0.1113
H1IA H 0.8895 1.3221 0.3887
H1NA H 0.8887 1.1779 0.3895
H1AA H 0.3887 0.8895 0.3221
H1MA H 0.3895 0.8887 0.1779
H1DA H 0.3221 0.6113 0.1105
H1RA H 0.1779 0.6105 0.1113
H1FA H 0.1105 0.6779 0.3887
H1PA H 0.1113 0.8221 0.3895
C2G C 0.7500 0.56603(6) 0.06603(6)
C2J C 0.93397(6) 0.7500 0.43397(6)
C2A C 0.43397(6) 1.06603(6) 0.2500
C2E C 0.2500 1.43397(6) 0.06603(6)
C2I C 0.06603(6) 1.2500 0.43397(6)
C2Z C 0.56603(6) 1.06603(6) 0.2500
C2BA C 0.7500 1.43397(6) 0.06603(6)
C2IA C 0.93397(6) 1.2500 0.43397(6)
C2AA C 0.43397(6) 0.93397(6) 0.2500
C2DA C 0.2500 0.56603(6) 0.06603(6)
C2FA C 0.06603(6) 0.7500 0.43397(6)
C3M C 0.65742(9) 0.84174(10) 0.20726(8)
C3G C 0.70726(8) 0.65826(10) 0.15742(9)
C3U C 0.79274(8) 0.65742(9) 0.15826(10)
C3J C 0.84258(9) 0.70726(8) 0.34174(10)
C3Q C 0.84174(10) 0.79274(8) 0.34258(9)
C3A C 0.34174(10) 1.15742(9) 0.29274(8)
C3L C 0.34258(9) 1.15826(10) 0.20726(8)
C3E C 0.29274(8) 1.34174(10) 0.15742(9)
C3V C 0.20726(8) 1.34258(9) 0.15826(10)
C3I C 0.15742(9) 1.29274(8) 0.34174(10)
C3S C 0.15826(10) 1.20726(8) 0.34258(9)
C3Z C 0.65826(10) 1.15742(9) 0.29274(8)
C3LA C 0.65742(9) 1.15826(10) 0.20726(8)
C3BA C 0.70726(8) 1.34174(10) 0.15742(9)
C3UA C 0.79274(8) 1.34258(9) 0.15826(10)
C3IA C 0.84258(9) 1.29274(8) 0.34174(10)
C3NA C 0.84174(10) 1.20726(8) 0.34258(9)
C3AA C 0.34174(10) 0.84258(9) 0.29274(8)
C3MA C 0.34258(9) 0.84174(10) 0.20726(8)
C3DA C 0.29274(8) 0.65826(10) 0.15742(9)
C3RA C 0.20726(8) 0.65742(9) 0.15826(10)
C3FA C 0.15742(9) 0.70726(8) 0.34174(10)
C3PA C 0.15826(10) 0.79274(8) 0.34258(9)
H2M H 0.6688 0.8297 0.1780
H2U H 0.8220 0.6688 0.1703
H2G H 0.6780 0.6703 0.1688
H2Q H 0.8297 0.8220 0.3312
H2J H 0.8312 0.6780 0.3297
H2A H 0.3297 1.1688 0.3220
H2L H 0.3312 1.1703 0.1780
H2V H 0.1780 1.3312 0.1703
H2E H 0.3220 1.3297 0.1688
H2S H 0.1703 1.1780 0.3312
H2I H 0.1688 1.3220 0.3297
H2Z H 0.6703 1.1688 0.3220
H2LA H 0.6688 1.1703 0.1780
H2UA H 0.8220 1.3312 0.1703
H2BA H 0.6780 1.3297 0.1688
H2NA H 0.8297 1.1780 0.3312
H2IA H 0.8312 1.3220 0.3297
H2AA H 0.3297 0.8312 0.3220
H2MA H 0.3312 0.8297 0.1780
H2RA H 0.1780 0.6688 0.1703
H2DA H 0.3220 0.6703 0.1688
H2PA H 0.1703 0.8220 0.3312
H2FA H 0.1688 0.6780 0.3297
C4G C 0.7500 0.60451(6) 0.10451(6)
C4J C 0.89549(6) 0.7500 0.39549(6)
C4A C 0.39549(6) 1.10451(6) 0.2500
C4E C 0.2500 1.39549(6) 0.10451(6)
C4I C 0.10451(6) 1.2500 0.39549(6)
C4Z C 0.60451(6) 1.10451(6) 0.2500
C4BA C 0.7500 1.39549(6) 0.10451(6)
C4IA C 0.89549(6) 1.2500 0.39549(6)
C4AA C 0.39549(6) 0.89549(6) 0.2500
C4DA C 0.2500 0.60451(6) 0.10451(6)
C4FA C 0.10451(6) 0.7500 0.39549(6)
C5J C 0.78540(7) 0.71460(7) 0.2500
C5G C 0.71460(7) 0.7500 0.21460(7)
C5A C 0.2500 1.21460(7) 0.28540(7)
C5I C 0.21460(7) 1.28540(7) 0.2500
C5E C 0.28540(7) 1.2500 0.21460(7)
C5Z C 0.7500 1.21460(7) 0.28540(7)
C5IA C 0.78540(7) 1.28540(7) 0.2500
C5BA C 0.71460(7) 1.2500 0.21460(7)
C5AA C 0.2500 0.78540(7) 0.28540(7)
C5FA C 0.21460(7) 0.71460(7) 0.2500
C5DA C 0.28540(7) 0.7500 0.21460(7)
H3J H 0.8092 0.6908 0.2500
H3G H 0.6908 0.7500 0.1908
H3A H 0.2500 1.1908 0.3092
H3I H 0.1908 1.3092 0.2500
H3E H 0.3092 1.2500 0.1908
H3Z H 0.7500 1.1908 0.3092
H3IA H 0.8092 1.3092 0.2500
H3BA H 0.6908 1.2500 0.1908
H3AA H 0.2500 0.8092 0.3092
H3FA H 0.1908 0.6908 0.2500
H3DA H 0.3092 0.7500 0.1908
C6G C 0.7500 0.67611(7) 0.17611(7)
C6J C 0.82389(7) 0.7500 0.32389(7)
C6A C 0.32389(7) 1.17611(7) 0.2500
C6E C 0.2500 1.32389(7) 0.17611(7)
C6I C 0.17611(7) 1.2500 0.32389(7)
C6Z C 0.67611(7) 1.17611(7) 0.2500
C6BA C 0.7500 1.32389(7) 0.17611(7)
C6IA C 0.82389(7) 1.2500 0.32389(7)
C6AA C 0.32389(7) 0.82389(7) 0.2500
C6DA C 0.2500 0.67611(7) 0.17611(7)
C6FA C 0.17611(7) 0.7500 0.32389(7)
C7J C 0.78595(7) 0.7500 0.28595(7)
C7G C 0.7500 0.71405(7) 0.21405(7)
C7A C 0.28595(7) 1.21405(7) 0.2500
C7I C 0.21405(7) 1.2500 0.28595(7)
C7E C 0.2500 1.28595(7) 0.21405(7)
C7Z C 0.71405(7) 1.21405(7) 0.2500
C7IA C 0.78595(7) 1.2500 0.28595(7)
C7BA C 0.7500 1.28595(7) 0.21405(7)
C7AA C 0.28595(7) 0.78595(7) 0.2500
C7FA C 0.21405(7) 0.7500 0.28595(7)
C7DA C 0.2500 0.71405(7) 0.21405(7)
C8B C 0.5000 1.0000 0.52694(12)
C8L C 0.5000 1.0000 0.02694(12)
C8N C 0.5000 1.0000 -0.02694(12)
C8J C 1.0000 0.52694(12) 0.5000
C8H C 1.0000 0.47306(12) 0.5000
C9B C 0.4591(3) 1.0000 0.5531(2)
C9C C 0.5409(3) 1.0000 0.5531(2)
C9A C 0.4591(3) 1.0000 0.4469(2)
C9M C 0.5000 0.9591(3) 0.0531(2)
C9O C 0.5000 1.0409(3) -0.0531(2)
C9N C 0.5000 0.9591(3) -0.0531(2)
C9L C 0.5000 1.0409(3) 0.0531(2)
C9J C 1.0000 0.5531(2) 0.4591(3)
C9H C 1.0000 0.4469(2) 0.5409(3)
C9I C 1.0000 0.4469(2) 0.4591(3)
C9K C 1.0000 0.5531(2) 0.5409(3)
H4B H 0.4292 1.0000 0.5378
H4C H 0.5708 1.0000 0.5378
H4A H 0.4292 1.0000 0.4622
H4M H 0.5000 0.9292 0.0378
H4O H 0.5000 1.0708 -0.0378
H4N H 0.5000 0.9292 -0.0378
H4L H 0.5000 1.0708 0.0378
H4J H 1.0000 0.5378 0.4292
H4H H 1.0000 0.4622 0.5708
H4I H 1.0000 0.4622 0.4292
H4K H 1.0000 0.5378 0.5708
C10B C 0.4617(3) 1.0000 0.60213(19)
C10C C 0.5383(3) 1.0000 0.60213(19)
C10A C 0.4617(3) 1.0000 0.39787(19)
C10M C 0.5000 0.9617(3) 0.10213(19)
C10O C 0.5000 1.0383(3) -0.10213(19)
C10N C 0.5000 0.9617(3) -0.10213(19)
C10L C 0.5000 1.0383(3) 0.10213(19)
C10J C 1.0000 0.60213(19) 0.4617(3)
C10H C 1.0000 0.39787(19) 0.5383(3)
C10I C 1.0000 0.39787(19) 0.4617(3)
C10K C 1.0000 0.60213(19) 0.5383(3)
H5C H 0.5675 1.0000 0.6189
H5B H 0.4325 1.0000 0.6189
H5A H 0.4325 1.0000 0.3811
H5M H 0.5000 0.9325 0.1189
H5N H 0.5000 0.9325 -0.1189
H5O H 0.5000 1.0675 -0.1189
H5L H 0.5000 1.0675 0.1189
H5J H 1.0000 0.6189 0.4325
H5I H 1.0000 0.3811 0.4325
H5H H 1.0000 0.3811 0.5675
H5K H 1.0000 0.6189 0.5675
C11? C 0.5000 1.0387(3) 0.3973(2)
C12? C 0.5000 1.0402(4) 0.4471(2)
H6? H 0.5000 1.0680 0.3807
H7? H 0.5000 1.0700 0.4627
loop_
_geom_bond_atom_site_label_1
_geom_bond_atom_site_label_2
_geom_bond_site_symmetry_1
_geom_bond_site_symmetry_2
Co1 N1 1_555 1_555
N1 C10 1_555 1_555
O1 Co1 1_555 1_555
C1 H1 1_555 1_555
C2 O1 1_555 1_555
C3 C1 1_555 1_555
H2 C3 1_555 1_555
C4 C1 1_555 1_555
C5 H3 1_555 1_555
C6 C3 1_555 1_555
C7 C5 1_555 1_555
C8 C9 1_555 1_555
C9 H4 1_555 1_555
C10 C9 1_555 1_555
H5 C10 1_555 1_555
Co1B N1B 1_555 1_555
Co1L N1L 1_555 1_555
Co1F N1F 1_555 1_555
Co1T N1T 1_555 1_555
Co1J N1J 1_555 1_555
Co1P N1P 1_555 1_555
Co1D O1E 1_555 1_555
Co1V O1V 1_555 1_555
Co1H O1I 1_555 1_555
Co1R O1S 1_555 1_555
Co1F_2 O1BA 1_555 1_555
Co1T_2 O1UA 1_555 1_555
Co1H_2 O1IA 1_555 1_555
Co1R_2 O1NA 1_555 1_555
Co1D_2 O1DA 1_555 1_555
Co1V_2 O1RA 1_555 1_555
Co1J_2 O1FA 1_555 1_555
Co1P_2 O1PA 1_555 1_555
Co1N N1N 1_555 1_555
Co1H_3 N1H 1_555 1_555
N1B C10B 1_555 1_555
N1L C10M 1_555 1_555
N1N C10O 1_555 1_555
N1J C10J 1_555 1_555
N1H C10H 1_555 1_555
O1M C2 1_555 1_555
O1G Co1F 1_555 1_555
O1U Co1T 1_555 1_555
O1J Co1J 1_555 1_555
O1Q Co1P 1_555 1_555
O1A Co1 1_555 1_555
O1L Co1L 1_555 1_555
O1E C2E 1_555 1_555
O1V C2E 1_555 1_555
O1I C2I 1_555 1_555
O1S C2I 1_555 1_555
O1Z Co1 1_555 1_555
O1LA Co1L 1_555 1_555
O1BA C2BA 1_555 1_555
O1UA C2BA 1_555 1_555
O1IA C2IA 1_555 1_555
O1NA C2IA 1_555 1_555
O1AA Co1 1_555 1_555
O1MA Co1L 1_555 1_555
O1DA C2DA 1_555 1_555
O1RA C2DA 1_555 1_555
O1FA C2FA 1_555 1_555
O1PA C2FA 1_555 1_555
O1GA Co1J 1_555 1_555
O1QA Co1P 1_555 1_555
O1F Co1F 1_555 1_555
O1CA Co1F 1_555 1_555
O1BA_2 Co1F 1_555 1_555
O1T Co1T 1_555 1_555
O1UA_2 Co1T 1_555 1_555
O1TA Co1T 1_555 1_555
O1K Co1J 1_555 1_555
O1FA_2 Co1J 1_555 1_555
O1P Co1P 1_555 1_555
O1PA_2 Co1P 1_555 1_555
C1M C4 1_555 1_555
C1G H1G 1_555 1_555
C1U H1U 1_555 1_555
C1J H1J 1_555 1_555
C1Q H1Q 1_555 1_555
C1A H1A 1_555 1_555
C1L H1L 1_555 1_555
C1E H1E 1_555 1_555
C1V H1V 1_555 1_555
C1I H1I 1_555 1_555
C1S H1S 1_555 1_555
C1Z H1Z 1_555 1_555
C1LA H1LA 1_555 1_555
C1BA H1BA 1_555 1_555
C1UA H1UA 1_555 1_555
C1IA H1IA 1_555 1_555
C1NA H1NA 1_555 1_555
C1AA H1AA 1_555 1_555
C1MA H1MA 1_555 1_555
C1DA H1DA 1_555 1_555
C1RA H1RA 1_555 1_555
C1FA H1FA 1_555 1_555
C1PA H1PA 1_555 1_555
H1M C1M 1_555 1_555
C2G O1G 1_555 1_555
C2J O1J 1_555 1_555
C2A O1A 1_555 1_555
C2E C4E 1_555 1_555
C2I C4I 1_555 1_555
C2Z O1Z 1_555 1_555
C2BA C4BA 1_555 1_555
C2IA C4IA 1_555 1_555
C2AA O1AA 1_555 1_555
C2DA C4DA 1_555 1_555
C2FA C4FA 1_555 1_555
C3M C6 1_555 1_555
C3G C1G 1_555 1_555
C3U C1U 1_555 1_555
C3J C1J 1_555 1_555
C3Q C1Q 1_555 1_555
C3A C1A 1_555 1_555
C3L C1L 1_555 1_555
C3E C1E 1_555 1_555
C3V C1V 1_555 1_555
C3I C1I 1_555 1_555
C3S C1S 1_555 1_555
C3Z C1Z 1_555 1_555
C3LA C1LA 1_555 1_555
C3BA C1BA 1_555 1_555
C3UA C1UA 1_555 1_555
C3IA C1IA 1_555 1_555
C3NA C1NA 1_555 1_555
C3AA C1AA 1_555 1_555
C3MA C1MA 1_555 1_555
C3DA C1DA 1_555 1_555
C3RA C1RA 1_555 1_555
C3FA C1FA 1_555 1_555
C3PA C1PA 1_555 1_555
H2M C3M 1_555 1_555
H2U C3U 1_555 1_555
H2G C3G 1_555 1_555
H2Q C3Q 1_555 1_555
H2J C3J 1_555 1_555
H2A C3A 1_555 1_555
H2L C3L 1_555 1_555
H2V C3V 1_555 1_555
H2E C3E 1_555 1_555
H2S C3S 1_555 1_555
H2I C3I 1_555 1_555
H2Z C3Z 1_555 1_555
H2LA C3LA 1_555 1_555
H2UA C3UA 1_555 1_555
H2BA C3BA 1_555 1_555
H2NA C3NA 1_555 1_555
H2IA C3IA 1_555 1_555
H2AA C3AA 1_555 1_555
H2MA C3MA 1_555 1_555
H2RA C3RA 1_555 1_555
H2DA C3DA 1_555 1_555
H2PA C3PA 1_555 1_555
H2FA C3FA 1_555 1_555
C4G C1G 1_555 1_555
C4J C1J 1_555 1_555
C4A C1A 1_555 1_555
C4E C1E 1_555 1_555
C4I C1I 1_555 1_555
C4Z C1Z 1_555 1_555
C4BA C1BA 1_555 1_555
C4IA C1IA 1_555 1_555
C4AA C1AA 1_555 1_555
C4DA C1DA 1_555 1_555
C4FA C1FA 1_555 1_555
C5J H3J 1_555 1_555
C5G C7 1_555 1_555
C5A H3A 1_555 1_555
C5I H3I 1_555 1_555
C5E H3E 1_555 1_555
C5Z H3Z 1_555 1_555
C5IA H3IA 1_555 1_555
C5BA H3BA 1_555 1_555
C5AA H3AA 1_555 1_555
C5FA H3FA 1_555 1_555
C5DA H3DA 1_555 1_555
H3G C5G 1_555 1_555
C6G C3G 1_555 1_555
C6J C3J 1_555 1_555
C6A C3A 1_555 1_555
C6E C3E 1_555 1_555
C6I C3I 1_555 1_555
C6Z C3Z 1_555 1_555
C6BA C3BA 1_555 1_555
C6IA C3IA 1_555 1_555
C6AA C3AA 1_555 1_555
C6DA C3DA 1_555 1_555
C6FA C3FA 1_555 1_555
C7J C5 1_555 1_555
C7G C5J 1_555 1_555
C7A C5A 1_555 1_555
C7I C5A 1_555 1_555
C7E C5I 1_555 1_555
C7Z C5Z 1_555 1_555
C7IA C5Z 1_555 1_555
C7BA C5IA 1_555 1_555
C7AA C5AA 1_555 1_555
C7FA C5AA 1_555 1_555
C7DA C5FA 1_555 1_555
C8B C8 1_555 1_555
C8L C8N 1_555 1_555
C8N C9O 1_555 1_555
C8J C8H 1_555 1_555
C8H C9H 1_555 1_555
C9B C8B 1_555 1_555
C9C C8B 1_555 1_555
C9A C8 1_555 1_555
C9M C8L 1_555 1_555
C9O H4O 1_555 1_555
C9N C8N 1_555 1_555
C9L C8L 1_555 1_555
C9J C8J 1_555 1_555
C9H H4H 1_555 1_555
C9I C8H 1_555 1_555
C9K C8J 1_555 1_555
H4B C9B 1_555 1_555
H4C C9C 1_555 1_555
H4A C9A 1_555 1_555
H4M C9M 1_555 1_555
H4N C9N 1_555 1_555
H4L C9L 1_555 1_555
H4J C9J 1_555 1_555
H4I C9I 1_555 1_555
H4K C9K 1_555 1_555
C10B C9B 1_555 1_555
C10C N1B 1_555 1_555
C10A N1 1_555 1_555
C10M C9M 1_555 1_555
C10O C9O 1_555 1_555
C10N N1N 1_555 1_555
C10L N1L 1_555 1_555
C10J C9J 1_555 1_555
C10H C9H 1_555 1_555
C10I N1H 1_555 1_555
C10K N1J 1_555 1_555
H5C C10C 1_555 1_555
H5B C10B 1_555 1_555
H5A C10A 1_555 1_555
H5M C10M 1_555 1_555
H5N C10N 1_555 1_555
H5O C10O 1_555 1_555
H5L C10L 1_555 1_555
H5J C10J 1_555 1_555
H5I C10I 1_555 1_555
H5H C10H 1_555 1_555
H5K C10K 1_555 1_555
C2 C4 1_555 1_555
C6 C7 1_555 1_555
Co1L O1M 1_555 1_555
O1U C2G 1_555 1_555
O1Q C2J 1_555 1_555
O1L C2A 1_555 1_555
O1LA C2Z 1_555 1_555
O1MA C2AA 1_555 1_555
C1M C3M 1_555 1_555
C1U C4G 1_555 1_555
C1Q C4J 1_555 1_555
C1L C4A 1_555 1_555
C1V C4E 1_555 1_555
C1S C4I 1_555 1_555
C1LA C4Z 1_555 1_555
C1UA C4BA 1_555 1_555
C1NA C4IA 1_555 1_555
C1MA C4AA 1_555 1_555
C1RA C4DA 1_555 1_555
C1PA C4FA 1_555 1_555
C2G C4G 1_555 1_555
C2J C4J 1_555 1_555
C2A C4A 1_555 1_555
C2Z C4Z 1_555 1_555
C2AA C4AA 1_555 1_555
C3U C6G 1_555 1_555
C3Q C6J 1_555 1_555
C3L C6A 1_555 1_555
C3V C6E 1_555 1_555
C3S C6I 1_555 1_555
C3LA C6Z 1_555 1_555
C3UA C6BA 1_555 1_555
C3NA C6IA 1_555 1_555
C3MA C6AA 1_555 1_555
C3RA C6DA 1_555 1_555
C3PA C6FA 1_555 1_555
C5J C7J 1_555 1_555
C5G C7G 1_555 1_555
C5I C7I 1_555 1_555
C5E C7A 1_555 1_555
C5E C7E 1_555 1_555
C5IA C7IA 1_555 1_555
C5BA C7Z 1_555 1_555
C5BA C7BA 1_555 1_555
C5FA C7FA 1_555 1_555
C5DA C7AA 1_555 1_555
C5DA C7DA 1_555 1_555
C6G C7G 1_555 1_555
C6J C7J 1_555 1_555
C6A C7A 1_555 1_555
C6E C7E 1_555 1_555
C6I C7I 1_555 1_555
C6Z C7Z 1_555 1_555
C6BA C7BA 1_555 1_555
C6IA C7IA 1_555 1_555
C6AA C7AA 1_555 1_555
C6DA C7DA 1_555 1_555
C6FA C7FA 1_555 1_555
C9C C10C 1_555 1_555
C9A C10A 1_555 1_555
C9N C10N 1_555 1_555
C9L C10L 1_555 1_555
C9I C10I 1_555 1_555
C9K C10K 1_555 1_555

#END
