
#######################################################################
#
#                 Cambridge Crystallographic Data Centre
#                                CCDC 
#
#######################################################################
#
# If this CIF has been generated from an entry in the Cambridge 
# Structural Database, then it will include bibliographic, chemical, 
# crystal, experimental, refinement or atomic coordinate data resulting 
# from the CCDC's data processing and validation procedures.
#
#######################################################################

data_ICAREL
_chemical_formula_moiety         '(C261 H171 Cu12 N9 O51)n'
_chemical_name_systematic        
catena-(octakis(\m~6~-benzene-1,3,5-tribenzoato)-triaqua-nonapyridine-dodeca-copper)
_symmetry_cell_setting           rhombohedral
_symmetry_space_group_name_H-M   'R -3 m'
_symmetry_Int_Tables_number      166
_space_group_name_Hall           '-R 3 2"'
loop_
_symmetry_equiv_pos_site_id
_symmetry_equiv_pos_as_xyz
1 x,y,z
2 -y,x-y,z
3 -x+y,-x,z
4 y,x,-z
5 x-y,-y,-z
6 -x,-x+y,-z
7 2/3+x,1/3+y,1/3+z
8 2/3-y,1/3+x-y,1/3+z
9 2/3-x+y,1/3-x,1/3+z
10 2/3+y,1/3+x,1/3-z
11 2/3+x-y,1/3-y,1/3-z
12 2/3-x,1/3-x+y,1/3-z
13 1/3+x,2/3+y,2/3+z
14 1/3-y,2/3+x-y,2/3+z
15 1/3-x+y,2/3-x,2/3+z
16 1/3+y,2/3+x,2/3-z
17 1/3+x-y,2/3-y,2/3-z
18 1/3-x,2/3-x+y,2/3-z
19 -x,-y,-z
20 y,-x+y,-z
21 x-y,x,-z
22 -y,-x,z
23 -x+y,y,z
24 x,x-y,z
25 1/3-x,2/3-y,2/3-z
26 1/3+y,2/3-x+y,2/3-z
27 1/3+x-y,2/3+x,2/3-z
28 1/3-y,2/3-x,2/3+z
29 1/3-x+y,2/3+y,2/3+z
30 1/3+x,2/3+x-y,2/3+z
31 2/3-x,1/3-y,1/3-z
32 2/3+y,1/3-x+y,1/3-z
33 2/3+x-y,1/3+x,1/3-z
34 2/3-y,1/3-x,1/3+z
35 2/3-x+y,1/3+y,1/3+z
36 2/3+x,1/3+x-y,1/3+z
_cell_length_a                   33.673(5)
_cell_length_b                   33.673(5)
_cell_length_c                   81.562(16)
_cell_angle_alpha                90
_cell_angle_beta                 90
_cell_angle_gamma                120
_cell_volume                     80090.7
_cell_formula_units_Z            6
loop_
_atom_site_label
_atom_site_type_symbol
_atom_site_fract_x
_atom_site_fract_y
_atom_site_fract_z
Cu1 Cu 1.025047(6) 0.512524(6) 0.919427(4)
Cu2 Cu 1.127710(8) 0.794050(8) 0.739430(3)
Cu3 Cu 0.974445(6) 0.487223(6) 0.892556(4)
O1 O 1.13774(6) 0.79581(6) 0.76314(2)
O2 O 1.05986(6) 0.57120(7) 0.90787(2)
O3 O 1.01786(8) 0.54958(6) 0.88500(2)
C1 C 1.17328(5) 0.82672(5) 0.77006(4)
C2 C 1.17982(6) 0.82018(6) 0.78775(4)
C3 C 1.21581(15) 0.85173(12) 0.79630(4)
H1 H 1.2362 0.8794 0.7913
C4 C 1.22328(15) 0.84398(13) 0.81251(4)
H2 H 1.2496 0.8660 0.8179
C5 C 1.19394(6) 0.80606(6) 0.82067(4)
C6 C 1.20211(6) 0.79789(6) 0.83808(4)
C7 C 1.17119(9) 0.75833(9) 0.84616(3)
H3 H 1.1448 0.7370 0.8407
C8 C 1.14541(9) 0.70657(9) 0.87040(3)
C9 C 1.11785(13) 0.66656(16) 0.86131(4)
H4 H 1.1209 0.6675 0.8500
C10 C 1.08649(13) 0.62601(15) 0.86861(4)
H5 H 1.0675 0.6006 0.8622
C11 C 1.13933(12) 0.70303(15) 0.88743(4)
H6 H 1.1562 0.7288 0.8939
C12 C 1.10852(12) 0.66159(14) 0.89479(4)
H7 H 1.1052 0.6603 0.9061
C13 C 1.08327(9) 0.62313(8) 0.88588(3)
C14 C 1.05107(8) 0.57806(8) 0.89364(3)
C15 C 1.17829(9) 0.74927(9) 0.86236(3)
C16 C 1.21842(6) 0.78158(6) 0.87019(4)
H8 H 1.2238 0.7762 0.8809
O4 O 0.79613(6) 0.13773(6) 1.04899(2)
C17 C 0.82718(6) 0.17282(6) 1.04222(4)
C18 C 0.82098(7) 0.17902(7) 1.02430(4)
C19 C 0.85105(16) 0.21464(18) 1.01616(5)
H9 H 0.8776 0.2362 1.0215
C20 C 0.84447(19) 0.22151(16) 0.99944(5)
H10 H 0.8674 0.2470 0.9940
C21 C 0.80698(8) 0.19302(8) 0.99132(4)
C22 C 0.79819(8) 0.20181(8) 0.97422(5)
C23 C 0.82898(10) 0.24190(10) 0.96627(3)
H11 H 0.8560 0.2627 0.9716
C24 C 0.82020(10) 0.25189(10) 0.95043(3)
C25 C 0.77954(9) 0.22046(9) 0.94296(5)
H12 H 0.7731 0.2269 0.9326
C26 C 0.85328(9) 0.29583(11) 0.94221(3)
C27 C 0.88514(13) 0.33295(19) 0.95089(4)
H13 H 0.8863 0.3308 0.9623
C28 C 0.91539(12) 0.37324(18) 0.94334(4)
H14 H 0.9371 0.3974 0.9497
C29 C 0.91438(10) 0.37882(9) 0.92683(3)
C30 C 0.88195(11) 0.34277(14) 0.91799(4)
H15 H 0.8800 0.3460 0.9068
C31 C 0.85189(12) 0.30154(16) 0.92542(4)
H16 H 0.8305 0.2774 0.9191
C32 C 0.94746(8) 0.42264(9) 0.91880(3)
O5 O 0.93875(6) 0.42845(7) 0.90409(2)
O6 O 0.98086(8) 0.45015(6) 0.92694(2)
O7 O 1.16709(6) 0.76683(6) 0.73645(3)
C33 C 1.20990(5) 0.79010(5) 0.73569(4)
C34 C 1.23559(6) 0.76441(6) 0.73444(5)
C35 C 1.28108(11) 0.78566(11) 0.73372(9)
H17 H 1.2974 0.8176 0.7336
C36 C 1.30485(11) 0.76235(11) 0.73323(9)
H18 H 1.3367 0.7790 0.7331
C37 C 1.28364(6) 0.71636(6) 0.73296(6)
C38 C 1.30937(5) 0.69063(5) 0.73242(6)
C39 C 1.35680(11) 0.71360(6) 0.73233(6)
H19 H 1.3727 0.7455 0.7322
O8 O 0.93349(7) 0.46675(7) 0.87057(4)
C40 C 1.12361(5) 0.87639(5) 0.74224(4)
C41 C 1.09803(5) 0.90197(5) 0.74252(4)
C42 C 1.11997(10) 0.94866(11) 0.74237(6)
H20 H 1.1518 0.9652 0.7425
C43 C 1.04972(5) 0.95028(5) 0.74239(5)
C44 C 1.02422(11) 0.97579(6) 0.74208(5)
C45 C 0.97625(5) 0.95250(5) 0.74224(5)
H21 H 0.9603 0.9206 0.7425
C46 C 1.09609(10) 0.97181(11) 0.74212(7)
H22 H 1.1124 1.0037 0.7418
O9 O 1.10034(6) 0.83340(6) 0.74193(2)
N1 N 1.06536(7) 0.72996(8) 0.74011(3)
C47 C 0.98945(14) 0.64557(14) 0.74360(3)
H23 H 0.9632 0.6170 0.7448
C48 C 1.04753(14) 0.71663(14) 0.75540(3)
H24 H 1.0611 0.7356 0.7644
C49 C 1.00836(14) 0.67392(14) 0.75716(3)
H25 H 0.9948 0.6643 0.7674
C50 C 1.00971(14) 0.65992(14) 0.72828(3)
H26 H 0.9970 0.6410 0.7192
C51 C 1.04888(14) 0.70264(14) 0.72651(3)
H27 H 1.0634 0.7124 0.7164
N2 N 1.06741(14) 0.53367(14) 0.94074(3)
C52 C 1.04981(14) 0.52487(14) 0.95554(3)
H28 H 1.0183 0.5092 0.9574
C53 C 1.08561(14) 0.54277(14) 0.96994(3)
H29 H 1.0740 0.5370 0.9806
C54 C 1.11741(14) 0.55867(14) 0.96874(3)
H30 H 1.1348 0.5675 0.9783
C55 C 1.14136(14) 0.57056(14) 0.95377(3)
H31 H 1.1732 0.5864 0.9529
C56 C 1.11041(14) 0.55517(14) 0.93964(3)
H32 H 1.1233 0.5617 0.9292
Cu1U Cu 1.487476(6) 0.974953(6) 0.919427(4)
Cu1A Cu 1.487476(6) 0.512523(8) 0.919427(4)
Cu1U_2 Cu 0.487476(6) -0.025047(6) 0.919427(4)
Cu1A_2 Cu 0.487476(6) 0.512523(8) 0.919427(4)
Cu1L Cu 1.358380(6) 1.179191(6) 0.586094(4)
Cu1AA Cu 0.820809(6) 0.641620(6) 0.586094(4)
Cu2U Cu 1.205950(8) 0.872290(8) 0.739430(3)
Cu2W Cu 1.127710(8) 0.333660(11) 0.739430(3)
Cu2A Cu 1.205950(8) 0.333660(11) 0.739430(3)
Cu2F Cu 0.794377(8) 0.127383(8) 1.072763(3)
Cu2GA Cu 0.872617(8) 0.205623(8) 1.072763(3)
Cu2B Cu 1.666340(11) 0.872290(8) 0.739430(3)
Cu2V Cu 1.666340(11) 0.794050(8) 0.739430(3)
Cu2B_2 Cu 0.666340(11) 0.872290(8) 0.739430(3)
Cu2V_2 Cu 0.666340(11) 0.794050(8) 0.739430(3)
Cu2A_2 Cu 1.205950(8) 1.333660(11) 0.739430(3)
Cu2W_2 Cu 1.127710(8) 1.333660(11) 0.739430(3)
Cu2IA Cu 0.794377(8) 0.666993(11) 1.072763(3)
Cu2G Cu 0.872617(8) 0.666993(11) 1.072763(3)
Cu3U Cu 1.512777(6) 1.025555(6) 0.892556(4)
Cu3A Cu 1.512777(6) 0.487222(8) 0.892556(4)
Cu3U_2 Cu 0.512777(6) 0.025555(6) 0.892556(4)
Cu3A_2 Cu 0.512777(6) 0.487222(8) 0.892556(4)
Cu3L Cu 1.307778(6) 1.153890(6) 0.559223(4)
Cu3AA Cu 0.846110(6) 0.692222(6) 0.559223(4)
O1U O 1.20419(6) 0.86226(6) 0.76314(2)
O1W O 1.13774(6) 0.34193(8) 0.76314(2)
O1A O 1.20419(6) 0.34193(8) 0.76314(2)
O1B O 1.65807(8) 0.86226(6) 0.76314(2)
O1V O 1.65807(8) 0.79581(6) 0.76314(2)
O1F O 0.80441(6) 0.12914(6) 1.09647(2)
O1GA O 0.87086(6) 0.19559(6) 1.09647(2)
O2U O 1.42880(7) 0.94014(6) 0.90787(2)
O2W O 1.05986(6) 0.48866(9) 0.90787(2)
O2A O 1.42880(7) 0.48866(9) 0.90787(2)
O2B O 1.51134(9) 0.94014(6) 0.90787(2)
O2V O 1.51134(9) 0.57120(7) 0.90787(2)
O3U O 1.45042(6) 0.98214(8) 0.88500(2)
O3W O 1.01786(8) 0.46828(10) 0.88500(2)
O3A O 1.45042(6) 0.46828(10) 0.88500(2)
O3B O 1.53172(10) 0.98214(8) 0.88500(2)
O3V O 1.53172(10) 0.54958(6) 0.88500(2)
C1A C 1.17328(5) 0.34656(7) 0.77006(4)
C1B C 1.65344(7) 0.82672(5) 0.77006(4)
C2A C 1.17982(6) 0.35964(8) 0.78775(4)
C2B C 1.64036(8) 0.82018(6) 0.78775(4)
C3U C 1.14827(12) 0.78419(15) 0.79630(4)
C3W C 1.21581(15) 0.36408(19) 0.79630(4)
C3A C 1.14827(12) 0.36408(19) 0.79630(4)
C3B C 1.63592(19) 0.78419(15) 0.79630(4)
C3V C 1.63592(19) 0.85173(12) 0.79630(4)
H1U H 1.1206 0.7638 0.7913
H1W H 1.2362 0.3568 0.7913
H1A H 1.1206 0.3568 0.7913
H1B H 1.6432 0.7638 0.7913
H1V H 1.6432 0.8794 0.7913
C4U C 1.15602(13) 0.77672(15) 0.81251(4)
C4W C 1.22328(15) 0.37930(20) 0.81251(4)
C4A C 1.15602(13) 0.37930(20) 0.81251(4)
C4B C 1.62070(20) 0.77672(15) 0.81251(4)
C4V C 1.62070(20) 0.84398(13) 0.81251(4)
H2U H 1.1340 0.7504 0.8179
H2W H 1.2496 0.3836 0.8179
H2A H 1.1340 0.3836 0.8179
H2B H 1.6164 0.7504 0.8179
H2V H 1.6164 0.8660 0.8179
C5A C 1.19394(6) 0.38788(8) 0.82067(4)
C5B C 1.61212(8) 0.80606(6) 0.82067(4)
C6A C 1.20211(6) 0.40422(8) 0.83808(4)
C6B C 1.59578(8) 0.79789(6) 0.83808(4)
C7U C 1.24167(9) 0.82881(9) 0.84616(3)
C7W C 1.17119(9) 0.41286(13) 0.84616(3)
C7A C 1.24167(9) 0.41286(13) 0.84616(3)
C7B C 1.58714(13) 0.82881(9) 0.84616(3)
C7V C 1.58714(13) 0.75833(9) 0.84616(3)
H3U H 1.2630 0.8552 0.8407
H3W H 1.1448 0.4078 0.8407
H3A H 1.2630 0.4078 0.8407
H3B H 1.5922 0.8552 0.8407
H3V H 1.5922 0.7370 0.8407
C8U C 1.29343(9) 0.85459(9) 0.87040(3)
C8W C 1.14541(9) 0.43884(13) 0.87040(3)
C8A C 1.29343(9) 0.43884(13) 0.87040(3)
C8B C 1.56116(13) 0.85459(9) 0.87040(3)
C8V C 1.56116(13) 0.70657(9) 0.87040(3)
C9U C 1.33344(16) 0.88215(13) 0.86131(4)
C9W C 1.11785(13) 0.45129(21) 0.86131(4)
C9A C 1.33344(16) 0.45129(21) 0.86131(4)
C9B C 1.54871(21) 0.88215(13) 0.86131(4)
C9V C 1.54871(21) 0.66656(16) 0.86131(4)
H4U H 1.3325 0.8791 0.8500
H4W H 1.1209 0.4534 0.8500
H4A H 1.3325 0.4534 0.8500
H4B H 1.5466 0.8791 0.8500
H4V H 1.5466 0.6675 0.8500
C10U C 1.37399(15) 0.91351(13) 0.86861(4)
C10W C 1.08649(13) 0.46048(20) 0.86861(4)
C10A C 1.37399(15) 0.46048(20) 0.86861(4)
C10B C 1.53952(20) 0.91351(13) 0.86861(4)
C10V C 1.53952(20) 0.62601(15) 0.86861(4)
H5U H 1.3994 0.9325 0.8622
H5W H 1.0675 0.4669 0.8622
H5A H 1.3994 0.4669 0.8622
H5B H 1.5331 0.9325 0.8622
H5V H 1.5331 0.6006 0.8622
C11U C 1.29697(15) 0.86067(12) 0.88743(4)
C11W C 1.13933(12) 0.43630(19) 0.88743(4)
C11A C 1.29697(15) 0.43630(19) 0.88743(4)
C11B C 1.56370(19) 0.86067(12) 0.88743(4)
C11V C 1.56370(19) 0.70303(15) 0.88743(4)
H6U H 1.2712 0.8438 0.8939
H6W H 1.1562 0.4274 0.8939
H6A H 1.2712 0.4274 0.8939
H6B H 1.5726 0.8438 0.8939
H6V H 1.5726 0.7288 0.8939
C12U C 1.33841(14) 0.89148(12) 0.89479(4)
C12W C 1.10852(12) 0.44693(18) 0.89479(4)
C12A C 1.33841(14) 0.44693(18) 0.89479(4)
C12B C 1.55307(18) 0.89148(12) 0.89479(4)
C12V C 1.55307(18) 0.66159(14) 0.89479(4)
H7U H 1.3397 0.8948 0.9061
H7W H 1.1052 0.4449 0.9061
H7A H 1.3397 0.4449 0.9061
H7B H 1.5551 0.8948 0.9061
H7V H 1.5551 0.6603 0.9061
C13U C 1.37687(8) 0.91673(9) 0.88588(3)
C13W C 1.08327(9) 0.46014(12) 0.88588(3)
C13A C 1.37687(8) 0.46014(12) 0.88588(3)
C13B C 1.53986(12) 0.91673(9) 0.88588(3)
C13V C 1.53986(12) 0.62313(8) 0.88588(3)
C14U C 1.42194(8) 0.94893(8) 0.89364(3)
C14W C 1.05107(8) 0.47301(11) 0.89364(3)
C14A C 1.42194(8) 0.47301(11) 0.89364(3)
C14B C 1.52699(11) 0.94893(8) 0.89364(3)
C14V C 1.52699(11) 0.57806(8) 0.89364(3)
C15U C 1.25073(9) 0.82171(9) 0.86236(3)
C15W C 1.17829(9) 0.42902(13) 0.86236(3)
C15A C 1.25073(9) 0.42902(13) 0.86236(3)
C15B C 1.57098(13) 0.82171(9) 0.86236(3)
C15V C 1.57098(13) 0.74927(9) 0.86236(3)
C16A C 1.21842(6) 0.43684(8) 0.87019(4)
C16B C 1.56316(8) 0.78158(6) 0.87019(4)
H8A H 1.2238 0.4476 0.8809
H8B H 1.5524 0.7762 0.8809
O4U O 0.86227(6) 0.20387(6) 1.04899(2)
O4W O 0.79613(6) 0.65840(8) 1.04899(2)
O4A O 0.86227(6) 0.65840(8) 1.04899(2)
O4L O 1.12946(6) 0.80440(6) 0.71566(2)
O4AA O 1.19560(6) 0.87054(6) 0.71566(2)
O4CA O 1.12946(6) 0.32507(8) 0.71566(2)
O4M O 1.19560(6) 0.32507(8) 0.71566(2)
C17A C 0.82718(6) 0.65436(8) 1.04222(4)
C17L C 1.16051(6) 0.83949(6) 0.70889(4)
C18A C 0.82098(7) 0.64196(10) 1.02430(4)
C18L C 1.15431(7) 0.84569(7) 0.69097(4)
C19U C 0.78536(18) 0.14895(16) 1.01616(5)
C19W C 0.85105(16) 0.63641(24) 1.01616(5)
C19A C 0.78536(18) 0.63641(24) 1.01616(5)
C19L C 1.18438(16) 0.88131(18) 0.68283(5)
C19AA C 1.11869(18) 0.81562(16) 0.68283(5)
H9U H 0.7638 0.1224 1.0215
H9W H 0.8776 0.6414 1.0215
H9A H 0.7638 0.6414 1.0215
H9L H 1.2109 0.9029 0.6882
H9AA H 1.0971 0.7891 0.6882
C20U C 0.77849(16) 0.15553(19) 0.99944(5)
C20W C 0.84447(19) 0.62296(25) 0.99944(5)
C20A C 0.77849(16) 0.62296(25) 0.99944(5)
C20L C 1.17780(19) 0.88818(16) 0.66611(5)
C20AA C 1.11182(16) 0.82220(19) 0.66611(5)
H10U H 0.7530 0.1326 0.9940
H10W H 0.8674 0.6204 0.9940
H10A H 0.7530 0.6204 0.9940
H10L H 1.2007 0.9137 0.6607
H10AA H 1.0863 0.7993 0.6607
C21A C 0.80698(8) 0.61396(11) 0.99132(4)
C21L C 1.14031(8) 0.85969(8) 0.65799(4)
C22A C 0.79819(8) 0.59638(11) 0.97422(5)
C22L C 1.13152(8) 0.86848(8) 0.64089(5)
C23U C 0.75810(10) 0.17102(10) 0.96627(3)
C23W C 0.82898(10) 0.58708(14) 0.96627(3)
C23A C 0.75810(10) 0.58708(14) 0.96627(3)
C23L C 1.16231(10) 0.90857(10) 0.63294(3)
C23AA C 1.09143(10) 0.83769(10) 0.63294(3)
H11U H 0.7373 0.1440 0.9716
H11W H 0.8560 0.5933 0.9716
H11A H 0.7373 0.5933 0.9716
H11L H 1.1893 0.9294 0.6383
H11AA H 1.0706 0.8107 0.6383
C24U C 0.74811(10) 0.17980(10) 0.95043(3)
C24W C 0.82020(10) 0.56831(14) 0.95043(3)
C24A C 0.74811(10) 0.56831(14) 0.95043(3)
C24L C 1.15353(10) 0.91856(10) 0.61710(3)
C24AA C 1.08144(10) 0.84647(10) 0.61710(3)
C25A C 0.77954(9) 0.55908(13) 0.94296(5)
C25L C 1.11287(9) 0.88713(9) 0.60963(5)
H12A H 0.7731 0.5462 0.9326
H12L H 1.1064 0.8936 0.5993
C26U C 0.70417(11) 0.14672(9) 0.94221(3)
C26W C 0.85328(9) 0.55745(14) 0.94221(3)
C26A C 0.70417(11) 0.55745(14) 0.94221(3)
C26L C 1.18661(9) 0.96250(11) 0.60888(3)
C26AA C 1.03750(11) 0.81339(9) 0.60888(3)
C27U C 0.66705(19) 0.11486(13) 0.95089(4)
C27W C 0.88514(13) 0.55219(23) 0.95089(4)
C27A C 0.66705(19) 0.55219(23) 0.95089(4)
C27L C 1.21847(13) 0.99962(19) 0.61756(4)
C27AA C 1.00038(19) 0.78153(13) 0.61756(4)
H13U H 0.6692 0.1137 0.9623
H13W H 0.8863 0.5555 0.9623
H13A H 0.6692 0.5555 0.9623
H13L H 1.2196 0.9975 0.6290
H13AA H 1.0025 0.7804 0.6290
C28U C 0.62676(18) 0.08461(12) 0.94334(4)
C28W C 0.91539(12) 0.54215(22) 0.94334(4)
C28A C 0.62676(18) 0.54215(22) 0.94334(4)
C28L C 1.24872(12) 1.03991(18) 0.61001(4)
C28AA C 0.96009(18) 0.75128(12) 0.61001(4)
H14U H 0.6026 0.0629 0.9497
H14W H 0.9371 0.5397 0.9497
H14A H 0.6026 0.5397 0.9497
H14L H 1.2704 1.0641 0.6164
H14AA H 0.9359 0.7296 0.6164
C29U C 0.62118(9) 0.08562(10) 0.92683(3)
C29W C 0.91438(10) 0.53556(13) 0.92683(3)
C29A C 0.62118(9) 0.53556(13) 0.92683(3)
C29L C 1.24771(10) 1.04549(9) 0.59350(3)
C29AA C 0.95451(9) 0.75229(10) 0.59350(3)
C30U C 0.65723(14) 0.11805(11) 0.91799(4)
C30W C 0.88195(11) 0.53918(18) 0.91799(4)
C30A C 0.65723(14) 0.53918(18) 0.91799(4)
C30L C 1.21528(11) 1.00944(14) 0.58466(4)
C30AA C 0.99056(14) 0.78472(11) 0.58466(4)
H15U H 0.6540 0.1200 0.9068
H15W H 0.8800 0.5340 0.9068
H15A H 0.6540 0.5340 0.9068
H15L H 1.2133 1.0127 0.5735
H15AA H 0.9873 0.7867 0.5735
C31U C 0.69846(16) 0.14811(12) 0.92542(4)
C31W C 0.85189(12) 0.55035(20) 0.92542(4)
C31A C 0.69846(16) 0.55035(20) 0.92542(4)
C31L C 1.18522(12) 0.96821(16) 0.59209(4)
C31AA C 1.03179(16) 0.81478(12) 0.59209(4)
H16U H 0.7226 0.1695 0.9191
H16W H 0.8305 0.5531 0.9191
H16A H 0.7226 0.5531 0.9191
H16L H 1.1638 0.9441 0.5858
H16AA H 1.0559 0.8362 0.5858
C32U C 0.57736(9) 0.05254(8) 0.91880(3)
C32W C 0.94746(8) 0.52482(12) 0.91880(3)
C32A C 0.57736(9) 0.52482(12) 0.91880(3)
C32L C 1.28079(8) 1.08931(9) 0.58547(3)
C32AA C 0.91069(9) 0.71921(8) 0.58547(3)
O5U O 0.57155(7) 0.06125(6) 0.90409(2)
O5W O 0.93875(6) 0.51030(9) 0.90409(2)
O5A O 0.57155(7) 0.51030(9) 0.90409(2)
O5L O 1.27208(6) 1.09512(7) 0.57076(2)
O5AA O 0.90488(7) 0.72792(6) 0.57076(2)
O5U_2 O 1.57155(7) 1.06125(6) 0.90409(2)
O5B O 1.48970(9) 1.06125(6) 0.90409(2)
O5A_2 O 1.57155(7) 0.51030(9) 0.90409(2)
O5V O 1.48970(9) 0.42845(7) 0.90409(2)
O6U O 0.54985(6) 0.01914(8) 0.92694(2)
O6W O 0.98086(8) 0.53071(10) 0.92694(2)
O6A O 0.54985(6) 0.53071(10) 0.92694(2)
O6L O 1.31419(8) 1.11682(6) 0.59361(2)
O6AA O 0.88318(6) 0.68581(8) 0.59361(2)
O6U_2 O 1.54985(6) 1.01914(8) 0.92694(2)
O6B O 1.46929(10) 1.01914(8) 0.92694(2)
O6A_2 O 1.54985(6) 0.53071(10) 0.92694(2)
O6V O 1.46929(10) 0.45015(6) 0.92694(2)
O7U O 1.23317(6) 0.83291(6) 0.73645(3)
O7B O 1.59974(8) 0.83291(6) 0.73645(3)
O7V O 1.59974(8) 0.76683(6) 0.73645(3)
O7A O 1.23317(6) 0.40026(8) 0.73645(3)
O7W O 1.16709(6) 0.40026(8) 0.73645(3)
O7F O 0.83376(6) 0.10016(6) 1.06978(3)
O7GA O 0.89984(6) 0.16624(6) 1.06978(3)
C33B C 1.58020(7) 0.79010(5) 0.73569(4)
C33A C 1.20990(5) 0.41980(7) 0.73569(4)
C34B C 1.52882(8) 0.76441(6) 0.73444(5)
C34A C 1.23559(6) 0.47118(8) 0.73444(5)
C35U C 1.21434(11) 0.71892(11) 0.73372(9)
C35B C 1.50458(16) 0.71892(11) 0.73372(9)
C35V C 1.50458(16) 0.78566(11) 0.73372(9)
C35A C 1.21434(11) 0.49542(16) 0.73372(9)
C35W C 1.28108(11) 0.49542(16) 0.73372(9)
H17U H 1.1824 0.7026 0.7336
H17V H 1.5202 0.8176 0.7336
H17B H 1.5202 0.7026 0.7336
H17W H 1.2974 0.4798 0.7336
H17A H 1.1824 0.4798 0.7336
C36U C 1.23765(11) 0.69515(11) 0.73323(9)
C36B C 1.45750(16) 0.69515(11) 0.73323(9)
C36V C 1.45750(16) 0.76235(11) 0.73323(9)
C36A C 1.23765(11) 0.54250(16) 0.73323(9)
C36W C 1.30485(11) 0.54250(16) 0.73323(9)
H18U H 1.2210 0.6633 0.7331
H18V H 1.4423 0.7790 0.7331
H18B H 1.4423 0.6633 0.7331
H18W H 1.3367 0.5577 0.7331
H18A H 1.2210 0.5577 0.7331
C37B C 1.43272(8) 0.71636(6) 0.73296(6)
C37A C 1.28364(6) 0.56728(8) 0.73296(6)
C38B C 1.38126(7) 0.69063(5) 0.73242(6)
C38A C 1.30937(5) 0.61874(7) 0.73242(6)
C39B C 1.35680(13) 0.64320(11) 0.73233(6)
C39A C 1.28640(6) 0.64320(13) 0.73233(6)
H19A H 1.2545 0.6272 0.7322
H19B H 1.3728 0.6273 0.7322
O8U O 1.53325(7) 1.06651(7) 0.87057(4)
O8A O 1.53325(7) 0.46674(10) 0.87057(4)
C40B C 0.75278(7) 0.87639(5) 0.74224(4)
C40A C 1.12361(5) 1.24722(7) 0.74224(4)
C41B C 0.80394(7) 0.90197(5) 0.74252(4)
C41A C 1.09803(5) 1.19606(7) 0.74252(4)
C42V C 0.82869(15) 0.94866(11) 0.74237(6)
C42B C 0.82869(15) 0.88003(10) 0.74237(6)
C42W C 1.11997(10) 1.17131(15) 0.74237(6)
C42A C 1.05134(11) 1.17131(15) 0.74237(6)
C42U C 1.05134(11) 0.88003(10) 0.74237(6)
H20B H 0.8134 0.8482 0.7425
H20V H 0.8134 0.9652 0.7425
H20A H 1.0348 1.1866 0.7425
H20W H 1.1518 1.1866 0.7425
H20U H 1.0348 0.8482 0.7425
C43B C 0.90056(7) 0.95028(5) 0.74239(5)
C43A C 1.04972(5) 1.09944(7) 0.74239(5)
C44B C 0.95157(13) 0.97578(11) 0.74208(5)
C44A C 1.02421(6) 1.04843(13) 0.74208(5)
C45B C 0.97625(7) 1.02375(5) 0.74224(5)
C45A C 1.04750(5) 1.02375(7) 0.74224(5)
H21A H 1.0794 1.0397 0.7425
H21B H 0.9603 1.0397 0.7425
C46V C 0.87572(15) 0.97181(11) 0.74212(7)
C46B C 0.87572(15) 0.90391(10) 0.74212(7)
C46W C 1.09609(10) 1.12428(15) 0.74212(7)
C46A C 1.02819(11) 1.12428(15) 0.74212(7)
C46U C 1.02819(11) 0.90391(10) 0.74212(7)
H22B H 0.8913 0.8876 0.7418
H22V H 0.8913 1.0037 0.7418
H22A H 0.9963 1.1087 0.7418
H22W H 1.1124 1.1087 0.7418
H22U H 0.9963 0.8876 0.7418
O9B O 0.73306(8) 0.89966(6) 0.74193(2)
O9V O 0.73306(8) 0.83340(6) 0.74193(2)
O9A O 1.16660(6) 1.26694(8) 0.74193(2)
O9W O 1.10034(6) 1.26694(8) 0.74193(2)
O9U O 1.16660(6) 0.89966(6) 0.74193(2)
O9W_2 O 1.10034(6) 0.26694(8) 0.74193(2)
O9A_2 O 1.16660(6) 0.26694(8) 0.74193(2)
O9F O 0.76701(6) 0.16673(6) 1.07526(2)
O9GA O 0.83327(6) 0.23299(6) 1.07526(2)
N1U N 1.27004(8) 0.93464(7) 0.74011(3)
N1W N 1.06536(7) 0.33540(11) 0.74011(3)
N1A N 1.27004(8) 0.33540(11) 0.74011(3)
N1F N 0.73203(7) 0.06329(8) 1.07344(3)
N1GA N 0.93671(8) 0.26797(7) 1.07344(3)
C47U C 1.35443(14) 1.01055(14) 0.74360(3)
C47W C 0.98945(14) 0.34388(20) 0.74360(3)
C47A C 1.35443(14) 0.34388(20) 0.74360(3)
C47F C 0.65612(14) -0.02110(14) 1.07693(3)
C47GA C 1.02110(14) 0.34388(14) 1.07693(3)
H23U H 1.3830 1.0368 0.7448
H23W H 0.9632 0.3462 0.7448
H23A H 1.3830 0.3462 0.7448
H23F H 0.6299 -0.0497 1.0781
H23GA H 1.0497 0.3701 1.0781
C48U C 1.28337(14) 0.95247(14) 0.75540(3)
C48W C 1.04753(14) 0.33090(20) 0.75540(3)
C48A C 1.28337(14) 0.33090(20) 0.75540(3)
C48F C 0.71420(14) 0.04996(14) 1.08873(3)
C48GA C 0.95004(14) 0.28580(14) 1.08873(3)
H24U H 1.2644 0.9389 0.7644
H24W H 1.0611 0.3255 0.7644
H24A H 1.2644 0.3255 0.7644
H24F H 0.7278 0.0689 1.0977
H24GA H 0.9311 0.2722 1.0977
C49U C 1.32608(14) 0.99164(14) 0.75716(3)
C49W C 1.00836(14) 0.33444(20) 0.75716(3)
C49A C 1.32608(14) 0.33444(20) 0.75716(3)
C49F C 0.67503(14) 0.00725(14) 1.09049(3)
C49GA C 0.99275(14) 0.32497(14) 1.09049(3)
H25U H 1.3357 1.0052 0.7674
H25W H 0.9948 0.3305 0.7674
H25A H 1.3357 0.3305 0.7674
H25F H 0.6615 -0.0024 1.1007
H25GA H 1.0024 0.3385 1.1007
C50U C 1.34008(14) 0.99029(14) 0.72828(3)
C50W C 1.00971(14) 0.34979(20) 0.72828(3)
C50A C 1.34008(14) 0.34979(20) 0.72828(3)
C50F C 0.67638(14) -0.00675(14) 1.06161(3)
C50GA C 1.00675(14) 0.32362(14) 1.06161(3)
H26U H 1.3590 1.0030 0.7192
H26W H 0.9970 0.3560 0.7192
H26A H 1.3590 0.3560 0.7192
H26F H 0.6637 -0.0257 1.0525
H26GA H 1.0257 0.3363 1.0525
C51U C 1.29736(14) 0.95112(14) 0.72651(3)
C51W C 1.04888(14) 0.34624(20) 0.72651(3)
C51A C 1.29736(14) 0.34624(20) 0.72651(3)
C51F C 0.71555(14) 0.03597(14) 1.05984(3)
C51GA C 0.96403(14) 0.28445(14) 1.05984(3)
H27U H 1.2876 0.9366 0.7164
H27W H 1.0634 0.3510 0.7164
H27A H 1.2876 0.3510 0.7164
H27F H 0.7301 0.0457 1.0497
H27GA H 0.9543 0.2699 1.0497
N2U N 1.46633(14) 0.93259(14) 0.94074(3)
N2A N 1.46633(14) 0.53374(20) 0.94074(3)
C52U C 1.47513(14) 0.95019(14) 0.95554(3)
C52A C 1.47513(14) 0.52494(20) 0.95554(3)
H28U H 1.4908 0.9817 0.9574
H28A H 1.4908 0.5091 0.9574
C53U C 1.45723(14) 0.91439(14) 0.96994(3)
C53A C 1.45723(14) 0.54284(20) 0.96994(3)
H29B H 1.4630 0.9260 0.9806
H29A H 1.4630 0.5370 0.9806
C54U C 1.44133(14) 0.88259(14) 0.96874(3)
C54A C 1.44133(14) 0.55874(20) 0.96874(3)
H30U H 1.4325 0.8652 0.9783
H30A H 1.4325 0.5673 0.9783
C55U C 1.42944(14) 0.85864(14) 0.95377(3)
C55A C 1.42944(14) 0.57080(20) 0.95377(3)
H31U H 1.4136 0.8268 0.9529
H31A H 1.4136 0.5868 0.9529
C56U C 1.44483(14) 0.88959(14) 0.93964(3)
C56A C 1.44483(14) 0.55524(20) 0.93964(3)
H32U H 1.4383 0.8767 0.9292
H32A H 1.4383 0.5616 0.9292
C57? C 0.7673(4) 0.0157(4) 1.20008(16)
H33? H 0.7569 0.0259 1.1913
C58? C 0.7368(5) -0.0216(5) 1.20800(17)
H34? H 0.7057 -0.0332 1.2059
C59? C 0.7954(5) -0.0181(5) 1.22468(17)
H35? H 0.8044 -0.0285 1.2337
C60? C 0.8283(4) 0.0230(4) 1.21683(15)
H36? H 0.8589 0.0384 1.2200
C61? C 0.73100(14) 0.02294(14) 1.07436(3)
C62? C 0.69500(14) -0.01716(14) 1.07806(3)
C63? C 0.69150(14) 0.06064(14) 1.06996(3)
C64? C 0.65280(14) 0.01594(14) 1.07296(3)
H37? H 0.7583 0.0233 1.0722
H38? H 0.6985 -0.0417 1.0814
H39? H 0.6890 0.0852 1.0660
H40? H 0.6236 0.0124 1.0721
loop_
_geom_bond_atom_site_label_1
_geom_bond_atom_site_label_2
_geom_bond_site_symmetry_1
_geom_bond_site_symmetry_2
Cu1 O2 1_555 1_555
Cu2 O1 1_555 1_555
Cu3 O3 1_555 1_555
O1 C1 1_555 1_555
O2 C14 1_555 1_555
O3 C14 1_555 1_555
C1 C2 1_555 1_555
C2 C3 1_555 1_555
C3 H1 1_555 1_555
C4 C3 1_555 1_555
H2 C4 1_555 1_555
C5 C4 1_555 1_555
C6 C5 1_555 1_555
C7 C6 1_555 1_555
H3 C7 1_555 1_555
C8 C9 1_555 1_555
C9 H4 1_555 1_555
C10 C9 1_555 1_555
H5 C10 1_555 1_555
C11 C8 1_555 1_555
H6 C11 1_555 1_555
C12 C11 1_555 1_555
H7 C12 1_555 1_555
C13 C10 1_555 1_555
C14 C13 1_555 1_555
C15 C7 1_555 1_555
C16 C15 1_555 1_555
H8 C16 1_555 1_555
O4 C17 1_555 1_555
C17 C18 1_555 1_555
C18 C19 1_555 1_555
C19 H9 1_555 1_555
C20 C19 1_555 1_555
H10 C20 1_555 1_555
C21 C20 1_555 1_555
C22 C21 1_555 1_555
C23 C22 1_555 1_555
H11 C23 1_555 1_555
C24 C23 1_555 1_555
C25 C24 1_555 1_555
H12 C25 1_555 1_555
C26 C24 1_555 1_555
C27 C26 1_555 1_555
H13 C27 1_555 1_555
C28 C27 1_555 1_555
H14 C28 1_555 1_555
C29 C28 1_555 1_555
C30 C29 1_555 1_555
H15 C30 1_555 1_555
C31 C26 1_555 1_555
H16 C31 1_555 1_555
C32 C29 1_555 1_555
O5 Cu3 1_555 1_555
O6 Cu1 1_555 1_555
O7 Cu2 1_555 1_555
C33 O7 1_555 1_555
C34 C33 1_555 1_555
C35 C34 1_555 1_555
H17 C35 1_555 1_555
C36 C35 1_555 1_555
H18 C36 1_555 1_555
C37 C36 1_555 1_555
C38 C37 1_555 1_555
C39 C38 1_555 1_555
H19 C39 1_555 1_555
O8 Cu3 1_555 1_555
C40 C41 1_555 1_555
C41 C42 1_555 1_555
C42 H20 1_555 1_555
C43 C44 1_555 1_555
C44 C45 1_555 1_555
C45 H21 1_555 1_555
C46 C42 1_555 1_555
H22 C46 1_555 1_555
O9 Cu2 1_555 1_555
N1 Cu2 1_555 1_555
C47 H23 1_555 1_555
C48 N1 1_555 1_555
H24 C48 1_555 1_555
C49 C47 1_555 1_555
H25 C49 1_555 1_555
C50 C47 1_555 1_555
H26 C50 1_555 1_555
C51 N1 1_555 1_555
H27 C51 1_555 1_555
N2 Cu1 1_555 1_555
C52 N2 1_555 1_555
H28 C52 1_555 1_555
C53 C52 1_555 1_555
H29 C53 1_555 1_555
C54 C53 1_555 1_555
H30 C54 1_555 1_555
C55 C54 1_555 1_555
H31 C55 1_555 1_555
C56 N2 1_555 1_555
H32 C56 1_555 1_555
Cu1U O2U 1_555 1_555
Cu1A O2A 1_555 1_555
Cu1U_2 O6U 1_555 1_555
Cu1A_2 O6A 1_555 1_555
Cu1L O6L 1_555 1_555
Cu1AA O6AA 1_555 1_555
Cu2U O1U 1_555 1_555
Cu2W O1W 1_555 1_555
Cu2A O1A 1_555 1_555
Cu2F O4 1_555 1_555
Cu2GA O1GA 1_555 1_555
Cu2B O1B 1_555 1_555
Cu2V O1V 1_555 1_555
Cu2B_2 O9B 1_555 1_555
Cu2V_2 O9V 1_555 1_555
Cu2A_2 O9A 1_555 1_555
Cu2W_2 O9W 1_555 1_555
Cu2IA O4W 1_555 1_555
Cu2G O4A 1_555 1_555
Cu3U O3U 1_555 1_555
Cu3A O3A 1_555 1_555
Cu3U_2 O5U 1_555 1_555
Cu3A_2 O5A 1_555 1_555
Cu3L O5L 1_555 1_555
Cu3AA O5AA 1_555 1_555
O1U C1 1_555 1_555
O1W C1A 1_555 1_555
O1A C1A 1_555 1_555
O1B C1B 1_555 1_555
O1V C1B 1_555 1_555
O1F Cu2F 1_555 1_555
O2U C14U 1_555 1_555
O2W Cu1 1_555 1_555
O2A C14A 1_555 1_555
O2B Cu1U 1_555 1_555
O2V Cu1A 1_555 1_555
O3U C14U 1_555 1_555
O3W Cu3 1_555 1_555
O3A C14A 1_555 1_555
O3B Cu3U 1_555 1_555
O3V Cu3A 1_555 1_555
C1A C2A 1_555 1_555
C1B C2B 1_555 1_555
C2A C3W 1_555 1_555
C2B C3B 1_555 1_555
C3U C2 1_555 1_555
C3W H1W 1_555 1_555
C3A C2A 1_555 1_555
C3B H1B 1_555 1_555
C3V C2B 1_555 1_555
H1U C3U 1_555 1_555
H1A C3A 1_555 1_555
H1V C3V 1_555 1_555
C4U C5 1_555 1_555
C4W C3W 1_555 1_555
C4A C3A 1_555 1_555
C4B C3B 1_555 1_555
C4V C3V 1_555 1_555
H2U C4U 1_555 1_555
H2W C4W 1_555 1_555
H2A C4A 1_555 1_555
H2B C4B 1_555 1_555
H2V C4V 1_555 1_555
C5A C4W 1_555 1_555
C5B C4B 1_555 1_555
C6A C5A 1_555 1_555
C6B C5B 1_555 1_555
C7U C6 1_555 1_555
C7W C6A 1_555 1_555
C7A C6A 1_555 1_555
C7B C6B 1_555 1_555
C7V C6B 1_555 1_555
H3U C7U 1_555 1_555
H3W C7W 1_555 1_555
H3A C7A 1_555 1_555
H3B C7B 1_555 1_555
H3V C7V 1_555 1_555
C8U C9U 1_555 1_555
C8W C9W 1_555 1_555
C8A C9A 1_555 1_555
C8B C9B 1_555 1_555
C8V C9V 1_555 1_555
C9U H4U 1_555 1_555
C9W H4W 1_555 1_555
C9A H4A 1_555 1_555
C9B H4B 1_555 1_555
C9V H4V 1_555 1_555
C10U C9U 1_555 1_555
C10W C9W 1_555 1_555
C10A C9A 1_555 1_555
C10B C9B 1_555 1_555
C10V C9V 1_555 1_555
H5U C10U 1_555 1_555
H5W C10W 1_555 1_555
H5A C10A 1_555 1_555
H5B C10B 1_555 1_555
H5V C10V 1_555 1_555
C11U C8U 1_555 1_555
C11W C8W 1_555 1_555
C11A C8A 1_555 1_555
C11B C8B 1_555 1_555
C11V C8V 1_555 1_555
H6U C11U 1_555 1_555
H6W C11W 1_555 1_555
H6A C11A 1_555 1_555
H6B C11B 1_555 1_555
H6V C11V 1_555 1_555
C12U C11U 1_555 1_555
C12W C11W 1_555 1_555
C12A C11A 1_555 1_555
C12B C11B 1_555 1_555
C12V C11V 1_555 1_555
H7U C12U 1_555 1_555
H7W C12W 1_555 1_555
H7A C12A 1_555 1_555
H7B C12B 1_555 1_555
H7V C12V 1_555 1_555
C13U C10U 1_555 1_555
C13W C10W 1_555 1_555
C13A C10A 1_555 1_555
C13B C10B 1_555 1_555
C13V C10V 1_555 1_555
C14U C13U 1_555 1_555
C14W O2W 1_555 1_555
C14A C13A 1_555 1_555
C14B O2B 1_555 1_555
C14V O2V 1_555 1_555
C15U C16 1_555 1_555
C15W C7W 1_555 1_555
C15A C7A 1_555 1_555
C15B C7B 1_555 1_555
C15V C7V 1_555 1_555
C16A C15W 1_555 1_555
C16B C15B 1_555 1_555
H8A C16A 1_555 1_555
H8B C16B 1_555 1_555
O4U C17 1_555 1_555
O4W C17A 1_555 1_555
O4A C17A 1_555 1_555
O4L Cu2 1_555 1_555
O4AA Cu2U 1_555 1_555
O4CA Cu2W 1_555 1_555
O4M Cu2A 1_555 1_555
C17A C18A 1_555 1_555
C17L O4L 1_555 1_555
C18A C19W 1_555 1_555
C18L C17L 1_555 1_555
C19U C18 1_555 1_555
C19W H9W 1_555 1_555
C19A C18A 1_555 1_555
C19L C18L 1_555 1_555
C19AA C18L 1_555 1_555
H9U C19U 1_555 1_555
H9A C19A 1_555 1_555
H9L C19L 1_555 1_555
H9AA C19AA 1_555 1_555
C20U C21 1_555 1_555
C20W C19W 1_555 1_555
C20A C19A 1_555 1_555
C20L C19L 1_555 1_555
C20AA C19AA 1_555 1_555
H10U C20U 1_555 1_555
H10W C20W 1_555 1_555
H10A C20A 1_555 1_555
H10L C20L 1_555 1_555
H10AA C20AA 1_555 1_555
C21A C20W 1_555 1_555
C21L C20L 1_555 1_555
C22A C21A 1_555 1_555
C22L C21L 1_555 1_555
C23U C22 1_555 1_555
C23W C22A 1_555 1_555
C23A C22A 1_555 1_555
C23L C22L 1_555 1_555
C23AA C22L 1_555 1_555
H11U C23U 1_555 1_555
H11W C23W 1_555 1_555
H11A C23A 1_555 1_555
H11L C23L 1_555 1_555
H11AA C23AA 1_555 1_555
C24U C25 1_555 1_555
C24W C23W 1_555 1_555
C24A C23A 1_555 1_555
C24L C23L 1_555 1_555
C24AA C23AA 1_555 1_555
C25A C24W 1_555 1_555
C25L C24L 1_555 1_555
H12A C25A 1_555 1_555
H12L C25L 1_555 1_555
C26U C24U 1_555 1_555
C26W C24W 1_555 1_555
C26A C24A 1_555 1_555
C26L C24L 1_555 1_555
C26AA C24AA 1_555 1_555
C27U C26U 1_555 1_555
C27W C26W 1_555 1_555
C27A C26A 1_555 1_555
C27L C26L 1_555 1_555
C27AA C26AA 1_555 1_555
H13U C27U 1_555 1_555
H13W C27W 1_555 1_555
H13A C27A 1_555 1_555
H13L C27L 1_555 1_555
H13AA C27AA 1_555 1_555
C28U C27U 1_555 1_555
C28W C27W 1_555 1_555
C28A C27A 1_555 1_555
C28L C27L 1_555 1_555
C28AA C27AA 1_555 1_555
H14U C28U 1_555 1_555
H14W C28W 1_555 1_555
H14A C28A 1_555 1_555
H14L C28L 1_555 1_555
H14AA C28AA 1_555 1_555
C29U C28U 1_555 1_555
C29W C28W 1_555 1_555
C29A C28A 1_555 1_555
C29L C28L 1_555 1_555
C29AA C28AA 1_555 1_555
C30U C29U 1_555 1_555
C30W C29W 1_555 1_555
C30A C29A 1_555 1_555
C30L C29L 1_555 1_555
C30AA C29AA 1_555 1_555
H15U C30U 1_555 1_555
H15W C30W 1_555 1_555
H15A C30A 1_555 1_555
H15L C30L 1_555 1_555
H15AA C30AA 1_555 1_555
C31U C26U 1_555 1_555
C31W C26W 1_555 1_555
C31A C26A 1_555 1_555
C31L C26L 1_555 1_555
C31AA C26AA 1_555 1_555
H16U C31U 1_555 1_555
H16W C31W 1_555 1_555
H16A C31A 1_555 1_555
H16L C31L 1_555 1_555
H16AA C31AA 1_555 1_555
C32U C29U 1_555 1_555
C32W C29W 1_555 1_555
C32A C29A 1_555 1_555
C32L C29L 1_555 1_555
C32AA C29AA 1_555 1_555
O5U C32U 1_555 1_555
O5W Cu3 1_555 1_555
O5A C32A 1_555 1_555
O5L C32L 1_555 1_555
O5AA C32AA 1_555 1_555
O5U_2 Cu3U 1_555 1_555
O5B Cu3U 1_555 1_555
O5A_2 Cu3A 1_555 1_555
O5V Cu3A 1_555 1_555
O6U C32U 1_555 1_555
O6W Cu1 1_555 1_555
O6A C32A 1_555 1_555
O6L C32L 1_555 1_555
O6AA C32AA 1_555 1_555
O6U_2 Cu1U 1_555 1_555
O6B Cu1U 1_555 1_555
O6A_2 Cu1A 1_555 1_555
O6V Cu1A 1_555 1_555
O7U C33 1_555 1_555
O7B Cu2B 1_555 1_555
O7V Cu2V 1_555 1_555
O7A Cu2A 1_555 1_555
O7W Cu2W 1_555 1_555
O7F Cu2F 1_555 1_555
O7GA Cu2GA 1_555 1_555
C33B O7B 1_555 1_555
C33A O7A 1_555 1_555
C34B C33B 1_555 1_555
C34A C33A 1_555 1_555
C35U C34 1_555 1_555
C35B C34B 1_555 1_555
C35V C34B 1_555 1_555
C35A C34A 1_555 1_555
C35W C34A 1_555 1_555
H17U C35U 1_555 1_555
H17V C35V 1_555 1_555
H17B C35B 1_555 1_555
H17W C35W 1_555 1_555
H17A C35A 1_555 1_555
C36U C37 1_555 1_555
C36B C35B 1_555 1_555
C36V C35V 1_555 1_555
C36A C35A 1_555 1_555
C36W C35W 1_555 1_555
H18U C36U 1_555 1_555
H18V C36V 1_555 1_555
H18B C36B 1_555 1_555
H18W C36W 1_555 1_555
H18A C36A 1_555 1_555
C37B C36B 1_555 1_555
C37A C36A 1_555 1_555
C38B C39 1_555 1_555
C38A C37A 1_555 1_555
C39B C38B 1_555 1_555
C39A C38 1_555 1_555
H19A C39A 1_555 1_555
H19B C39B 1_555 1_555
O8U Cu3U 1_555 1_555
O8A Cu3A 1_555 1_555
C40B C41B 1_555 1_555
C40A C41A 1_555 1_555
C41B C42V 1_555 1_555
C41A C42W 1_555 1_555
C42V H20V 1_555 1_555
C42B C41B 1_555 1_555
C42W H20W 1_555 1_555
C42A C41A 1_555 1_555
C42U C41 1_555 1_555
H20B C42B 1_555 1_555
H20A C42A 1_555 1_555
H20U C42U 1_555 1_555
C43B C44B 1_555 1_555
C43A C44A 1_555 1_555
C44B C45 1_555 1_555
C44A C45B 1_555 1_555
C45B C44B 1_555 1_555
C45A C44 1_555 1_555
H21A C45A 1_555 1_555
H21B C45B 1_555 1_555
C46V C42V 1_555 1_555
C46B C42B 1_555 1_555
C46W C42W 1_555 1_555
C46A C42A 1_555 1_555
C46U C43 1_555 1_555
H22B C46B 1_555 1_555
H22V C46V 1_555 1_555
H22A C46A 1_555 1_555
H22W C46W 1_555 1_555
H22U C46U 1_555 1_555
O9B C40B 1_555 1_555
O9V C40B 1_555 1_555
O9A C40A 1_555 1_555
O9W C40A 1_555 1_555
O9U C40 1_555 1_555
O9W_2 Cu2W 1_555 1_555
O9A_2 Cu2A 1_555 1_555
O9F Cu2F 1_555 1_555
O9GA Cu2GA 1_555 1_555
N1U Cu2U 1_555 1_555
N1W Cu2W 1_555 1_555
N1A Cu2A 1_555 1_555
N1F Cu2F 1_555 1_555
N1GA Cu2GA 1_555 1_555
C47U H23U 1_555 1_555
C47W H23W 1_555 1_555
C47A H23A 1_555 1_555
C47F H23F 1_555 1_555
C47GA H23GA 1_555 1_555
C48U N1U 1_555 1_555
C48W N1W 1_555 1_555
C48A N1A 1_555 1_555
C48F N1F 1_555 1_555
C48GA N1GA 1_555 1_555
H24U C48U 1_555 1_555
H24W C48W 1_555 1_555
H24A C48A 1_555 1_555
H24F C48F 1_555 1_555
H24GA C48GA 1_555 1_555
C49U C47U 1_555 1_555
C49W C47W 1_555 1_555
C49A C47A 1_555 1_555
C49F C47F 1_555 1_555
C49GA C47GA 1_555 1_555
H25U C49U 1_555 1_555
H25W C49W 1_555 1_555
H25A C49A 1_555 1_555
H25F C49F 1_555 1_555
H25GA C49GA 1_555 1_555
C50U C47U 1_555 1_555
C50W C47W 1_555 1_555
C50A C47A 1_555 1_555
C50F C47F 1_555 1_555
C50GA C47GA 1_555 1_555
H26U C50U 1_555 1_555
H26W C50W 1_555 1_555
H26A C50A 1_555 1_555
H26F C50F 1_555 1_555
H26GA C50GA 1_555 1_555
C51U N1U 1_555 1_555
C51W N1W 1_555 1_555
C51A N1A 1_555 1_555
C51F N1F 1_555 1_555
C51GA N1GA 1_555 1_555
H27U C51U 1_555 1_555
H27W C51W 1_555 1_555
H27A C51A 1_555 1_555
H27F C51F 1_555 1_555
H27GA C51GA 1_555 1_555
N2U Cu1U 1_555 1_555
N2A Cu1A 1_555 1_555
C52U N2U 1_555 1_555
C52A N2A 1_555 1_555
H28U C52U 1_555 1_555
H28A C52A 1_555 1_555
C53U C52U 1_555 1_555
C53A C52A 1_555 1_555
H29B C53U 1_555 1_555
H29A C53A 1_555 1_555
C54U C53U 1_555 1_555
C54A C53A 1_555 1_555
H30U C54U 1_555 1_555
H30A C54A 1_555 1_555
C55U C54U 1_555 1_555
C55A C54A 1_555 1_555
H31U C55U 1_555 1_555
H31A C55A 1_555 1_555
C56U N2U 1_555 1_555
C56A N2A 1_555 1_555
H32U C56U 1_555 1_555
H32A C56A 1_555 1_555
C8 C15 1_555 1_555
C12 C13 1_555 1_555
C30 C31 1_555 1_555
C32 O5 1_555 1_555
C32 O6 1_555 1_555
C40 O9 1_555 1_555
C43 C46 1_555 1_555
C48 C49 1_555 1_555
C50 C51 1_555 1_555
C55 C56 1_555 1_555
Cu2U O7U 1_555 1_555
Cu2U O9U 1_555 1_555
Cu2GA O4U 1_555 1_555
O3W C14W 1_555 1_555
O3B C14B 1_555 1_555
O3V C14V 1_555 1_555
C3U C4U 1_555 1_555
C4A C5A 1_555 1_555
C4V C5B 1_555 1_555
C7U C15U 1_555 1_555
C8U C15U 1_555 1_555
C8W C15W 1_555 1_555
C8A C15A 1_555 1_555
C8B C15B 1_555 1_555
C8V C15V 1_555 1_555
C12U C13U 1_555 1_555
C12W C13W 1_555 1_555
C12A C13A 1_555 1_555
C12B C13B 1_555 1_555
C12V C13V 1_555 1_555
C13W C14W 1_555 1_555
C13B C14B 1_555 1_555
C13V C14V 1_555 1_555
C15A C16A 1_555 1_555
C15V C16B 1_555 1_555
O4AA C17L 1_555 1_555
C19U C20U 1_555 1_555
C20A C21A 1_555 1_555
C20AA C21L 1_555 1_555
C23U C24U 1_555 1_555
C24A C25A 1_555 1_555
C24AA C25L 1_555 1_555
C30U C31U 1_555 1_555
C30W C31W 1_555 1_555
C30A C31A 1_555 1_555
C30L C31L 1_555 1_555
C30AA C31AA 1_555 1_555
C32W O5W 1_555 1_555
C32W O6W 1_555 1_555
O7V C33B 1_555 1_555
O7W C33A 1_555 1_555
C35U C36U 1_555 1_555
C36V C37B 1_555 1_555
C36W C37A 1_555 1_555
C37B C38B 1_555 1_555
C38A C39B 1_555 1_555
C38A C39A 1_555 1_555
C42U C46U 1_555 1_555
C43B C46V 1_555 1_555
C43B C46B 1_555 1_555
C43A C46W 1_555 1_555
C43A C46A 1_555 1_555
C44A C45A 1_555 1_555
C48U C49U 1_555 1_555
C48W C49W 1_555 1_555
C48A C49A 1_555 1_555
C48F C49F 1_555 1_555
C48GA C49GA 1_555 1_555
C50U C51U 1_555 1_555
C50W C51W 1_555 1_555
C50A C51A 1_555 1_555
C50F C51F 1_555 1_555
C50GA C51GA 1_555 1_555
C55U C56U 1_555 1_555
C55A C56A 1_555 1_555

#END
