
#######################################################################
#
#                 Cambridge Crystallographic Data Centre
#                                CCDC 
#
#######################################################################
#
# If this CIF has been generated from an entry in the Cambridge 
# Structural Database, then it will include bibliographic, chemical, 
# crystal, experimental, refinement or atomic coordinate data resulting 
# from the CCDC's data processing and validation procedures.
#
#######################################################################

data_IZUNAT
_chemical_formula_moiety         '(C9 H11 Cu1 N5 O2)n,1.5n(H2 O1)'
_chemical_name_systematic        
'catena-((\m~3~-adeninato)-bis(\m~2~-butanoato)-copper(ii) sesquihydrate)'
_symmetry_cell_setting           tetragonal
_symmetry_space_group_name_H-M   'I 41/a'
_symmetry_Int_Tables_number      88
_space_group_name_Hall           '-I 4ad'
loop_
_symmetry_equiv_pos_site_id
_symmetry_equiv_pos_as_xyz
1 x,y,z
2 -x,1/2-y,z
3 3/4-y,1/4+x,1/4+z
4 1/4+y,1/4-x,1/4+z
5 1/2+x,1/2+y,1/2+z
6 1/2-x,-y,1/2+z
7 1/4-y,3/4+x,3/4+z
8 3/4+y,3/4-x,3/4+z
9 -x,-y,-z
10 x,1/2+y,-z
11 1/4+y,3/4-x,3/4-z
12 3/4-y,3/4+x,3/4-z
13 1/2-x,1/2-y,1/2-z
14 1/2+x,y,1/2-z
15 3/4+y,1/4-x,1/4-z
16 1/4-y,1/4+x,1/4-z
_cell_length_a                   15.348(5)
_cell_length_b                   15.348(5)
_cell_length_c                   22.702(5)
_cell_angle_alpha                90
_cell_angle_beta                 90
_cell_angle_gamma                90
_cell_volume                     5347.71
_exptl_crystal_colour            'dark green'
_exptl_crystal_description       octahedral
_cell_formula_units_Z            16
loop_
_atom_site_label
_atom_site_type_symbol
_atom_site_fract_x
_atom_site_fract_y
_atom_site_fract_z
_atom_site_U_iso_or_equiv
_atom_site_thermal_displace_type
Cu1 Cu 0.96224(8) 0.01813(8) 0.55612(5) 0.0335 Uani
N1 N 0.7223(6) -0.1166(6) 0.5341(4) 0.0627 Uani
C1 C 0.7885(7) -0.0702(6) 0.5562(5) 0.0497 Uani
H1 H 0.7825 -0.0488 0.5943 0.0600 Uiso
N2 N 0.8642(5) -0.0518(5) 0.5272(4) 0.0333 Uani
C2 C 0.8636(7) -0.0831(7) 0.4722(6) 0.0433 Uani
C3 C 0.7926(9) -0.1347(8) 0.4420(6) 0.0670 Uani
C4 C 0.7283(9) -0.1480(8) 0.4752(6) 0.0710 Uani
N3 N 0.6562(5) -0.1970(6) 0.4496(4) 0.0760 Uani
H2 H 0.6592 -0.2149 0.4138 0.0910 Uiso
H3 H 0.6106 -0.2080 0.4704 0.0910 Uiso
N4 N 0.8169(7) -0.1548(6) 0.3857(4) 0.0463 Uani
C5 C 0.8988(9) -0.1177(7) 0.3847(5) 0.0513 Uani
H4 H 0.9331 -0.1207 0.3510 0.0620 Uiso
N5 N 0.9280(5) -0.0769(5) 0.4332(4) 0.0387 Uani
C6 C 0.9313(6) 0.1329(6) 0.4530(4) 0.0300 Uiso
O1 O 0.9187(4) 0.1156(4) 0.5059(3) 0.0342 Uiso
O2 O 0.9794(4) 0.0920(4) 0.4184(3) 0.0410 Uiso
C7 C 0.8793(6) 0.2094(6) 0.4263(4) 0.0390 Uiso
H5 H 0.8235 0.2104 0.4463 0.0470 Uiso
H6 H 0.9095 0.2623 0.4377 0.0470 Uiso
C8 C 0.8612(12) 0.2171(12) 0.3647(7) 0.0540 Uiso
H7 H 0.9159 0.2253 0.3441 0.0640 Uiso
H8 H 0.8264 0.2691 0.3586 0.0640 Uiso
C9 C 0.8158(13) 0.1438(13) 0.3382(8) 0.0770 Uiso
H9 H 0.7544 0.1489 0.3457 0.1160 Uiso
H10 H 0.8371 0.0904 0.3549 0.1160 Uiso
H11 H 0.8259 0.1436 0.2965 0.1160 Uiso
Cu1G Cu 0.76813(8) -0.21224(8) 0.30612(5) 0.0335 Uani
Cu1H Cu 1.03776(8) -0.01813(8) 0.44388(5) 0.0335 Uani
N4B N 0.9048(6) 0.0669(7) 0.6357(4) 0.0463 Uani
N5H N 1.0720(5) 0.0769(5) 0.5668(4) 0.0387 Uani
O2H O 1.0206(4) -0.0920(4) 0.5816(3) 0.0410 Uiso
O3 O 1.3765(11) 0.1808(12) 0.3659(7) 0.0930 Uiso
O4 O 1.063(3) 0.272(2) 0.2483(15) 0.1210 Uiso
C10? C 0.8000(17) 0.1652(17) 0.3923(11) 0.0710 Uiso
C11? C 0.7366(16) 0.1328(16) 0.4370(11) 0.0900 Uiso
H12? H 0.7722 0.2074 0.3667 0.0850 Uiso
H13? H 0.8209 0.1173 0.3683 0.0850 Uiso
H14? H 0.7296 0.1756 0.4675 0.1350 Uiso
H15? H 0.7579 0.0796 0.4539 0.1350 Uiso
H16? H 0.6814 0.1222 0.4185 0.1350 Uiso
O5? O 1.4069(12) 0.1981(12) 0.3988(7) 0.0980 Uiso
O6? O 1.0000 0.2500 0.2265(12) 0.1180 Uiso
loop_
_atom_site_aniso_label
_atom_site_aniso_U_11
_atom_site_aniso_U_22
_atom_site_aniso_U_33
_atom_site_aniso_U_23
_atom_site_aniso_U_13
_atom_site_aniso_U_12
Cu1 0.0320(9) 0.0294(9) 0.0390(6) -0.0059(8) 0.0008(8) 0.0021(7)
N1 0.052 0.09 0.046 -0.007 0.005 0.018
C1 0.035 0.05 0.064 0.005 -0.004 -0.011
N2 0.026 0.025 0.049 0.011 0.023 0.005
C2 0.036 0.04 0.054 -0.005 -0.016 -0.012
C3 0.068 0.063 0.07 0.03 0.016 0.017
C4 0.068 0.061 0.084 0.037 0.008 0.033
N3 0.05 0.088 0.09 -0.019 -0.028 -0.032
N4 0.051 0.057 0.031 -0.005 -0.004 -0.008
C5 0.069 0.04 0.045 -0.004 -0.018 0.015
N5 0.044 0.047 0.025 -0.011 -0.008 0.018
Cu1G 0.0294 0.032 0.039 -0.0008 -0.0059 -0.0021
Cu1H 0.032 0.0294 0.039 -0.0059 0.0008 0.0021
N4B 0.057 0.051 0.031 -0.004 0.005 0.008
N5H 0.044(6) 0.047(6) 0.025(6) -0.011(5) -0.008(5) 0.018(5)
loop_
_geom_bond_atom_site_label_1
_geom_bond_atom_site_label_2
_geom_bond_site_symmetry_1
_geom_bond_site_symmetry_2
Cu1 N2 1_555 1_555
N1 C1 1_555 1_555
C1 H1 1_555 1_555
N2 C1 1_555 1_555
C2 N2 1_555 1_555
C3 C2 1_555 1_555
C4 N1 1_555 1_555
N3 C4 1_555 1_555
H2 N3 1_555 1_555
H3 N3 1_555 1_555
N4 C3 1_555 1_555
C5 N4 1_555 1_555
H4 C5 1_555 1_555
N5 C2 1_555 1_555
C6 O1 1_555 1_555
O1 Cu1 1_555 1_555
O2 C6 1_555 1_555
C7 C6 1_555 1_555
H5 C7 1_555 1_555
H6 C7 1_555 1_555
C8 C7 1_555 1_555
H7 C8 1_555 1_555
H8 C8 1_555 1_555
C9 C8 1_555 1_555
H9 C9 1_555 1_555
H10 C9 1_555 1_555
H11 C9 1_555 1_555
Cu1G N4 1_555 1_555
Cu1H N5 1_555 1_555
N4B Cu1 1_555 1_555
N5H Cu1 1_555 1_555
O2H Cu1 1_555 1_555
C3 C4 1_555 1_555
C5 N5 1_555 1_555
O2 Cu1H 1_555 1_555

#END
