
#######################################################################
#
#                 Cambridge Crystallographic Data Centre
#                                CCDC 
#
#######################################################################
#
# If this CIF has been generated from an entry in the Cambridge 
# Structural Database, then it will include bibliographic, chemical, 
# crystal, experimental, refinement or atomic coordinate data resulting 
# from the CCDC's data processing and validation procedures.
#
#######################################################################

data_HEBKEG
_chemical_formula_moiety         '(C9 H11 Cd1 Cl1 N2 O3)n,n(H2 O1)'
_chemical_name_systematic        
'catena-((\m~3~-N-(Pyridin-4-ylmethyl)serinato)-chloro-cadmium monohydrate)'
_symmetry_cell_setting           orthorhombic
_symmetry_space_group_name_H-M   'P 21 21 21'
_symmetry_Int_Tables_number      19
_space_group_name_Hall           'P 2ac 2ab'
loop_
_symmetry_equiv_pos_site_id
_symmetry_equiv_pos_as_xyz
1 x,y,z
2 1/2-x,-y,1/2+z
3 -x,1/2+y,1/2-z
4 1/2+x,1/2-y,-z
_cell_length_a                   5.8751(17)
_cell_length_b                   15.067(4)
_cell_length_c                   16.416(5)
_cell_angle_alpha                90
_cell_angle_beta                 90
_cell_angle_gamma                90
_cell_volume                     1453.15
_exptl_crystal_colour            colorless
_exptl_crystal_description       rod
_cell_formula_units_Z            4
loop_
_atom_site_label
_atom_site_type_symbol
_atom_site_fract_x
_atom_site_fract_y
_atom_site_fract_z
Cd1 Cd 0.61300(5) 0.411410(18) 0.036340(16)
Cl1 Cl 0.9009(2) 0.53084(8) 0.03259(9)
C1 C 0.3865(7) 0.5877(3) -0.2543(3)
H1 H 0.5292 0.6129 -0.2461
N1 N 0.0689(6) 0.5624(3) -0.3433(2)
C2 C 0.2810(8) 0.5399(3) -0.1927(3)
C3 C 0.2762(8) 0.5973(3) -0.3282(3)
H2 H 0.3480 0.6294 -0.3692
C4 C -0.0327(8) 0.5181(3) -0.2829(3)
H3 H -0.1771 0.4949 -0.2922
C5 C 0.0648(8) 0.5050(3) -0.2076(3)
H4 H -0.0119 0.4734 -0.1674
N2 N 0.3557(6) 0.4421(2) -0.0702(2)
H5 H 0.2133 0.4454 -0.0486
C6 C 0.4023(9) 0.5264(3) -0.1136(3)
H6 H 0.5647 0.5300 -0.1237
H7 H 0.3627 0.5751 -0.0776
O1 O 0.3364(5) 0.2926(2) 0.01238(17)
C7 C 0.3710(7) 0.3595(3) -0.1189(2)
H8 H 0.2577 0.3613 -0.1627
O2 O 0.7805(5) 0.3552(2) -0.0946(2)
C8 C 0.6075(8) 0.3489(3) -0.1558(2)
H9 H 0.6181 0.2917 -0.1827
H10 H 0.6315 0.3946 -0.1965
C9 C 0.3213(7) 0.2804(3) -0.0632(2)
O3 O 0.2819(5) 0.2083(2) -0.09764(19)
H11 H 0.810(10) 0.310(4) -0.071(4)
Cd1A Cd -0.11300(5) 0.588590(18) -0.463660(16)
Cd1C Cd 0.11300(5) 0.088590(18) -0.036340(16)
N1A N 0.4311(6) 0.4376(3) 0.1567(2)
O3C O 0.7819(5) 0.2917(2) 0.09764(19)
O4 O 0.186(5) 0.6803(16) -0.8491(11)
loop_
_geom_bond_atom_site_label_1
_geom_bond_atom_site_label_2
_geom_bond_site_symmetry_1
_geom_bond_site_symmetry_2
Cd1 Cl1 1_555 1_555
C1 H1 1_555 1_555
N1 C3 1_555 1_555
C2 C1 1_555 1_555
C3 C1 1_555 1_555
H2 C3 1_555 1_555
C4 N1 1_555 1_555
H3 C4 1_555 1_555
C5 C2 1_555 1_555
H4 C5 1_555 1_555
N2 Cd1 1_555 1_555
H5 N2 1_555 1_555
C6 C2 1_555 1_555
H6 C6 1_555 1_555
H7 C6 1_555 1_555
O1 Cd1 1_555 1_555
C7 N2 1_555 1_555
H8 C7 1_555 1_555
O2 Cd1 1_555 1_555
C8 C7 1_555 1_555
H9 C8 1_555 1_555
H10 C8 1_555 1_555
C9 O1 1_555 1_555
O3 C9 1_555 1_555
H11 O2 1_555 1_555
Cd1A N1 1_555 1_555
Cd1C O3 1_555 1_555
N1A Cd1 1_555 1_555
O3C Cd1 1_555 1_555
C4 C5 1_555 1_555
N2 C6 1_555 1_555
C7 C9 1_555 1_555
O2 C8 1_555 1_555

#END
