
#######################################################################
#
#                 Cambridge Crystallographic Data Centre
#                                CCDC 
#
#######################################################################
#
# If this CIF has been generated from an entry in the Cambridge 
# Structural Database, then it will include bibliographic, chemical, 
# crystal, experimental, refinement or atomic coordinate data resulting 
# from the CCDC's data processing and validation procedures.
#
#######################################################################

data_KUVYAD
_chemical_formula_moiety         
'(C21 H11 Cd1 O7 1-)n,n(C2 H8 N1 1+),3n(C3 H7 N1 O1),n(H2 O1)'
_chemical_name_systematic        
'catena-(Dimethylammonium (\m~3~-triphenylene-2,6,10-tricarboxylato)-aqua-cadmium dimethylformamide solvate monohydrate)'
_symmetry_cell_setting           trigonal
_symmetry_space_group_name_H-M   'P 32 2 1'
_symmetry_Int_Tables_number      154
_space_group_name_Hall           'P 32 2"'
loop_
_symmetry_equiv_pos_site_id
_symmetry_equiv_pos_as_xyz
1 x,y,z
2 -y,x-y,2/3+z
3 -x+y,-x,1/3+z
4 y,x,-z
5 x-y,-y,1/3-z
6 -x,-x+y,2/3-z
_cell_length_a                   14.0306(3)
_cell_length_b                   14.0306(3)
_cell_length_c                   28.1780(11)
_cell_angle_alpha                90
_cell_angle_beta                 90
_cell_angle_gamma                120
_cell_volume                     4803.89
_exptl_crystal_colour            colorless
_exptl_crystal_description       block
_cell_formula_units_Z            6
loop_
_atom_site_label
_atom_site_type_symbol
_atom_site_fract_x
_atom_site_fract_y
_atom_site_fract_z
C1 C 1.2197(6) 1.0121(7) 0.0648(2)
Cd1 Cd 1.42990(5) 1.09083(6) 0.024718(17)
O1 O 1.2377(5) 1.0722(5) 0.02993(19)
C2 C 1.1113(6) 0.9594(7) 0.0899(3)
O2 O 1.2909(5) 0.9884(7) 0.0797(2)
C3 C 1.0876(7) 0.8851(9) 0.1261(3)
H1 H 1.1390 0.8652 0.1351
O3 O 0.7203(6) 0.6025(6) 0.2784(2)
C4 C 0.9874(7) 0.8400(8) 0.1490(3)
H2 H 0.9728 0.7909 0.1739
O4 O 0.6004(6) 0.6519(6) 0.3022(2)
C5 C 0.9048(6) 0.8673(7) 0.1353(3)
O5 O 0.5106(6) 1.0016(9) 0.0609(2)
C6 C 0.9293(6) 0.9409(6) 0.0985(2)
O6 O 0.6186(6) 1.1134(8) 0.0067(3)
C7 C 1.0336(6) 0.9856(7) 0.0761(3)
H3 H 1.0498 1.0345 0.0510
C8 C 0.8004(6) 0.8195(6) 0.1616(3)
C9 C 0.7767(7) 0.7537(7) 0.1999(3)
H4 H 0.8273 0.7324 0.2086
C10 C 0.6841(7) 0.7161(7) 0.2269(3)
C11 C 0.6671(8) 0.6522(8) 0.2725(3)
C12 C 0.6047(7) 0.7475(9) 0.2121(3)
H5 H 0.5415 0.7263 0.2300
C13 C 0.6227(7) 0.8084(8) 0.1718(3)
H6 H 0.5692 0.8240 0.1612
C14 C 0.7202(6) 0.8473(6) 0.1462(3)
C15 C 0.7450(6) 0.9211(7) 0.1054(3)
C16 C 0.6639(7) 0.9485(8) 0.0880(3)
H7 H 0.5954 0.9176 0.1027
C17 C 0.6855(8) 1.0157(8) 0.0521(3)
C18 C 0.5996(7) 1.0476(9) 0.0383(3)
C19 C 0.7840(7) 1.0586(8) 0.0291(3)
H8 H 0.7972 1.1040 0.0029
C20 C 0.8627(7) 1.0366(7) 0.0434(3)
H9 H 0.9304 1.0702 0.0280
C21 C 0.8447(6) 0.9650(7) 0.0806(3)
O7 O 1.5188(4) 1.2738(3) 0.06151(13)
Cd1_2 Cd 0.42990(5) 1.09083(6) 0.024718(17)
Cd1B Cd 0.66093(8) 0.57010(5) 0.358051(17)
O3A O 1.3975(6) 1.1178(8) -0.0549(2)
O4A O 1.3481(6) 0.9485(8) -0.0311(2)
O5_2 O 1.5106(6) 1.0016(9) 0.0609(2)
O6_2 O 1.6186(6) 1.1134(8) 0.0067(3)
loop_
_geom_bond_atom_site_label_1
_geom_bond_atom_site_label_2
_geom_bond_site_symmetry_1
_geom_bond_site_symmetry_2
C1 O1 1_555 1_555
Cd1 O1 1_555 1_555
C2 C1 1_555 1_555
O2 C1 1_555 1_555
C3 C2 1_555 1_555
H1 C3 1_555 1_555
O3 C11 1_555 1_555
C4 C3 1_555 1_555
H2 C4 1_555 1_555
O4 C11 1_555 1_555
C5 C4 1_555 1_555
O5 C18 1_555 1_555
C6 C5 1_555 1_555
O6 C18 1_555 1_555
C7 C2 1_555 1_555
H3 C7 1_555 1_555
C8 C5 1_555 1_555
C9 C8 1_555 1_555
H4 C9 1_555 1_555
C10 C9 1_555 1_555
C11 C10 1_555 1_555
C12 C10 1_555 1_555
H5 C12 1_555 1_555
C13 C12 1_555 1_555
H6 C13 1_555 1_555
C14 C8 1_555 1_555
C15 C14 1_555 1_555
C16 C15 1_555 1_555
H7 C16 1_555 1_555
C17 C16 1_555 1_555
C18 C17 1_555 1_555
C19 C17 1_555 1_555
H8 C19 1_555 1_555
C20 C19 1_555 1_555
H9 C20 1_555 1_555
C21 C6 1_555 1_555
O7 Cd1 1_555 1_555
Cd1_2 O5 1_555 1_555
Cd1B O3 1_555 1_555
O3A Cd1 1_555 1_555
O4A Cd1 1_555 1_555
O5_2 Cd1 1_555 1_555
O6_2 Cd1 1_555 1_555
Cd1 O2 1_555 1_555
O4 Cd1B 1_555 1_555
C6 C7 1_555 1_555
O6 Cd1_2 1_555 1_555
C13 C14 1_555 1_555
C15 C21 1_555 1_555
C20 C21 1_555 1_555

#END
