
#######################################################################
#
#                 Cambridge Crystallographic Data Centre
#                                CCDC 
#
#######################################################################
#
# If this CIF has been generated from an entry in the Cambridge 
# Structural Database, then it will include bibliographic, chemical, 
# crystal, experimental, refinement or atomic coordinate data resulting 
# from the CCDC's data processing and validation procedures.
#
#######################################################################

data_CANZAU
_chemical_formula_moiety         
'(C258 H336 Fe9 N24 Ni3 O52)n,14.65n(C3 H7 N1 O1)'
_chemical_name_systematic        
'catena-(tetrakis(\m~3~-oxo)-hexakis(\m~2~-4-(N,N-dimethylamino)phenyl-2,6-bis(4-pyridyl)pyridine)-tetracosakis(\m~2~-pivalato)-nona-iron-tri-nickel N,N-dimethylformamide solvate)'
_symmetry_cell_setting           rhombohedral
_symmetry_space_group_name_H-M   'R -3'
_symmetry_Int_Tables_number      148
_space_group_name_Hall           '-R 3'
loop_
_symmetry_equiv_pos_site_id
_symmetry_equiv_pos_as_xyz
1 x,y,z
2 -y,x-y,z
3 -x+y,-x,z
4 1/3+x,2/3+y,2/3+z
5 1/3-y,2/3+x-y,2/3+z
6 1/3-x+y,2/3-x,2/3+z
7 2/3+x,1/3+y,1/3+z
8 2/3-y,1/3+x-y,1/3+z
9 2/3-x+y,1/3-x,1/3+z
10 -x,-y,-z
11 y,-x+y,-z
12 x-y,x,-z
13 2/3-x,1/3-y,1/3-z
14 2/3+y,1/3-x+y,1/3-z
15 2/3+x-y,1/3+x,1/3-z
16 1/3-x,2/3-y,2/3-z
17 1/3+y,2/3-x+y,2/3-z
18 1/3+x-y,2/3+x,2/3-z
_cell_length_a                   54.074(16)
_cell_length_b                   54.074(16)
_cell_length_c                   21.379(6)
_cell_angle_alpha                90
_cell_angle_beta                 90
_cell_angle_gamma                120
_cell_volume                     54137.1
_exptl_crystal_colour            brown
_exptl_crystal_description       prism
_cell_formula_units_Z            6
loop_
_atom_site_label
_atom_site_type_symbol
_atom_site_fract_x
_atom_site_fract_y
_atom_site_fract_z
_atom_site_U_iso_or_equiv
_atom_site_thermal_displace_type
N9 N 0.2779(3) 0.1688(3) 0.1231(6) 0.1240 Uiso
O19 O 0.2834(5) 0.1956(5) 0.2049(9) 0.2980 Uiso
C91 C 0.2720(6) 0.1880(5) 0.1550(10) 0.2400 Uiso
H122 H 0.2600 0.1944 0.1383 0.2880 Uiso
C92 C 0.2642(4) 0.1588(4) 0.0651(7) 0.1730 Uiso
H123 H 0.2520 0.1671 0.0566 0.2590 Uiso
H124 H 0.2524 0.1379 0.0663 0.2590 Uiso
H125 H 0.2786 0.1644 0.0320 0.2590 Uiso
C93 C 0.2960(3) 0.1594(4) 0.1467(7) 0.1330 Uiso
H126 H 0.3029 0.1678 0.1882 0.2000 Uiso
H127 H 0.3123 0.1655 0.1184 0.2000 Uiso
H128 H 0.2855 0.1386 0.1499 0.2000 Uiso
N10 N 0.2706(4) 0.2597(5) 0.3035(9) 0.2200 Uiso
O20 O 0.2936(3) 0.2361(3) 0.3241(7) 0.1620 Uiso
C94 C 0.2813(5) 0.2420(4) 0.2838(9) 0.1880 Uiso
H129 H 0.2791 0.2351 0.2422 0.2260 Uiso
C95 C 0.2623(6) 0.2711(6) 0.2539(10) 0.2800 Uiso
H130 H 0.2547 0.2828 0.2708 0.4200 Uiso
H131 H 0.2476 0.2555 0.2289 0.4200 Uiso
H132 H 0.2790 0.2830 0.2275 0.4200 Uiso
C96 C 0.2542(6) 0.2525(7) 0.3586(11) 0.2960 Uiso
H133 H 0.2476 0.2661 0.3655 0.4440 Uiso
H134 H 0.2660 0.2531 0.3941 0.4440 Uiso
H135 H 0.2378 0.2332 0.3546 0.4440 Uiso
N11 N 0.1683(5) 0.0715(4) 0.9554(9) 0.2200 Uiso
O21 O 0.1641(4) 0.0403(4) 0.8820(9) 0.2490 Uiso
C97 C 0.1778(7) 0.0647(5) 0.9006(15) 0.4600 Uiso
H136 H 0.1943 0.0786 0.8789 0.5470 Uiso
C98 C 0.1394(5) 0.0638(8) 0.9582(16) 0.3700 Uiso
H137 H 0.1352 0.0688 0.9994 0.5600 Uiso
H138 H 0.1275 0.0432 0.9515 0.5600 Uiso
H139 H 0.1354 0.0741 0.9257 0.5600 Uiso
C99 C 0.1885(7) 0.0926(9) 0.9939(18) 0.5400 Uiso
H140 H 0.1790 0.0945 1.0313 0.8140 Uiso
H141 H 0.1978 0.1108 0.9713 0.8140 Uiso
H142 H 0.2028 0.0875 1.0063 0.8140 Uiso
N12 N 0.1941(4) -0.1987(4) 0.3221(9) 0.2350 Uiso
O22 O 0.2152(3) -0.1593(3) 0.2607(6) 0.1460 Uiso
C100 C 0.2109(4) -0.1830(3) 0.2724(7) 0.1360 Uiso
H143 H 0.2193 -0.1910 0.2466 0.1630 Uiso
C101 C 0.1875(7) -0.1835(6) 0.3662(11) 0.3120 Uiso
H144 H 0.1864 -0.1680 0.3451 0.4680 Uiso
H145 H 0.2025 -0.1754 0.3982 0.4680 Uiso
H146 H 0.1691 -0.1964 0.3860 0.4680 Uiso
C102 C 0.1961(7) -0.2222(5) 0.3431(14) 0.3600 Uiso
H147 H 0.2015 -0.2302 0.3082 0.5340 Uiso
H148 H 0.1776 -0.2367 0.3599 0.5340 Uiso
H149 H 0.2106 -0.2160 0.3760 0.5340 Uiso
N13 N 0.1546(4) -0.0268(5) 0.7514(8) 0.2150 Uiso
O23 O 0.1576(7) -0.0288(9) 0.8505(11) 0.4900 Uiso
C103 C 0.1434(5) -0.0261(6) 0.8100(9) 0.2050 Uiso
H150 H 0.1272 -0.0238 0.8169 0.2460 Uiso
C104 C 0.1387(5) -0.0303(6) 0.6979(10) 0.2480 Uiso
H151 H 0.1495 -0.0301 0.6610 0.3720 Uiso
H152 H 0.1345 -0.0147 0.6948 0.3720 Uiso
H153 H 0.1208 -0.0486 0.7000 0.3720 Uiso
C105 C 0.1781(6) -0.0309(8) 0.7503(13) 0.3270 Uiso
H154 H 0.1840 -0.0308 0.7069 0.4910 Uiso
H155 H 0.1729 -0.0493 0.7697 0.4910 Uiso
H156 H 0.1939 -0.0155 0.7737 0.4910 Uiso
Fe1 Fe 0.21085(3) -0.02869(3) 0.21791(6) 0.0407 Uani
Fe2 Fe 0.22141(3) 0.02120(3) 0.31934(6) 0.0411 Uani
Fe3 Fe 0.03962(3) 0.01381(3) 0.71193(7) 0.0536 Uani
Ni1 Ni 0.03881(3) -0.20847(3) -0.17832(6) 0.0510 Uani
N1 N 0.19254(17) -0.07331(18) 0.1924(4) 0.0456 Uani
N2 N 0.14294(19) -0.16158(18) 0.0639(4) 0.0494 Uani
N3 N 0.07155(19) -0.19970(19) -0.1090(4) 0.0532 Uani
N4 N 0.2106(2) -0.2705(2) 0.1349(6) 0.0916 Uani
N5 N 0.21612(19) 0.03320(16) 0.4144(4) 0.0441 Uani
N6 N 0.17719(18) 0.04298(16) 0.6199(4) 0.0406 Uani
N7 N 0.08533(18) 0.02835(19) 0.7064(4) 0.0528 Uani
N8 N 0.2969(2) 0.0674(3) 0.9025(5) 0.0782 Uani
O1 O 0.22650(13) 0.01019(13) 0.2384(3) 0.0404 Uani
O2 O 0.0000 0.0000 0.7149(5) 0.0424 Uani
O3 O 0.22098(16) -0.04081(14) 0.2992(3) 0.0536 Uani
O4 O 0.23045(15) -0.00570(15) 0.3661(3) 0.0524 Uani
O5 O 0.17154(14) -0.03997(14) 0.2484(4) 0.0566 Uani
O6 O 0.17851(16) -0.00799(16) 0.3210(4) 0.0624 Uani
O7 O 0.19685(17) -0.02560(17) 0.1315(3) 0.0692 Uani
O8 O 0.21886(16) 0.02047(18) 0.1088(3) 0.0658 Uani
O9 O 0.24763(15) -0.02369(15) 0.1819(3) 0.0547 Uani
O10 O 0.27036(15) 0.02056(17) 0.1470(4) 0.0633 Uani
O11 O 0.21053(16) 0.05012(16) 0.2922(3) 0.0587 Uani
O12 O 0.22957(17) 0.06366(15) 0.1969(3) 0.0614 Uani
O13 O 0.26316(15) 0.05275(15) 0.3318(3) 0.0570 Uani
O14 O 0.28073(15) 0.06362(15) 0.2352(3) 0.0582 Uani
O15 O 0.03837(16) -0.01086(17) 0.6387(4) 0.0597 Uani
O16 O -0.00333(17) -0.05110(15) 0.6532(4) 0.0587 Uani
O17 O 0.04881(14) 0.04034(15) 0.7856(3) 0.0530 Uani
O18 O 0.01646(17) 0.05360(15) 0.7735(3) 0.0606 Uani
C1 C 0.2291(3) -0.0282(3) 0.3513(5) 0.1121 Uani
C2 C 0.2383(3) -0.0433(3) 0.3992(5) 0.1439 Uani
C3 C 0.2386(4) -0.0328(3) 0.4658(4) 0.1738 Uani
H1 H 0.2518 -0.0122 0.4680 0.2600 Uiso
H2 H 0.2449 -0.0426 0.4948 0.2600 Uiso
H3 H 0.2194 -0.0370 0.4772 0.2600 Uiso
C4 C 0.2170(4) -0.0763(2) 0.3958(7) 0.2082 Uani
H4 H 0.1977 -0.0803 0.4065 0.3120 Uiso
H5 H 0.2230 -0.0861 0.4254 0.3120 Uiso
H6 H 0.2170 -0.0832 0.3533 0.3120 Uiso
C5 C 0.2684(3) -0.0386(4) 0.3816(8) 0.2087 Uani
H7 H 0.2825 -0.0182 0.3830 0.3130 Uiso
H8 H 0.2678 -0.0460 0.3394 0.3130 Uiso
H9 H 0.2738 -0.0489 0.4115 0.3130 Uiso
C6 C 0.1629(2) -0.0281(3) 0.2827(6) 0.0587 Uani
C7 C 0.1315(2) -0.0353(3) 0.2808(5) 0.0806 Uani
C8 C 0.1148(3) -0.0597(3) 0.2345(7) 0.1039 Uani
H10 H 0.0948 -0.0641 0.2333 0.1560 Uiso
H11 H 0.1155 -0.0766 0.2479 0.1560 Uiso
H12 H 0.1232 -0.0539 0.1928 0.1560 Uiso
C9 C 0.1188(3) -0.0433(4) 0.3469(6) 0.1177 Uani
H13 H 0.0988 -0.0481 0.3459 0.1770 Uiso
H14 H 0.1296 -0.0272 0.3752 0.1770 Uiso
H15 H 0.1199 -0.0599 0.3618 0.1770 Uiso
C10 C 0.1311(3) -0.0082(3) 0.2602(8) 0.1223 Uani
H16 H 0.1113 -0.0122 0.2583 0.1830 Uiso
H17 H 0.1399 -0.0023 0.2188 0.1830 Uiso
H18 H 0.1418 0.0071 0.2904 0.1830 Uiso
C11 C 0.2011(3) -0.0039(4) 0.0972(6) 0.0977 Uani
C12 C 0.1871(4) -0.0145(4) 0.0319(7) 0.1286 Uani
C13 C 0.1863(5) 0.0102(5) -0.0029(13) 0.1262 Uani
H19 H 0.1744 0.0159 0.0205 0.1900 Uiso
H20 H 0.1782 0.0038 -0.0448 0.1900 Uiso
H21 H 0.2057 0.0265 -0.0065 0.1900 Uiso
C14 C 0.1564(4) -0.0401(5) 0.0388(14) 0.1376 Uani
H22 H 0.1446 -0.0340 0.0614 0.2060 Uiso
H23 H 0.1569 -0.0554 0.0622 0.2060 Uiso
H24 H 0.1483 -0.0471 -0.0027 0.2060 Uiso
C15 C 0.2057(4) -0.0238(5) -0.0063(12) 0.1768 Uani
H25 H 0.1973 -0.0303 -0.0478 0.2650 Uiso
H26 H 0.2064 -0.0393 0.0156 0.2650 Uiso
H27 H 0.2251 -0.0075 -0.0107 0.2650 Uiso
C20 C 0.2674(3) -0.0039(3) 0.1553(8) 0.1326 Uani
C21 C 0.2951(3) -0.0054(3) 0.1486(7) 0.1684 Uani
C22 C 0.2889(3) -0.0363(3) 0.1511(9) 0.1912 Uani
H37 H 0.2758 -0.0473 0.1171 0.2870 Uiso
H38 H 0.2801 -0.0448 0.1913 0.2870 Uiso
H39 H 0.3068 -0.0366 0.1464 0.2870 Uiso
C23 C 0.3159(4) 0.0117(4) 0.2051(8) 0.2609 Uani
H40 H 0.3336 0.0111 0.2010 0.3920 Uiso
H41 H 0.3066 0.0028 0.2447 0.3920 Uiso
H42 H 0.3202 0.0316 0.2042 0.3920 Uiso
C24 C 0.3108(4) 0.0094(4) 0.0879(8) 0.1946 Uani
H43 H 0.2989 -0.0008 0.0518 0.2920 Uiso
H44 H 0.3289 0.0093 0.0856 0.2920 Uiso
H45 H 0.3148 0.0292 0.0877 0.2920 Uiso
C25 C 0.2151(3) 0.0639(3) 0.2447(7) 0.0676 Uani
C26 C 0.2047(3) 0.0857(3) 0.2407(6) 0.0892 Uani
C27 C 0.1817(3) 0.0799(4) 0.2891(8) 0.1267 Uani
H46 H 0.1644 0.0618 0.2794 0.1900 Uiso
H47 H 0.1773 0.0954 0.2883 0.1900 Uiso
H48 H 0.1885 0.0787 0.3308 0.1900 Uiso
C28 C 0.2294(4) 0.1148(3) 0.2615(9) 0.1437 Uani
H49 H 0.2454 0.1210 0.2323 0.2160 Uiso
H50 H 0.2356 0.1131 0.3036 0.2160 Uiso
H51 H 0.2230 0.1288 0.2620 0.2160 Uiso
C29 C 0.2001(4) 0.0914(4) 0.1734(7) 0.1381 Uani
H52 H 0.1838 0.0743 0.1557 0.2080 Uiso
H53 H 0.2173 0.0966 0.1489 0.2080 Uiso
H54 H 0.1961 0.1072 0.1724 0.2080 Uiso
C30 C 0.2819(2) 0.0667(2) 0.2925(6) 0.0560 Uani
C31 C 0.3097(2) 0.0913(2) 0.3184(5) 0.0801 Uani
C32 C 0.3127(3) 0.0888(3) 0.3892(5) 0.0962 Uani
H55 H 0.2966 0.0885 0.4108 0.1450 Uiso
H56 H 0.3306 0.1052 0.4037 0.1450 Uiso
H57 H 0.3129 0.0711 0.3983 0.1450 Uiso
C33 C 0.3349(3) 0.0916(3) 0.2850(7) 0.1112 Uani
H58 H 0.3331 0.0931 0.2398 0.1670 Uiso
H59 H 0.3350 0.0739 0.2943 0.1670 Uiso
H60 H 0.3528 0.1080 0.2996 0.1670 Uiso
C34 C 0.3104(3) 0.1191(2) 0.3010(7) 0.1164 Uani
H61 H 0.2945 0.1197 0.3215 0.1750 Uiso
H62 H 0.3086 0.1200 0.2556 0.1750 Uiso
H63 H 0.3285 0.1354 0.3149 0.1750 Uiso
C35 C 0.0220(3) -0.0373(3) 0.6316(5) 0.0530 Uani
C36 C 0.0340(2) -0.0545(2) 0.5999(5) 0.0723 Uani
C37 C 0.0120(3) -0.0856(2) 0.5880(8) 0.1254 Uani
H64 H 0.0047 -0.0954 0.6280 0.1870 Uiso
H65 H 0.0209 -0.0947 0.5647 0.1870 Uiso
H66 H -0.0039 -0.0866 0.5635 0.1870 Uiso
C38 C 0.0444(3) -0.0410(3) 0.5345(6) 0.1127 Uani
H67 H 0.0281 -0.0436 0.5096 0.1690 Uiso
H68 H 0.0537 -0.0503 0.5134 0.1690 Uiso
H69 H 0.0581 -0.0206 0.5392 0.1690 Uiso
C39 C 0.0592(3) -0.0510(4) 0.6407(7) 0.1323 Uani
H70 H 0.0519 -0.0602 0.6813 0.1980 Uiso
H71 H 0.0727 -0.0306 0.6469 0.1980 Uiso
H72 H 0.0688 -0.0599 0.6196 0.1980 Uiso
C40 C 0.0370(3) 0.0537(3) 0.8016(5) 0.0750 Uani
C41 C 0.0477(3) 0.0721(3) 0.8606(6) 0.0944 Uani
C42 C 0.0749(3) 0.0737(4) 0.8857(9) 0.1534 Uani
H73 H 0.0896 0.0814 0.8532 0.2300 Uiso
H74 H 0.0709 0.0545 0.8975 0.2300 Uiso
H75 H 0.0816 0.0862 0.9224 0.2300 Uiso
C43 C 0.0237(4) 0.0612(4) 0.9089(8) 0.1790 Uani
H76 H 0.0195 0.0424 0.9241 0.2690 Uiso
H77 H 0.0065 0.0596 0.8894 0.2690 Uiso
H78 H 0.0296 0.0746 0.9440 0.2690 Uiso
C44 C 0.0496(4) 0.1008(3) 0.8476(9) 0.1722 Uani
H79 H 0.0644 0.1113 0.8162 0.2580 Uiso
H80 H 0.0545 0.1119 0.8863 0.2580 Uiso
H81 H 0.0312 0.0975 0.8320 0.2580 Uiso
C45 C 0.2065(2) -0.0877(2) 0.1997(5) 0.0472 Uani
H82 H 0.2241 -0.0786 0.2218 0.0570 Uiso
C46 C 0.1973(2) -0.1144(2) 0.1778(5) 0.0420 Uani
H83 H 0.2077 -0.1238 0.1870 0.0500 Uiso
C47 C 0.1726(2) -0.1282(2) 0.1419(4) 0.0398 Uani
C48 C 0.1573(2) -0.1135(2) 0.1356(5) 0.0598 Uani
H84 H 0.1396 -0.1220 0.1137 0.0720 Uiso
C49 C 0.1682(2) -0.0868(2) 0.1614(6) 0.0599 Uani
H85 H 0.1575 -0.0773 0.1566 0.0730 Uiso
C50 C 0.1624(2) -0.1557(2) 0.1089(5) 0.0426 Uani
C51 C 0.1738(2) -0.1728(2) 0.1230(5) 0.0472 Uani
H86 H 0.1872 -0.1681 0.1559 0.0570 Uiso
C52 C 0.1650(2) -0.1972(2) 0.0872(5) 0.0457 Uani
C53 C 0.1447(2) -0.2042(2) 0.0403(5) 0.0497 Uani
H87 H 0.1383 -0.2210 0.0158 0.0590 Uiso
C54 C 0.1342(2) -0.1855(2) 0.0306(5) 0.0472 Uani
C55 C 0.1118(2) -0.1909(2) -0.0168(5) 0.0462 Uani
C56 C 0.1032(2) -0.2129(2) -0.0613(5) 0.0500 Uani
H88 H 0.1110 -0.2253 -0.0601 0.0600 Uiso
C57 C 0.0840(2) -0.2166(2) -0.1056(5) 0.0467 Uani
H89 H 0.0789 -0.2313 -0.1356 0.0560 Uiso
C58 C 0.0800(2) -0.1792(2) -0.0679(5) 0.0483 Uani
H90 H 0.0722 -0.1669 -0.0702 0.0580 Uiso
C59 C 0.0997(2) -0.1742(2) -0.0212(5) 0.0538 Uani
H91 H 0.1047 -0.1591 0.0077 0.0650 Uiso
C60 C 0.1770(2) -0.2167(2) 0.0993(5) 0.0477 Uani
C61 C 0.1608(3) -0.2465(3) 0.0902(6) 0.0764 Uani
H92 H 0.1417 -0.2546 0.0752 0.0910 Uiso
C62 C 0.1715(3) -0.2636(3) 0.1023(7) 0.0949 Uani
H93 H 0.1599 -0.2835 0.0944 0.1140 Uiso
C63 C 0.1991(3) -0.2536(3) 0.1261(6) 0.0713 Uani
C64 C 0.2152(3) -0.2239(3) 0.1301(6) 0.0717 Uani
H94 H 0.2347 -0.2156 0.1416 0.0860 Uiso
C65 C 0.2048(2) -0.2065(2) 0.1188(5) 0.0524 Uani
H95 H 0.2170 -0.1866 0.1243 0.0630 Uiso
C66 C 0.2387(3) -0.2591(3) 0.1630(7) 0.0827 Uani
H96 H 0.2491 -0.2382 0.1598 0.1240 Uiso
H97 H 0.2494 -0.2667 0.1409 0.1240 Uiso
H98 H 0.2367 -0.2647 0.2071 0.1240 Uiso
C67 C 0.1926(4) -0.3009(3) 0.1328(11) 0.1767 Uani
H99 H 0.1745 -0.3057 0.1122 0.2630 Uiso
H100 H 0.1888 -0.3085 0.1754 0.2630 Uiso
H101 H 0.2022 -0.3093 0.1092 0.2630 Uiso
C68 C 0.1922(2) 0.0323(2) 0.4339(5) 0.0451 Uani
H102 H 0.1776 0.0282 0.4042 0.0540 Uiso
C69 C 0.1878(2) 0.0370(2) 0.4950(5) 0.0458 Uani
H103 H 0.1703 0.0357 0.5071 0.0550 Uiso
C70 C 0.2087(2) 0.0434(2) 0.5380(5) 0.0484 Uani
C71 C 0.2338(2) 0.0458(2) 0.5187(5) 0.0531 Uani
H104 H 0.2491 0.0512 0.5473 0.0640 Uiso
C72 C 0.2366(2) 0.0401(2) 0.4577(5) 0.0561 Uani
H105 H 0.2540 0.0412 0.4451 0.0670 Uiso
C73 C 0.2026(2) 0.0467(2) 0.6065(4) 0.0397 Uani
C74 C 0.2234(2) 0.0531(2) 0.6510(5) 0.0558 Uani
H106 H 0.2416 0.0561 0.6395 0.0670 Uiso
C75 C 0.2169(2) 0.0552(2) 0.7152(5) 0.0548 Uani
C76 C 0.1897(2) 0.0512(2) 0.7266(5) 0.0487 Uani
H107 H 0.1844 0.0527 0.7682 0.0590 Uiso
C77 C 0.1706(2) 0.0452(2) 0.6792(5) 0.0503 Uani
C78 C 0.1412(2) 0.0395(2) 0.6898(5) 0.0426 Uani
C79 C 0.1251(2) 0.0392(2) 0.6395(5) 0.0540 Uani
H108 H 0.1327 0.0425 0.5983 0.0650 Uiso
C80 C 0.0978(3) 0.0339(2) 0.6508(5) 0.0616 Uani
H109 H 0.0871 0.0343 0.6160 0.0740 Uiso
C81 C 0.1009(2) 0.0284(2) 0.7536(5) 0.0506 Uani
H110 H 0.0927 0.0243 0.7942 0.0610 Uiso
C82 C 0.1282(3) 0.0340(2) 0.7476(5) 0.0573 Uani
H111 H 0.1384 0.0340 0.7837 0.0690 Uiso
C83 C 0.2380(2) 0.0612(3) 0.7648(5) 0.0636 Uani
C84 C 0.2675(3) 0.0770(3) 0.7531(6) 0.0721 Uani
H112 H 0.2743 0.0861 0.7138 0.0870 Uiso
C85 C 0.2871(2) 0.0793(3) 0.7988(6) 0.0724 Uani
H113 H 0.3069 0.0899 0.7900 0.0860 Uiso
C86 C 0.2779(3) 0.0663(3) 0.8570(5) 0.0646 Uani
C87 C 0.2486(3) 0.0515(3) 0.8677(5) 0.0780 Uani
H114 H 0.2416 0.0426 0.9071 0.0940 Uiso
C88 C 0.2293(3) 0.0493(3) 0.8222(5) 0.0671 Uani
H115 H 0.2095 0.0392 0.8316 0.0810 Uiso
C89 C 0.3272(3) 0.0791(3) 0.8811(7) 0.1076 Uani
H116 H 0.3316 0.0935 0.8485 0.1610 Uiso
H117 H 0.3296 0.0636 0.8642 0.1610 Uiso
H118 H 0.3402 0.0879 0.9165 0.1610 Uiso
C90 C 0.2866(3) 0.0456(3) 0.9501(6) 0.0764 Uani
H119 H 0.2667 0.0397 0.9600 0.1150 Uiso
H120 H 0.2983 0.0532 0.9879 0.1150 Uiso
H121 H 0.2878 0.0292 0.9349 0.1150 Uiso
Fe1K Fe 0.23954(4) 0.21085(3) -0.21791(6) 0.0407 Uani
Fe1J Fe -0.02869(3) -0.23954(4) -0.21791(6) 0.0407 Uani
Fe2J Fe 0.02120(3) -0.20021(4) -0.31934(6) 0.0411 Uani
Fe2K Fe 0.20021(4) 0.22141(3) -0.31934(6) 0.0411 Uani
Fe3J Fe 0.01381(3) -0.02581(4) -0.71193(7) 0.0536 Uani
Fe3A Fe -0.01381(3) 0.02581(4) 0.71193(7) 0.0536 Uani
Fe3B Fe -0.02581(4) -0.03962(3) 0.71193(7) 0.0536 Uani
Fe3K Fe 0.02581(4) 0.03962(3) -0.71193(7) 0.0536 Uani
Fe3I Fe -0.03962(3) -0.01381(3) -0.71193(7) 0.0536 Uani
Ni1K Ni 0.24728(4) 0.03881(3) 0.17832(6) 0.0510 Uani
Ni1J Ni -0.20847(3) -0.24728(4) 0.17832(6) 0.0510 Uani
Ni1A Ni 0.20847(3) 0.24728(4) -0.17832(6) 0.0510 Uani
N1K N 0.26585(25) 0.19254(17) -0.1924(4) 0.0456 Uani
N1J N -0.07331(18) -0.26585(25) -0.1924(4) 0.0456 Uani
N2K N 0.30452(26) 0.14294(19) -0.0639(4) 0.0494 Uani
N2J N -0.16158(18) -0.30452(26) -0.0639(4) 0.0494 Uani
N3K N 0.27125(27) 0.07155(19) 0.1090(4) 0.0532 Uani
N3J N -0.19970(19) -0.27125(27) 0.1090(4) 0.0532 Uani
N4K N 0.4811(3) 0.2106(2) -0.1349(6) 0.0916 Uani
N4J N -0.2705(2) -0.4811(3) -0.1349(6) 0.0916 Uani
N5J N 0.03320(16) -0.18292(25) -0.4144(4) 0.0441 Uani
N5K N 0.18292(25) 0.21612(19) -0.4144(4) 0.0441 Uani
N6J N 0.04298(16) -0.13421(24) -0.6199(4) 0.0406 Uani
N6K N 0.13421(24) 0.17719(18) -0.6199(4) 0.0406 Uani
N7J N 0.02835(19) -0.05698(26) -0.7064(4) 0.0528 Uani
N7K N 0.05698(26) 0.08533(18) -0.7064(4) 0.0528 Uani
N7A N -0.02835(19) 0.05698(26) 0.7064(4) 0.0528 Uani
N8J N 0.0674(3) -0.2295(4) -0.9025(5) 0.0782 Uani
N8K N 0.2295(4) 0.2969(2) -0.9025(5) 0.0782 Uani
O1J O 0.01019(13) -0.21631(18) -0.2384(3) 0.0404 Uani
O1K O 0.21631(18) 0.22650(13) -0.2384(3) 0.0404 Uani
O1B O -0.21631(18) -0.22650(13) 0.2384(3) 0.0404 Uani
O2I O 0.0000 0.0000 -0.7149(5) 0.0424 Uani
O3K O 0.26179(21) 0.22098(16) -0.2992(3) 0.0536 Uani
O3J O -0.04081(14) -0.26179(21) -0.2992(3) 0.0536 Uani
O4K O 0.23615(21) 0.23045(15) -0.3661(3) 0.0524 Uani
O4J O -0.00570(15) -0.23615(21) -0.3661(3) 0.0524 Uani
O5K O 0.21151(20) 0.17154(14) -0.2484(4) 0.0566 Uani
O5J O -0.03997(14) -0.21151(20) -0.2484(4) 0.0566 Uani
O6K O 0.18650(23) 0.17851(16) -0.3210(4) 0.0624 Uani
O6J O -0.00799(16) -0.18650(23) -0.3210(4) 0.0624 Uani
O7J O -0.02560(17) -0.22245(24) -0.1315(3) 0.0692 Uani
O7K O 0.22245(24) 0.19685(17) -0.1315(3) 0.0692 Uani
O8J O 0.02047(18) -0.19839(24) -0.1088(3) 0.0658 Uani
O8K O 0.19839(24) 0.21886(16) -0.1088(3) 0.0658 Uani
O8B O -0.19839(24) -0.21886(16) 0.1088(3) 0.0658 Uani
O9J O -0.02369(15) -0.27132(21) -0.1819(3) 0.0547 Uani
O9K O 0.27132(21) 0.24763(15) -0.1819(3) 0.0547 Uani
O10J O 0.02056(17) -0.24980(23) -0.1470(4) 0.0633 Uani
O10K O 0.24980(23) 0.27036(15) -0.1470(4) 0.0633 Uani
O10B O -0.24980(23) -0.27036(15) 0.1470(4) 0.0633 Uani
O11J O 0.05012(16) -0.16041(23) -0.2922(3) 0.0587 Uani
O11K O 0.16041(23) 0.21053(16) -0.2922(3) 0.0587 Uani
O12J O 0.06366(15) -0.16591(23) -0.1969(3) 0.0614 Uani
O12K O 0.16591(23) 0.22957(17) -0.1969(3) 0.0614 Uani
O12B O -0.16591(23) -0.22957(17) 0.1969(3) 0.0614 Uani
O13J O 0.05275(15) -0.21041(21) -0.3318(3) 0.0570 Uani
O13K O 0.21041(21) 0.26316(15) -0.3318(3) 0.0570 Uani
O14J O 0.06362(15) -0.21711(21) -0.2352(3) 0.0582 Uani
O14K O 0.21711(21) 0.28073(15) -0.2352(3) 0.0582 Uani
O14B O -0.21711(21) -0.28073(15) 0.2352(3) 0.0582 Uani
O15A O 0.01086(17) 0.04923(23) 0.6387(4) 0.0597 Uani
O15J O -0.01086(17) -0.04923(23) -0.6387(4) 0.0597 Uani
O16A O 0.05110(15) 0.04777(23) 0.6532(4) 0.0587 Uani
O16J O -0.05110(15) -0.04777(23) -0.6532(4) 0.0587 Uani
O16K O 0.04777(23) -0.00333(17) -0.6532(4) 0.0587 Uani
O16B O -0.04777(23) 0.00333(17) 0.6532(4) 0.0587 Uani
O17B O -0.00847(21) -0.04881(14) 0.7856(3) 0.0530 Uani
O17J O 0.04034(15) -0.00847(21) -0.7856(3) 0.0530 Uani
O17A O -0.04034(15) 0.00847(21) 0.7856(3) 0.0530 Uani
O18B O 0.03714(23) -0.01646(17) 0.7735(3) 0.0606 Uani
O18J O 0.05360(15) 0.03714(23) -0.7735(3) 0.0606 Uani
O18I O -0.01646(17) -0.05360(15) -0.7735(3) 0.0606 Uani
C1K C 0.2573(4) 0.2291(3) -0.3513(5) 0.1121 Uani
C1J C -0.0282(3) -0.2573(4) -0.3513(5) 0.1121 Uani
C2K C 0.2816(4) 0.2383(3) -0.3992(5) 0.1439 Uani
C2J C -0.0433(3) -0.2816(4) -0.3992(5) 0.1439 Uani
C3K C 0.2714(5) 0.2386(4) -0.4658(4) 0.1738 Uani
C3J C -0.0328(3) -0.2714(5) -0.4658(4) 0.1738 Uani
H1K H 0.2640 0.2518 -0.4680 0.2600 Uiso
H1J H -0.0122 -0.2640 -0.4680 0.2600 Uiso
H2K H 0.2875 0.2449 -0.4948 0.2600 Uiso
H2J H -0.0426 -0.2875 -0.4948 0.2600 Uiso
H3K H 0.2564 0.2194 -0.4772 0.2600 Uiso
H3J H -0.0370 -0.2564 -0.4772 0.2600 Uiso
C4K C 0.2933(4) 0.2170(4) -0.3958(7) 0.2082 Uani
C4J C -0.0763(2) -0.2933(4) -0.3958(7) 0.2082 Uani
H4K H 0.2780 0.1977 -0.4065 0.3120 Uiso
H4J H -0.0803 -0.2780 -0.4065 0.3120 Uiso
H5K H 0.3091 0.2230 -0.4254 0.3120 Uiso
H5J H -0.0861 -0.3091 -0.4254 0.3120 Uiso
H6K H 0.3002 0.2170 -0.3533 0.3120 Uiso
H6J H -0.0832 -0.3002 -0.3533 0.3120 Uiso
C5K C 0.3070(5) 0.2684(3) -0.3816(8) 0.2087 Uani
C5J C -0.0386(4) -0.3070(5) -0.3816(8) 0.2087 Uani
H7K H 0.3007 0.2825 -0.3830 0.3130 Uiso
H7J H -0.0182 -0.3007 -0.3830 0.3130 Uiso
H8K H 0.3138 0.2678 -0.3394 0.3130 Uiso
H8J H -0.0460 -0.3138 -0.3394 0.3130 Uiso
H9K H 0.3227 0.2738 -0.4115 0.3130 Uiso
H9J H -0.0489 -0.3227 -0.4115 0.3130 Uiso
C6K C 0.1910(4) 0.1629(2) -0.2827(6) 0.0587 Uani
C6J C -0.0281(3) -0.1910(4) -0.2827(6) 0.0587 Uani
C7K C 0.1668(4) 0.1315(2) -0.2808(5) 0.0806 Uani
C7J C -0.0353(3) -0.1668(4) -0.2808(5) 0.0806 Uani
C8K C 0.1745(4) 0.1148(3) -0.2345(7) 0.1039 Uani
C8J C -0.0597(3) -0.1745(4) -0.2345(7) 0.1039 Uani
H10K H 0.1589 0.0948 -0.2333 0.1560 Uiso
H10J H -0.0641 -0.1589 -0.2333 0.1560 Uiso
H11K H 0.1921 0.1155 -0.2479 0.1560 Uiso
H11J H -0.0766 -0.1921 -0.2479 0.1560 Uiso
H12K H 0.1771 0.1232 -0.1928 0.1560 Uiso
H12J H -0.0539 -0.1771 -0.1928 0.1560 Uiso
C9K C 0.1621(5) 0.1188(3) -0.3469(6) 0.1177 Uani
C9J C -0.0433(4) -0.1621(5) -0.3469(6) 0.1177 Uani
H13K H 0.1469 0.0988 -0.3459 0.1770 Uiso
H13J H -0.0481 -0.1469 -0.3459 0.1770 Uiso
H14K H 0.1568 0.1296 -0.3752 0.1770 Uiso
H14J H -0.0272 -0.1568 -0.3752 0.1770 Uiso
H15K H 0.1798 0.1199 -0.3618 0.1770 Uiso
H15J H -0.0599 -0.1798 -0.3618 0.1770 Uiso
C10K C 0.1393(4) 0.1311(3) -0.2602(8) 0.1223 Uani
C10J C -0.0082(3) -0.1393(4) -0.2602(8) 0.1223 Uani
H16K H 0.1235 0.1113 -0.2583 0.1830 Uiso
H16J H -0.0122 -0.1235 -0.2583 0.1830 Uiso
H17K H 0.1422 0.1399 -0.2188 0.1830 Uiso
H17J H -0.0023 -0.1422 -0.2188 0.1830 Uiso
H18K H 0.1347 0.1418 -0.2904 0.1830 Uiso
H18J H 0.0071 -0.1347 -0.2904 0.1830 Uiso
C11J C -0.0039(4) -0.2050(5) -0.0972(6) 0.0977 Uani
C11K C 0.2050(5) 0.2011(3) -0.0972(6) 0.0977 Uani
C12J C -0.0145(4) -0.2016(6) -0.0319(7) 0.1286 Uani
C12K C 0.2016(6) 0.1871(4) -0.0319(7) 0.1286 Uani
C13J C 0.0102(5) -0.1761(7) 0.0029(13) 0.1262 Uani
C13K C 0.1761(7) 0.1863(5) 0.0029(13) 0.1262 Uani
H19J H 0.0159 -0.1585 -0.0205 0.1900 Uiso
H19K H 0.1585 0.1744 -0.0205 0.1900 Uiso
H20J H 0.0038 -0.1744 0.0448 0.1900 Uiso
H20K H 0.1744 0.1782 0.0448 0.1900 Uiso
H21J H 0.0265 -0.1792 0.0065 0.1900 Uiso
H21K H 0.1792 0.2057 0.0065 0.1900 Uiso
C14J C -0.0401(5) -0.1965(6) -0.0388(14) 0.1376 Uani
C14K C 0.1965(6) 0.1564(4) -0.0388(14) 0.1376 Uani
H22J H -0.0340 -0.1786 -0.0614 0.2060 Uiso
H22K H 0.1786 0.1446 -0.0614 0.2060 Uiso
H23J H -0.0554 -0.2123 -0.0622 0.2060 Uiso
H23K H 0.2123 0.1569 -0.0622 0.2060 Uiso
H24J H -0.0471 -0.1954 0.0027 0.2060 Uiso
H24K H 0.1954 0.1483 0.0027 0.2060 Uiso
C15J C -0.0238(5) -0.2295(6) 0.0063(12) 0.1768 Uani
C15K C 0.2295(6) 0.2057(4) 0.0063(12) 0.1768 Uani
H25J H -0.0303 -0.2276 0.0478 0.2650 Uiso
H25K H 0.2276 0.1973 0.0478 0.2650 Uiso
H26J H -0.0393 -0.2457 -0.0156 0.2650 Uiso
H26K H 0.2457 0.2064 -0.0156 0.2650 Uiso
H27J H -0.0075 -0.2326 0.0107 0.2650 Uiso
H27K H 0.2326 0.2251 0.0107 0.2650 Uiso
C20J C -0.0039(3) -0.2713(4) -0.1553(8) 0.1326 Uani
C20K C 0.2713(4) 0.2674(3) -0.1553(8) 0.1326 Uani
C21J C -0.0054(3) -0.3005(4) -0.1486(7) 0.1684 Uani
C21K C 0.3005(4) 0.2951(3) -0.1486(7) 0.1684 Uani
C22J C -0.0363(3) -0.3252(4) -0.1511(9) 0.1912 Uani
C22K C 0.3252(4) 0.2889(3) -0.1511(9) 0.1912 Uani
H37J H -0.0473 -0.3231 -0.1171 0.2870 Uiso
H37K H 0.3231 0.2758 -0.1171 0.2870 Uiso
H38J H -0.0448 -0.3249 -0.1913 0.2870 Uiso
H38K H 0.3249 0.2801 -0.1913 0.2870 Uiso
H39J H -0.0366 -0.3434 -0.1464 0.2870 Uiso
H39K H 0.3434 0.3068 -0.1464 0.2870 Uiso
C23J C 0.0117(4) -0.3042(6) -0.2051(8) 0.2609 Uani
C23K C 0.3042(6) 0.3159(4) -0.2051(8) 0.2609 Uani
H40J H 0.0111 -0.3225 -0.2010 0.3920 Uiso
H40K H 0.3225 0.3336 -0.2010 0.3920 Uiso
H41J H 0.0028 -0.3038 -0.2447 0.3920 Uiso
H41K H 0.3038 0.3066 -0.2447 0.3920 Uiso
H42J H 0.0316 -0.2886 -0.2042 0.3920 Uiso
H42K H 0.2886 0.3202 -0.2042 0.3920 Uiso
C24J C 0.0094(4) -0.3014(6) -0.0879(8) 0.1946 Uani
C24K C 0.3014(6) 0.3108(4) -0.0879(8) 0.1946 Uani
H43J H -0.0008 -0.2997 -0.0518 0.2920 Uiso
H43K H 0.2997 0.2989 -0.0518 0.2920 Uiso
H44J H 0.0093 -0.3196 -0.0856 0.2920 Uiso
H44K H 0.3196 0.3289 -0.0856 0.2920 Uiso
H45J H 0.0292 -0.2856 -0.0877 0.2920 Uiso
H45K H 0.2856 0.3148 -0.0877 0.2920 Uiso
C25J C 0.0639(3) -0.1512(4) -0.2447(7) 0.0676 Uani
C25K C 0.1512(4) 0.2151(3) -0.2447(7) 0.0676 Uani
C26J C 0.0857(3) -0.1190(4) -0.2407(6) 0.0892 Uani
C26K C 0.1190(4) 0.2047(3) -0.2407(6) 0.0892 Uani
C27J C 0.0799(4) -0.1018(5) -0.2891(8) 0.1267 Uani
C27K C 0.1018(5) 0.1817(3) -0.2891(8) 0.1267 Uani
H46J H 0.0618 -0.1026 -0.2794 0.1900 Uiso
H46K H 0.1026 0.1644 -0.2794 0.1900 Uiso
H47J H 0.0954 -0.0819 -0.2883 0.1900 Uiso
H47K H 0.0819 0.1773 -0.2883 0.1900 Uiso
H48J H 0.0787 -0.1098 -0.3308 0.1900 Uiso
H48K H 0.1098 0.1885 -0.3308 0.1900 Uiso
C28J C 0.1148(3) -0.1146(5) -0.2615(9) 0.1437 Uani
C28K C 0.1146(5) 0.2294(4) -0.2615(9) 0.1437 Uani
H49J H 0.1210 -0.1244 -0.2323 0.2160 Uiso
H49K H 0.1244 0.2454 -0.2323 0.2160 Uiso
H50J H 0.1131 -0.1225 -0.3036 0.2160 Uiso
H50K H 0.1225 0.2356 -0.3036 0.2160 Uiso
H51J H 0.1288 -0.0942 -0.2620 0.2160 Uiso
H51K H 0.0942 0.2230 -0.2620 0.2160 Uiso
C29J C 0.0914(4) -0.1087(6) -0.1734(7) 0.1381 Uani
C29K C 0.1087(6) 0.2001(4) -0.1734(7) 0.1381 Uani
H52J H 0.0743 -0.1095 -0.1557 0.2080 Uiso
H52K H 0.1095 0.1838 -0.1557 0.2080 Uiso
H53J H 0.0966 -0.1207 -0.1489 0.2080 Uiso
H53K H 0.1207 0.2173 -0.1489 0.2080 Uiso
H54J H 0.1072 -0.0889 -0.1724 0.2080 Uiso
H54K H 0.0889 0.1961 -0.1724 0.2080 Uiso
C30J C 0.0667(2) -0.2152(3) -0.2925(6) 0.0560 Uani
C30K C 0.2152(3) 0.2819(2) -0.2925(6) 0.0560 Uani
C31J C 0.0913(2) -0.2184(3) -0.3184(5) 0.0801 Uani
C31K C 0.2184(3) 0.3097(2) -0.3184(5) 0.0801 Uani
C32J C 0.0888(3) -0.2239(4) -0.3892(5) 0.0962 Uani
C32K C 0.2239(4) 0.3127(3) -0.3892(5) 0.0962 Uani
H55J H 0.0885 -0.2081 -0.4108 0.1450 Uiso
H55K H 0.2081 0.2966 -0.4108 0.1450 Uiso
H56J H 0.1052 -0.2254 -0.4037 0.1450 Uiso
H56K H 0.2254 0.3306 -0.4037 0.1450 Uiso
H57J H 0.0711 -0.2418 -0.3983 0.1450 Uiso
H57K H 0.2418 0.3129 -0.3983 0.1450 Uiso
C33J C 0.0916(3) -0.2433(4) -0.2850(7) 0.1112 Uani
C33K C 0.2433(4) 0.3349(3) -0.2850(7) 0.1112 Uani
H58J H 0.0931 -0.2400 -0.2398 0.1670 Uiso
H58K H 0.2400 0.3331 -0.2398 0.1670 Uiso
H59J H 0.0739 -0.2611 -0.2943 0.1670 Uiso
H59K H 0.2611 0.3350 -0.2943 0.1670 Uiso
H60J H 0.1080 -0.2448 -0.2996 0.1670 Uiso
H60K H 0.2448 0.3528 -0.2996 0.1670 Uiso
C34J C 0.1191(2) -0.1913(4) -0.3010(7) 0.1164 Uani
C34K C 0.1913(4) 0.3104(3) -0.3010(7) 0.1164 Uani
H61J H 0.1197 -0.1748 -0.3215 0.1750 Uiso
H61K H 0.1748 0.2945 -0.3215 0.1750 Uiso
H62J H 0.1200 -0.1886 -0.2556 0.1750 Uiso
H62K H 0.1886 0.3086 -0.2556 0.1750 Uiso
H63J H 0.1354 -0.1931 -0.3149 0.1750 Uiso
H63K H 0.1931 0.3285 -0.3149 0.1750 Uiso
C35A C 0.0373(3) 0.0593(4) 0.6316(5) 0.0530 Uani
C35J C -0.0373(3) -0.0593(4) -0.6316(5) 0.0530 Uani
C36A C 0.0545(2) 0.0885(3) 0.5999(5) 0.0723 Uani
C36J C -0.0545(2) -0.0885(3) -0.5999(5) 0.0723 Uani
C37A C 0.0856(2) 0.0976(4) 0.5880(8) 0.1254 Uani
C37J C -0.0856(2) -0.0976(4) -0.5880(8) 0.1254 Uani
H64A H 0.0954 0.1001 0.6280 0.1870 Uiso
H64J H -0.0954 -0.1001 -0.6280 0.1870 Uiso
H65A H 0.0947 0.1156 0.5647 0.1870 Uiso
H65J H -0.0947 -0.1156 -0.5647 0.1870 Uiso
H66A H 0.0866 0.0827 0.5635 0.1870 Uiso
H66J H -0.0866 -0.0827 -0.5635 0.1870 Uiso
C38A C 0.0410(3) 0.0854(4) 0.5345(6) 0.1127 Uani
C38J C -0.0410(3) -0.0854(4) -0.5345(6) 0.1127 Uani
H67A H 0.0436 0.0717 0.5096 0.1690 Uiso
H67J H -0.0436 -0.0717 -0.5096 0.1690 Uiso
H68A H 0.0503 0.1040 0.5134 0.1690 Uiso
H68J H -0.0503 -0.1040 -0.5134 0.1690 Uiso
H69A H 0.0206 0.0787 0.5392 0.1690 Uiso
H69J H -0.0206 -0.0787 -0.5392 0.1690 Uiso
C39A C 0.0510(4) 0.1102(5) 0.6407(7) 0.1323 Uani
C39J C -0.0510(4) -0.1102(5) -0.6407(7) 0.1323 Uani
H70A H 0.0602 0.1121 0.6813 0.1980 Uiso
H70J H -0.0602 -0.1121 -0.6813 0.1980 Uiso
H71A H 0.0306 0.1033 0.6469 0.1980 Uiso
H71J H -0.0306 -0.1033 -0.6469 0.1980 Uiso
H72A H 0.0599 0.1287 0.6196 0.1980 Uiso
H72J H -0.0599 -0.1287 -0.6196 0.1980 Uiso
C40B C 0.0167(4) -0.0370(3) 0.8016(5) 0.0750 Uani
C40J C 0.0537(3) 0.0167(4) -0.8016(5) 0.0750 Uani
C41B C 0.0244(4) -0.0477(3) 0.8606(6) 0.0944 Uani
C41J C 0.0721(3) 0.0244(4) -0.8606(6) 0.0944 Uani
C42B C -0.0012(5) -0.0749(3) 0.8857(9) 0.1534 Uani
C42J C 0.0737(4) -0.0012(5) -0.8857(9) 0.1534 Uani
H73B H -0.0082 -0.0896 0.8532 0.2300 Uiso
H73J H 0.0814 -0.0082 -0.8532 0.2300 Uiso
H74B H -0.0164 -0.0709 0.8975 0.2300 Uiso
H74J H 0.0545 -0.0164 -0.8975 0.2300 Uiso
H75B H 0.0046 -0.0816 0.9224 0.2300 Uiso
H75J H 0.0862 0.0046 -0.9224 0.2300 Uiso
C43B C 0.0375(6) -0.0237(4) 0.9089(8) 0.1790 Uani
C43J C 0.0612(4) 0.0375(6) -0.9089(8) 0.1790 Uani
H76B H 0.0229 -0.0195 0.9241 0.2690 Uiso
H76J H 0.0424 0.0229 -0.9241 0.2690 Uiso
H77B H 0.0531 -0.0065 0.8894 0.2690 Uiso
H77J H 0.0596 0.0531 -0.8894 0.2690 Uiso
H78B H 0.0450 -0.0296 0.9440 0.2690 Uiso
H78J H 0.0746 0.0450 -0.9440 0.2690 Uiso
C44B C 0.0512(5) -0.0496(4) 0.8476(9) 0.1722 Uani
C44J C 0.1008(3) 0.0512(5) -0.8476(9) 0.1722 Uani
H79B H 0.0469 -0.0644 0.8162 0.2580 Uiso
H79J H 0.1113 0.0469 -0.8162 0.2580 Uiso
H80B H 0.0574 -0.0545 0.8863 0.2580 Uiso
H80J H 0.1119 0.0574 -0.8863 0.2580 Uiso
H81B H 0.0663 -0.0312 0.8320 0.2580 Uiso
H81J H 0.0975 0.0663 -0.8320 0.2580 Uiso
C45K C 0.2942(3) 0.2065(2) -0.1997(5) 0.0472 Uani
C45J C -0.0877(2) -0.2942(3) -0.1997(5) 0.0472 Uani
H82K H 0.3027 0.2241 -0.2218 0.0570 Uiso
H82J H -0.0786 -0.3027 -0.2218 0.0570 Uiso
C46K C 0.3117(3) 0.1973(2) -0.1778(5) 0.0420 Uani
C46J C -0.1144(2) -0.3117(3) -0.1778(5) 0.0420 Uani
H83K H 0.3315 0.2077 -0.1870 0.0500 Uiso
H83J H -0.1238 -0.3315 -0.1870 0.0500 Uiso
C47K C 0.3008(3) 0.1726(2) -0.1419(4) 0.0398 Uani
C47J C -0.1282(2) -0.3008(3) -0.1419(4) 0.0398 Uani
C48K C 0.2708(3) 0.1573(2) -0.1356(5) 0.0598 Uani
C48J C -0.1135(2) -0.2708(3) -0.1356(5) 0.0598 Uani
H84K H 0.2616 0.1396 -0.1137 0.0720 Uiso
H84J H -0.1220 -0.2616 -0.1137 0.0720 Uiso
C49K C 0.2550(3) 0.1682(2) -0.1614(6) 0.0599 Uani
C49J C -0.0868(2) -0.2550(3) -0.1614(6) 0.0599 Uani
H85K H 0.2348 0.1575 -0.1566 0.0730 Uiso
H85J H -0.0773 -0.2348 -0.1566 0.0730 Uiso
C50K C 0.3181(3) 0.1624(2) -0.1089(5) 0.0426 Uani
C50J C -0.1557(2) -0.3181(3) -0.1089(5) 0.0426 Uani
C51K C 0.3466(3) 0.1738(2) -0.1230(5) 0.0472 Uani
C51J C -0.1728(2) -0.3466(3) -0.1230(5) 0.0472 Uani
H86K H 0.3553 0.1872 -0.1559 0.0570 Uiso
H86J H -0.1681 -0.3553 -0.1559 0.0570 Uiso
C52K C 0.3622(3) 0.1650(2) -0.0872(5) 0.0457 Uani
C52J C -0.1972(2) -0.3622(3) -0.0872(5) 0.0457 Uani
C53K C 0.3489(3) 0.1447(2) -0.0403(5) 0.0497 Uani
C53J C -0.2042(2) -0.3489(3) -0.0403(5) 0.0497 Uani
H87K H 0.3593 0.1383 -0.0158 0.0590 Uiso
H87J H -0.2210 -0.3593 -0.0158 0.0590 Uiso
C54K C 0.3197(3) 0.1342(2) -0.0306(5) 0.0472 Uani
C54J C -0.1855(2) -0.3197(3) -0.0306(5) 0.0472 Uani
C55K C 0.3027(3) 0.1118(2) 0.0168(5) 0.0462 Uani
C55J C -0.1909(2) -0.3027(3) 0.0168(5) 0.0462 Uani
C56K C 0.3161(3) 0.1032(2) 0.0613(5) 0.0500 Uani
C56J C -0.2129(2) -0.3161(3) 0.0613(5) 0.0500 Uani
H88K H 0.3363 0.1110 0.0601 0.0600 Uiso
H88J H -0.2253 -0.3363 0.0601 0.0600 Uiso
C57K C 0.3006(3) 0.0840(2) 0.1056(5) 0.0467 Uani
C57J C -0.2166(2) -0.3006(3) 0.1056(5) 0.0467 Uani
H89K H 0.3102 0.0789 0.1356 0.0560 Uiso
H89J H -0.2313 -0.3102 0.1356 0.0560 Uiso
C58K C 0.2592(3) 0.0800(2) 0.0679(5) 0.0483 Uani
C58J C -0.1792(2) -0.2592(3) 0.0679(5) 0.0483 Uani
H90K H 0.2391 0.0722 0.0702 0.0580 Uiso
H90J H -0.1669 -0.2391 0.0702 0.0580 Uiso
C59K C 0.2739(3) 0.0997(2) 0.0212(5) 0.0538 Uani
C59J C -0.1742(2) -0.2739(3) 0.0212(5) 0.0538 Uani
H91K H 0.2638 0.1047 -0.0077 0.0650 Uiso
H91J H -0.1591 -0.2638 -0.0077 0.0650 Uiso
C60K C 0.3937(3) 0.1770(2) -0.0993(5) 0.0477 Uani
C60J C -0.2167(2) -0.3937(3) -0.0993(5) 0.0477 Uani
C61K C 0.4073(4) 0.1608(3) -0.0902(6) 0.0764 Uani
C61J C -0.2465(3) -0.4073(4) -0.0902(6) 0.0764 Uani
H92K H 0.3963 0.1417 -0.0752 0.0910 Uiso
H92J H -0.2546 -0.3963 -0.0752 0.0910 Uiso
C62K C 0.4351(4) 0.1715(3) -0.1023(7) 0.0949 Uani
C62J C -0.2636(3) -0.4351(4) -0.1023(7) 0.0949 Uani
H93K H 0.4434 0.1599 -0.0944 0.1140 Uiso
H93J H -0.2835 -0.4434 -0.0944 0.1140 Uiso
C63K C 0.4527(4) 0.1991(3) -0.1261(6) 0.0713 Uani
C63J C -0.2536(3) -0.4527(4) -0.1261(6) 0.0713 Uani
C64K C 0.4391(4) 0.2152(3) -0.1301(6) 0.0717 Uani
C64J C -0.2239(3) -0.4391(4) -0.1301(6) 0.0717 Uani
H94K H 0.4503 0.2347 -0.1416 0.0860 Uiso
H94J H -0.2156 -0.4503 -0.1416 0.0860 Uiso
C65K C 0.4113(3) 0.2048(2) -0.1188(5) 0.0524 Uani
C65J C -0.2065(2) -0.4113(3) -0.1188(5) 0.0524 Uani
H95K H 0.4036 0.2170 -0.1243 0.0630 Uiso
H95J H -0.1866 -0.4036 -0.1243 0.0630 Uiso
C66K C 0.4978(4) 0.2387(3) -0.1630(7) 0.0827 Uani
C66J C -0.2591(3) -0.4978(4) -0.1630(7) 0.0827 Uani
H96K H 0.4873 0.2491 -0.1598 0.1240 Uiso
H96J H -0.2382 -0.4873 -0.1598 0.1240 Uiso
H97K H 0.5161 0.2494 -0.1409 0.1240 Uiso
H97J H -0.2667 -0.5161 -0.1409 0.1240 Uiso
H98K H 0.5014 0.2367 -0.2071 0.1240 Uiso
H98J H -0.2647 -0.5014 -0.2071 0.1240 Uiso
C67K C 0.4935(5) 0.1926(4) -0.1328(11) 0.1767 Uani
C67J C -0.3009(3) -0.4935(5) -0.1328(11) 0.1767 Uani
H99K H 0.4802 0.1745 -0.1122 0.2630 Uiso
H99J H -0.3057 -0.4802 -0.1122 0.2630 Uiso
H100K H 0.4973 0.1888 -0.1754 0.2630 Uiso
H100J H -0.3085 -0.4973 -0.1754 0.2630 Uiso
H101K H 0.5115 0.2022 -0.1092 0.2630 Uiso
H101J H -0.3093 -0.5115 -0.1092 0.2630 Uiso
C68J C 0.0323(2) -0.1599(3) -0.4339(5) 0.0451 Uani
C68K C 0.1599(3) 0.1922(2) -0.4339(5) 0.0451 Uani
H102J H 0.0282 -0.1494 -0.4042 0.0540 Uiso
H102K H 0.1494 0.1776 -0.4042 0.0540 Uiso
C69J C 0.0370(2) -0.1508(3) -0.4950(5) 0.0458 Uani
C69K C 0.1508(3) 0.1878(2) -0.4950(5) 0.0458 Uani
H103J H 0.0357 -0.1346 -0.5071 0.0550 Uiso
H103K H 0.1346 0.1703 -0.5071 0.0550 Uiso
C70J C 0.0434(2) -0.1653(3) -0.5380(5) 0.0484 Uani
C70K C 0.1653(3) 0.2087(2) -0.5380(5) 0.0484 Uani
C71J C 0.0458(2) -0.1880(3) -0.5187(5) 0.0531 Uani
C71K C 0.1880(3) 0.2338(2) -0.5187(5) 0.0531 Uani
H104J H 0.0512 -0.1979 -0.5473 0.0640 Uiso
H104K H 0.1979 0.2491 -0.5473 0.0640 Uiso
C72J C 0.0401(2) -0.1965(3) -0.4577(5) 0.0561 Uani
C72K C 0.1965(3) 0.2366(2) -0.4577(5) 0.0561 Uani
H105J H 0.0412 -0.2128 -0.4451 0.0670 Uiso
H105K H 0.2128 0.2540 -0.4451 0.0670 Uiso
C73J C 0.0467(2) -0.1559(3) -0.6065(4) 0.0397 Uani
C73K C 0.1559(3) 0.2026(2) -0.6065(4) 0.0397 Uani
C74J C 0.0531(2) -0.1703(3) -0.6510(5) 0.0558 Uani
C74K C 0.1703(3) 0.2234(2) -0.6510(5) 0.0558 Uani
H106J H 0.0561 -0.1855 -0.6395 0.0670 Uiso
H106K H 0.1855 0.2416 -0.6395 0.0670 Uiso
C75J C 0.0552(2) -0.1617(3) -0.7152(5) 0.0548 Uani
C75K C 0.1617(3) 0.2169(2) -0.7152(5) 0.0548 Uani
C76J C 0.0512(2) -0.1385(3) -0.7266(5) 0.0487 Uani
C76K C 0.1385(3) 0.1897(2) -0.7266(5) 0.0487 Uani
H107J H 0.0527 -0.1317 -0.7682 0.0590 Uiso
H107K H 0.1317 0.1844 -0.7682 0.0590 Uiso
C77J C 0.0452(2) -0.1254(3) -0.6792(5) 0.0503 Uani
C77K C 0.1254(3) 0.1706(2) -0.6792(5) 0.0503 Uani
C78J C 0.0395(2) -0.1017(3) -0.6898(5) 0.0426 Uani
C78K C 0.1017(3) 0.1412(2) -0.6898(5) 0.0426 Uani
C79J C 0.0392(2) -0.0859(3) -0.6395(5) 0.0540 Uani
C79K C 0.0859(3) 0.1251(2) -0.6395(5) 0.0540 Uani
H108J H 0.0425 -0.0902 -0.5983 0.0650 Uiso
H108K H 0.0902 0.1327 -0.5983 0.0650 Uiso
C80J C 0.0339(2) -0.0639(4) -0.6508(5) 0.0616 Uani
C80K C 0.0639(4) 0.0978(3) -0.6508(5) 0.0616 Uani
H109J H 0.0343 -0.0528 -0.6160 0.0740 Uiso
H109K H 0.0528 0.0871 -0.6160 0.0740 Uiso
C81J C 0.0284(2) -0.0725(3) -0.7536(5) 0.0506 Uani
C81K C 0.0725(3) 0.1009(2) -0.7536(5) 0.0506 Uani
H110J H 0.0243 -0.0684 -0.7942 0.0610 Uiso
H110K H 0.0684 0.0927 -0.7942 0.0610 Uiso
C82J C 0.0340(2) -0.0942(4) -0.7476(5) 0.0573 Uani
C82K C 0.0942(4) 0.1282(3) -0.7476(5) 0.0573 Uani
H111J H 0.0340 -0.1044 -0.7837 0.0690 Uiso
H111K H 0.1044 0.1384 -0.7837 0.0690 Uiso
C83J C 0.0612(3) -0.1768(4) -0.7648(5) 0.0636 Uani
C83K C 0.1768(4) 0.2380(2) -0.7648(5) 0.0636 Uani
C84J C 0.0770(3) -0.1905(4) -0.7531(6) 0.0721 Uani
C84K C 0.1905(4) 0.2675(3) -0.7531(6) 0.0721 Uani
H112J H 0.0861 -0.1882 -0.7138 0.0870 Uiso
H112K H 0.1882 0.2743 -0.7138 0.0870 Uiso
C85J C 0.0793(3) -0.2078(4) -0.7988(6) 0.0724 Uani
C85K C 0.2078(4) 0.2871(2) -0.7988(6) 0.0724 Uani
H113J H 0.0899 -0.2170 -0.7900 0.0860 Uiso
H113K H 0.2170 0.3069 -0.7900 0.0860 Uiso
C86J C 0.0663(3) -0.2116(4) -0.8570(5) 0.0646 Uani
C86K C 0.2116(4) 0.2779(3) -0.8570(5) 0.0646 Uani
C87J C 0.0515(3) -0.1971(4) -0.8677(5) 0.0780 Uani
C87K C 0.1971(4) 0.2486(3) -0.8677(5) 0.0780 Uani
H114J H 0.0426 -0.1990 -0.9071 0.0940 Uiso
H114K H 0.1990 0.2416 -0.9071 0.0940 Uiso
C88J C 0.0493(3) -0.1800(4) -0.8222(5) 0.0671 Uani
C88K C 0.1800(4) 0.2293(3) -0.8222(5) 0.0671 Uani
H115J H 0.0392 -0.1703 -0.8316 0.0810 Uiso
H115K H 0.1703 0.2095 -0.8316 0.0810 Uiso
C89J C 0.0791(3) -0.2481(4) -0.8811(7) 0.1076 Uani
C89K C 0.2481(4) 0.3272(3) -0.8811(7) 0.1076 Uani
H116J H 0.0935 -0.2381 -0.8485 0.1610 Uiso
H116K H 0.2381 0.3316 -0.8485 0.1610 Uiso
H117J H 0.0636 -0.2660 -0.8642 0.1610 Uiso
H117K H 0.2660 0.3296 -0.8642 0.1610 Uiso
H118J H 0.0879 -0.2523 -0.9165 0.1610 Uiso
H118K H 0.2523 0.3402 -0.9165 0.1610 Uiso
C90J C 0.0456(3) -0.2410(4) -0.9501(6) 0.0764 Uani
C90K C 0.2410(4) 0.2866(3) -0.9501(6) 0.0764 Uani
H119J H 0.0397 -0.2270 -0.9600 0.1150 Uiso
H119K H 0.2270 0.2667 -0.9600 0.1150 Uiso
H120J H 0.0532 -0.2451 -0.9879 0.1150 Uiso
H120K H 0.2451 0.2983 -0.9879 0.1150 Uiso
H121J H 0.0292 -0.2586 -0.9349 0.1150 Uiso
H121K H 0.2586 0.2878 -0.9349 0.1150 Uiso
Ni2? Ni 0.03962(3) 0.01381(3) 0.71193(7) 0.0536 Uani
C16? C 0.1812(5) -0.0076(6) 0.0416(10) 0.1034 Uani
C17? C 0.1999(7) 0.0115(8) -0.0132(17) 0.1154 Uani
H28? H 0.1876 0.0098 -0.0485 0.1730 Uiso
H29? H 0.2133 0.0052 -0.0261 0.1730 Uiso
H30? H 0.2106 0.0314 0.0006 0.1730 Uiso
C18? C 0.1658(8) -0.0392(6) 0.021(2) 0.1189 Uani
H31? H 0.1525 -0.0421 -0.0132 0.1780 Uiso
H32? H 0.1552 -0.0514 0.0563 0.1780 Uiso
H33? H 0.1799 -0.0442 0.0063 0.1780 Uiso
C19? C 0.1594(7) 0.0014(8) 0.0613(16) 0.1326 Uani
H34? H 0.1467 -0.0013 0.0261 0.1990 Uiso
H35? H 0.1696 0.0216 0.0736 0.1990 Uiso
H36? H 0.1481 -0.0103 0.0967 0.1990 Uiso
loop_
_atom_site_aniso_label
_atom_site_aniso_U_11
_atom_site_aniso_U_22
_atom_site_aniso_U_33
_atom_site_aniso_U_23
_atom_site_aniso_U_13
_atom_site_aniso_U_12
Fe1 0.0415(10) 0.0422(9) 0.0414(8) -0.0069(7) -0.0056(7) 0.0231(8)
Fe2 0.0440(10) 0.0384(9) 0.0406(8) -0.0015(7) -0.0005(7) 0.0203(8)
Fe3 0.0513(10) 0.0535(11) 0.0569(10) 0.0033(8) -0.0008(8) 0.0269(9)
Ni1 0.0537 0.0479 0.0478 -0.0013 0.0025 0.0227
N1 0.026(5) 0.049(6) 0.058(6) -0.015(5) -0.014(4) 0.016(5)
N2 0.063(6) 0.045(6) 0.047(5) -0.017(4) -0.019(5) 0.032(5)
N3 0.061(6) 0.053(6) 0.041(5) -0.001(5) 0.005(5) 0.025(6)
N4 0.076(9) 0.053(6) 0.160(12) -0.003(7) -0.015(8) 0.043(7)
N5 0.048(6) 0.035(5) 0.043(5) -0.004(4) 0.005(5) 0.016(5)
N6 0.040(6) 0.034(5) 0.043(5) -0.003(4) -0.001(4) 0.015(4)
N7 0.044(6) 0.059(6) 0.053(6) 0.008(5) 0.012(5) 0.024(5)
N8 0.061(8) 0.108(9) 0.056(7) -0.022(6) -0.011(6) 0.035(7)
O1 0.039(4) 0.041(4) 0.036(4) 0.003(3) -0.004(3) 0.016(3)
O2 0.031(4) 0.031(4) 0.066(8) 0.000 0.000 0.016(2)
O3 0.077(6) 0.032(4) 0.054(4) -0.001(3) -0.002(4) 0.029(4)
O4 0.065(5) 0.056(5) 0.044(4) -0.003(4) -0.003(4) 0.036(4)
O5 0.040(5) 0.041(5) 0.083(6) -0.017(4) 0.006(4) 0.016(4)
O6 0.052(5) 0.054(5) 0.066(5) -0.003(4) 0.016(4) 0.015(4)
O7 0.075(6) 0.071(6) 0.045(5) -0.017(4) -0.029(4) 0.024(5)
O8 0.047(5) 0.081(6) 0.048(5) 0.007(4) -0.014(4) 0.016(5)
O9 0.053(5) 0.044(5) 0.072(5) -0.016(4) 0.000(4) 0.028(4)
O10 0.054(5) 0.063(5) 0.074(5) 0.007(4) 0.017(4) 0.030(5)
O11 0.084(6) 0.057(5) 0.048(5) 0.007(4) 0.010(4) 0.045(5)
O12 0.087(6) 0.060(5) 0.059(5) 0.016(4) 0.015(4) 0.053(5)
O13 0.047(5) 0.054(5) 0.047(4) -0.017(4) -0.010(4) 0.008(4)
O14 0.051(5) 0.055(5) 0.040(4) -0.001(4) -0.005(4) 0.005(4)
O15 0.051(5) 0.046(5) 0.075(6) -0.001(4) 0.009(4) 0.019(4)
O16 0.057(5) 0.052(5) 0.076(5) -0.001(4) 0.016(4) 0.034(4)
O17 0.039(5) 0.053(5) 0.067(5) -0.002(4) -0.006(4) 0.023(4)
O18 0.073(6) 0.050(5) 0.067(5) -0.007(4) -0.013(4) 0.037(5)
C1 0.248(13) 0.126(9) 0.039(6) -0.012(6) -0.006(7) 0.151(10)
C2 0.274(13) 0.147(8) 0.073(6) 0.002(6) -0.018(8) 0.152(10)
C3 0.317(17) 0.185(12) 0.064(7) 0.006(9) -0.027(10) 0.159(13)
C4 0.339(17) 0.147(10) 0.114(11) 0.020(10) -0.050(13) 0.103(13)
C5 0.266(15) 0.276(15) 0.138(12) 0.023(12) -0.020(12) 0.176(13)
C6 0.044(6) 0.064(7) 0.068(7) 0.007(6) 0.007(6) 0.027(6)
C7 0.061(6) 0.082(7) 0.095(7) -0.008(6) 0.002(5) 0.033(6)
C8 0.064(9) 0.103(10) 0.121(10) -0.036(8) -0.025(8) 0.024(8)
C9 0.074(9) 0.143(11) 0.109(10) -0.019(9) 0.021(8) 0.034(9)
C10 0.098(10) 0.121(11) 0.155(12) -0.030(10) -0.028(9) 0.060(9)
C11 0.068(8) 0.117(9) 0.065(7) 0.018(7) -0.021(6) 0.014(7)
C12 0.089(9) 0.134(10) 0.083(8) 0.012(8) -0.023(7) -0.004(8)
C13 0.081(15) 0.145(16) 0.092(14) 0.030(13) -0.030(13) 0.011(13)
C14 0.097(15) 0.140(16) 0.094(15) 0.014(13) -0.038(13) -0.002(13)
C15 0.131(16) 0.158(16) 0.097(14) -0.036(14) -0.002(13) -0.036(14)
C20 0.112(10) 0.097(9) 0.235(15) 0.052(9) 0.092(9) 0.087(8)
C21 0.141(10) 0.128(9) 0.268(14) 0.043(9) 0.095(9) 0.091(9)
C22 0.165(13) 0.135(12) 0.315(18) 0.027(13) 0.105(13) 0.106(11)
C23 0.184(16) 0.223(16) 0.36(2) 0.004(16) 0.033(16) 0.090(14)
C24 0.179(14) 0.189(14) 0.261(18) 0.086(13) 0.129(13) 0.126(12)
C25 0.081(7) 0.083(8) 0.080(7) -0.009(6) -0.004(6) 0.072(6)
C26 0.106(7) 0.100(7) 0.101(7) 0.003(6) 0.001(6) 0.081(6)
C27 0.126(11) 0.130(11) 0.164(13) 0.015(10) 0.035(10) 0.094(9)
C28 0.161(13) 0.100(11) 0.171(13) -0.006(10) -0.007(11) 0.066(10)
C29 0.171(12) 0.164(12) 0.145(12) 0.007(11) -0.005(11) 0.133(10)
C30 0.057(7) 0.038(6) 0.064(7) -0.007(5) -0.014(6) 0.017(5)
C31 0.070(6) 0.063(6) 0.075(6) -0.012(5) -0.015(5) 0.009(5)
C32 0.085(9) 0.100(9) 0.062(8) -0.009(7) -0.022(7) 0.015(8)
C33 0.060(9) 0.138(11) 0.099(10) -0.031(9) -0.028(8) 0.022(8)
C34 0.116(10) 0.054(8) 0.124(11) -0.015(8) -0.016(9) 0.001(8)
C35 0.062(9) 0.079(10) 0.039(6) 0.005(6) 0.001(6) 0.051(8)
C36 0.062(9) 0.080(10) 0.081(9) 0.018(8) 0.045(7) 0.040(8)
C37 0.125(14) 0.056(10) 0.183(18) -0.019(11) 0.034(13) 0.036(11)
C38 0.149(15) 0.143(14) 0.098(12) 0.029(10) 0.060(11) 0.112(13)
C39 0.178(18) 0.188(18) 0.129(14) -0.028(13) -0.043(13) 0.165(17)
C40 0.082(8) 0.089(8) 0.073(7) -0.024(6) -0.035(6) 0.057(7)
C41 0.105(8) 0.104(8) 0.094(7) -0.044(6) -0.037(6) 0.067(7)
C42 0.134(12) 0.160(12) 0.155(13) -0.072(11) -0.044(11) 0.065(11)
C43 0.149(13) 0.188(14) 0.117(12) -0.063(11) -0.007(11) 0.022(12)
C44 0.194(14) 0.133(12) 0.142(12) -0.077(11) -0.077(11) 0.046(12)
C45 0.040(7) 0.048(8) 0.051(7) -0.011(6) -0.013(5) 0.020(6)
C46 0.046(7) 0.035(7) 0.050(6) 0.008(5) 0.000(5) 0.024(6)
C47 0.046(7) 0.038(7) 0.038(6) -0.003(5) -0.003(5) 0.023(6)
C48 0.044(7) 0.052(8) 0.074(8) -0.003(6) -0.013(6) 0.017(7)
C49 0.053(8) 0.030(7) 0.097(10) -0.013(7) -0.015(7) 0.021(6)
C50 0.043(7) 0.040(7) 0.045(6) 0.004(5) 0.001(5) 0.021(6)
C51 0.041(7) 0.045(7) 0.043(6) -0.005(5) -0.005(5) 0.012(6)
C52 0.032(6) 0.045(7) 0.053(7) -0.002(6) -0.009(5) 0.014(6)
C53 0.048(7) 0.040(7) 0.049(7) -0.014(5) -0.011(6) 0.013(6)
C54 0.050(7) 0.043(7) 0.059(7) -0.003(6) 0.003(6) 0.031(6)
C55 0.039(7) 0.029(6) 0.056(7) -0.004(5) 0.000(5) 0.006(6)
C56 0.045(7) 0.043(7) 0.062(7) 0.000(6) -0.008(6) 0.022(6)
C57 0.045(7) 0.041(7) 0.052(7) -0.009(5) -0.010(6) 0.020(6)
C58 0.067(8) 0.043(7) 0.041(6) -0.011(5) -0.012(6) 0.032(6)
C59 0.062(8) 0.040(7) 0.060(7) -0.022(6) -0.017(6) 0.026(7)
C60 0.050(8) 0.042(7) 0.051(7) -0.003(5) -0.003(6) 0.023(6)
C61 0.049(8) 0.035(8) 0.140(13) -0.010(8) -0.035(8) 0.017(7)
C62 0.083(11) 0.042(9) 0.146(14) -0.021(8) -0.061(10) 0.021(8)
C63 0.057(9) 0.050(9) 0.110(11) -0.012(8) -0.029(8) 0.029(8)
C64 0.051(8) 0.065(10) 0.095(10) -0.006(8) -0.002(7) 0.026(8)
C65 0.041(7) 0.047(8) 0.068(8) -0.006(6) -0.013(6) 0.021(6)
C66 0.073(10) 0.091(11) 0.120(12) -0.014(9) -0.012(9) 0.068(9)
C67 0.171(18) 0.043(7) 0.33(3) 0.003(14) -0.075(19) 0.064(10)
C68 0.051(7) 0.039(7) 0.046(6) -0.014(5) -0.008(5) 0.023(6)
C69 0.046(7) 0.037(7) 0.044(6) 0.000(5) 0.008(5) 0.013(6)
C70 0.059(8) 0.035(7) 0.048(7) 0.002(5) -0.007(6) 0.021(6)
C71 0.036(7) 0.069(8) 0.058(7) -0.015(6) 0.003(6) 0.029(6)
C72 0.038(7) 0.083(9) 0.043(7) -0.012(6) 0.006(6) 0.027(7)
C73 0.030(6) 0.032(6) 0.043(6) -0.002(5) 0.008(5) 0.005(5)
C74 0.037(7) 0.070(8) 0.054(7) -0.011(6) 0.009(6) 0.022(6)
C75 0.054(8) 0.057(8) 0.039(6) -0.004(5) -0.001(6) 0.017(6)
C76 0.032(7) 0.060(8) 0.046(6) -0.006(5) -0.005(5) 0.017(6)
C77 0.055(8) 0.047(7) 0.051(7) 0.005(6) -0.005(6) 0.027(6)
C78 0.030(6) 0.047(7) 0.041(6) -0.012(5) 0.000(5) 0.012(5)
C79 0.050(8) 0.048(7) 0.058(7) 0.016(6) 0.005(6) 0.020(6)
C80 0.053(8) 0.076(9) 0.050(7) 0.011(6) 0.000(6) 0.028(7)
C81 0.043(7) 0.063(8) 0.041(6) -0.004(6) 0.000(5) 0.023(6)
C82 0.052(8) 0.051(8) 0.064(8) -0.004(6) -0.010(6) 0.022(7)
C83 0.048(8) 0.112(11) 0.032(6) -0.007(6) -0.009(6) 0.041(8)
C84 0.039(8) 0.085(10) 0.075(9) -0.014(7) -0.006(7) 0.018(7)
C85 0.029(7) 0.078(10) 0.080(9) -0.004(8) -0.005(7) 0.004(7)
C86 0.060(9) 0.085(10) 0.047(7) -0.010(7) -0.005(7) 0.035(8)
C87 0.063(9) 0.145(13) 0.038(7) -0.011(7) -0.001(6) 0.061(10)
C88 0.053(8) 0.099(10) 0.056(8) -0.003(7) -0.003(6) 0.043(8)
C89 0.076(11) 0.159(16) 0.084(10) -0.048(10) -0.035(9) 0.056(11)
C90 0.083(10) 0.077(10) 0.068(9) -0.008(8) -0.022(8) 0.039(8)
Fe1K 0.0375 0.0415 0.0414 0.0056 -0.0013 0.0184
Fe1J 0.0422 0.0375 0.0414 0.0013 0.0069 0.0191
Fe2J 0.0384 0.0418 0.0406 0.001 0.0015 0.0181
Fe2K 0.0418 0.044 0.0406 0.0005 -0.001 0.0237
Fe3J 0.0535 0.051 0.0569 -0.0041 -0.0033 0.0266
Fe3A 0.0535 0.051 0.0569 -0.0041 -0.0033 0.0266
Fe3B 0.051 0.0513 0.0569 0.0008 0.0041 0.0244
Fe3K 0.051 0.0513 0.0569 0.0008 0.0041 0.0244
Fe3I 0.0513 0.0535 0.0569 0.0033 -0.0008 0.0269
Ni1K 0.0562(10) 0.0537(10) 0.0478(8) -0.0025(7) -0.0038(7) 0.0310(8)
Ni1J 0.0479 0.0562 0.0478 0.0038 0.0013 0.0252
Ni1A 0.0479 0.0562 0.0478 0.0038 0.0013 0.0252
N1K 0.043 0.026 0.058 0.014 -0.001 0.01
N1J 0.049 0.043 0.058 0.001 0.015 0.033
N2K 0.044 0.063 0.047 0.019 0.002 0.031
N2J 0.045 0.044 0.047 -0.002 0.017 0.013
N3K 0.064 0.061 0.041 -0.005 -0.006 0.036
N3J 0.053 0.064 0.041 0.006 0.001 0.028
N4K 0.043 0.076 0.16 0.015 0.012 0.033
N4J 0.053 0.043 0.16 -0.012 0.003 0.01
N5J 0.035 0.051 0.043 0.009 0.004 0.019
N5K 0.051 0.048 0.043 -0.005 -0.009 0.032
N6J 0.034 0.044 0.043 0.002 0.003 0.019
N6K 0.044 0.04 0.043 0.001 -0.002 0.025
N7J 0.059 0.055 0.053 0.004 -0.008 0.035
N7K 0.055 0.044 0.053 -0.012 -0.004 0.02
N7A 0.059 0.055 0.053 0.004 -0.008 0.035
N8J 0.108 0.099 0.056 0.011 0.022 0.073
N8K 0.099 0.061 0.056 0.011 -0.011 0.026
O1J 0.041 0.048 0.036 -0.007 -0.003 0.025
O1K 0.048 0.039 0.036 0.004 0.007 0.023
O1B 0.048 0.039 0.036 0.004 0.007 0.023
O2I 0.031 0.031 0.066 0 0 0.016
O3K 0.051 0.077 0.054 0.002 0.001 0.048
O3J 0.032 0.051 0.054 -0.001 0.001 0.003
O4K 0.049 0.065 0.044 0.003 -8.48021e-19 0.029
O4J 0.056 0.049 0.044 8.48021e-19 0.003 0.02
O5K 0.049 0.04 0.083 -0.006 -0.023 0.024
O5J 0.041 0.049 0.083 0.023 0.017 0.025
O6K 0.076 0.052 0.066 -0.016 -0.019 0.037
O6J 0.054 0.076 0.066 0.019 0.003 0.039
O7J 0.071 0.098 0.045 -0.012 0.017 0.047
O7K 0.098 0.075 0.045 0.029 0.012 0.051
O8J 0.081 0.096 0.048 -0.021 -0.007 0.065
O8K 0.096 0.047 0.048 0.014 0.021 0.031
O8B 0.096 0.047 0.048 0.014 0.021 0.031
O9J 0.044 0.041 0.072 0.016 0.016 0.016
O9K 0.041 0.053 0.072 0 -0.016 0.025
O10J 0.063 0.057 0.074 0.01 -0.007 0.033
O10K 0.057 0.054 0.074 -0.017 -0.01 0.024
O10B 0.057 0.054 0.074 -0.017 -0.01 0.024
O11J 0.057 0.051 0.048 0.003 -0.007 0.012
O11K 0.051 0.084 0.048 -0.01 -0.003 0.039
O12J 0.06 0.041 0.059 -0.001 -0.016 0.007
O12K 0.041 0.087 0.059 -0.015 0.001 0.034
O12B 0.041 0.087 0.059 -0.015 0.001 0.034
O13J 0.054 0.085 0.047 0.007 0.017 0.046
O13K 0.085 0.047 0.047 0.01 -0.007 0.039
O14J 0.055 0.096 0.04 -0.004 0.001 0.05
O14K 0.096 0.051 0.04 0.005 0.004 0.046
O14B 0.096 0.051 0.04 0.005 0.004 0.046
O15A 0.046 0.059 0.075 0.01 0.001 0.027
O15J 0.046 0.059 0.075 0.01 0.001 0.027
O16A 0.052 0.041 0.076 0.017 0.001 0.018
O16J 0.052 0.041 0.076 0.017 0.001 0.018
O16K 0.041 0.057 0.076 -0.016 -0.017 0.023
O16B 0.041 0.057 0.076 -0.016 -0.017 0.023
O17B 0.046 0.039 0.067 0.006 0.004 0.016
O17J 0.053 0.046 0.067 -0.004 0.002 0.03
O17A 0.053 0.046 0.067 -0.004 0.002 0.03
O18B 0.049 0.073 0.067 0.013 0.006 0.036
O18J 0.05 0.049 0.067 -0.006 0.007 0.013
O18I 0.073 0.05 0.067 -0.007 -0.013 0.037
C1K 0.072 0.248 0.039 0.006 -0.006 0.097
C1J 0.126 0.072 0.039 0.006 0.012 -0.025
C2K 0.117 0.274 0.073 0.018 0.02 0.122
C2J 0.147 0.117 0.073 -0.02 -0.002 -0.005
C3K 0.184 0.317 0.064 0.027 0.033 0.158
C3J 0.185 0.184 0.064 -0.033 -0.006 0.026
C4K 0.28 0.339 0.114 0.05 0.07 0.236
C4J 0.147 0.28 0.114 -0.07 -0.02 0.044
C5K 0.19 0.266 0.138 0.02 0.043 0.09
C5J 0.276 0.19 0.138 -0.043 -0.023 0.1
C6K 0.054 0.044 0.068 -0.007 1.69604e-18 0.017
C6J 0.064 0.054 0.068 -1.69604e-18 -0.007 0.037
C7K 0.077 0.061 0.095 -0.002 -0.01 0.028
C7J 0.082 0.077 0.095 0.01 0.008 0.049
C8K 0.119 0.064 0.121 0.025 -0.011 0.04
C8J 0.103 0.119 0.121 0.011 0.036 0.079
C9K 0.149 0.074 0.109 -0.021 -0.04 0.04
C9J 0.143 0.149 0.109 0.04 0.019 0.109
C10K 0.099 0.098 0.155 0.028 -0.002 0.038
C10J 0.121 0.099 0.155 0.002 0.03 0.061
C11J 0.117 0.157 0.065 -0.039 -0.018 0.103
C11K 0.157 0.068 0.065 0.021 0.039 0.054
C12J 0.134 0.231 0.083 -0.035 -0.012 0.138
C12K 0.231 0.089 0.083 0.023 0.035 0.093
C13J 0.145 0.204 0.092 -0.06 -0.03 0.134
C13K 0.204 0.081 0.092 0.03 0.06 0.07
C14J 0.14 0.241 0.094 -0.052 -0.014 0.142
C14K 0.241 0.097 0.094 0.038 0.052 0.099
C15J 0.158 0.361 0.097 0.034 0.036 0.194
C15K 0.361 0.131 0.097 0.002 -0.034 0.167
C20J 0.097 0.035 0.235 0.04 -0.052 0.01
C20K 0.035 0.112 0.235 -0.092 -0.04 0.025
C21J 0.128 0.087 0.268 0.052 -0.043 0.037
C21K 0.087 0.141 0.268 -0.095 -0.052 0.05
C22J 0.135 0.088 0.315 0.078 -0.027 0.029
C22K 0.088 0.165 0.315 -0.105 -0.078 0.059
C23J 0.223 0.227 0.36 0.029 -0.004 0.133
C23K 0.227 0.184 0.36 -0.033 -0.029 0.094
C24J 0.189 0.116 0.261 0.043 -0.086 0.063
C24K 0.116 0.179 0.261 -0.129 -0.043 0.053
C25J 0.083 0.02 0.08 0.005 0.009 0.011
C25K 0.02 0.081 0.08 0.004 -0.005 0.009
C26J 0.1 0.044 0.101 -0.002 -0.003 0.019
C26K 0.044 0.106 0.101 -0.001 0.002 0.025
C27J 0.13 0.068 0.164 0.02 -0.015 0.036
C27K 0.068 0.126 0.164 -0.035 -0.02 0.032
C28J 0.1 0.129 0.171 -0.001 0.006 0.034
C28K 0.129 0.161 0.171 0.007 0.001 0.095
C29J 0.164 0.069 0.145 -0.012 -0.007 0.031
C29K 0.069 0.171 0.145 0.005 0.012 0.038
C30J 0.038 0.061 0.064 -0.007 0.007 0.021
C30K 0.061 0.057 0.064 0.014 0.007 0.04
C31J 0.063 0.115 0.075 -0.003 0.012 0.054
C31K 0.115 0.07 0.075 0.015 0.003 0.061
C32J 0.1 0.155 0.062 -0.013 0.009 0.085
C32K 0.155 0.085 0.062 0.022 0.013 0.07
C33J 0.138 0.154 0.099 0.003 0.031 0.116
C33K 0.154 0.06 0.099 0.028 -0.003 0.038
C34J 0.054 0.168 0.124 -0.001 0.015 0.053
C34K 0.168 0.116 0.124 0.016 0.001 0.115
C35A 0.079 0.039 0.039 -0.004 -0.005 0.028
C35J 0.079 0.039 0.039 -0.004 -0.005 0.028
C36A 0.08 0.062 0.081 0.027 -0.018 0.04
C36J 0.08 0.062 0.081 0.027 -0.018 0.04
C37A 0.056 0.109 0.183 0.053 0.019 0.02
C37J 0.056 0.109 0.183 0.053 0.019 0.02
C38A 0.143 0.068 0.098 0.031 -0.029 0.031
C38J 0.143 0.068 0.098 0.031 -0.029 0.031
C39A 0.188 0.036 0.129 -0.015 0.028 0.023
C39J 0.188 0.036 0.129 -0.015 0.028 0.023
C40B 0.057 0.082 0.073 0.035 0.011 0.025
C40J 0.089 0.057 0.073 -0.011 0.024 0.032
C41B 0.075 0.105 0.094 0.037 -0.007 0.038
C41J 0.104 0.075 0.094 0.007 0.044 0.037
C42B 0.164 0.134 0.155 0.044 -0.028 0.069
C42J 0.16 0.164 0.155 0.028 0.072 0.095
C43B 0.293 0.149 0.117 0.007 -0.056 0.127
C43J 0.188 0.293 0.117 0.056 0.063 0.166
C44B 0.235 0.194 0.142 0.077 0 0.148
C44J 0.133 0.235 0.142 0 0.077 0.087
C45K 0.048 0.04 0.051 0.013 0.002 0.02
C45J 0.048 0.048 0.051 -0.002 0.011 0.028
C46K 0.033 0.046 0.05 0 0.008 0.022
C46J 0.035 0.033 0.05 -0.008 -0.008 0.011
C47K 0.038 0.046 0.038 0.003 -8.48021e-19 0.023
C47J 0.038 0.038 0.038 8.48021e-19 0.003 0.015
C48K 0.062 0.044 0.074 0.013 0.01 0.027
C48J 0.052 0.062 0.074 -0.01 0.003 0.035
C49K 0.041 0.053 0.097 0.015 0.002 0.032
C49J 0.03 0.041 0.097 -0.002 0.013 0.009
C50K 0.041 0.043 0.045 -0.001 0.003 0.022
C50J 0.04 0.041 0.045 -0.003 -0.004 0.019
C51K 0.062 0.041 0.043 0.005 -1.69604e-18 0.029
C51J 0.045 0.062 0.043 1.69604e-18 0.005 0.033
C52K 0.049 0.032 0.053 0.009 0.007 0.018
C52J 0.045 0.049 0.053 -0.007 0.002 0.031
C53K 0.062 0.048 0.049 0.011 -0.003 0.035
C53J 0.04 0.062 0.049 0.003 0.014 0.027
C54K 0.031 0.05 0.059 -0.003 -0.006 0.019
C54J 0.043 0.031 0.059 0.006 0.003 0.012
C55K 0.056 0.039 0.056 0 -0.004 0.033
C55J 0.029 0.056 0.056 0.004 0.004 0.023
C56K 0.044 0.045 0.062 0.008 0.008 0.023
C56J 0.043 0.044 0.062 -0.008 0 0.021
C57K 0.046 0.045 0.052 0.01 0.001 0.025
C57J 0.041 0.046 0.052 -0.001 0.009 0.021
C58K 0.046 0.067 0.041 0.012 0.001 0.035
C58J 0.043 0.046 0.041 -0.001 0.011 0.011
C59K 0.05 0.062 0.06 0.017 -0.005 0.036
C59J 0.04 0.05 0.06 0.005 0.022 0.014
C60K 0.046 0.05 0.051 0.003 -8.48021e-19 0.027
C60J 0.042 0.046 0.051 8.48021e-19 0.003 0.019
C61K 0.05 0.049 0.14 0.035 0.025 0.032
C61J 0.035 0.05 0.14 -0.025 0.01 0.018
C62K 0.083 0.083 0.146 0.061 0.04 0.062
C62J 0.042 0.083 0.146 -0.04 0.021 0.021
C63K 0.049 0.057 0.11 0.029 0.017 0.028
C63J 0.05 0.049 0.11 -0.017 0.012 0.021
C64K 0.064 0.051 0.095 0.002 -0.004 0.025
C64J 0.065 0.064 0.095 0.004 0.006 0.039
C65K 0.046 0.041 0.068 0.013 0.007 0.02
C65J 0.047 0.046 0.068 -0.007 0.006 0.026
C66K 0.028 0.073 0.12 0.012 -0.002 0.005
C66J 0.091 0.028 0.12 0.002 0.014 0.023
C67K 0.086 0.171 0.33 0.075 0.078 0.107
C67J 0.043 0.086 0.33 -0.078 -0.003 -0.021
C68J 0.039 0.044 0.046 0.006 0.014 0.016
C68K 0.044 0.051 0.046 0.008 -0.006 0.028
C69J 0.037 0.057 0.044 0.008 0 0.024
C69K 0.057 0.046 0.044 -0.008 -0.008 0.033
C70J 0.035 0.052 0.048 -0.009 -0.002 0.014
C70K 0.052 0.059 0.048 0.007 0.009 0.038
C71J 0.069 0.047 0.058 0.018 0.015 0.04
C71K 0.047 0.036 0.058 -0.003 -0.018 0.007
C72J 0.083 0.067 0.043 0.018 0.012 0.056
C72K 0.067 0.038 0.043 -0.006 -0.018 0.011
C73J 0.032 0.052 0.043 0.01 0.002 0.027
C73K 0.052 0.03 0.043 -0.008 -0.01 0.025
C74J 0.07 0.063 0.054 0.02 0.011 0.048
C74K 0.063 0.037 0.054 -0.009 -0.02 0.015
C75J 0.057 0.077 0.039 0.003 0.004 0.04
C75K 0.077 0.054 0.039 0.001 -0.003 0.037
C76J 0.06 0.058 0.046 0.001 0.006 0.043
C76K 0.058 0.032 0.046 0.005 -0.001 0.015
C77J 0.047 0.048 0.051 -0.01 -0.005 0.02
C77K 0.048 0.055 0.051 0.005 0.01 0.028
C78J 0.047 0.053 0.041 0.012 0.012 0.035
C78K 0.053 0.03 0.041 0 -0.012 0.018
C79J 0.048 0.058 0.058 -0.011 -0.016 0.028
C79K 0.058 0.05 0.058 -0.005 0.011 0.03
C80J 0.076 0.073 0.05 -0.011 -0.011 0.048
C80K 0.073 0.053 0.05 0 0.011 0.025
C81J 0.063 0.06 0.041 0.004 0.004 0.04
C81K 0.06 0.043 0.041 0 -0.004 0.02
C82J 0.051 0.059 0.064 -0.006 0.004 0.029
C82K 0.059 0.052 0.064 0.01 0.006 0.03
C83J 0.112 0.078 0.032 -0.002 0.007 0.071
C83K 0.078 0.048 0.032 0.009 0.002 0.007
C84J 0.085 0.088 0.075 0.008 0.014 0.067
C84K 0.088 0.039 0.075 0.006 -0.008 0.021
C85J 0.078 0.099 0.08 -0.001 0.004 0.074
C85K 0.099 0.029 0.08 0.005 0.001 0.025
C86J 0.085 0.075 0.047 0.005 0.01 0.05
C86K 0.075 0.06 0.047 0.005 -0.005 0.025
C87J 0.145 0.086 0.038 0.01 0.011 0.084
C87K 0.086 0.063 0.038 0.001 -0.01 0.002
C88J 0.099 0.066 0.056 8.48021e-19 0.003 0.056
C88K 0.066 0.053 0.056 0.003 -8.48021e-19 0.01
C89J 0.159 0.123 0.084 0.013 0.048 0.103
C89K 0.123 0.076 0.084 0.035 -0.013 0.02
C90J 0.077 0.082 0.068 -0.014 0.008 0.038
C90K 0.082 0.083 0.068 0.022 0.014 0.044
Ni2? 0.0513(10) 0.0535(11) 0.0569(10) 0.0033(8) -0.0008(8) 0.0269(9)
C16? 0.072(10) 0.118(11) 0.073(9) 0.022(9) -0.029(8) 0.012(9)
C17? 0.080(18) 0.124(18) 0.073(16) 0.034(15) -0.045(15) -0.001(15)
C18? 0.086(17) 0.119(18) 0.082(17) 0.024(16) -0.045(15) -0.001(16)
C19? 0.083(17) 0.143(18) 0.095(16) 0.029(16) -0.039(15) -0.001(16)
loop_
_geom_bond_atom_site_label_1
_geom_bond_atom_site_label_2
_geom_bond_site_symmetry_1
_geom_bond_site_symmetry_2
Fe1 N1 1_555 1_555
Fe2 N5 1_555 1_555
Fe3 N7 1_555 1_555
Ni1 N3 1_555 1_555
N1 C45 1_555 1_555
N2 C50 1_555 1_555
N3 C57 1_555 1_555
N4 C63 1_555 1_555
N5 C68 1_555 1_555
N6 C73 1_555 1_555
N7 C80 1_555 1_555
N8 C86 1_555 1_555
O1 Fe1 1_555 1_555
O2 Fe3 1_555 1_555
O3 Fe1 1_555 1_555
O4 Fe2 1_555 1_555
O5 Fe1 1_555 1_555
O6 Fe2 1_555 1_555
O7 Fe1 1_555 1_555
O8 C11 1_555 1_555
O9 Fe1 1_555 1_555
O10 C20 1_555 1_555
O11 Fe2 1_555 1_555
O12 C25 1_555 1_555
O13 Fe2 1_555 1_555
O14 C30 1_555 1_555
O15 Fe3 1_555 1_555
O16 C35 1_555 1_555
O17 Fe3 1_555 1_555
O18 C40 1_555 1_555
C1 O3 1_555 1_555
C2 C1 1_555 1_555
C3 C2 1_555 1_555
H1 C3 1_555 1_555
H2 C3 1_555 1_555
H3 C3 1_555 1_555
C4 C2 1_555 1_555
H4 C4 1_555 1_555
H5 C4 1_555 1_555
H6 C4 1_555 1_555
C5 C2 1_555 1_555
H7 C5 1_555 1_555
H8 C5 1_555 1_555
H9 C5 1_555 1_555
C6 O5 1_555 1_555
C7 C6 1_555 1_555
C8 C7 1_555 1_555
H10 C8 1_555 1_555
H11 C8 1_555 1_555
H12 C8 1_555 1_555
C9 C7 1_555 1_555
H13 C9 1_555 1_555
H14 C9 1_555 1_555
H15 C9 1_555 1_555
C10 C7 1_555 1_555
H16 C10 1_555 1_555
H17 C10 1_555 1_555
H18 C10 1_555 1_555
C11 O7 1_555 1_555
C12 C11 1_555 1_555
C13 C12 1_555 1_555
H19 C13 1_555 1_555
H20 C13 1_555 1_555
H21 C13 1_555 1_555
C14 C12 1_555 1_555
H22 C14 1_555 1_555
H23 C14 1_555 1_555
H24 C14 1_555 1_555
C15 C12 1_555 1_555
H25 C15 1_555 1_555
H26 C15 1_555 1_555
H27 C15 1_555 1_555
C20 O9 1_555 1_555
C21 C20 1_555 1_555
C22 C21 1_555 1_555
H37 C22 1_555 1_555
H38 C22 1_555 1_555
H39 C22 1_555 1_555
C23 C21 1_555 1_555
H40 C23 1_555 1_555
H41 C23 1_555 1_555
H42 C23 1_555 1_555
C24 C21 1_555 1_555
H43 C24 1_555 1_555
H44 C24 1_555 1_555
H45 C24 1_555 1_555
C25 O11 1_555 1_555
C26 C25 1_555 1_555
C27 C26 1_555 1_555
H46 C27 1_555 1_555
H47 C27 1_555 1_555
H48 C27 1_555 1_555
C28 C26 1_555 1_555
H49 C28 1_555 1_555
H50 C28 1_555 1_555
H51 C28 1_555 1_555
C29 C26 1_555 1_555
H52 C29 1_555 1_555
H53 C29 1_555 1_555
H54 C29 1_555 1_555
C30 O13 1_555 1_555
C31 C30 1_555 1_555
C32 C31 1_555 1_555
H55 C32 1_555 1_555
H56 C32 1_555 1_555
H57 C32 1_555 1_555
C33 C31 1_555 1_555
H58 C33 1_555 1_555
H59 C33 1_555 1_555
H60 C33 1_555 1_555
C34 C31 1_555 1_555
H61 C34 1_555 1_555
H62 C34 1_555 1_555
H63 C34 1_555 1_555
C35 O15 1_555 1_555
C36 C35 1_555 1_555
C37 C36 1_555 1_555
H64 C37 1_555 1_555
H65 C37 1_555 1_555
H66 C37 1_555 1_555
C38 C36 1_555 1_555
H67 C38 1_555 1_555
H68 C38 1_555 1_555
H69 C38 1_555 1_555
C39 C36 1_555 1_555
H70 C39 1_555 1_555
H71 C39 1_555 1_555
H72 C39 1_555 1_555
C40 O17 1_555 1_555
C41 C40 1_555 1_555
C42 C41 1_555 1_555
H73 C42 1_555 1_555
H74 C42 1_555 1_555
H75 C42 1_555 1_555
C43 C41 1_555 1_555
H76 C43 1_555 1_555
H77 C43 1_555 1_555
H78 C43 1_555 1_555
C44 C41 1_555 1_555
H79 C44 1_555 1_555
H80 C44 1_555 1_555
H81 C44 1_555 1_555
C45 H82 1_555 1_555
C46 C45 1_555 1_555
H83 C46 1_555 1_555
C47 C46 1_555 1_555
C48 C47 1_555 1_555
H84 C48 1_555 1_555
C49 N1 1_555 1_555
H85 C49 1_555 1_555
C50 C47 1_555 1_555
C51 C50 1_555 1_555
H86 C51 1_555 1_555
C52 C51 1_555 1_555
C53 C52 1_555 1_555
H87 C53 1_555 1_555
C54 N2 1_555 1_555
C55 C54 1_555 1_555
C56 C55 1_555 1_555
H88 C56 1_555 1_555
C57 C56 1_555 1_555
H89 C57 1_555 1_555
C58 N3 1_555 1_555
H90 C58 1_555 1_555
C59 C55 1_555 1_555
H91 C59 1_555 1_555
C60 C52 1_555 1_555
C61 C60 1_555 1_555
H92 C61 1_555 1_555
C62 C61 1_555 1_555
H93 C62 1_555 1_555
C63 C62 1_555 1_555
C64 C63 1_555 1_555
H94 C64 1_555 1_555
C65 C60 1_555 1_555
H95 C65 1_555 1_555
C66 N4 1_555 1_555
H96 C66 1_555 1_555
H97 C66 1_555 1_555
H98 C66 1_555 1_555
C67 N4 1_555 1_555
H99 C67 1_555 1_555
H100 C67 1_555 1_555
H101 C67 1_555 1_555
C68 H102 1_555 1_555
C69 C68 1_555 1_555
H103 C69 1_555 1_555
C70 C69 1_555 1_555
C71 C70 1_555 1_555
H104 C71 1_555 1_555
C72 N5 1_555 1_555
H105 C72 1_555 1_555
C73 C70 1_555 1_555
C74 C73 1_555 1_555
H106 C74 1_555 1_555
C75 C74 1_555 1_555
C76 C75 1_555 1_555
H107 C76 1_555 1_555
C77 N6 1_555 1_555
C78 C77 1_555 1_555
C79 C78 1_555 1_555
H108 C79 1_555 1_555
C80 C79 1_555 1_555
H109 C80 1_555 1_555
C81 N7 1_555 1_555
H110 C81 1_555 1_555
C82 C78 1_555 1_555
H111 C82 1_555 1_555
C83 C75 1_555 1_555
C84 C83 1_555 1_555
H112 C84 1_555 1_555
C85 C84 1_555 1_555
H113 C85 1_555 1_555
C86 C85 1_555 1_555
C87 C86 1_555 1_555
H114 C87 1_555 1_555
C88 C83 1_555 1_555
H115 C88 1_555 1_555
C89 N8 1_555 1_555
H116 C89 1_555 1_555
H117 C89 1_555 1_555
H118 C89 1_555 1_555
C90 N8 1_555 1_555
H119 C90 1_555 1_555
H120 C90 1_555 1_555
H121 C90 1_555 1_555
N9 C91 1_555 1_555
O19 C91 1_555 1_555
C91 H122 1_555 1_555
C92 N9 1_555 1_555
H123 C92 1_555 1_555
H124 C92 1_555 1_555
H125 C92 1_555 1_555
C93 N9 1_555 1_555
H126 C93 1_555 1_555
H127 C93 1_555 1_555
H128 C93 1_555 1_555
N10 C94 1_555 1_555
O20 C94 1_555 1_555
C94 H129 1_555 1_555
C95 N10 1_555 1_555
H130 C95 1_555 1_555
H131 C95 1_555 1_555
H132 C95 1_555 1_555
C96 N10 1_555 1_555
H133 C96 1_555 1_555
H134 C96 1_555 1_555
H135 C96 1_555 1_555
N11 C97 1_555 1_555
O21 C97 1_555 1_555
C97 H136 1_555 1_555
C98 N11 1_555 1_555
H137 C98 1_555 1_555
H138 C98 1_555 1_555
H139 C98 1_555 1_555
C99 N11 1_555 1_555
H140 C99 1_555 1_555
H141 C99 1_555 1_555
H142 C99 1_555 1_555
N12 C100 1_555 1_555
O22 C100 1_555 1_555
C100 H143 1_555 1_555
C101 N12 1_555 1_555
H144 C101 1_555 1_555
H145 C101 1_555 1_555
H146 C101 1_555 1_555
C102 N12 1_555 1_555
H147 C102 1_555 1_555
H148 C102 1_555 1_555
H149 C102 1_555 1_555
N13 C103 1_555 1_555
O23 C103 1_555 1_555
C103 H150 1_555 1_555
C104 N13 1_555 1_555
H151 C104 1_555 1_555
H152 C104 1_555 1_555
H153 C104 1_555 1_555
C105 N13 1_555 1_555
H154 C105 1_555 1_555
H155 C105 1_555 1_555
H156 C105 1_555 1_555
Fe1K N1K 1_555 1_555
Fe1J N1J 1_555 1_555
Fe2J N5J 1_555 1_555
Fe2K N5K 1_555 1_555
Fe3J N7J 1_555 1_555
Fe3A O2 1_555 1_555
Fe3B O2 1_555 1_555
Fe3K N7K 1_555 1_555
Fe3I O2I 1_555 1_555
Ni1K O1 1_555 1_555
Ni1J N3J 1_555 1_555
Ni1A O1K 1_555 1_555
N1K C45K 1_555 1_555
N1J C45J 1_555 1_555
N2K C50K 1_555 1_555
N2J C50J 1_555 1_555
N3K Ni1K 1_555 1_555
N3J C57J 1_555 1_555
N4K C63K 1_555 1_555
N4J C63J 1_555 1_555
N5J C68J 1_555 1_555
N5K C68K 1_555 1_555
N6J C73J 1_555 1_555
N6K C73K 1_555 1_555
N7J C80J 1_555 1_555
N7K C80K 1_555 1_555
N7A Fe3A 1_555 1_555
N8J C86J 1_555 1_555
N8K C86K 1_555 1_555
O1J Ni1 1_555 1_555
O1K Fe1K 1_555 1_555
O1B Ni1J 1_555 1_555
O2I Fe3J 1_555 1_555
O3K Fe1K 1_555 1_555
O3J Fe1J 1_555 1_555
O4K Fe2K 1_555 1_555
O4J Fe2J 1_555 1_555
O5K Fe1K 1_555 1_555
O5J Fe1J 1_555 1_555
O6K Fe2K 1_555 1_555
O6J Fe2J 1_555 1_555
O7J Fe1J 1_555 1_555
O7K Fe1K 1_555 1_555
O8J Ni1 1_555 1_555
O8K Ni1A 1_555 1_555
O8B Ni1J 1_555 1_555
O9J Fe1J 1_555 1_555
O9K Fe1K 1_555 1_555
O10J Ni1 1_555 1_555
O10K Ni1A 1_555 1_555
O10B Ni1J 1_555 1_555
O11J Fe2J 1_555 1_555
O11K Fe2K 1_555 1_555
O12J Ni1 1_555 1_555
O12K Ni1A 1_555 1_555
O12B Ni1J 1_555 1_555
O13J Fe2J 1_555 1_555
O13K Fe2K 1_555 1_555
O14J Ni1 1_555 1_555
O14K Ni1A 1_555 1_555
O14B Ni1J 1_555 1_555
O15A Fe3A 1_555 1_555
O15J Fe3J 1_555 1_555
O16A Fe3 1_555 1_555
O16J Fe3I 1_555 1_555
O16K Fe3J 1_555 1_555
O16B Fe3A 1_555 1_555
O17B Fe3B 1_555 1_555
O17J Fe3J 1_555 1_555
O17A Fe3A 1_555 1_555
O18B Fe3 1_555 1_555
O18J Fe3K 1_555 1_555
O18I Fe3J 1_555 1_555
C1K O3K 1_555 1_555
C1J O3J 1_555 1_555
C2K C1K 1_555 1_555
C2J C1J 1_555 1_555
C3K C2K 1_555 1_555
C3J C2J 1_555 1_555
H1K C3K 1_555 1_555
H1J C3J 1_555 1_555
H2K C3K 1_555 1_555
H2J C3J 1_555 1_555
H3K C3K 1_555 1_555
H3J C3J 1_555 1_555
C4K C2K 1_555 1_555
C4J C2J 1_555 1_555
H4K C4K 1_555 1_555
H4J C4J 1_555 1_555
H5K C4K 1_555 1_555
H5J C4J 1_555 1_555
H6K C4K 1_555 1_555
H6J C4J 1_555 1_555
C5K C2K 1_555 1_555
C5J C2J 1_555 1_555
H7K C5K 1_555 1_555
H7J C5J 1_555 1_555
H8K C5K 1_555 1_555
H8J C5J 1_555 1_555
H9K C5K 1_555 1_555
H9J C5J 1_555 1_555
C6K O5K 1_555 1_555
C6J O5J 1_555 1_555
C7K C6K 1_555 1_555
C7J C6J 1_555 1_555
C8K C7K 1_555 1_555
C8J C7J 1_555 1_555
H10K C8K 1_555 1_555
H10J C8J 1_555 1_555
H11K C8K 1_555 1_555
H11J C8J 1_555 1_555
H12K C8K 1_555 1_555
H12J C8J 1_555 1_555
C9K C7K 1_555 1_555
C9J C7J 1_555 1_555
H13K C9K 1_555 1_555
H13J C9J 1_555 1_555
H14K C9K 1_555 1_555
H14J C9J 1_555 1_555
H15K C9K 1_555 1_555
H15J C9J 1_555 1_555
C10K C7K 1_555 1_555
C10J C7J 1_555 1_555
H16K C10K 1_555 1_555
H16J C10J 1_555 1_555
H17K C10K 1_555 1_555
H17J C10J 1_555 1_555
H18K C10K 1_555 1_555
H18J C10J 1_555 1_555
C11J O7J 1_555 1_555
C11K O7K 1_555 1_555
C12J C11J 1_555 1_555
C12K C11K 1_555 1_555
C13J C12J 1_555 1_555
C13K C12K 1_555 1_555
H19J C13J 1_555 1_555
H19K C13K 1_555 1_555
H20J C13J 1_555 1_555
H20K C13K 1_555 1_555
H21J C13J 1_555 1_555
H21K C13K 1_555 1_555
C14J C12J 1_555 1_555
C14K C12K 1_555 1_555
H22J C14J 1_555 1_555
H22K C14K 1_555 1_555
H23J C14J 1_555 1_555
H23K C14K 1_555 1_555
H24J C14J 1_555 1_555
H24K C14K 1_555 1_555
C15J C12J 1_555 1_555
C15K C12K 1_555 1_555
H25J C15J 1_555 1_555
H25K C15K 1_555 1_555
H26J C15J 1_555 1_555
H26K C15K 1_555 1_555
H27J C15J 1_555 1_555
H27K C15K 1_555 1_555
C20J O9J 1_555 1_555
C20K O9K 1_555 1_555
C21J C20J 1_555 1_555
C21K C20K 1_555 1_555
C22J C21J 1_555 1_555
C22K C21K 1_555 1_555
H37J C22J 1_555 1_555
H37K C22K 1_555 1_555
H38J C22J 1_555 1_555
H38K C22K 1_555 1_555
H39J C22J 1_555 1_555
H39K C22K 1_555 1_555
C23J C21J 1_555 1_555
C23K C21K 1_555 1_555
H40J C23J 1_555 1_555
H40K C23K 1_555 1_555
H41J C23J 1_555 1_555
H41K C23K 1_555 1_555
H42J C23J 1_555 1_555
H42K C23K 1_555 1_555
C24J C21J 1_555 1_555
C24K C21K 1_555 1_555
H43J C24J 1_555 1_555
H43K C24K 1_555 1_555
H44J C24J 1_555 1_555
H44K C24K 1_555 1_555
H45J C24J 1_555 1_555
H45K C24K 1_555 1_555
C25J O11J 1_555 1_555
C25K O11K 1_555 1_555
C26J C25J 1_555 1_555
C26K C25K 1_555 1_555
C27J C26J 1_555 1_555
C27K C26K 1_555 1_555
H46J C27J 1_555 1_555
H46K C27K 1_555 1_555
H47J C27J 1_555 1_555
H47K C27K 1_555 1_555
H48J C27J 1_555 1_555
H48K C27K 1_555 1_555
C28J C26J 1_555 1_555
C28K C26K 1_555 1_555
H49J C28J 1_555 1_555
H49K C28K 1_555 1_555
H50J C28J 1_555 1_555
H50K C28K 1_555 1_555
H51J C28J 1_555 1_555
H51K C28K 1_555 1_555
C29J C26J 1_555 1_555
C29K C26K 1_555 1_555
H52J C29J 1_555 1_555
H52K C29K 1_555 1_555
H53J C29J 1_555 1_555
H53K C29K 1_555 1_555
H54J C29J 1_555 1_555
H54K C29K 1_555 1_555
C30J O13J 1_555 1_555
C30K O13K 1_555 1_555
C31J C30J 1_555 1_555
C31K C30K 1_555 1_555
C32J C31J 1_555 1_555
C32K C31K 1_555 1_555
H55J C32J 1_555 1_555
H55K C32K 1_555 1_555
H56J C32J 1_555 1_555
H56K C32K 1_555 1_555
H57J C32J 1_555 1_555
H57K C32K 1_555 1_555
C33J C31J 1_555 1_555
C33K C31K 1_555 1_555
H58J C33J 1_555 1_555
H58K C33K 1_555 1_555
H59J C33J 1_555 1_555
H59K C33K 1_555 1_555
H60J C33J 1_555 1_555
H60K C33K 1_555 1_555
C34J C31J 1_555 1_555
C34K C31K 1_555 1_555
H61J C34J 1_555 1_555
H61K C34K 1_555 1_555
H62J C34J 1_555 1_555
H62K C34K 1_555 1_555
H63J C34J 1_555 1_555
H63K C34K 1_555 1_555
C35A O15A 1_555 1_555
C35J O15J 1_555 1_555
C36A C35A 1_555 1_555
C36J C35J 1_555 1_555
C37A C36A 1_555 1_555
C37J C36J 1_555 1_555
H64A C37A 1_555 1_555
H64J C37J 1_555 1_555
H65A C37A 1_555 1_555
H65J C37J 1_555 1_555
H66A C37A 1_555 1_555
H66J C37J 1_555 1_555
C38A C36A 1_555 1_555
C38J C36J 1_555 1_555
H67A C38A 1_555 1_555
H67J C38J 1_555 1_555
H68A C38A 1_555 1_555
H68J C38J 1_555 1_555
H69A C38A 1_555 1_555
H69J C38J 1_555 1_555
C39A C36A 1_555 1_555
C39J C36J 1_555 1_555
H70A C39A 1_555 1_555
H70J C39J 1_555 1_555
H71A C39A 1_555 1_555
H71J C39J 1_555 1_555
H72A C39A 1_555 1_555
H72J C39J 1_555 1_555
C40B O17B 1_555 1_555
C40J O17J 1_555 1_555
C41B C40B 1_555 1_555
C41J C40J 1_555 1_555
C42B C41B 1_555 1_555
C42J C41J 1_555 1_555
H73B C42B 1_555 1_555
H73J C42J 1_555 1_555
H74B C42B 1_555 1_555
H74J C42J 1_555 1_555
H75B C42B 1_555 1_555
H75J C42J 1_555 1_555
C43B C41B 1_555 1_555
C43J C41J 1_555 1_555
H76B C43B 1_555 1_555
H76J C43J 1_555 1_555
H77B C43B 1_555 1_555
H77J C43J 1_555 1_555
H78B C43B 1_555 1_555
H78J C43J 1_555 1_555
C44B C41B 1_555 1_555
C44J C41J 1_555 1_555
H79B C44B 1_555 1_555
H79J C44J 1_555 1_555
H80B C44B 1_555 1_555
H80J C44J 1_555 1_555
H81B C44B 1_555 1_555
H81J C44J 1_555 1_555
C45K H82K 1_555 1_555
C45J H82J 1_555 1_555
C46K C45K 1_555 1_555
C46J C45J 1_555 1_555
H83K C46K 1_555 1_555
H83J C46J 1_555 1_555
C47K C46K 1_555 1_555
C47J C46J 1_555 1_555
C48K C47K 1_555 1_555
C48J C47J 1_555 1_555
H84K C48K 1_555 1_555
H84J C48J 1_555 1_555
C49K N1K 1_555 1_555
C49J N1J 1_555 1_555
H85K C49K 1_555 1_555
H85J C49J 1_555 1_555
C50K C47K 1_555 1_555
C50J C47J 1_555 1_555
C51K C50K 1_555 1_555
C51J C50J 1_555 1_555
H86K C51K 1_555 1_555
H86J C51J 1_555 1_555
C52K C51K 1_555 1_555
C52J C51J 1_555 1_555
C53K C52K 1_555 1_555
C53J C52J 1_555 1_555
H87K C53K 1_555 1_555
H87J C53J 1_555 1_555
C54K N2K 1_555 1_555
C54J N2J 1_555 1_555
C55K C54K 1_555 1_555
C55J C54J 1_555 1_555
C56K C55K 1_555 1_555
C56J C55J 1_555 1_555
H88K C56K 1_555 1_555
H88J C56J 1_555 1_555
C57K N3K 1_555 1_555
C57J C56J 1_555 1_555
H89K C57K 1_555 1_555
H89J C57J 1_555 1_555
C58K N3K 1_555 1_555
C58J N3J 1_555 1_555
H90K C58K 1_555 1_555
H90J C58J 1_555 1_555
C59K C55K 1_555 1_555
C59J C55J 1_555 1_555
H91K C59K 1_555 1_555
H91J C59J 1_555 1_555
C60K C52K 1_555 1_555
C60J C52J 1_555 1_555
C61K C60K 1_555 1_555
C61J C60J 1_555 1_555
H92K C61K 1_555 1_555
H92J C61J 1_555 1_555
C62K C61K 1_555 1_555
C62J C61J 1_555 1_555
H93K C62K 1_555 1_555
H93J C62J 1_555 1_555
C63K C62K 1_555 1_555
C63J C62J 1_555 1_555
C64K C63K 1_555 1_555
C64J C63J 1_555 1_555
H94K C64K 1_555 1_555
H94J C64J 1_555 1_555
C65K C60K 1_555 1_555
C65J C60J 1_555 1_555
H95K C65K 1_555 1_555
H95J C65J 1_555 1_555
C66K N4K 1_555 1_555
C66J N4J 1_555 1_555
H96K C66K 1_555 1_555
H96J C66J 1_555 1_555
H97K C66K 1_555 1_555
H97J C66J 1_555 1_555
H98K C66K 1_555 1_555
H98J C66J 1_555 1_555
C67K N4K 1_555 1_555
C67J N4J 1_555 1_555
H99K C67K 1_555 1_555
H99J C67J 1_555 1_555
H100K C67K 1_555 1_555
H100J C67J 1_555 1_555
H101K C67K 1_555 1_555
H101J C67J 1_555 1_555
C68J H102J 1_555 1_555
C68K H102K 1_555 1_555
C69J C68J 1_555 1_555
C69K C68K 1_555 1_555
H103J C69J 1_555 1_555
H103K C69K 1_555 1_555
C70J C69J 1_555 1_555
C70K C69K 1_555 1_555
C71J C70J 1_555 1_555
C71K C70K 1_555 1_555
H104J C71J 1_555 1_555
H104K C71K 1_555 1_555
C72J N5J 1_555 1_555
C72K N5K 1_555 1_555
H105J C72J 1_555 1_555
H105K C72K 1_555 1_555
C73J C70J 1_555 1_555
C73K C70K 1_555 1_555
C74J C73J 1_555 1_555
C74K C73K 1_555 1_555
H106J C74J 1_555 1_555
H106K C74K 1_555 1_555
C75J C74J 1_555 1_555
C75K C74K 1_555 1_555
C76J C75J 1_555 1_555
C76K C75K 1_555 1_555
H107J C76J 1_555 1_555
H107K C76K 1_555 1_555
C77J N6J 1_555 1_555
C77K N6K 1_555 1_555
C78J C77J 1_555 1_555
C78K C77K 1_555 1_555
C79J C78J 1_555 1_555
C79K C78K 1_555 1_555
H108J C79J 1_555 1_555
H108K C79K 1_555 1_555
C80J C79J 1_555 1_555
C80K C79K 1_555 1_555
H109J C80J 1_555 1_555
H109K C80K 1_555 1_555
C81J N7J 1_555 1_555
C81K N7K 1_555 1_555
H110J C81J 1_555 1_555
H110K C81K 1_555 1_555
C82J C78J 1_555 1_555
C82K C78K 1_555 1_555
H111J C82J 1_555 1_555
H111K C82K 1_555 1_555
C83J C75J 1_555 1_555
C83K C75K 1_555 1_555
C84J C83J 1_555 1_555
C84K C83K 1_555 1_555
H112J C84J 1_555 1_555
H112K C84K 1_555 1_555
C85J C84J 1_555 1_555
C85K C84K 1_555 1_555
H113J C85J 1_555 1_555
H113K C85K 1_555 1_555
C86J C85J 1_555 1_555
C86K C85K 1_555 1_555
C87J C86J 1_555 1_555
C87K C86K 1_555 1_555
H114J C87J 1_555 1_555
H114K C87K 1_555 1_555
C88J C83J 1_555 1_555
C88K C83K 1_555 1_555
H115J C88J 1_555 1_555
H115K C88K 1_555 1_555
C89J N8J 1_555 1_555
C89K N8K 1_555 1_555
H116J C89J 1_555 1_555
H116K C89K 1_555 1_555
H117J C89J 1_555 1_555
H117K C89K 1_555 1_555
H118J C89J 1_555 1_555
H118K C89K 1_555 1_555
C90J N8J 1_555 1_555
C90K N8K 1_555 1_555
H119J C90J 1_555 1_555
H119K C90K 1_555 1_555
H120J C90J 1_555 1_555
H120K C90K 1_555 1_555
H121J C90J 1_555 1_555
H121K C90K 1_555 1_555
Fe2 O1 1_555 1_555
O4 C1 1_555 1_555
O6 C6 1_555 1_555
O8 Ni1K 1_555 1_555
O10 Ni1K 1_555 1_555
O12 Ni1K 1_555 1_555
O14 Ni1K 1_555 1_555
O16 Fe3B 1_555 1_555
O18 Fe3A 1_555 1_555
C48 C49 1_555 1_555
C53 C54 1_555 1_555
C58 C59 1_555 1_555
C64 C65 1_555 1_555
C71 C72 1_555 1_555
C76 C77 1_555 1_555
C81 C82 1_555 1_555
C87 C88 1_555 1_555
Fe1J O1J 1_555 1_555
Fe2J O1J 1_555 1_555
Fe2K O1K 1_555 1_555
Fe3K O2I 1_555 1_555
O4K C1K 1_555 1_555
O4J C1J 1_555 1_555
O6K C6K 1_555 1_555
O6J C6J 1_555 1_555
O8J C11J 1_555 1_555
O8K C11K 1_555 1_555
O10J C20J 1_555 1_555
O10K C20K 1_555 1_555
O12J C25J 1_555 1_555
O12K C25K 1_555 1_555
O14J C30J 1_555 1_555
O14K C30K 1_555 1_555
O16A C35A 1_555 1_555
O16J C35J 1_555 1_555
O18B C40B 1_555 1_555
O18J C40J 1_555 1_555
C48K C49K 1_555 1_555
C48J C49J 1_555 1_555
C53K C54K 1_555 1_555
C53J C54J 1_555 1_555
C56K C57K 1_555 1_555
C58K C59K 1_555 1_555
C58J C59J 1_555 1_555
C64K C65K 1_555 1_555
C64J C65J 1_555 1_555
C71J C72J 1_555 1_555
C71K C72K 1_555 1_555
C76J C77J 1_555 1_555
C76K C77K 1_555 1_555
C81J C82J 1_555 1_555
C81K C82K 1_555 1_555
C87J C88J 1_555 1_555
C87K C88K 1_555 1_555

#END
