
#######################################################################
#
#                 Cambridge Crystallographic Data Centre
#                                CCDC 
#
#######################################################################
#
# If this CIF has been generated from an entry in the Cambridge 
# Structural Database, then it will include bibliographic, chemical, 
# crystal, experimental, refinement or atomic coordinate data resulting 
# from the CCDC's data processing and validation procedures.
#
#######################################################################

data_BUKMUQ
_chemical_formula_moiety         '(C11 H12 N2 O5 Zn1)n,n(C4 H9 N1 O1)'
_chemical_name_systematic        
"catena-[(\m~3~-Pyridine-3,5-dicarboxylato-N,O,O')-(N,N'-dimethylacetamide-O)-zinc(ii) N,N'-dimethylacetamide solvate]"
_symmetry_cell_setting           orthorhombic
_symmetry_space_group_name_H-M   'P 21 21 21'
_symmetry_Int_Tables_number      19
_space_group_name_Hall           'P 2ac 2ab'
loop_
_symmetry_equiv_pos_site_id
_symmetry_equiv_pos_as_xyz
1 x,y,z
2 1/2-x,-y,1/2+z
3 -x,1/2+y,1/2-z
4 1/2+x,1/2-y,-z
_cell_length_a                   10.4465(12)
_cell_length_b                   11.7859(13)
_cell_length_c                   14.6048(16)
_cell_angle_alpha                90
_cell_angle_beta                 90
_cell_angle_gamma                90
_cell_volume                     1798.16
_exptl_crystal_colour            colorless
_exptl_crystal_description       polyhedra
_cell_formula_units_Z            4
loop_
_atom_site_label
_atom_site_type_symbol
_atom_site_fract_x
_atom_site_fract_y
_atom_site_fract_z
_atom_site_U_iso_or_equiv
_atom_site_thermal_displace_type
Zn1 Zn 0.16850(2) 1.198001(17) 1.173358(14) 0.0162 Uani
O1 O 0.28357(14) 1.25064(12) 1.07767(10) 0.0214 Uani
O2 O 0.12212(16) 1.36777(15) 1.04395(13) 0.0329 Uani
O3 O 0.40565(14) 1.69010(12) 0.75630(9) 0.0219 Uani
O4 O 0.20318(15) 1.66811(14) 0.80165(12) 0.0320 Uani
N1 N 0.51178(17) 1.38776(14) 0.87627(11) 0.0182 Uani
O5 O 0.23296(15) 1.07245(12) 1.24884(10) 0.0232 Uani
N2 N 0.3343(2) 0.92670(16) 1.31150(12) 0.0282 Uani
C1 C 0.3294(2) 1.01001(16) 1.25025(14) 0.0211 Uani
C2 C 0.4382(2) 1.0279(2) 1.18492(18) 0.0350 Uani
H1 H 0.5046 0.9708 1.1962 0.0530 Uiso
H2 H 0.4742 1.1039 1.1940 0.0530 Uiso
H3 H 0.4071 1.0207 1.1219 0.0530 Uiso
C3 C 0.4368(3) 0.8427(3) 1.3156(2) 0.0534 Uani
H4 H 0.4205 0.7900 1.3662 0.0800 Uiso
H5 H 0.5188 0.8812 1.3256 0.0800 Uiso
H6 H 0.4400 0.8005 1.2579 0.0800 Uiso
C4 C 0.2262(3) 0.9101(3) 1.3732(2) 0.0527 Uani
H7 H 0.2439 0.8461 1.4141 0.0790 Uiso
H8 H 0.1489 0.8943 1.3374 0.0790 Uiso
H9 H 0.2131 0.9790 1.4097 0.0790 Uiso
C5 C 0.47443(19) 1.48562(16) 0.83557(14) 0.0195 Uani
H10 H 0.5302 1.5202 0.7924 0.0230 Uiso
C6 C 0.35825(19) 1.53733(16) 0.85432(14) 0.0187 Uani
C7 C 0.27776(19) 1.48818(17) 0.91918(14) 0.0196 Uani
H11 H 0.1971 1.5213 0.9330 0.0240 Uiso
C8 C 0.4341(2) 1.34170(16) 0.93961(13) 0.0194 Uani
H12 H 0.4601 1.2737 0.9691 0.0230 Uiso
C9 C 0.2321(2) 1.33368(18) 1.03363(14) 0.0216 Uani
C10 C 0.3176(2) 1.38942(15) 0.96351(13) 0.0189 Uani
C11 C 0.3167(2) 1.64071(16) 0.80095(13) 0.0196 Uani
Zn1A Zn 0.33150(2) 1.801999(17) 0.673358(14) 0.0162 Uani
Zn1C Zn 0.66850(2) 1.301999(17) 0.826642(14) 0.0162 Uani
O3A O 0.09435(14) 1.30990(12) 1.25630(9) 0.0219 Uani
N1C N 0.01178(17) 1.11224(14) 1.12373(11) 0.0182 Uani
O6 O -0.2725(6) 0.6249(5) 0.9285(4) 0.0733 Uani
N3 N -0.3779(6) 0.7881(5) 0.9225(4) 0.0573 Uani
C12 C -0.3590(9) 0.6912(6) 0.9562(6) 0.0603 Uani
C13 C -0.4945(12) 0.8575(7) 0.9404(6) 0.0590 Uani
H13 H -0.5703 0.8166 0.9188 0.0880 Uiso
H14 H -0.4875 0.9300 0.9080 0.0880 Uiso
H15 H -0.5022 0.8716 1.0063 0.0880 Uiso
C14 C -0.4314(6) 0.6523(4) 1.0349(3) 0.1077 Uani
H16 H -0.4171 0.5708 1.0436 0.1620 Uiso
H17 H -0.5227 0.6663 1.0246 0.1620 Uiso
H18 H -0.4032 0.6934 1.0896 0.1620 Uiso
C15 C -0.3127(5) 0.8287(6) 0.8403(3) 0.1033 Uani
H19 H -0.2284 0.7928 0.8358 0.1550 Uiso
H20 H -0.3021 0.9113 0.8441 0.1550 Uiso
H21 H -0.3636 0.8097 0.7862 0.1550 Uiso
C16? C -0.3227(7) 0.7325(7) 0.9014(5) 0.0357 Uani
C17? C -0.5090(18) 0.8197(14) 0.9764(11) 0.0893 Uani
H22? H -0.5710 0.8140 0.9262 0.1340 Uiso
H23? H -0.4697 0.8951 0.9759 0.1340 Uiso
H24? H -0.5529 0.8077 1.0349 0.1340 Uiso
N4? N -0.4173(7) 0.7398(8) 0.9656(5) 0.0400 Uani
O7? O -0.2386(9) 0.6705(8) 0.8884(6) 0.0737 Uani
loop_
_atom_site_aniso_label
_atom_site_aniso_U_11
_atom_site_aniso_U_22
_atom_site_aniso_U_33
_atom_site_aniso_U_23
_atom_site_aniso_U_13
_atom_site_aniso_U_12
Zn1 0.01905(10) 0.01375(10) 0.01571(10) 0.00103(8) 0.00136(8) 0.00052(8)
O1 0.028 0.0173 0.0188 0.0028 0.005 -0.0019
O2 0.0259 0.0338 0.039 0.0133 0.0085 0.0014
O3 0.0244 0.0183 0.023 0.0055 0.001 0.0022
O4 0.0249 0.0303 0.0408 0.0147 0 0.0032
N1 0.0231 0.0147 0.0167 -0.0001 0.0009 0.0006
O5 0.0245(8) 0.0201(7) 0.0250(7) 0.0068(6) -0.0002(6) 0.0028(6)
N2 0.0284(9) 0.0283(9) 0.0280(9) 0.0108(7) -0.0006(8) 0.0051(8)
C1 0.0216(9) 0.0193(8) 0.0223(9) 0.0009(7) -0.0026(8) 0.0000(8)
C2 0.0297(11) 0.0359(12) 0.0394(14) 0.0112(11) 0.0096(10) 0.0039(9)
C3 0.0507(16) 0.0542(17) 0.0553(18) 0.0222(15) 0.0056(15) 0.0295(14)
C4 0.0479(17) 0.0599(19) 0.0504(17) 0.0354(16) 0.0176(14) 0.0149(15)
C5 0.025 0.0168 0.0166 0.0012 0.0011 -0.0012
C6 0.0234 0.0148 0.0178 0.0017 -0.0006 -0.001
C7 0.0209 0.0196 0.0184 0.0008 0.0005 0.0007
C8 0.0269 0.015 0.0162 0.002 -0.0028 -0.0003
C9 0.0252 0.0215 0.0181 0.002 0.0014 -0.0049
C10 0.0243 0.0166 0.0159 0.0006 0.0007 -0.0046
C11 0.0242 0.0162 0.0183 0.0019 -0.0006 0
Zn1A 0.01905 0.01375 0.01571 -0.00103 -0.00136 0.00052
Zn1C 0.01905 0.01375 0.01571 0.00103 -0.00136 -0.00052
O3A 0.0244 0.0183 0.023 -0.0055 -0.001 0.0022
N1C 0.0231(8) 0.0147(7) 0.0167(8) -0.0001(6) -0.0009(6) -0.0006(6)
O6 0.063(3) 0.077(4) 0.080(4) -0.006(3) -0.015(3) 0.034(3)
N3 0.057(3) 0.067(3) 0.048(3) 0.004(3) -0.021(2) -0.006(3)
C12 0.067(5) 0.059(4) 0.055(4) -0.010(4) -0.026(4) -0.003(4)
C13 0.071(6) 0.043(4) 0.063(5) -0.016(3) -0.028(5) 0.026(4)
C14 0.171(5) 0.102(3) 0.050(2) 0.020(2) -0.042(3) -0.076(4)
C15 0.102(4) 0.147(5) 0.061(3) 0.035(3) -0.016(3) -0.043(4)
C16? 0.030(3) 0.042(4) 0.035(4) -0.011(3) 0.008(3) 0.013(3)
C17? 0.049(6) 0.115(15) 0.104(13) -0.069(10) -0.017(9) 0.014(10)
N4? 0.039(4) 0.049(4) 0.032(3) -0.006(3) 0.010(3) -0.011(3)
O7? 0.061(5) 0.077(6) 0.083(6) -0.009(4) 0.002(4) 0.022(4)
loop_
_geom_bond_atom_site_label_1
_geom_bond_atom_site_label_2
_geom_bond_site_symmetry_1
_geom_bond_site_symmetry_2
Zn1 O1 1_555 1_555
O1 C9 1_555 1_555
O2 C9 1_555 1_555
O3 C11 1_555 1_555
O4 C11 1_555 1_555
N1 C5 1_555 1_555
O5 Zn1 1_555 1_555
N2 C1 1_555 1_555
C1 O5 1_555 1_555
C2 C1 1_555 1_555
H1 C2 1_555 1_555
H2 C2 1_555 1_555
H3 C2 1_555 1_555
C3 N2 1_555 1_555
H4 C3 1_555 1_555
H5 C3 1_555 1_555
H6 C3 1_555 1_555
C4 N2 1_555 1_555
H7 C4 1_555 1_555
H8 C4 1_555 1_555
H9 C4 1_555 1_555
C5 H10 1_555 1_555
C6 C5 1_555 1_555
C7 C6 1_555 1_555
H11 C7 1_555 1_555
C8 N1 1_555 1_555
H12 C8 1_555 1_555
C9 C10 1_555 1_555
C10 C7 1_555 1_555
C11 C6 1_555 1_555
O6 C12 1_555 1_555
N3 C12 1_555 1_555
C12 C14 1_555 1_555
C13 N3 1_555 1_555
H13 C13 1_555 1_555
H14 C13 1_555 1_555
H15 C13 1_555 1_555
C14 H16 1_555 1_555
H17 C14 1_555 1_555
H18 C14 1_555 1_555
C15 N3 1_555 1_555
H19 C15 1_555 1_555
H20 C15 1_555 1_555
H21 C15 1_555 1_555
Zn1A O3 1_555 1_555
Zn1C N1 1_555 1_555
O3A Zn1 1_555 1_555
N1C Zn1 1_555 1_555
C8 C10 1_555 1_555

#END
