
#######################################################################
#
#                 Cambridge Crystallographic Data Centre
#                                CCDC 
#
#######################################################################
#
# If this CIF has been generated from an entry in the Cambridge 
# Structural Database, then it will include bibliographic, chemical, 
# crystal, experimental, refinement or atomic coordinate data resulting 
# from the CCDC's data processing and validation procedures.
#
#######################################################################

data_KIYMEM
_chemical_formula_moiety         '(C15 H13 Ba1 N1 O5)n'
_chemical_name_systematic        
catena-((\m~5~-Naphthalene-1,4-dicarboxylato)-dimethylformamide-barium)
_symmetry_cell_setting           orthorhombic
_symmetry_space_group_name_H-M   'P 21 21 21'
_symmetry_Int_Tables_number      19
_space_group_name_Hall           'P 2ac 2ab'
loop_
_symmetry_equiv_pos_site_id
_symmetry_equiv_pos_as_xyz
1 x,y,z
2 1/2-x,-y,1/2+z
3 -x,1/2+y,1/2-z
4 1/2+x,1/2-y,-z
_cell_length_a                   7.1269(3)
_cell_length_b                   14.6724(6)
_cell_length_c                   15.0027(5)
_cell_angle_alpha                90
_cell_angle_beta                 90
_cell_angle_gamma                90
_cell_volume                     1568.81
_exptl_crystal_colour            colorless
_exptl_crystal_description       columnar
_cell_formula_units_Z            4
loop_
_atom_site_label
_atom_site_type_symbol
_atom_site_fract_x
_atom_site_fract_y
_atom_site_fract_z
Ba1 Ba 0.07272(3) 0.805881(13) 0.560967(12)
O1 O 0.2073(4) 0.73816(16) 0.39771(15)
O2 O -0.0537(4) 0.66839(15) 0.44361(16)
O3 O 0.3153(6) 0.3245(2) 0.1701(3)
O4 O 0.1551(5) 0.3838(2) 0.0575(2)
C1 C 0.0840(6) 0.6772(2) 0.39102(19)
C2 C 0.1056(5) 0.6066(2) 0.3190(2)
C3 C 0.1407(5) 0.6297(3) 0.2289(2)
C4 C 0.1668(6) 0.5589(3) 0.1648(2)
C5 C 0.1715(6) 0.4659(3) 0.1953(3)
C6 C 0.1390(6) 0.4479(3) 0.2824(3)
H1 H 0.1429 0.3878 0.3019
C7 C 0.0995(6) 0.5171(2) 0.3443(2)
H2 H 0.0692 0.5019 0.4028
C8 C 0.1442(6) 0.7213(3) 0.1987(3)
H3 H 0.1297 0.7683 0.2397
C9 C 0.1682(8) 0.7415(3) 0.1113(3)
H4 H 0.1703 0.8021 0.0931
C10 C 0.1899(8) 0.6720(3) 0.0479(3)
H5 H 0.2039 0.6867 -0.0121
C11 C 0.1906(7) 0.5832(3) 0.0737(3)
H6 H 0.2068 0.5377 0.0312
C12 C 0.2188(7) 0.3853(3) 0.1361(3)
O5 O 0.0938(6) 0.9446(3) 0.6720(3)
C13 C 0.1216(7) 0.9921(4) 0.7383(4)
H7 H 0.1154 1.0550 0.7309
N1 N 0.1597(6) 0.9612(3) 0.8194(4)
C14 C 0.1632(9) 0.8662(4) 0.8332(5)
H8 H 0.1304 0.8356 0.7789
H9 H 0.0747 0.8503 0.8789
H10 H 0.2868 0.8480 0.8513
C15 C 0.1850(9) 1.0241(4) 0.8916(4)
H11 H 0.1846 1.0853 0.8688
H12 H 0.3027 1.0122 0.9204
H13 H 0.0847 1.0170 0.9337
Ba1A Ba 0.42728(3) 0.194119(13) 0.060967(12)
Ba1B Ba -0.07272(3) 0.305881(13) -0.060967(12)
Ba1C Ba -0.42728(3) 0.694119(13) 0.439033(12)
Ba1C_2 Ba 0.57272(3) 0.694119(13) 0.439033(12)
O1C O -0.2927(4) 0.76184(16) 0.60229(15)
O2C O 0.4463(4) 0.83161(15) 0.55639(16)
O3A O 0.1847(6) 0.6755(2) 0.6701(3)
O4B O -0.1551(5) 0.8838(2) 0.4425(2)
loop_
_geom_bond_atom_site_label_1
_geom_bond_atom_site_label_2
_geom_bond_site_symmetry_1
_geom_bond_site_symmetry_2
Ba1 O1 1_555 1_555
O1 C1 1_555 1_555
O2 Ba1 1_555 1_555
O3 C12 1_555 1_555
O4 C12 1_555 1_555
C1 O2 1_555 1_555
C2 C1 1_555 1_555
C3 C2 1_555 1_555
C4 C3 1_555 1_555
C5 C4 1_555 1_555
C6 C5 1_555 1_555
H1 C6 1_555 1_555
C7 C2 1_555 1_555
H2 C7 1_555 1_555
C8 C3 1_555 1_555
H3 C8 1_555 1_555
C9 C8 1_555 1_555
H4 C9 1_555 1_555
C10 C9 1_555 1_555
H5 C10 1_555 1_555
C11 C4 1_555 1_555
H6 C11 1_555 1_555
C12 C5 1_555 1_555
O5 Ba1 1_555 1_555
C13 O5 1_555 1_555
H7 C13 1_555 1_555
N1 C13 1_555 1_555
C14 N1 1_555 1_555
H8 C14 1_555 1_555
H9 C14 1_555 1_555
H10 C14 1_555 1_555
C15 N1 1_555 1_555
H11 C15 1_555 1_555
H12 C15 1_555 1_555
H13 C15 1_555 1_555
Ba1A O3 1_555 1_555
Ba1B O4 1_555 1_555
Ba1C O2 1_555 1_555
Ba1C_2 O1 1_555 1_555
O1C Ba1 1_555 1_555
O2C Ba1 1_555 1_555
O3A Ba1 1_555 1_555
O4B Ba1 1_555 1_555
C6 C7 1_555 1_555
C10 C11 1_555 1_555
Ba1C O1C 1_555 1_555
Ba1C_2 O2C 1_555 1_555

#END
