
#######################################################################
#
#                 Cambridge Crystallographic Data Centre
#                                CCDC 
#
#######################################################################
#
# If this CIF has been generated from an entry in the Cambridge 
# Structural Database, then it will include bibliographic, chemical, 
# crystal, experimental, refinement or atomic coordinate data resulting 
# from the CCDC's data processing and validation procedures.
#
#######################################################################

data_BIDPOV
_chemical_name_common            HNUST-2
_chemical_formula_moiety         '(C30 H16 Cu2 O10)n'
_chemical_name_systematic        
"catena-[(\m~8~-5,5'-(Naphthalene-1,4-diyldiethyne-2,1-diyl)dibenzene-1,3-dicarboxylato)-diaqua-di-copper(ii) unknown solvate]"
_symmetry_cell_setting           rhombohedral
_symmetry_space_group_name_H-M   'R -3'
_symmetry_Int_Tables_number      148
_space_group_name_Hall           '-R 3'
loop_
_symmetry_equiv_pos_site_id
_symmetry_equiv_pos_as_xyz
1 x,y,z
2 -y,x-y,z
3 -x+y,-x,z
4 2/3+x,1/3+y,1/3+z
5 2/3-y,1/3+x-y,1/3+z
6 2/3-x+y,1/3-x,1/3+z
7 1/3+x,2/3+y,2/3+z
8 1/3-y,2/3+x-y,2/3+z
9 1/3-x+y,2/3-x,2/3+z
10 -x,-y,-z
11 y,-x+y,-z
12 x-y,x,-z
13 1/3-x,2/3-y,2/3-z
14 1/3+y,2/3-x+y,2/3-z
15 1/3+x-y,2/3+x,2/3-z
16 2/3-x,1/3-y,1/3-z
17 2/3+y,1/3-x+y,1/3-z
18 2/3+x-y,1/3+x,1/3-z
_cell_length_a                   18.6777(3)
_cell_length_b                   18.6777(3)
_cell_length_c                   54.443(2)
_cell_angle_alpha                90
_cell_angle_beta                 90
_cell_angle_gamma                120
_cell_volume                     16448.2
_exptl_crystal_colour            green
_cell_formula_units_Z            9
loop_
_atom_site_label
_atom_site_type_symbol
_atom_site_fract_x
_atom_site_fract_y
_atom_site_fract_z
_atom_site_U_iso_or_equiv
_atom_site_thermal_displace_type
Cu1 Cu 0.47641(2) 0.95275(2) 1.019948(6) 0.0560 Uani
C1 C 0.3615(2) 0.9069(2) 0.98067(6) 0.0670 Uani
O1 O 0.37141(13) 0.88949(13) 1.00216(4) 0.0725 Uani
C2 C 0.2826(2) 0.8473(2) 0.96828(6) 0.0722 Uani
C3 C 0.2685(2) 0.8610(2) 0.94429(6) 0.0957 Uani
H1 H 0.3061 0.9095 0.9363 0.1150 Uiso
C4 C 0.1976(3) 0.8020(3) 0.93195(7) 0.1153 Uani
C5 C 0.1835(3) 0.8166(3) 0.88435(10) 0.1571 Uani
C6 C 0.1869(3) 0.8135(3) 0.90598(9) 0.1453 Uani
C7 C 0.2368(4) 0.8914(4) 0.84530(11) 0.2191 Uani
C8 C 0.1757(4) 0.8244(4) 0.85883(10) 0.1741 Uani
C9 C 0.2253(4) 0.9016(4) 0.82103(11) 0.2290 Uani
C10 C 0.2249(2) 0.7757(2) 0.98056(5) 0.0690 Uani
H2 H 0.2342 0.7666 0.9967 0.0830 Uiso
C11 C 0.1525(2) 0.7173(2) 0.96835(6) 0.0733 Uani
C12 C 0.1392(2) 0.7318(2) 0.94419(6) 0.0953 Uani
H3 H 0.0909 0.6941 0.9362 0.1150 Uiso
C13 C 0.0930(2) 0.6386(2) 0.98071(6) 0.0651 Uani
O2 O 0.11037(12) 0.62849(13) 1.00213(4) 0.0720 Uani
O3 O 0.03172(13) 0.58846(14) 0.96861(4) 0.0775 Uani
O4 O 0.41164(14) 0.96833(13) 0.96861(4) 0.0772 Uani
O5 O 0.4420(2) 0.8837(2) 1.05349(6) 0.1680 Uani
C14 C 0.2855(6) 0.9720(6) 0.80884(19) 0.1848 Uani
H4 H 0.2772 0.9787 0.7924 0.2220 Uiso
C15 C 0.3602(6) 1.0351(6) 0.82067(17) 0.1844 Uani
H5 H 0.3997 1.0810 0.8121 0.2220 Uiso
C16 C 0.3702(6) 1.0237(6) 0.84524(17) 0.1667 Uani
H6 H 0.4163 1.0627 0.8538 0.2000 Uiso
C17 C 0.3079(6) 0.9505(6) 0.85718(17) 0.1844 Uani
H7 H 0.3153 0.9423 0.8736 0.2220 Uiso
C1L C -0.0282(2) 0.7598(2) 0.68600(6) 0.0670 Uani
O1L O -0.03808(13) 0.77718(13) 0.66451(4) 0.0725 Uani
C2L C 0.0507(2) 0.8194(2) 0.69839(6) 0.0722 Uani
C3L C 0.0648(2) 0.8057(2) 0.72238(6) 0.0957 Uani
H1L H 0.0272 0.7572 0.7304 0.1150 Uiso
C4L C 0.1357(3) 0.8647(3) 0.73472(7) 0.1153 Uani
C5L C 0.1498(3) 0.8501(3) 0.78232(10) 0.1571 Uani
C6L C 0.1464(3) 0.8532(3) 0.76069(9) 0.1453 Uani
C7L C 0.0965(4) 0.7753(4) 0.82137(11) 0.2191 Uani
C8L C 0.1576(4) 0.8423(4) 0.80784(10) 0.1741 Uani
C9L C 0.1080(4) 0.7651(4) 0.84564(11) 0.2290 Uani
C10L C 0.1084(2) 0.8910(2) 0.68611(5) 0.0690 Uani
H2L H 0.0991 0.9001 0.6700 0.0830 Uiso
C11L C 0.1808(2) 0.9494(2) 0.69832(6) 0.0733 Uani
C12L C 0.1941(2) 0.9349(2) 0.72248(6) 0.0953 Uani
H3L H 0.2424 0.9726 0.7305 0.1150 Uiso
C13L C 0.2403(2) 1.0281(2) 0.68596(6) 0.0651 Uani
O2L O 0.22296(12) 1.03818(13) 0.66454(4) 0.0720 Uani
O3L O 0.30161(13) 1.07821(14) 0.69806(4) 0.0775 Uani
O4L O -0.07831(14) 0.69834(13) 0.69806(4) 0.0772 Uani
C14L C 0.0478(6) 0.6947(6) 0.85783(19) 0.1848 Uani
H4L H 0.0561 0.6880 0.8743 0.2220 Uiso
C15L C -0.0269(6) 0.6316(6) 0.84600(17) 0.1844 Uani
H5L H -0.0664 0.5857 0.8546 0.2220 Uiso
C16L C -0.0369(6) 0.6430(6) 0.82143(17) 0.1667 Uani
H6L H -0.0830 0.6040 0.8129 0.2000 Uiso
C17L C 0.0254(6) 0.7162(6) 0.80949(17) 0.1844 Uani
H7L H 0.0180 0.7244 0.7931 0.2220 Uiso
Cu1A Cu 0.04725(2) 0.52366(3) 1.019948(6) 0.0560 Uani
O5A O 0.1163(2) 0.5583(3) 1.05349(6) 0.1680 Uani
Cu1F Cu -0.19026(2) 0.61942(2) 0.686615(6) 0.0560 Uani
Cu1G Cu 0.38058(2) 1.19033(3) 0.686615(6) 0.0560 Uani
Cu1I Cu 0.52359(2) 1.04725(2) 0.980052(6) 0.0560 Uani
Cu1J Cu -0.04725(2) 0.47634(3) 0.980052(6) 0.0560 Uani
Cu1L Cu -0.14308(2) 0.71392(2) 0.646719(6) 0.0560 Uani
Cu1M Cu 0.28608(2) 1.14301(3) 0.646719(6) 0.0560 Uani
O1A O 0.11051(13) 0.48192(18) 1.00216(4) 0.0725 Uani
O2B O 0.51812(18) 0.88963(12) 1.00213(4) 0.0720 Uani
O3I O -0.03172(13) 0.41154(14) 1.03139(4) 0.0775 Uani
O3K O 0.44326(19) 1.03172(13) 1.03139(4) 0.0775 Uani
O4I O 0.58836(14) 1.03167(13) 1.03139(4) 0.0772 Uani
O4J O -0.03167(13) 0.55669(19) 1.03139(4) 0.0772 Uani
H8? H 0.2793 0.9338 0.8541 0.2740 Uiso
H9? H 0.2646 0.9497 0.8133 0.2740 Uiso
loop_
_atom_site_aniso_label
_atom_site_aniso_U_11
_atom_site_aniso_U_22
_atom_site_aniso_U_33
_atom_site_aniso_U_23
_atom_site_aniso_U_13
_atom_site_aniso_U_12
Cu1 0.0773(3) 0.0410(2) 0.0376(2) 0.00590(16) 0.00284(17) 0.0205(2)
C1 0.081(3) 0.054(2) 0.056(2) -0.0025(17) -0.0041(18) 0.0262(19)
O1 0.0763(15) 0.0592(14) 0.0572(14) 0.0031(11) -0.0061(11) 0.0152(12)
C2 0.073(2) 0.064(2) 0.057(2) 0.0003(17) 0.0002(17) 0.0172(19)
C3 0.094(3) 0.083(3) 0.067(2) 0.012(2) -0.014(2) 0.012(2)
C4 0.112(3) 0.114(3) 0.054(2) 0.021(2) -0.018(2) 0.007(3)
C5 0.143(4) 0.147(4) 0.090(3) 0.038(3) -0.041(3) 0.004(3)
C6 0.132(4) 0.132(4) 0.084(3) 0.033(3) -0.036(3) 0.000(3)
C7 0.202(5) 0.207(4) 0.116(4) 0.028(4) -0.034(4) 0.003(4)
C8 0.161(4) 0.163(5) 0.089(3) 0.032(3) -0.034(3) -0.001(4)
C9 0.223(5) 0.211(5) 0.111(4) 0.045(4) -0.028(4) 0.002(4)
C10 0.074(2) 0.074(2) 0.0471(18) -0.0002(16) -0.0003(16) 0.028(2)
C11 0.065(2) 0.076(2) 0.056(2) 0.0025(17) 0.0015(17) 0.018(2)
C12 0.079(3) 0.094(3) 0.066(2) 0.011(2) -0.014(2) 0.008(2)
C13 0.052(2) 0.079(2) 0.053(2) 0.0043(17) 0.0048(16) 0.0242(19)
O2 0.0582(14) 0.0744(15) 0.0583(14) 0.0061(11) -0.0035(11) 0.0144(12)
O3 0.0568(14) 0.0856(17) 0.0581(13) 0.0099(12) -0.0042(11) 0.0117(13)
O4 0.0858(17) 0.0575(14) 0.0572(13) 0.0048(11) -0.0084(12) 0.0124(13)
O5 0.171(3) 0.216(4) 0.132(3) 0.133(3) 0.066(2) 0.108(3)
C14 0.185 0.185 0.185 0.000 0.000 0.093
C15 0.185 0.179 0.128 0.017 -0.023 0.045
C16 0.165 0.159 0.128 0.017 0.023 0.045
C17 0.185 0.179 0.128 0.017 0.023 0.045
C1L 0.081 0.054 0.056 -0.0025 -0.0041 0.0262
O1L 0.0763 0.0592 0.0572 0.0031 -0.0061 0.0152
C2L 0.073 0.064 0.057 0.0003 0.0002 0.0172
C3L 0.094 0.083 0.067 0.012 -0.014 0.012
C4L 0.112 0.114 0.054 0.021 -0.018 0.007
C5L 0.143 0.147 0.09 0.038 -0.041 0.004
C6L 0.132 0.132 0.084 0.033 -0.036 0
C7L 0.202 0.207 0.116 0.028 -0.034 0.003
C8L 0.161 0.163 0.089 0.032 -0.034 -0.001
C9L 0.223 0.211 0.111 0.045 -0.028 0.002
C10L 0.074 0.074 0.0471 -0.0002 -0.0003 0.028
C11L 0.065 0.076 0.056 0.0025 0.0015 0.018
C12L 0.079 0.094 0.066 0.011 -0.014 0.008
C13L 0.052 0.079 0.053 0.0043 0.0048 0.0242
O2L 0.0582 0.0744 0.0583 0.0061 -0.0035 0.0144
O3L 0.0568 0.0856 0.0581 0.0099 -0.0042 0.0117
O4L 0.0858 0.0575 0.0572 0.0048 -0.0084 0.0124
C14L 0.185 0.185 0.185 0 0 0.093
C15L 0.185 0.179 0.128 0.017 -0.023 0.045
C16L 0.165 0.159 0.128 0.017 0.023 0.045
C17L 0.185 0.179 0.128 0.017 0.023 0.045
Cu1A 0.041 0.0773 0.0376 -0.00306 -0.0059 0.0205
O5A 0.216 0.171 0.132 -0.067 -0.133 0.108
Cu1F 0.0773 0.041 0.0376 0.0059 0.00284 0.0205
Cu1G 0.041 0.0773 0.0376 -0.00306 -0.0059 0.0205
Cu1I 0.0773 0.041 0.0376 0.0059 0.00284 0.0205
Cu1J 0.041 0.0773 0.0376 -0.00306 -0.0059 0.0205
Cu1L 0.0773 0.041 0.0376 0.0059 0.00284 0.0205
Cu1M 0.041 0.0773 0.0376 -0.00306 -0.0059 0.0205
O1A 0.0592 0.1051 0.0572 -0.0092 -0.0031 0.044
O2B 0.1038 0.0582 0.0583 0.0035 0.0096 0.0438
O3I 0.0568 0.0856 0.0581 0.0099 -0.0042 0.0117
O3K 0.119 0.0568 0.0581 0.0042 0.0141 0.0451
O4I 0.0858 0.0575 0.0572 0.0048 -0.0084 0.0124
O4J 0.0575 0.1185 0.0572 -0.0132 -0.0048 0.0451
loop_
_geom_bond_atom_site_label_1
_geom_bond_atom_site_label_2
_geom_bond_site_symmetry_1
_geom_bond_site_symmetry_2
Cu1 O1 1_555 1_555
C1 O1 1_555 1_555
C2 C1 1_555 1_555
C3 C2 1_555 1_555
H1 C3 1_555 1_555
C4 C3 1_555 1_555
C5 C6 1_555 1_555
C6 C4 1_555 1_555
C7 C8 1_555 1_555
C8 C5 1_555 1_555
C9 C7 1_555 1_555
C10 C2 1_555 1_555
H2 C10 1_555 1_555
C11 C10 1_555 1_555
C12 C4 1_555 1_555
H3 C12 1_555 1_555
C13 C11 1_555 1_555
O2 C13 1_555 1_555
O3 C13 1_555 1_555
O4 C1 1_555 1_555
O5 Cu1 1_555 1_555
C14 C9 1_555 1_555
H4 C14 1_555 1_555
C15 C14 1_555 1_555
H5 C15 1_555 1_555
C16 C15 1_555 1_555
H6 C16 1_555 1_555
C17 C7 1_555 1_555
H7 C17 1_555 1_555
C1L O1L 1_555 1_555
O1L Cu1L 1_555 1_555
C2L C1L 1_555 1_555
C3L C2L 1_555 1_555
H1L C3L 1_555 1_555
C4L C3L 1_555 1_555
C5L C6L 1_555 1_555
C6L C4L 1_555 1_555
C7L C8L 1_555 1_555
C8L C9 1_555 1_555
C9L C8 1_555 1_555
C10L C2L 1_555 1_555
H2L C10L 1_555 1_555
C11L C10L 1_555 1_555
C12L C4L 1_555 1_555
H3L C12L 1_555 1_555
C13L C11L 1_555 1_555
O2L C13L 1_555 1_555
O3L C13L 1_555 1_555
O4L C1L 1_555 1_555
C14L C9L 1_555 1_555
H4L C14L 1_555 1_555
C15L C14L 1_555 1_555
H5L C15L 1_555 1_555
C16L C15L 1_555 1_555
H6L C16L 1_555 1_555
C17L C7L 1_555 1_555
H7L C17L 1_555 1_555
Cu1A O2 1_555 1_555
O5A Cu1A 1_555 1_555
Cu1F O4L 1_555 1_555
Cu1G O3L 1_555 1_555
Cu1I Cu1 1_555 1_555
Cu1J O3 1_555 1_555
Cu1L Cu1F 1_555 1_555
Cu1M O2L 1_555 1_555
O1A Cu1A 1_555 1_555
O2B Cu1 1_555 1_555
O3I Cu1A 1_555 1_555
O3K Cu1 1_555 1_555
O4I Cu1 1_555 1_555
O4J Cu1A 1_555 1_555
C11 C12 1_555 1_555
O4 Cu1I 1_555 1_555
C16 C17 1_555 1_555
C5L C8L 1_555 1_555
C7L C9L 1_555 1_555
C11L C12L 1_555 1_555
C16L C17L 1_555 1_555
Cu1A Cu1J 1_555 1_555
Cu1G Cu1M 1_555 1_555

#END
