
#######################################################################
#
#                 Cambridge Crystallographic Data Centre
#                                CCDC 
#
#######################################################################
#
# If this CIF has been generated from an entry in the Cambridge 
# Structural Database, then it will include bibliographic, chemical, 
# crystal, experimental, refinement or atomic coordinate data resulting 
# from the CCDC's data processing and validation procedures.
#
#######################################################################

data_GATJIV
_chemical_formula_moiety         
'(C68 H56 Cd1 Cl4 N4 O6 2+)n,2n(Cl1 O4 1-),2n(C3 H7 N1 O1),3n(C2 H6 O1),1.67n(H2 O1)'
_chemical_name_systematic        
"catena-[bis(\m~2~-(R)-6,6'-Dichloro-2,2'-diethoxy-1,1'-binaphthyl-4,4'-bipyridine)-diaqua-cadmium(ii) diperchlorate dimethylformamide ethanol solvate hydrate]"
_symmetry_cell_setting           trigonal
_symmetry_space_group_name_H-M   'P 3 2 1'
_symmetry_Int_Tables_number      150
_space_group_name_Hall           'P 3 2"'
loop_
_symmetry_equiv_pos_site_id
_symmetry_equiv_pos_as_xyz
1 x,y,z
2 -y,x-y,z
3 -x+y,-x,z
4 y,x,-z
5 x-y,-y,-z
6 -x,-x+y,-z
_cell_length_a                   26.209(2)
_cell_length_b                   26.209(2)
_cell_length_c                   12.7517(16)
_cell_angle_alpha                90
_cell_angle_beta                 90
_cell_angle_gamma                120
_cell_volume                     7585.77
_exptl_crystal_colour            colorless
_exptl_crystal_description       block
_cell_formula_units_Z            3
_chemical_properties_physical    air-sensitive
loop_
_atom_site_label
_atom_site_type_symbol
_atom_site_fract_x
_atom_site_fract_y
_atom_site_fract_z
_atom_site_U_iso_or_equiv
_atom_site_thermal_displace_type
Cd1 Cd 0.69886(3) 0.0000 -1.0000 0.0374 Uani
Cl1 Cl 0.67782(11) 0.05481(10) -0.35283(17) 0.0587 Uani
Cl2 Cl 0.2870(2) -0.02753(18) -0.1786(5) 0.1769 Uani
O1 O 0.4649(4) 0.1463(3) -0.6579(5) 0.0684 Uani
O2 O 0.5419(4) 0.2483(3) -0.4956(6) 0.0844 Uani
O3 O 0.7458(4) -0.0381(3) -1.1040(5) 0.0644 Uani
H1 H 0.7658 -0.0475 -1.0656 0.0770 Uiso
H2 H 0.7408 -0.0406 -1.1740 0.0770 Uiso
N1 N 0.6536(3) 0.0363(3) -0.8830(5) 0.0393 Uani
N2 N 0.3430(4) 0.2562(4) -0.0942(5) 0.0514 Uani
C1 C 0.6832(4) 0.0810(4) -0.8209(6) 0.0404 Uani
H3 H 0.7248 0.1024 -0.8286 0.0480 Uiso
C2 C 0.6598(4) 0.0992(4) -0.7473(6) 0.0453 Uani
H4 H 0.6848 0.1306 -0.7020 0.0550 Uiso
C3 C 0.6000(3) 0.0728(3) -0.7366(6) 0.0360 Uani
C4 C 0.5664(4) 0.0252(4) -0.8005(6) 0.0428 Uani
H5 H 0.5247 0.0049 -0.7958 0.0510 Uiso
C5 C 0.5945(4) 0.0070(4) -0.8721(5) 0.0404 Uani
H6 H 0.5714 -0.0267 -0.9143 0.0480 Uiso
C6 C 0.5713(4) 0.0929(4) -0.6574(7) 0.0420 Uani
C7 C 0.5319(4) 0.1089(4) -0.6959(7) 0.0476 Uani
H7 H 0.5239 0.1064 -0.7689 0.0570 Uiso
C8 C 0.5038(4) 0.1290(4) -0.6263(7) 0.0469 Uani
C9 C 0.5160(4) 0.1329(4) -0.5167(6) 0.0432 Uani
C10 C 0.5561(4) 0.1170(4) -0.4793(6) 0.0453 Uani
C11 C 0.5714(5) 0.1213(4) -0.3683(6) 0.0508 Uani
H8 H 0.5545 0.1366 -0.3207 0.0620 Uiso
C12 C 0.6089(4) 0.1041(4) -0.3313(6) 0.0453 Uani
H9 H 0.6199 0.1092 -0.2595 0.0540 Uiso
C13 C 0.6310(4) 0.0788(4) -0.4007(6) 0.0469 Uani
C14 C 0.6209(4) 0.0754(4) -0.5096(6) 0.0399 Uani
H10 H 0.6388 0.0602 -0.5554 0.0480 Uiso
C15 C 0.5833(3) 0.0953(3) -0.5485(6) 0.0362 Uani
C16 C 0.4639(6) 0.1558(5) -0.7688(9) 0.0732 Uani
H11 H 0.4452 0.1177 -0.8066 0.0880 Uiso
H12 H 0.5044 0.1806 -0.7957 0.0880 Uiso
C17 C 0.4278(7) 0.1871(7) -0.7845(13) 0.1071 Uani
H13 H 0.4285 0.1971 -0.8587 0.1610 Uiso
H14 H 0.4450 0.2232 -0.7423 0.1610 Uiso
H15 H 0.3870 0.1609 -0.7624 0.1610 Uiso
C18 C 0.5760(6) 0.3244(6) -0.6199(11) 0.0928 Uani
H16 H 0.5733 0.3585 -0.6435 0.1390 Uiso
H17 H 0.5632 0.2953 -0.6765 0.1390 Uiso
H18 H 0.6168 0.3370 -0.6010 0.1390 Uiso
C19 C 0.5396(7) 0.2992(5) -0.5322(12) 0.0914 Uani
H19 H 0.4985 0.2874 -0.5508 0.1090 Uiso
H20 H 0.5524 0.3287 -0.4752 0.1090 Uiso
C20 C 0.4828(5) 0.1518(4) -0.4432(7) 0.0540 Uani
C21 C 0.4989(5) 0.2102(5) -0.4307(8) 0.0656 Uani
C22 C 0.4696(5) 0.2269(5) -0.3608(7) 0.0613 Uani
H21 H 0.4812 0.2674 -0.3551 0.0730 Uiso
C23 C 0.4239(5) 0.1865(5) -0.2989(8) 0.0612 Uani
C24 C 0.4061(5) 0.1249(4) -0.3080(8) 0.0627 Uani
C25 C 0.3592(6) 0.0815(4) -0.2491(9) 0.0769 Uani
H22 H 0.3407 0.0930 -0.1976 0.0930 Uiso
C26 C 0.3407(10) 0.0262(7) -0.2634(19) 0.1511 Uani
C27 C 0.3724(7) 0.0079(6) -0.3299(14) 0.1303 Uani
H23 H 0.3613 -0.0325 -0.3353 0.1570 Uiso
C28 C 0.4172(6) 0.0480(6) -0.3830(14) 0.1060 Uani
H24 H 0.4386 0.0355 -0.4257 0.1270 Uiso
C29 C 0.4359(4) 0.1088(4) -0.3810(8) 0.0551 Uani
C30 C 0.3090(5) 0.2124(4) -0.1611(8) 0.0608 Uani
H25 H 0.2676 0.1974 -0.1621 0.0730 Uiso
C31 C 0.3341(5) 0.1882(4) -0.2302(8) 0.0580 Uani
H26 H 0.3098 0.1590 -0.2798 0.0700 Uiso
C32 C 0.3946(5) 0.2075(5) -0.2253(7) 0.0601 Uani
C33 C 0.4283(5) 0.2527(5) -0.1537(7) 0.0613 Uani
H27 H 0.4696 0.2683 -0.1481 0.0730 Uiso
C34 C 0.3997(4) 0.2735(4) -0.0920(6) 0.0483 Uani
H28 H 0.4232 0.3034 -0.0428 0.0580 Uiso
Cd1B Cd 0.30114(3) 0.30114(3) 0.0000 0.0374 Uani
Cd1A Cd 0.0000 -0.30114(3) -2.0000 0.0374 Uani
Cl1D Cl 0.62301(15) -0.05481(10) -1.64717(17) 0.0587 Uani
Cl2D Cl 0.31453(27) 0.02753(18) -1.8214(5) 0.1769 Uani
O1D O 0.3186(5) -0.1463(3) -1.3421(5) 0.0684 Uani
O2D O 0.2936(5) -0.2483(3) -1.5044(6) 0.0844 Uani
O3D O 0.7839(5) 0.0381(3) -0.8960(5) 0.0644 Uani
H1D H 0.8133 0.0475 -0.9344 0.0770 Uiso
H2D H 0.7814 0.0406 -0.8260 0.0770 Uiso
N1D N 0.6173(4) -0.0363(3) -1.1170(5) 0.0393 Uani
N2D N 0.0868(6) -0.2562(4) -1.9058(5) 0.0514 Uani
N2A N 0.7438(4) 0.0868(6) -1.0942(5) 0.0514 Uani
N2E N 0.6570(4) -0.0868(6) -0.9058(5) 0.0514 Uani
C1D C 0.6022(6) -0.0810(4) -1.1791(6) 0.0404 Uani
H3D H 0.6224 -0.1024 -1.1714 0.0480 Uiso
C2D C 0.5606(6) -0.0992(4) -1.2527(6) 0.0453 Uani
H4D H 0.5542 -0.1306 -1.2980 0.0550 Uiso
C3D C 0.5272(4) -0.0728(3) -1.2634(6) 0.0360 Uani
C4D C 0.5412(6) -0.0252(4) -1.1995(6) 0.0428 Uani
H5D H 0.5198 -0.0049 -1.2042 0.0510 Uiso
C5D C 0.5875(6) -0.0070(4) -1.1279(5) 0.0404 Uani
H6D H 0.5981 0.0267 -1.0857 0.0480 Uiso
C6D C 0.4784(6) -0.0929(4) -1.3426(7) 0.0420 Uani
C7D C 0.4230(6) -0.1089(4) -1.3041(7) 0.0476 Uani
H7D H 0.4175 -0.1064 -1.2311 0.0570 Uiso
C8D C 0.3748(6) -0.1290(4) -1.3737(7) 0.0469 Uani
C9D C 0.3831(6) -0.1329(4) -1.4833(6) 0.0432 Uani
C10D C 0.4391(6) -0.1170(4) -1.5207(6) 0.0453 Uani
C11D C 0.4501(6) -0.1213(4) -1.6317(6) 0.0508 Uani
H8D H 0.4179 -0.1366 -1.6793 0.0620 Uiso
C12D C 0.5048(6) -0.1041(4) -1.6687(6) 0.0453 Uani
H9D H 0.5107 -0.1092 -1.7405 0.0540 Uiso
C13D C 0.5522(6) -0.0788(4) -1.5993(6) 0.0469 Uani
C14D C 0.5455(6) -0.0754(4) -1.4904(6) 0.0399 Uani
H10D H 0.5786 -0.0602 -1.4446 0.0480 Uiso
C15D C 0.4880(4) -0.0953(3) -1.4515(6) 0.0362 Uani
C16D C 0.3081(8) -0.1558(5) -1.2312(9) 0.0732 Uani
H11D H 0.3275 -0.1177 -1.1934 0.0880 Uiso
H12D H 0.3238 -0.1806 -1.2043 0.0880 Uiso
C17D C 0.2407(10) -0.1871(7) -1.2155(13) 0.1071 Uani
H13D H 0.2314 -0.1971 -1.1413 0.1610 Uiso
H14D H 0.2218 -0.2232 -1.2577 0.1610 Uiso
H15D H 0.2261 -0.1609 -1.2376 0.1610 Uiso
C18D C 0.2516(8) -0.3244(6) -1.3801(11) 0.0928 Uani
H16D H 0.2148 -0.3585 -1.3565 0.1390 Uiso
H17D H 0.2679 -0.2953 -1.3235 0.1390 Uiso
H18D H 0.2798 -0.3370 -1.3990 0.1390 Uiso
C19D C 0.2404(9) -0.2992(5) -1.4678(12) 0.0914 Uani
H19D H 0.2111 -0.2874 -1.4492 0.1090 Uiso
H20D H 0.2237 -0.3287 -1.5248 0.1090 Uiso
C20D C 0.3310(6) -0.1518(4) -1.5568(7) 0.0540 Uani
C21D C 0.2887(7) -0.2102(5) -1.5693(8) 0.0656 Uani
C22D C 0.2427(7) -0.2269(5) -1.6392(7) 0.0613 Uani
H21D H 0.2138 -0.2674 -1.6449 0.0730 Uiso
C23D C 0.2374(7) -0.1865(5) -1.7011(8) 0.0612 Uani
C24D C 0.2812(6) -0.1249(4) -1.6920(8) 0.0627 Uani
C25D C 0.2777(7) -0.0815(4) -1.7509(9) 0.0769 Uani
H22D H 0.2477 -0.0930 -1.8024 0.0930 Uiso
C26D C 0.3145(12) -0.0262(7) -1.7366(19) 0.1511 Uani
C27D C 0.3645(9) -0.0079(6) -1.6701(14) 0.1303 Uani
H23D H 0.3938 0.0325 -1.6647 0.1570 Uiso
C28D C 0.3692(8) -0.0480(6) -1.6170(14) 0.1060 Uani
H24D H 0.4031 -0.0355 -1.5743 0.1270 Uiso
C29D C 0.3271(6) -0.1088(4) -1.6190(8) 0.0551 Uani
C30D C 0.0966(6) -0.2124(4) -1.8389(8) 0.0608 Uani
H25D H 0.0702 -0.1974 -1.8379 0.0730 Uiso
C31D C 0.1459(6) -0.1882(4) -1.7698(8) 0.0580 Uani
H26D H 0.1508 -0.1590 -1.7202 0.0700 Uiso
C32D C 0.1871(7) -0.2075(5) -1.7747(7) 0.0601 Uani
C33D C 0.1756(7) -0.2527(5) -1.8463(7) 0.0613 Uani
H27D H 0.2013 -0.2683 -1.8519 0.0730 Uiso
C34D C 0.1262(6) -0.2735(4) -1.9080(6) 0.0483 Uani
H28D H 0.1198 -0.3034 -1.9572 0.0580 Uiso
O4 O 0.2874(9) 0.1929(8) 0.2826(16) 0.2252 Uani
N3 N 0.3027(13) 0.1351(16) 0.4088(17) 0.2507 Uani
C35 C 0.347(2) 0.194(4) 0.455(2) 0.4056 Uani
H29 H 0.3665 0.1876 0.5150 0.6040 Uiso
H30 H 0.3269 0.2149 0.4778 0.6040 Uiso
H31 H 0.3765 0.2173 0.4016 0.6040 Uiso
C36 C 0.2836(17) 0.0730(17) 0.450(2) 0.2289 Uani
H32 H 0.3097 0.0757 0.5076 0.3430 Uiso
H33 H 0.2858 0.0490 0.3935 0.3430 Uiso
H34 H 0.2430 0.0547 0.4761 0.3430 Uiso
C37 C 0.2694(13) 0.1411(14) 0.318(2) 0.2367 Uani
H35 H 0.2363 0.1077 0.2886 0.2820 Uiso
O5 O 0.795(2) -0.089(2) -0.987(3) 0.2130 Uiso
C38 C 0.716(2) -0.171(2) -1.026(4) 0.1860 Uiso
H36 H 0.6975 -0.2136 -1.0186 0.2790 Uiso
H37 H 0.7208 -0.1604 -1.1007 0.2790 Uiso
H38 H 0.6908 -0.1574 -0.9934 0.2790 Uiso
C39 C 0.771(2) -0.144(2) -0.977(4) 0.1770 Uiso
H39 H 0.7658 -0.1538 -0.9017 0.2130 Uiso
H40 H 0.7958 -0.1581 -1.0085 0.2130 Uiso
O6 O 0.8251(19) -0.1214(18) -0.774(3) 0.2020 Uiso
C40 C 0.814(2) -0.087(3) -0.658(4) 0.1800 Uiso
H41 H 0.8144 -0.0850 -0.5815 0.2670 Uiso
H42 H 0.7775 -0.0888 -0.6842 0.2670 Uiso
H43 H 0.8480 -0.0517 -0.6866 0.2670 Uiso
C41 C 0.815(2) -0.131(2) -0.687(4) 0.1630 Uiso
H44 H 0.8462 -0.1350 -0.6503 0.1960 Uiso
H45 H 0.7765 -0.1675 -0.6756 0.1960 Uiso
Cl3 Cl 0.3932(9) -0.4419(9) 0.0107(14) 0.2010 Uiso
O7 O 0.4025(11) -0.4854(10) 0.0398(19) 0.1940 Uiso
O8 O 0.4411(11) -0.4014(12) -0.051(2) 0.1560 Uiso
O9 O 0.3445(10) -0.4612(12) -0.051(2) 0.2390 Uiso
O10 O 0.388(2) -0.4124(18) 0.094(2) 0.1980 Uiso
O11 O 0.567(5) -0.286(5) -0.042(8) 0.1400 Uiso
O13 O 0.3333 -0.3333 0.234(2) 0.1670 Uiso
C42? C 0.538(6) -0.403(6) 0.069(10) 0.2900 Uiso
C43? C 0.554(3) -0.446(3) 0.0000 0.2300 Uiso
O12? O 0.541(4) -0.377(5) 0.031(8) 0.1800 Uiso
loop_
_atom_site_aniso_label
_atom_site_aniso_U_11
_atom_site_aniso_U_22
_atom_site_aniso_U_33
_atom_site_aniso_U_23
_atom_site_aniso_U_13
_atom_site_aniso_U_12
Cd1 0.0435(4) 0.0382(5) 0.0288(4) 0.0056(4) 0.00281(18) 0.0191(3)
Cl1 0.0616(15) 0.0715(15) 0.0456(11) 0.0041(10) -0.0040(11) 0.0352(14)
Cl2 0.175(5) 0.069(2) 0.264(7) 0.033(3) 0.154(5) 0.044(3)
O1 0.095(5) 0.069(5) 0.068(4) -0.016(4) -0.021(4) 0.061(4)
O2 0.118(7) 0.055(4) 0.092(6) 0.011(4) 0.045(5) 0.052(5)
O3 0.090(6) 0.062(4) 0.052(3) 0.014(4) 0.018(4) 0.046(4)
N1 0.045(5) 0.038(4) 0.030(3) -0.001(3) 0.003(3) 0.017(3)
N2 0.065(6) 0.068(5) 0.037(4) -0.003(4) 0.010(4) 0.045(4)
C1 0.042(5) 0.046(5) 0.032(4) 0.008(4) 0.014(4) 0.021(4)
C2 0.049(6) 0.041(5) 0.036(5) -0.001(4) 0.000(4) 0.015(4)
C3 0.041(5) 0.031(5) 0.036(4) 0.003(3) 0.001(3) 0.018(4)
C4 0.043(5) 0.050(5) 0.035(4) 0.002(4) -0.002(4) 0.023(4)
C5 0.050(5) 0.041(5) 0.024(3) -0.002(3) 0.002(4) 0.018(4)
C6 0.047(5) 0.035(5) 0.046(5) -0.002(4) 0.012(4) 0.022(4)
C7 0.063(6) 0.054(5) 0.044(5) 0.003(4) 0.005(4) 0.043(5)
C8 0.049(5) 0.048(5) 0.046(5) -0.001(4) 0.005(4) 0.026(5)
C9 0.061(5) 0.037(4) 0.039(5) -0.010(4) -0.008(4) 0.030(4)
C10 0.053(6) 0.040(5) 0.044(5) 0.002(4) 0.006(4) 0.024(5)
C11 0.059(6) 0.044(5) 0.047(5) -0.008(4) 0.007(5) 0.024(4)
C12 0.063(6) 0.043(5) 0.032(4) -0.001(4) 0.004(4) 0.028(5)
C13 0.051(5) 0.050(5) 0.042(4) 0.009(4) 0.008(4) 0.027(4)
C14 0.044(5) 0.039(5) 0.037(4) 0.001(4) 0.007(4) 0.021(4)
C15 0.041(5) 0.026(4) 0.034(4) 0.002(3) 0.003(3) 0.011(4)
C16 0.103(9) 0.082(8) 0.069(7) -0.007(6) -0.020(6) 0.072(7)
C17 0.126(12) 0.090(10) 0.144(13) -0.036(9) -0.059(10) 0.083(10)
C18 0.099(10) 0.098(10) 0.101(9) 0.032(8) 0.020(8) 0.064(8)
C19 0.106(10) 0.071(8) 0.125(10) 0.025(7) 0.046(9) 0.065(8)
C20 0.078(7) 0.057(6) 0.046(5) -0.008(4) -0.010(5) 0.048(6)
C21 0.070(7) 0.052(6) 0.074(6) 0.024(6) 0.038(6) 0.030(5)
C22 0.073(7) 0.042(6) 0.064(6) -0.011(5) 0.020(6) 0.025(5)
C23 0.066(7) 0.067(7) 0.065(6) -0.017(5) -0.002(5) 0.044(6)
C24 0.075(7) 0.052(6) 0.052(6) -0.001(5) 0.012(5) 0.025(6)
C25 0.111(10) 0.038(6) 0.084(7) 0.006(5) 0.040(7) 0.039(6)
C26 0.151(16) 0.083(11) 0.20(2) 0.004(11) 0.121(16) 0.044(11)
C27 0.131(13) 0.044(7) 0.199(17) 0.013(8) 0.116(13) 0.031(8)
C28 0.091(9) 0.079(9) 0.150(14) -0.008(9) 0.050(10) 0.044(8)
C29 0.061(6) 0.043(5) 0.060(6) -0.009(5) 0.009(5) 0.025(5)
C30 0.057(6) 0.050(5) 0.077(7) -0.021(5) 0.005(5) 0.028(5)
C31 0.055(6) 0.054(6) 0.062(6) -0.020(5) 0.014(5) 0.025(5)
C32 0.072(8) 0.056(6) 0.051(5) -0.008(5) 0.007(5) 0.031(5)
C33 0.070(7) 0.074(7) 0.052(5) -0.016(5) 0.000(5) 0.045(6)
C34 0.053(6) 0.058(6) 0.037(5) -0.008(4) -0.005(4) 0.030(5)
Cd1B 0.0435 0.0435 0.0288 -0.00281 0.00279 0.0244
Cd1A 0.0382 0.0435 0.0288 -0.00279 -0.0056 0.0191
Cl1D 0.0627 0.0715 0.0456 0.0041 0.0081 0.0363
Cl2D 0.156 0.069 0.264 0.033 -0.121 0.025
O1D 0.042 0.069 0.068 -0.016 0.005 0.008
O2D 0.069 0.055 0.092 0.011 -0.034 0.003
O3D 0.06 0.062 0.052 0.014 -0.004 0.016
N1D 0.049 0.038 0.03 -0.001 -0.004 0.021
N2D 0.043 0.068 0.037 -0.003 -0.013 0.023
N2A 0.068 0.043 0.037 0.013 0.003 0.023
N2E 0.065 0.043 0.037 0.013 0.01 0.02
C1D 0.046 0.046 0.032 0.008 -0.006 0.025
C2D 0.06 0.041 0.036 -0.001 -0.001 0.026
C3D 0.036 0.031 0.036 0.003 0.002 0.013
C4D 0.047 0.05 0.035 0.002 0.004 0.027
C5D 0.055 0.041 0.024 -0.002 -0.004 0.023
C6D 0.038 0.035 0.046 -0.002 -0.014 0.013
C7D 0.031 0.054 0.044 0.003 -0.002 0.011
C8D 0.045 0.048 0.046 -0.001 -0.006 0.022
C9D 0.038 0.037 0.039 -0.01 -0.002 0.007
C10D 0.045 0.04 0.044 0.002 -0.004 0.016
C11D 0.055 0.044 0.047 -0.008 -0.015 0.02
C12D 0.05 0.043 0.032 -0.001 -0.005 0.015
C13D 0.047 0.05 0.042 0.009 0.001 0.023
C14D 0.041 0.039 0.037 0.001 -0.006 0.018
C15D 0.045 0.026 0.034 0.002 -0.001 0.015
C16D 0.041 0.082 0.069 -0.007 0.013 0.01
C17D 0.05 0.09 0.144 -0.036 0.023 0.007
C18D 0.069 0.098 0.101 0.032 0.012 0.034
C19D 0.047 0.071 0.125 0.025 -0.021 0.006
C20D 0.039 0.057 0.046 -0.008 0.002 0.009
C21D 0.062 0.052 0.074 0.024 -0.014 0.022
C22D 0.065 0.042 0.064 -0.011 -0.031 0.017
C23D 0.045 0.067 0.065 -0.017 -0.015 0.023
C24D 0.077 0.052 0.052 -0.001 -0.013 0.027
C25D 0.071 0.038 0.084 0.006 -0.034 -0.001
C26D 0.146 0.083 0.2 0.004 -0.117 0.039
C27D 0.113 0.044 0.199 0.013 -0.103 0.013
C28D 0.082 0.079 0.15 -0.008 -0.058 0.035
C29D 0.054 0.043 0.06 -0.009 -0.018 0.018
C30D 0.051 0.05 0.077 -0.021 -0.026 0.022
C31D 0.059 0.054 0.062 -0.02 -0.034 0.029
C32D 0.066 0.056 0.051 -0.008 -0.015 0.025
C33D 0.054 0.074 0.052 -0.016 -0.016 0.029
C34D 0.051 0.058 0.037 -0.008 -0.003 0.028
O4 0.177(16) 0.168(13) 0.241(17) 0.101(13) -0.068(14) 0.019(12)
N3 0.25(3) 0.26(3) 0.112(15) 0.10(2) 0.007(17) 0.03(3)
C35 0.28(5) 0.76(15) 0.11(2) -0.14(5) -0.06(2) 0.21(7)
C36 0.34(4) 0.30(4) 0.14(2) 0.05(3) 0.03(2) 0.23(3)
C37 0.20(3) 0.17(2) 0.19(2) 0.08(2) -0.10(2) -0.02(2)
loop_
_geom_bond_atom_site_label_1
_geom_bond_atom_site_label_2
_geom_bond_site_symmetry_1
_geom_bond_site_symmetry_2
Cd1 O3 1_555 1_555
Cl1 C13 1_555 1_555
Cl2 C26 1_555 1_555
O1 C8 1_555 1_555
O2 C19 1_555 1_555
O3 H1 1_555 1_555
H2 O3 1_555 1_555
O4 C37 1_555 1_555
O5 C39 1_555 1_555
O6 C41 1_555 1_555
N1 Cd1 1_555 1_555
N2 C30 1_555 1_555
N3 C35 1_555 1_555
C1 N1 1_555 1_555
H3 C1 1_555 1_555
C2 C1 1_555 1_555
H4 C2 1_555 1_555
C3 C2 1_555 1_555
C4 C3 1_555 1_555
H5 C4 1_555 1_555
C5 N1 1_555 1_555
H6 C5 1_555 1_555
C6 C3 1_555 1_555
C7 C6 1_555 1_555
H7 C7 1_555 1_555
C8 C7 1_555 1_555
C9 C8 1_555 1_555
C10 C9 1_555 1_555
C11 C10 1_555 1_555
H8 C11 1_555 1_555
C12 C11 1_555 1_555
H9 C12 1_555 1_555
C13 C12 1_555 1_555
C14 C13 1_555 1_555
H10 C14 1_555 1_555
C15 C6 1_555 1_555
C16 O1 1_555 1_555
H11 C16 1_555 1_555
H12 C16 1_555 1_555
C17 C16 1_555 1_555
H13 C17 1_555 1_555
H14 C17 1_555 1_555
H15 C17 1_555 1_555
C18 H16 1_555 1_555
H17 C18 1_555 1_555
H18 C18 1_555 1_555
C19 C18 1_555 1_555
H19 C19 1_555 1_555
H20 C19 1_555 1_555
C20 C9 1_555 1_555
C21 O2 1_555 1_555
C22 C21 1_555 1_555
H21 C22 1_555 1_555
C23 C22 1_555 1_555
C24 C23 1_555 1_555
C25 C24 1_555 1_555
H22 C25 1_555 1_555
C26 C25 1_555 1_555
C27 C26 1_555 1_555
H23 C27 1_555 1_555
C28 C27 1_555 1_555
H24 C28 1_555 1_555
C29 C20 1_555 1_555
C30 H25 1_555 1_555
C31 C30 1_555 1_555
H26 C31 1_555 1_555
C32 C23 1_555 1_555
C33 C32 1_555 1_555
H27 C33 1_555 1_555
C34 N2 1_555 1_555
H28 C34 1_555 1_555
C35 H29 1_555 1_555
H30 C35 1_555 1_555
H31 C35 1_555 1_555
C36 N3 1_555 1_555
H32 C36 1_555 1_555
H33 C36 1_555 1_555
H34 C36 1_555 1_555
C37 N3 1_555 1_555
H35 C37 1_555 1_555
C38 H36 1_555 1_555
H37 C38 1_555 1_555
H38 C38 1_555 1_555
C39 C38 1_555 1_555
H39 C39 1_555 1_555
H40 C39 1_555 1_555
C40 H41 1_555 1_555
H42 C40 1_555 1_555
H43 C40 1_555 1_555
C41 C40 1_555 1_555
H44 C41 1_555 1_555
H45 C41 1_555 1_555
Cl3 O7 1_555 1_555
O8 Cl3 1_555 1_555
O9 Cl3 1_555 1_555
O10 Cl3 1_555 1_555
Cd1B N2 1_555 1_555
Cd1A N2D 1_555 1_555
Cl1D C13D 1_555 1_555
Cl2D C26D 1_555 1_555
O1D C8D 1_555 1_555
O2D C19D 1_555 1_555
O3D Cd1 1_555 1_555
H1D O3D 1_555 1_555
H2D O3D 1_555 1_555
N1D Cd1 1_555 1_555
N2D C30D 1_555 1_555
N2A Cd1 1_555 1_555
N2E Cd1 1_555 1_555
C1D N1D 1_555 1_555
H3D C1D 1_555 1_555
C2D C1D 1_555 1_555
H4D C2D 1_555 1_555
C3D C2D 1_555 1_555
C4D C3D 1_555 1_555
H5D C4D 1_555 1_555
C5D N1D 1_555 1_555
H6D C5D 1_555 1_555
C6D C3D 1_555 1_555
C7D C6D 1_555 1_555
H7D C7D 1_555 1_555
C8D C7D 1_555 1_555
C9D C8D 1_555 1_555
C10D C9D 1_555 1_555
C11D C10D 1_555 1_555
H8D C11D 1_555 1_555
C12D C11D 1_555 1_555
H9D C12D 1_555 1_555
C13D C12D 1_555 1_555
C14D C13D 1_555 1_555
H10D C14D 1_555 1_555
C15D C6D 1_555 1_555
C16D O1D 1_555 1_555
H11D C16D 1_555 1_555
H12D C16D 1_555 1_555
C17D C16D 1_555 1_555
H13D C17D 1_555 1_555
H14D C17D 1_555 1_555
H15D C17D 1_555 1_555
C18D H16D 1_555 1_555
H17D C18D 1_555 1_555
H18D C18D 1_555 1_555
C19D C18D 1_555 1_555
H19D C19D 1_555 1_555
H20D C19D 1_555 1_555
C20D C9D 1_555 1_555
C21D O2D 1_555 1_555
C22D C21D 1_555 1_555
H21D C22D 1_555 1_555
C23D C22D 1_555 1_555
C24D C23D 1_555 1_555
C25D C24D 1_555 1_555
H22D C25D 1_555 1_555
C26D C25D 1_555 1_555
C27D C26D 1_555 1_555
H23D C27D 1_555 1_555
C28D C27D 1_555 1_555
H24D C28D 1_555 1_555
C29D C20D 1_555 1_555
C30D H25D 1_555 1_555
C31D C30D 1_555 1_555
H26D C31D 1_555 1_555
C32D C23D 1_555 1_555
C33D C32D 1_555 1_555
H27D C33D 1_555 1_555
C34D N2D 1_555 1_555
H28D C34D 1_555 1_555
C4 C5 1_555 1_555
C10 C15 1_555 1_555
C14 C15 1_555 1_555
C20 C21 1_555 1_555
C24 C29 1_555 1_555
C28 C29 1_555 1_555
C31 C32 1_555 1_555
C33 C34 1_555 1_555
C4D C5D 1_555 1_555
C10D C15D 1_555 1_555
C14D C15D 1_555 1_555
C20D C21D 1_555 1_555
C24D C29D 1_555 1_555
C28D C29D 1_555 1_555
C31D C32D 1_555 1_555
C33D C34D 1_555 1_555

#END
