
#######################################################################
#
#                 Cambridge Crystallographic Data Centre
#                                CCDC 
#
#######################################################################
#
# If this CIF has been generated from an entry in the Cambridge 
# Structural Database, then it will include bibliographic, chemical, 
# crystal, experimental, refinement or atomic coordinate data resulting 
# from the CCDC's data processing and validation procedures.
#
#######################################################################

data_SAPBIW
_chemical_name_common            Bio-MOF-100
_chemical_formula_moiety         
'(C52 H32 N10 O13 Zn4 2-)n,2n(C2 H8 N1 1+),24.5n(C3 H7 N1 O1),15.5n(H2 O1)'
_chemical_name_systematic        
"catena-(bis(dimethylammonium) bis(\m~4~-adeninato)-tris(\m~2~-biphenyl-4,4'-dicarboxylato)-(\m~2~-oxo)-tetra-zinc N,N-dimethylformamide solvate hydrate)"
_symmetry_cell_setting           cubic
_symmetry_space_group_name_H-M   'I a 3 d'
_symmetry_Int_Tables_number      230
_space_group_name_Hall           '-I 4bd 2c 3'
loop_
_symmetry_equiv_pos_site_id
_symmetry_equiv_pos_as_xyz
1 x,y,z
2 1/2-x,-y,1/2+z
3 -x,1/2+y,1/2-z
4 1/2+x,1/2-y,-z
5 z,x,y
6 1/2+z,1/2-x,-y
7 1/2-z,-x,1/2+y
8 -z,1/2+x,1/2-y
9 y,z,x
10 -y,1/2+z,1/2-x
11 1/2+y,1/2-z,-x
12 1/2-y,-z,1/2+x
13 3/4+y,1/4+x,1/4-z
14 3/4-y,3/4-x,3/4-z
15 1/4+y,1/4-x,3/4+z
16 1/4-y,3/4+x,1/4+z
17 3/4+x,1/4+z,1/4-y
18 1/4-x,3/4+z,1/4+y
19 3/4-x,3/4-z,3/4-y
20 1/4+x,1/4-z,3/4+y
21 3/4+z,1/4+y,1/4-x
22 1/4+z,1/4-y,3/4+x
23 1/4-z,3/4+y,1/4+x
24 3/4-z,3/4-y,3/4-x
25 1/2+x,1/2+y,1/2+z
26 -x,1/2-y,z
27 1/2-x,y,-z
28 x,-y,1/2-z
29 1/2+z,1/2+x,1/2+y
30 z,-x,1/2-y
31 -z,1/2-x,y
32 1/2-z,x,-y
33 1/2+y,1/2+z,1/2+x
34 1/2-y,z,-x
35 y,-z,1/2-x
36 -y,1/2-z,x
37 1/4+y,3/4+x,3/4-z
38 1/4-y,1/4-x,1/4-z
39 3/4+y,3/4-x,1/4+z
40 3/4-y,1/4+x,3/4+z
41 1/4+x,3/4+z,3/4-y
42 3/4-x,1/4+z,3/4+y
43 1/4-x,1/4-z,1/4-y
44 3/4+x,3/4-z,1/4+y
45 1/4+z,3/4+y,3/4-x
46 3/4+z,3/4-y,1/4+x
47 3/4-z,1/4+y,3/4+x
48 1/4-z,1/4-y,1/4-x
49 -x,-y,-z
50 1/2+x,y,1/2-z
51 x,1/2-y,1/2+z
52 1/2-x,1/2+y,z
53 -z,-x,-y
54 1/2-z,1/2+x,y
55 1/2+z,x,1/2-y
56 z,1/2-x,1/2+y
57 -y,-z,-x
58 y,1/2-z,1/2+x
59 1/2-y,1/2+z,x
60 1/2+y,z,1/2-x
61 1/4-y,3/4-x,3/4+z
62 1/4+y,1/4+x,1/4+z
63 3/4-y,3/4+x,1/4-z
64 3/4+y,1/4-x,3/4-z
65 1/4-x,3/4-z,3/4+y
66 3/4+x,1/4-z,3/4-y
67 1/4+x,1/4+z,1/4+y
68 3/4-x,3/4+z,1/4-y
69 1/4-z,3/4-y,3/4+x
70 3/4-z,3/4+y,1/4-x
71 3/4+z,1/4-y,3/4-x
72 1/4+z,1/4+y,1/4+x
73 1/2-x,1/2-y,1/2-z
74 x,1/2+y,-z
75 1/2+x,-y,z
76 -x,y,1/2+z
77 1/2-z,1/2-x,1/2-y
78 -z,x,1/2+y
79 z,1/2+x,-y
80 1/2+z,-x,y
81 1/2-y,1/2-z,1/2-x
82 1/2+y,-z,x
83 -y,z,1/2+x
84 y,1/2+z,-x
85 3/4-y,1/4-x,1/4+z
86 3/4+y,3/4+x,3/4+z
87 1/4-y,1/4+x,3/4-z
88 1/4+y,3/4-x,1/4-z
89 3/4-x,1/4-z,1/4+y
90 1/4+x,3/4-z,1/4-y
91 3/4+x,3/4+z,3/4+y
92 1/4-x,1/4+z,3/4-y
93 3/4-z,1/4-y,1/4+x
94 1/4-z,1/4+y,3/4-x
95 1/4+z,3/4-y,1/4-x
96 3/4+z,3/4+y,3/4+x
_cell_length_a                   69.12(2)
_cell_length_b                   69.12(2)
_cell_length_c                   69.12(2)
_cell_angle_alpha                90
_cell_angle_beta                 90
_cell_angle_gamma                90
_cell_volume                     330226
_cell_formula_units_Z            48
loop_
_atom_site_label
_atom_site_type_symbol
_atom_site_fract_x
_atom_site_fract_y
_atom_site_fract_z
_atom_site_U_iso_or_equiv
_atom_site_thermal_displace_type
Zn1 Zn 0.48946(2) 0.22986(2) 0.18967(2) 0.1885 Uani
Zn2 Zn 0.436884(18) 0.224604(18) 0.12422(2) 0.1774 Uani
N1 N 0.45012(12) 0.24370(14) 0.14342(14) 0.1877 Uani
C1 C 0.45954(14) 0.23611(17) 0.15833(16) 0.1803 Uani
H1 H 0.4566 0.2233 0.1613 0.2160 Uiso
N2 N 0.47283(12) 0.24486(13) 0.16962(12) 0.1770 Uani
C2 C 0.47555(16) 0.26318(16) 0.16400(18) 0.1763 Uani
C3 C 0.46633(16) 0.27318(17) 0.14825(18) 0.1933 Uani
C4 C 0.45317(19) 0.26317(19) 0.13844(19) 0.1973 Uani
N3 N 0.47379(13) 0.29166(12) 0.14588(15) 0.1877 Uani
C5 C 0.48642(17) 0.29169(18) 0.16084(17) 0.1913 Uani
H2 H 0.4937 0.3027 0.1636 0.2300 Uiso
N4 N 0.48835(13) 0.27558(14) 0.17179(14) 0.1843 Uani
N5 N 0.44332(13) 0.27191(12) 0.12346(15) 0.2137 Uani
H3 H 0.4457 0.2838 0.1205 0.2570 Uiso
H4 H 0.4348 0.2655 0.1171 0.2570 Uiso
O1 O 0.5000 0.2500 0.20618(13) 0.1873 Uani
C6 C 0.4709(2) 0.1973(2) 0.1955(2) 0.2300 Uani
O2 O 0.47684(16) 0.21104(14) 0.20520(17) 0.2583 Uani
O3 O 0.47244(17) 0.19581(15) 0.17792(16) 0.2480 Uani
C7 C 0.45977(17) 0.18176(18) 0.2061(2) 0.2277 Uani
C8 C 0.4512(2) 0.16717(18) 0.19656(19) 0.2430 Uani
H5 H 0.4518 0.1668 0.1831 0.2920 Uiso
C9 C 0.4412(2) 0.15233(19) 0.20649(18) 0.2450 Uani
H6 H 0.4356 0.1422 0.1995 0.2940 Uiso
C10 C 0.4395(2) 0.15267(18) 0.22581(19) 0.2247 Uani
C11 C 0.4471(3) 0.1681(2) 0.2348(2) 0.3700 Uani
H7 H 0.4447 0.1697 0.2480 0.4440 Uiso
C12 C 0.4584(3) 0.1821(2) 0.2254(2) 0.3267 Uani
H8 H 0.4649 0.1916 0.2325 0.3930 Uiso
C13 C 0.3988(2) 0.0930(2) 0.2678(2) 0.2403 Uani
O4 O 0.38807(12) 0.08232(10) 0.25832(11) 0.1957 Uani
O5 O 0.3996(2) 0.09167(18) 0.28525(14) 0.3533 Uani
C14 C 0.40962(17) 0.10843(17) 0.25668(19) 0.2293 Uani
C15 C 0.4099(2) 0.10877(18) 0.23774(18) 0.2497 Uani
H9 H 0.4034 0.0992 0.2308 0.2990 Uiso
C16 C 0.4198(2) 0.1235(2) 0.22766(19) 0.2740 Uani
H10 H 0.4200 0.1232 0.2142 0.3300 Uiso
C17 C 0.4290(2) 0.13786(18) 0.2366(2) 0.2453 Uani
C18 C 0.4296(3) 0.1369(2) 0.2560(2) 0.3503 Uani
H11 H 0.4371 0.1456 0.2630 0.4190 Uiso
C19 C 0.4191(3) 0.1228(2) 0.2656(2) 0.3820 Uani
H12 H 0.4185 0.1233 0.2791 0.4590 Uiso
C20 C 0.4252(2) 0.1952(2) 0.1457(2) 0.2040 Uani
O6 O 0.43832(11) 0.19874(11) 0.13372(14) 0.2043 Uani
O7 O 0.41450(14) 0.20772(12) 0.15138(18) 0.2650 Uani
C21 C 0.42114(16) 0.17411(17) 0.15106(15) 0.2027 Uani
C22 C 0.40605(19) 0.16913(18) 0.16246(18) 0.2393 Uani
H13 H 0.3982 0.1788 0.1676 0.2870 Uiso
C23 C 0.40208(19) 0.14982(18) 0.1666(2) 0.2377 Uani
H14 H 0.3915 0.1466 0.1743 0.2850 Uiso
C24 C 0.41367(18) 0.13582(16) 0.15948(17) 0.1877 Uani
C25 C 0.42890(17) 0.14068(18) 0.14821(17) 0.2033 Uani
H15 H 0.4369 0.1310 0.1434 0.2440 Uiso
C26 C 0.43270(17) 0.16000(16) 0.14380(18) 0.2137 Uani
H16 H 0.4431 0.1632 0.1359 0.2560 Uiso
Zn1Y Zn 0.51054(2) 0.27014(2) 0.18967(2) 0.1885 Uani
Zn1BC Zn 0.27014(2) 0.31033(2) 0.01054(2) 0.1885 Uani
Zn2Y Zn 0.563116(18) 0.275396(18) 0.12422(2) 0.1774 Uani
Zn2IC Zn 0.474604(18) 0.313116(18) 0.12578(2) 0.1774 Uani
Zn2XB Zn 0.37578(2) 0.063116(18) 0.275396(18) 0.1774 Uani
Zn2U Zn 0.37422(2) 0.025396(18) 0.186884(18) 0.1774 Uani
Zn2JB Zn 0.525396(18) 0.186884(18) 0.12578(2) 0.1774 Uani
N1Y N 0.54988(12) 0.25630(14) 0.14342(14) 0.1877 Uani
C1Y C 0.54046(14) 0.26389(17) 0.15833(16) 0.1803 Uani
H1Y H 0.5434 0.2767 0.1613 0.2160 Uiso
N2Y N 0.52717(12) 0.25514(13) 0.16962(12) 0.1770 Uani
C2Y C 0.52445(16) 0.23682(16) 0.16400(18) 0.1763 Uani
C3Y C 0.53367(16) 0.22682(17) 0.14825(18) 0.1933 Uani
C4Y C 0.54683(19) 0.23683(19) 0.13844(19) 0.1973 Uani
N3Y N 0.52621(13) 0.20834(12) 0.14588(15) 0.1877 Uani
N3JB N 0.45834(12) 0.22379(13) 0.10412(15) 0.1877 Uani
N3IC N 0.54166(12) 0.27621(13) 0.10412(15) 0.1877 Uani
C5Y C 0.51358(17) 0.20831(18) 0.16084(17) 0.1913 Uani
H2Y H 0.5063 0.1973 0.1636 0.2300 Uiso
N4Y N 0.51165(13) 0.22442(14) 0.17179(14) 0.1843 Uani
N5Y N 0.55668(13) 0.22809(12) 0.12346(15) 0.2137 Uani
H3Y H 0.5543 0.2162 0.1205 0.2570 Uiso
H4Y H 0.5652 0.2345 0.1171 0.2570 Uiso
C6BC C 0.3027(2) 0.3045(2) 0.0291(2) 0.2300 Uani
O2BC O 0.28896(14) 0.29480(17) 0.02316(16) 0.2583 Uani
O2Y O 0.52316(16) 0.28896(14) 0.20520(17) 0.2583 Uani
O3BC O 0.30419(15) 0.32208(16) 0.02756(17) 0.2480 Uani
C7BC C 0.31824(18) 0.2939(2) 0.04023(17) 0.2277 Uani
C8BC C 0.33283(18) 0.30344(19) 0.0488(2) 0.2430 Uani
H5BC H 0.3332 0.3169 0.0482 0.2920 Uiso
C9BC C 0.34767(19) 0.29351(18) 0.0588(2) 0.2450 Uani
H6BC H 0.3578 0.3005 0.0644 0.2940 Uiso
C10BC C 0.34733(18) 0.27419(19) 0.0605(2) 0.2247 Uani
C11BC C 0.3319(2) 0.2652(2) 0.0529(3) 0.3700 Uani
H7BC H 0.3303 0.2520 0.0553 0.4440 Uiso
C12BC C 0.3179(2) 0.2746(2) 0.0416(3) 0.3267 Uani
H8BC H 0.3084 0.2675 0.0351 0.3930 Uiso
C13BC C 0.4070(2) 0.2322(2) 0.1012(2) 0.2403 Uani
O4BC O 0.41768(10) 0.24168(11) 0.11193(12) 0.1957 Uani
O4GB O 0.58232(10) 0.25832(11) 0.11193(12) 0.1957 Uani
O5BC O 0.40833(18) 0.21475(14) 0.1004(2) 0.3533 Uani
C14BC C 0.39157(17) 0.24332(19) 0.09038(17) 0.2293 Uani
C15BC C 0.39123(18) 0.26226(18) 0.0901(2) 0.2497 Uani
H9BC H 0.4008 0.2692 0.0966 0.2990 Uiso
C16BC C 0.3765(2) 0.27234(19) 0.0802(2) 0.2740 Uani
H10BC H 0.3768 0.2858 0.0800 0.3300 Uiso
C17BC C 0.36214(18) 0.2634(2) 0.0710(2) 0.2453 Uani
C18BC C 0.3631(2) 0.2440(2) 0.0704(3) 0.3503 Uani
H11BC H 0.3544 0.2370 0.0629 0.4190 Uiso
C19BC C 0.3772(2) 0.2344(2) 0.0809(3) 0.3820 Uani
H12BC H 0.3767 0.2209 0.0815 0.4590 Uiso
C20U C 0.3957(2) 0.0548(2) 0.1752(2) 0.2040 Uani
O6U O 0.38372(14) 0.05126(11) 0.18832(11) 0.2043 Uani
O6Y O 0.56168(11) 0.30126(11) 0.13372(14) 0.2043 Uani
O7U O 0.40138(18) 0.04228(12) 0.16450(14) 0.2650 Uani
C21U C 0.40106(15) 0.07589(17) 0.17114(16) 0.2027 Uani
C22U C 0.41246(18) 0.08087(18) 0.15605(19) 0.2393 Uani
H13U H 0.4176 0.0712 0.1482 0.2870 Uiso
C23U C 0.4166(2) 0.10018(18) 0.15208(19) 0.2377 Uani
H14U H 0.4243 0.1034 0.1415 0.2850 Uiso
C24U C 0.40948(17) 0.11418(16) 0.16367(18) 0.1877 Uani
C25U C 0.39821(17) 0.10932(18) 0.17890(17) 0.2033 Uani
H15U H 0.3934 0.1190 0.1869 0.2440 Uiso
C26U C 0.39380(18) 0.09000(16) 0.18270(17) 0.2137 Uani
H16U H 0.3859 0.0868 0.1931 0.2560 Uiso
loop_
_atom_site_aniso_label
_atom_site_aniso_U_11
_atom_site_aniso_U_22
_atom_site_aniso_U_33
_atom_site_aniso_U_23
_atom_site_aniso_U_13
_atom_site_aniso_U_12
Zn1 0.1844(16) 0.1596(15) 0.2215(18) 0.0044(11) 0.0008(11) -0.0124(10)
Zn2 0.1473(15) 0.1504(15) 0.2346(18) 0.0098(10) -0.0099(10) -0.0058(8)
N1 0.156(7) 0.171(7) 0.236(10) 0.010(7) -0.015(6) -0.004(6)
C1 0.147(10) 0.187(10) 0.207(12) -0.011(8) 0.007(7) 0.003(7)
N2 0.150(7) 0.172(7) 0.209(8) 0.008(7) -0.014(6) 0.002(6)
C2 0.152(10) 0.161(9) 0.216(11) 0.017(8) 0.025(7) 0.010(8)
C3 0.174(12) 0.165(9) 0.241(13) 0.002(8) 0.008(7) 0.013(7)
C4 0.194(13) 0.165(9) 0.233(13) -0.016(9) 0.001(7) 0.002(8)
N3 0.165(8) 0.141(6) 0.257(10) 0.021(7) -0.006(6) 0.014(6)
C5 0.174(11) 0.158(8) 0.242(14) 0.016(8) 0.005(7) 0.011(8)
N4 0.173(8) 0.160(8) 0.220(8) 0.018(6) 0.002(6) 0.005(6)
N5 0.199(9) 0.169(8) 0.273(11) 0.007(7) -0.026(7) 0.013(6)
O1 0.212(8) 0.146(6) 0.204(8) 0.000 0.000 -0.024(6)
C6 0.213(15) 0.197(16) 0.28(2) 0.061(16) 0.021(16) -0.006(11)
O2 0.279(10) 0.194(9) 0.302(11) 0.019(8) 0.017(8) -0.072(8)
O3 0.260(9) 0.205(8) 0.279(11) 0.036(9) 0.034(10) -0.025(6)
C7 0.271(15) 0.183(12) 0.229(12) 0.025(10) 0.010(12) -0.043(9)
C8 0.312(17) 0.205(14) 0.212(11) 0.010(9) 0.049(11) -0.054(10)
C9 0.334(17) 0.205(12) 0.196(9) 0.010(10) 0.024(12) -0.079(11)
C10 0.320(16) 0.160(10) 0.194(10) 0.001(9) 0.031(12) -0.063(9)
C11 0.60(3) 0.283(19) 0.227(12) -0.033(12) 0.064(17) -0.251(18)
C12 0.48(3) 0.270(16) 0.230(12) 0.008(13) 0.023(17) -0.192(15)
C13 0.33(2) 0.184(14) 0.207(15) 0.000(12) 0.014(15) -0.077(11)
O4 0.251(8) 0.139(6) 0.197(7) 0.021(5) 0.027(6) -0.014(5)
O5 0.55(2) 0.324(12) 0.186(8) 0.030(9) -0.009(11) -0.214(13)
C14 0.319(16) 0.186(12) 0.183(10) -0.009(9) 0.016(12) -0.068(10)
C15 0.354(17) 0.204(12) 0.191(10) -0.016(10) 0.024(12) -0.115(11)
C16 0.37(2) 0.245(16) 0.207(11) 0.018(10) 0.002(12) -0.144(12)
C17 0.367(19) 0.173(12) 0.196(10) -0.003(10) 0.033(12) -0.093(10)
C18 0.55(3) 0.308(18) 0.193(10) 0.007(13) 0.036(17) -0.226(18)
C19 0.62(4) 0.34(2) 0.186(11) -0.002(12) 0.012(16) -0.29(2)
C20 0.180(14) 0.138(10) 0.294(18) 0.026(11) -0.021(12) -0.012(10)
O6 0.166(7) 0.154(6) 0.293(10) 0.043(6) -0.010(6) -0.022(5)
O7 0.251(10) 0.155(7) 0.389(12) 0.024(8) 0.066(9) 0.010(6)
C21 0.181(11) 0.156(9) 0.271(14) 0.020(9) 0.018(8) -0.007(8)
C22 0.252(14) 0.165(9) 0.301(15) 0.007(10) 0.084(10) -0.019(10)
C23 0.240(13) 0.158(10) 0.315(15) 0.021(11) 0.071(11) -0.003(9)
C24 0.202(12) 0.160(10) 0.201(12) 0.029(8) 0.003(8) -0.004(8)
C25 0.225(12) 0.151(8) 0.234(12) 0.021(9) 0.026(8) -0.005(9)
C26 0.198(11) 0.148(9) 0.295(14) 0.021(10) 0.029(9) -0.001(8)
Zn1Y 0.1844 0.1596 0.2215 -0.0044 -0.0008 -0.0124
Zn1BC 0.1596 0.2215 0.1844 0.0008 -0.0124 0.0044
Zn2Y 0.1473 0.1504 0.2346 -0.0098 0.0099 -0.0058
Zn2IC 0.1504 0.1473 0.2346 -0.0099 -0.0098 0.0058
Zn2XB 0.2346 0.1473 0.1504 -0.0058 0.0098 -0.0099
Zn2U 0.2346 0.1504 0.1473 0.0058 -0.0099 -0.0098
Zn2JB 0.1504 0.1473 0.2346 0.0099 0.0098 0.0058
N1Y 0.156 0.171 0.236 -0.01 0.015 -0.004
C1Y 0.147 0.187 0.207 0.011 -0.007 0.003
N2Y 0.15 0.172 0.209 -0.008 0.014 0.002
C2Y 0.152 0.161 0.216 -0.017 -0.025 0.01
C3Y 0.174 0.165 0.241 -0.002 -0.008 0.013
C4Y 0.194 0.165 0.233 0.016 -0.001 0.002
N3Y 0.165 0.141 0.257 -0.021 0.006 0.014
N3JB 0.141 0.165 0.257 0.006 0.021 -0.014
N3IC 0.141 0.165 0.257 -0.006 -0.021 -0.014
C5Y 0.174 0.158 0.242 -0.016 -0.005 0.011
N4Y 0.173 0.16 0.22 -0.018 -0.002 0.005
N5Y 0.199 0.169 0.273 -0.007 0.026 0.013
C6BC 0.197 0.28 0.213 0.021 -0.006 0.061
O2BC 0.194 0.302 0.279 0.017 -0.072 0.019
O2Y 0.279 0.194 0.302 -0.019 -0.017 -0.072
O3BC 0.205 0.279 0.26 0.034 -0.025 0.036
C7BC 0.183 0.229 0.271 0.01 -0.043 0.025
C8BC 0.205 0.212 0.312 0.049 -0.054 0.01
C9BC 0.205 0.196 0.334 0.024 -0.079 0.01
C10BC 0.16 0.194 0.32 0.031 -0.063 0.001
C11BC 0.283 0.227 0.6 0.064 -0.251 -0.033
C12BC 0.27 0.23 0.48 0.023 -0.192 0.008
C13BC 0.184 0.207 0.33 0.014 -0.077 0
O4BC 0.139 0.197 0.251 0.027 -0.014 0.021
O4GB 0.139 0.197 0.251 -0.027 0.014 0.021
O5BC 0.324 0.186 0.55 -0.009 -0.214 0.03
C14BC 0.186 0.183 0.319 0.016 -0.068 -0.009
C15BC 0.204 0.191 0.354 0.024 -0.115 -0.016
C16BC 0.245 0.207 0.37 0.002 -0.144 0.018
C17BC 0.173 0.196 0.367 0.033 -0.093 -0.003
C18BC 0.308 0.193 0.55 0.036 -0.226 0.007
C19BC 0.34 0.186 0.62 0.012 -0.29 -0.002
C20U 0.294 0.138 0.18 0.012 -0.021 -0.026
O6U 0.293 0.154 0.166 0.022 -0.01 -0.043
O6Y 0.166 0.154 0.293 -0.043 0.01 -0.022
O7U 0.389 0.155 0.251 -0.01 0.066 -0.024
C21U 0.271 0.156 0.181 0.007 0.018 -0.02
C22U 0.301 0.165 0.252 0.019 0.084 -0.007
C23U 0.315 0.158 0.24 0.003 0.071 -0.021
C24U 0.201 0.16 0.202 0.004 0.003 -0.029
C25U 0.234 0.151 0.225 0.005 0.026 -0.021
C26U 0.295 0.148 0.198 0.001 0.029 -0.021
loop_
_geom_bond_atom_site_label_1
_geom_bond_atom_site_label_2
_geom_bond_site_symmetry_1
_geom_bond_site_symmetry_2
Zn1 N2 1_555 1_555
Zn2 N1 1_555 1_555
N1 C1 1_555 1_555
C1 H1 1_555 1_555
N2 C1 1_555 1_555
C2 N2 1_555 1_555
C3 C2 1_555 1_555
C4 N1 1_555 1_555
N3 C3 1_555 1_555
C5 N3 1_555 1_555
H2 C5 1_555 1_555
N4 C2 1_555 1_555
N5 C4 1_555 1_555
H3 N5 1_555 1_555
H4 N5 1_555 1_555
O1 Zn1 1_555 1_555
C6 O2 1_555 1_555
O2 Zn1 1_555 1_555
O3 C6 1_555 1_555
C7 C6 1_555 1_555
C8 C7 1_555 1_555
H5 C8 1_555 1_555
C9 C8 1_555 1_555
H6 C9 1_555 1_555
C10 C9 1_555 1_555
C11 C10 1_555 1_555
H7 C11 1_555 1_555
C12 C7 1_555 1_555
H8 C12 1_555 1_555
C13 O4 1_555 1_555
O4 Zn2XB 1_555 1_555
O5 C13 1_555 1_555
C14 C13 1_555 1_555
C15 C14 1_555 1_555
H9 C15 1_555 1_555
C16 C15 1_555 1_555
H10 C16 1_555 1_555
C17 C10 1_555 1_555
C18 C17 1_555 1_555
H11 C18 1_555 1_555
C19 C14 1_555 1_555
H12 C19 1_555 1_555
C20 O6 1_555 1_555
O6 Zn2 1_555 1_555
O7 C20 1_555 1_555
C21 C20 1_555 1_555
C22 C21 1_555 1_555
H13 C22 1_555 1_555
C23 C22 1_555 1_555
H14 C23 1_555 1_555
C24 C23 1_555 1_555
C25 C24 1_555 1_555
H15 C25 1_555 1_555
C26 C21 1_555 1_555
H16 C26 1_555 1_555
Zn1Y N4 1_555 1_555
Zn1BC O2BC 1_555 1_555
Zn2Y N1Y 1_555 1_555
Zn2IC N3 1_555 1_555
Zn2U O6U 1_555 1_555
Zn2JB N3Y 1_555 1_555
N1Y C1Y 1_555 1_555
C1Y H1Y 1_555 1_555
N2Y Zn1Y 1_555 1_555
C2Y N2Y 1_555 1_555
C3Y C2Y 1_555 1_555
C4Y N1Y 1_555 1_555
N3Y C3Y 1_555 1_555
N3JB Zn2 1_555 1_555
N3IC Zn2Y 1_555 1_555
C5Y N3Y 1_555 1_555
H2Y C5Y 1_555 1_555
N4Y Zn1 1_555 1_555
N5Y C4Y 1_555 1_555
H3Y N5Y 1_555 1_555
H4Y N5Y 1_555 1_555
C6BC O2BC 1_555 1_555
O2Y Zn1Y 1_555 1_555
O3BC C6BC 1_555 1_555
C7BC C6BC 1_555 1_555
C8BC C7BC 1_555 1_555
H5BC C8BC 1_555 1_555
C9BC C8BC 1_555 1_555
H6BC C9BC 1_555 1_555
C10BC C9BC 1_555 1_555
C11BC C10BC 1_555 1_555
H7BC C11BC 1_555 1_555
C12BC C7BC 1_555 1_555
H8BC C12BC 1_555 1_555
C13BC O4BC 1_555 1_555
O4BC Zn2 1_555 1_555
O4GB Zn2Y 1_555 1_555
O5BC C13BC 1_555 1_555
C14BC C13BC 1_555 1_555
C15BC C14BC 1_555 1_555
H9BC C15BC 1_555 1_555
C16BC C15BC 1_555 1_555
H10BC C16BC 1_555 1_555
C17BC C10BC 1_555 1_555
C18BC C17BC 1_555 1_555
H11BC C18BC 1_555 1_555
C19BC C14BC 1_555 1_555
H12BC C19BC 1_555 1_555
C20U O6U 1_555 1_555
O6Y Zn2Y 1_555 1_555
O7U C20U 1_555 1_555
C21U C20U 1_555 1_555
C22U C21U 1_555 1_555
H13U C22U 1_555 1_555
C23U C22U 1_555 1_555
H14U C23U 1_555 1_555
C24U C24 1_555 1_555
C25U C24U 1_555 1_555
H15U C25U 1_555 1_555
C26U C21U 1_555 1_555
H16U C26U 1_555 1_555
C3 C4 1_555 1_555
C5 N4 1_555 1_555
O1 Zn1Y 1_555 1_555
C11 C12 1_555 1_555
C16 C17 1_555 1_555
C18 C19 1_555 1_555
C25 C26 1_555 1_555
C1Y N2Y 1_555 1_555
C2Y N4Y 1_555 1_555
C3Y C4Y 1_555 1_555
C5Y N4Y 1_555 1_555
C11BC C12BC 1_555 1_555
C16BC C17BC 1_555 1_555
C18BC C19BC 1_555 1_555
C23U C24U 1_555 1_555
C25U C26U 1_555 1_555

#END
