
#######################################################################
#
#                 Cambridge Crystallographic Data Centre
#                                CCDC 
#
#######################################################################
#
# If this CIF has been generated from an entry in the Cambridge 
# Structural Database, then it will include bibliographic, chemical, 
# crystal, experimental, refinement or atomic coordinate data resulting 
# from the CCDC's data processing and validation procedures.
#
#######################################################################

data_UQADEX
_chemical_name_common            NUS-1a
_chemical_formula_moiety         '(C84 H54 O13 Zn4)n,4(H2 O1),2(C5 H11 N1 O1)'
_chemical_name_systematic        
'catena-[tris(\m-4-(1-(4-carboxylatophenyl)-2,2-diphenylvinyl)benzoato)-(\m-oxido)-tetra-zinc diethylformamide solvate tetrahydrate]'
_symmetry_cell_setting           trigonal
_symmetry_space_group_name_H-M   'P -3'
_symmetry_Int_Tables_number      147
_space_group_name_Hall           '-P 3'
loop_
_symmetry_equiv_pos_site_id
_symmetry_equiv_pos_as_xyz
1 x,y,z
2 -y,x-y,z
3 -x+y,-x,z
4 -x,-y,-z
5 y,-x+y,-z
6 x-y,x,-z
_cell_length_a                   25.2435(14)
_cell_length_b                   25.2435(14)
_cell_length_c                   11.6675(6)
_cell_angle_alpha                90
_cell_angle_beta                 90
_cell_angle_gamma                120
_cell_volume                     6438.84
_exptl_crystal_colour            colorless
_exptl_crystal_description       block
_cell_formula_units_Z            2
_chemical_properties_physical    Moisture-sensitive
_exptl_crystal_recrystallization_method 'Solvothermal method'
_exptl_crystal_preparation       Luminescent
loop_
_atom_site_label
_atom_site_type_symbol
_atom_site_fract_x
_atom_site_fract_y
_atom_site_fract_z
Zn1 Zn 0.68011(3) 0.41161(3) 1.04434(6)
Zn2 Zn 0.6667 0.3333 0.82200(9)
O1 O 0.68388(16) 0.45937(16) 0.9017(3)
O2 O 0.64731(18) 0.39186(17) 0.7555(3)
O3 O 0.4588(3) 0.6988(3) 0.8861(4)
O4 O 0.3857(3) 0.5943(2) 0.8720(5)
O5 O 0.6667 0.3333 0.9884(4)
C1 C 0.6609(2) 0.4422(3) 0.8048(4)
C2 C 0.6491(2) 0.4867(2) 0.7375(4)
C3 C 0.6245(2) 0.4724(2) 0.6294(4)
H1 H 0.6158 0.4347 0.5952
C4 C 0.6123(3) 0.5129(3) 0.5692(4)
H2 H 0.5965 0.5034 0.4934
C5 C 0.6232(2) 0.5664(2) 0.6202(4)
C6 C 0.6471(3) 0.5806(3) 0.7285(4)
H3 H 0.6553 0.6180 0.7629
C7 C 0.6597(3) 0.5403(3) 0.7888(4)
H4 H 0.6754 0.5498 0.8647
C8 C 0.6055(2) 0.6091(2) 0.5623(4)
C9 C 0.5627(3) 0.6194(2) 0.6320(4)
C10 C 0.5735(4) 0.6774(3) 0.6634(5)
H5 H 0.6084 0.7124 0.6332
C11 C 0.5359(5) 0.6856(3) 0.7358(7)
H6 H 0.5469 0.7256 0.7609
C12 C 0.4812(4) 0.6354(3) 0.7730(5)
C13 C 0.4672(3) 0.5771(3) 0.7379(4)
H7 H 0.4299 0.5424 0.7612
C14 C 0.5078(3) 0.5697(2) 0.6690(4)
H8 H 0.4979 0.5296 0.6464
C15 C 0.4391(4) 0.6424(4) 0.8505(6)
C16 C 0.6267(2) 0.6341(3) 0.4586(4)
C17 C 0.6029(2) 0.6708(3) 0.4001(4)
C18 C 0.6427(3) 0.7313(3) 0.3738(6)
H9 H 0.6854 0.7481 0.3858
C19 C 0.6208(4) 0.7679(4) 0.3299(9)
H10 H 0.6473 0.8107 0.3218
C20 C 0.5602(4) 0.7415(5) 0.2983(10)
H11 H 0.5458 0.7654 0.2613
C21 C 0.5202(3) 0.6801(4) 0.3206(7)
H12 H 0.4784 0.6618 0.2989
C22 C 0.5410(3) 0.6464(3) 0.3730(5)
H13 H 0.5129 0.6050 0.3920
C23 C 0.6615(7) 0.6128(6) 0.3814(17)
C24 C 0.6467(6) 0.5988(6) 0.2677(14)
H14 H 0.6123 0.5999 0.2375
C25 C 0.7292(7) 0.5824(7) 0.2365(14)
H15 H 0.7506 0.5691 0.1884
C26 C 0.6799(7) 0.5833(6) 0.1967(11)
H16 H 0.6679 0.5730 0.1190
C27 C 0.7158(7) 0.6168(7) 0.4212(11)
H17 H 0.7295 0.6300 0.4973
C28 C 0.7493(7) 0.6013(8) 0.3487(17)
H18 H 0.7860 0.6034 0.3751
Zn1A Zn 0.58839(3) 0.26850(4) 1.04434(6)
O1A O 0.54063(16) 0.22451(23) 0.9017(3)
O2A O 0.60814(17) 0.25545(25) 0.7555(3)
O3A O 0.3012(3) -0.2400(4) 0.8861(4)
O4A O 0.4057(2) -0.2086(4) 0.8720(5)
C1A C 0.5578(3) 0.2187(4) 0.8048(4)
C2A C 0.5133(2) 0.1624(3) 0.7375(4)
C3A C 0.5276(2) 0.1521(3) 0.6294(4)
H1A H 0.5653 0.1811 0.5952
C4A C 0.4871(3) 0.0994(4) 0.5692(4)
H2A H 0.4966 0.0931 0.4934
C5A C 0.4336(2) 0.0568(3) 0.6202(4)
C6A C 0.4194(3) 0.0665(4) 0.7285(4)
H3A H 0.3820 0.0373 0.7629
C7A C 0.4597(3) 0.1194(4) 0.7888(4)
H4A H 0.4502 0.1256 0.8647
C8A C 0.3909(2) -0.0036(3) 0.5623(4)
C9A C 0.3806(2) -0.0567(4) 0.6320(4)
C10A C 0.3226(3) -0.1039(5) 0.6634(5)
H5A H 0.2876 -0.1040 0.6332
C11A C 0.3144(3) -0.1497(6) 0.7358(7)
H6A H 0.2744 -0.1787 0.7609
C12A C 0.3646(3) -0.1542(5) 0.7730(5)
C13A C 0.4229(3) -0.1099(4) 0.7379(4)
H7A H 0.4576 -0.1125 0.7612
C14A C 0.4303(2) -0.0619(4) 0.6690(4)
H8A H 0.4704 -0.0317 0.6464
C15A C 0.3576(4) -0.2033(6) 0.8505(6)
C16A C 0.3659(3) -0.0074(4) 0.4586(4)
C17A C 0.3292(3) -0.0679(4) 0.4001(4)
C18A C 0.2687(3) -0.0886(4) 0.3738(6)
H9A H 0.2519 -0.0627 0.3858
C19A C 0.2321(4) -0.1471(6) 0.3299(9)
H10A H 0.1893 -0.1634 0.3218
C20A C 0.2585(5) -0.1813(6) 0.2983(10)
H11A H 0.2346 -0.2196 0.2613
C21A C 0.3199(4) -0.1599(5) 0.3206(7)
H12A H 0.3382 -0.1834 0.2989
C22A C 0.3536(3) -0.1054(4) 0.3730(5)
H13A H 0.3950 -0.0921 0.3920
C23A C 0.3872(6) 0.0487(9) 0.3814(17)
C24A C 0.4012(6) 0.0479(8) 0.2677(14)
H14A H 0.4001 0.0124 0.2375
C25A C 0.4176(7) 0.1468(10) 0.2365(14)
H15A H 0.4309 0.1815 0.1884
C26A C 0.4167(6) 0.0966(9) 0.1967(11)
H16A H 0.4270 0.0949 0.1190
C27A C 0.3832(7) 0.0990(10) 0.4212(11)
H17A H 0.3700 0.0995 0.4973
C28A C 0.3987(8) 0.1480(11) 0.3487(17)
H18A H 0.3966 0.1826 0.3751
Zn1B Zn 0.73150(4) 0.31989(3) 1.04434(6)
O1B O 0.77549(23) 0.31612(16) 0.9017(3)
O2B O 0.74455(25) 0.35269(18) 0.7555(3)
O3B O 1.2400(4) 0.5412(3) 0.8861(4)
O4B O 1.2086(4) 0.6143(3) 0.8720(5)
C1B C 0.7813(4) 0.3391(2) 0.8048(4)
C2B C 0.8376(3) 0.3509(2) 0.7375(4)
C3B C 0.8479(3) 0.3755(2) 0.6294(4)
H1B H 0.8189 0.3842 0.5952
C4B C 0.9006(4) 0.3877(3) 0.5692(4)
H2B H 0.9069 0.4035 0.4934
C5B C 0.9432(3) 0.3768(2) 0.6202(4)
C6B C 0.9335(4) 0.3529(3) 0.7285(4)
H3B H 0.9627 0.3447 0.7629
C7B C 0.8806(4) 0.3403(3) 0.7888(4)
H4B H 0.8744 0.3246 0.8647
C8B C 1.0036(3) 0.3945(2) 0.5623(4)
C9B C 1.0567(4) 0.4373(3) 0.6320(4)
C10B C 1.1039(5) 0.4265(4) 0.6634(5)
H5B H 1.1040 0.3916 0.6332
C11B C 1.1497(6) 0.4641(5) 0.7358(7)
H6B H 1.1787 0.4531 0.7609
C12B C 1.1542(5) 0.5188(4) 0.7730(5)
C13B C 1.1099(4) 0.5328(3) 0.7379(4)
H7B H 1.1125 0.5701 0.7612
C14B C 1.0619(4) 0.4922(3) 0.6690(4)
H8B H 1.0317 0.5021 0.6464
C15B C 1.2033(6) 0.5609(4) 0.8505(6)
C16B C 1.0074(4) 0.3733(2) 0.4586(4)
C17B C 1.0679(4) 0.3971(2) 0.4001(4)
C18B C 1.0886(4) 0.3573(3) 0.3738(6)
H9B H 1.0627 0.3146 0.3858
C19B C 1.1471(6) 0.3792(4) 0.3299(9)
H10B H 1.1634 0.3527 0.3218
C20B C 1.1813(6) 0.4398(4) 0.2983(10)
H11B H 1.2196 0.4542 0.2613
C21B C 1.1599(5) 0.4798(3) 0.3206(7)
H12B H 1.1834 0.5216 0.2989
C22B C 1.1054(4) 0.4590(3) 0.3730(5)
H13B H 1.0921 0.4871 0.3920
C23B C 0.9513(9) 0.3385(7) 0.3814(17)
C24B C 0.9521(8) 0.3533(6) 0.2677(14)
H14B H 0.9876 0.3877 0.2375
C25B C 0.8532(10) 0.2708(7) 0.2365(14)
H15B H 0.8185 0.2494 0.1884
C26B C 0.9034(9) 0.3201(7) 0.1967(11)
H16B H 0.9051 0.3321 0.1190
C27B C 0.9010(10) 0.2842(7) 0.4212(11)
H17B H 0.9005 0.2705 0.4973
C28B C 0.8520(11) 0.2507(7) 0.3487(17)
H18B H 0.8174 0.2140 0.3751
Zn1C Zn 0.31989(3) 0.58839(3) 0.95566(6)
Zn1C_2 Zn 1.31989(3) 0.58839(3) 0.95566(6)
Zn1D Zn 0.41161(3) -0.26850(4) 0.95566(6)
Zn1D_2 Zn 0.41161(3) 0.73150(4) 0.95566(6)
Zn1E Zn 0.26850(4) -0.31989(3) 0.95566(6)
Zn1E_2 Zn 1.26850(4) 0.68011(3) 0.95566(6)
O3C O 0.5412(3) 0.3012(3) 1.1139(4)
O3D O 0.6988(3) 0.2400(4) 1.1139(4)
O3E O 0.7600(4) 0.4588(3) 1.1139(4)
O4C O 0.6143(3) 0.4057(2) 1.1280(5)
O4D O 0.5943(2) 0.2086(4) 1.1280(5)
O4E O 0.7914(4) 0.3857(3) 1.1280(5)
C29? C 0.7795(8) 0.6348(10) 0.2986(14)
H19? H 0.8125 0.6341 0.2608
C30? C 0.7816(7) 0.6457(9) 0.4126(16)
H20? H 0.8161 0.6512 0.4551
C31? C 0.7335(7) 0.6491(7) 0.4714(12)
H21? H 0.7358 0.6583 0.5509
C32? C 0.6781(8) 0.6263(9) 0.2911(11)
H22? H 0.6438 0.6194 0.2463
C33? C 0.7292(8) 0.6251(10) 0.2404(13)
H23? H 0.7276 0.6169 0.1607
C34? C 0.6804(8) 0.6374(6) 0.4014(16)
loop_
_geom_bond_atom_site_label_1
_geom_bond_atom_site_label_2
_geom_bond_site_symmetry_1
_geom_bond_site_symmetry_2
Zn1 O1 1_555 1_555
Zn2 O2 1_555 1_555
O1 C1 1_555 1_555
O2 C1 1_555 1_555
O3 C15 1_555 1_555
O4 C15 1_555 1_555
O5 Zn1 1_555 1_555
C1 C2 1_555 1_555
C2 C3 1_555 1_555
C3 H1 1_555 1_555
C4 C3 1_555 1_555
H2 C4 1_555 1_555
C5 C4 1_555 1_555
C6 C5 1_555 1_555
H3 C6 1_555 1_555
C7 C2 1_555 1_555
H4 C7 1_555 1_555
C8 C5 1_555 1_555
C9 C8 1_555 1_555
C10 C9 1_555 1_555
H5 C10 1_555 1_555
C11 C10 1_555 1_555
H6 C11 1_555 1_555
C12 C11 1_555 1_555
C13 C12 1_555 1_555
H7 C13 1_555 1_555
C14 C9 1_555 1_555
H8 C14 1_555 1_555
C15 C12 1_555 1_555
C16 C8 1_555 1_555
C17 C16 1_555 1_555
C18 C17 1_555 1_555
H9 C18 1_555 1_555
C19 C18 1_555 1_555
H10 C19 1_555 1_555
C20 C19 1_555 1_555
H11 C20 1_555 1_555
C21 C20 1_555 1_555
H12 C21 1_555 1_555
C22 C17 1_555 1_555
H13 C22 1_555 1_555
C23 C16 1_555 1_555
C24 C23 1_555 1_555
H14 C24 1_555 1_555
C25 H15 1_555 1_555
C26 C24 1_555 1_555
H16 C26 1_555 1_555
C27 C23 1_555 1_555
H17 C27 1_555 1_555
C28 C25 1_555 1_555
H18 C28 1_555 1_555
Zn1A O5 1_555 1_555
O1A Zn1A 1_555 1_555
O2A Zn2 1_555 1_555
O3A C15A 1_555 1_555
O4A C15A 1_555 1_555
C1A O1A 1_555 1_555
C2A C1A 1_555 1_555
C3A C2A 1_555 1_555
H1A C3A 1_555 1_555
C4A C3A 1_555 1_555
H2A C4A 1_555 1_555
C5A C4A 1_555 1_555
C6A C5A 1_555 1_555
H3A C6A 1_555 1_555
C7A C2A 1_555 1_555
H4A C7A 1_555 1_555
C8A C5A 1_555 1_555
C9A C8A 1_555 1_555
C10A C9A 1_555 1_555
H5A C10A 1_555 1_555
C11A C10A 1_555 1_555
H6A C11A 1_555 1_555
C12A C11A 1_555 1_555
C13A C12A 1_555 1_555
H7A C13A 1_555 1_555
C14A C9A 1_555 1_555
H8A C14A 1_555 1_555
C15A C12A 1_555 1_555
C16A C8A 1_555 1_555
C17A C16A 1_555 1_555
C18A C17A 1_555 1_555
H9A C18A 1_555 1_555
C19A C18A 1_555 1_555
H10A C19A 1_555 1_555
C20A C19A 1_555 1_555
H11A C20A 1_555 1_555
C21A C20A 1_555 1_555
H12A C21A 1_555 1_555
C22A C17A 1_555 1_555
H13A C22A 1_555 1_555
C23A C16A 1_555 1_555
C24A C23A 1_555 1_555
H14A C24A 1_555 1_555
C25A H15A 1_555 1_555
C26A C24A 1_555 1_555
H16A C26A 1_555 1_555
C27A C23A 1_555 1_555
H17A C27A 1_555 1_555
C28A C25A 1_555 1_555
H18A C28A 1_555 1_555
Zn1B O5 1_555 1_555
O1B Zn1B 1_555 1_555
O2B Zn2 1_555 1_555
O3B C15B 1_555 1_555
O4B C15B 1_555 1_555
C1B O1B 1_555 1_555
C2B C1B 1_555 1_555
C3B C2B 1_555 1_555
H1B C3B 1_555 1_555
C4B C3B 1_555 1_555
H2B C4B 1_555 1_555
C5B C4B 1_555 1_555
C6B C5B 1_555 1_555
H3B C6B 1_555 1_555
C7B C2B 1_555 1_555
H4B C7B 1_555 1_555
C8B C5B 1_555 1_555
C9B C8B 1_555 1_555
C10B C9B 1_555 1_555
H5B C10B 1_555 1_555
C11B C10B 1_555 1_555
H6B C11B 1_555 1_555
C12B C11B 1_555 1_555
C13B C12B 1_555 1_555
H7B C13B 1_555 1_555
C14B C9B 1_555 1_555
H8B C14B 1_555 1_555
C15B C12B 1_555 1_555
C16B C8B 1_555 1_555
C17B C16B 1_555 1_555
C18B C17B 1_555 1_555
H9B C18B 1_555 1_555
C19B C18B 1_555 1_555
H10B C19B 1_555 1_555
C20B C19B 1_555 1_555
H11B C20B 1_555 1_555
C21B C20B 1_555 1_555
H12B C21B 1_555 1_555
C22B C17B 1_555 1_555
H13B C22B 1_555 1_555
C23B C16B 1_555 1_555
C24B C23B 1_555 1_555
H14B C24B 1_555 1_555
C25B H15B 1_555 1_555
C26B C24B 1_555 1_555
H16B C26B 1_555 1_555
C27B C23B 1_555 1_555
H17B C27B 1_555 1_555
C28B C25B 1_555 1_555
H18B C28B 1_555 1_555
Zn1C O4 1_555 1_555
Zn1C_2 O3B 1_555 1_555
Zn1D O4A 1_555 1_555
Zn1D_2 O3 1_555 1_555
Zn1E O3A 1_555 1_555
Zn1E_2 O4B 1_555 1_555
O3C Zn1A 1_555 1_555
O3D Zn1B 1_555 1_555
O3E Zn1 1_555 1_555
O4C Zn1 1_555 1_555
O4D Zn1A 1_555 1_555
O4E Zn1B 1_555 1_555
Zn2 O5 1_555 1_555
C6 C7 1_555 1_555
C13 C14 1_555 1_555
C21 C22 1_555 1_555
C25 C26 1_555 1_555
C27 C28 1_555 1_555
O2A C1A 1_555 1_555
C6A C7A 1_555 1_555
C13A C14A 1_555 1_555
C21A C22A 1_555 1_555
C25A C26A 1_555 1_555
C27A C28A 1_555 1_555
O2B C1B 1_555 1_555
C6B C7B 1_555 1_555
C13B C14B 1_555 1_555
C21B C22B 1_555 1_555
C25B C26B 1_555 1_555
C27B C28B 1_555 1_555

#END
