
#######################################################################
#
#                 Cambridge Crystallographic Data Centre
#                                CCDC 
#
#######################################################################
#
# If this CIF has been generated from an entry in the Cambridge 
# Structural Database, then it will include bibliographic, chemical, 
# crystal, experimental, refinement or atomic coordinate data resulting 
# from the CCDC's data processing and validation procedures.
#
#######################################################################

data_UQADAT
_chemical_name_common            NUS-1
_chemical_formula_moiety         '(C84 H56 O14 Zn4)n,10(H2 O1),12(C5 H11 N1 O1)'
_chemical_name_systematic        
'catena-[tris(\m-4-(1-(4-carboxylatophenyl)-2,2-diphenylvinyl)benzoato)-(\m-oxido)-(aqua)-tetra-zinc diethylformamide solvate decahydrate]'
_symmetry_cell_setting           trigonal
_symmetry_space_group_name_H-M   'P -3'
_symmetry_Int_Tables_number      147
_space_group_name_Hall           '-P 3'
loop_
_symmetry_equiv_pos_site_id
_symmetry_equiv_pos_as_xyz
1 x,y,z
2 -y,x-y,z
3 -x+y,-x,z
4 -x,-y,-z
5 y,-x+y,-z
6 x-y,x,-z
_cell_length_a                   25.2432(6)
_cell_length_b                   25.2432(6)
_cell_length_c                   11.6336(3)
_cell_angle_alpha                90
_cell_angle_beta                 90
_cell_angle_gamma                120
_cell_volume                     6419.98
_exptl_crystal_colour            colorless
_exptl_crystal_description       block
_cell_formula_units_Z            2
_chemical_properties_physical    Moisture-sensitive
_exptl_crystal_recrystallization_method 'Solvothermal method'
_exptl_crystal_preparation       Luminescent
loop_
_atom_site_label
_atom_site_type_symbol
_atom_site_fract_x
_atom_site_fract_y
_atom_site_fract_z
Zn1 Zn 0.58825(2) 0.26849(2) 0.54409(4)
Zn2 Zn 0.6667 0.3333 0.32223(5)
O1 O 0.54163(10) 0.22559(10) 0.40109(18)
O2 O 0.60803(10) 0.25435(10) 0.25472(18)
O3 O 0.6667 0.3333 0.4879(3)
O4 O 0.5032(3) 0.1923(3) 0.6267(6)
C1 C 0.55772(13) 0.21802(13) 0.3032(2)
C2 C 0.51422(13) 0.16240(13) 0.2375(2)
C3 C 0.52714(15) 0.15157(15) 0.1273(3)
H1 H 0.5644 0.1806 0.0919
C4 C 0.48704(16) 0.09948(15) 0.0677(3)
H2 H 0.4966 0.0933 -0.0084
C5 C 0.43254(14) 0.05582(14) 0.1189(2)
C6 C 0.41904(16) 0.06703(17) 0.2287(3)
H3 H 0.3818 0.0379 0.2640
C7 C 0.45882(15) 0.11989(16) 0.2879(3)
H4 H 0.4484 0.1271 0.3625
C8 C 0.39046(14) -0.00348(14) 0.0613(3)
C9 C 0.38013(15) -0.05775(15) 0.1305(3)
C10 C 0.42219(17) -0.11026(14) 0.2369(3)
H5 H 0.4579 -0.1089 0.2667
C11 C 0.42992(15) -0.06223(13) 0.1680(2)
H6 H 0.4700 -0.0318 0.1459
C12 C 0.36439(16) -0.00809(15) -0.0417(3)
C13 C 0.32758(17) -0.06806(14) -0.1004(3)
C14 C 0.35353(19) -0.10360(16) -0.1298(3)
H7 H 0.3952 -0.0895 -0.1117
C15 C 0.3192(2) -0.1595(2) -0.1855(4)
H8 H 0.3375 -0.1830 -0.2069
C16 C 0.2585(3) -0.1804(2) -0.2093(7)
H9 H 0.2350 -0.2184 -0.2480
C17 C 0.2313(3) -0.1466(3) -0.1773(7)
H10 H 0.1889 -0.1622 -0.1897
C18 C 0.2671(2) -0.0893(2) -0.1269(5)
H11 H 0.2495 -0.0646 -0.1105
O5 O 0.3110(3) -0.2414(3) 0.3883(7)
O6 O 0.40822(14) -0.21124(13) 0.3645(3)
C19 C 0.3238(6) -0.1097(5) 0.1555(11)
H12 H 0.2879 -0.1133 0.1216
C20 C 0.3180(3) -0.1561(3) 0.2274(6)
H13 H 0.2786 -0.1871 0.2515
C21 C 0.3697(5) -0.1571(5) 0.2640(9)
C22 C 0.3623(3) -0.2084(3) 0.3430(6)
C23 C 0.3603(4) 0.0429(4) -0.0933(7)
C24 C 0.3703(5) 0.0516(4) -0.2090(7)
H14 H 0.3777 0.0245 -0.2539
C25 C 0.3694(6) 0.1016(4) -0.2598(8)
H15 H 0.3758 0.1076 -0.3403
C26 C 0.3599(6) 0.1417(4) -0.1990(9)
H16 H 0.3608 0.1758 -0.2355
C27 C 0.3488(5) 0.1319(4) -0.0835(10)
H17 H 0.3413 0.1592 -0.0395
C28 C 0.3485(4) 0.0833(3) -0.0307(8)
H18 H 0.3403 0.0769 0.0493
Zn1A Zn 0.73151(2) 0.31976(3) 0.54409(4)
O1A O 0.77441(10) 0.31604(14) 0.40109(18)
O2A O 0.74565(10) 0.35368(14) 0.25472(18)
C1A C 0.78198(13) 0.33970(18) 0.3032(2)
C2A C 0.83760(13) 0.35182(18) 0.2375(2)
C3A C 0.84843(15) 0.37557(21) 0.1273(3)
H1A H 0.8194 0.3838 0.0919
C4A C 0.90052(15) 0.38756(22) 0.0677(3)
H2A H 0.9067 0.4033 -0.0084
C5A C 0.94418(14) 0.37672(20) 0.1189(2)
C6A C 0.93297(17) 0.35201(23) 0.2287(3)
H3A H 0.9621 0.3439 0.2640
C7A C 0.88011(16) 0.33893(22) 0.2879(3)
H4A H 0.8729 0.3213 0.3625
C8A C 1.00348(14) 0.39394(20) 0.0613(3)
C9A C 1.05775(15) 0.43788(21) 0.1305(3)
C10A C 1.11026(14) 0.53245(22) 0.2369(3)
H5A H 1.1089 0.5668 0.2667
C11A C 1.06223(13) 0.49215(20) 0.1680(2)
H6A H 1.0318 0.5018 0.1459
C12A C 1.00809(15) 0.37248(22) -0.0417(3)
C13A C 1.06806(14) 0.39564(22) -0.1004(3)
C14A C 1.10360(16) 0.45713(25) -0.1298(3)
H7A H 1.0895 0.4847 -0.1117
C15A C 1.1595(2) 0.4787(3) -0.1855(4)
H8A H 1.1830 0.5205 -0.2069
C16A C 1.1804(2) 0.4389(4) -0.2093(7)
H9A H 1.2184 0.4534 -0.2480
C17A C 1.1466(3) 0.3779(4) -0.1773(7)
H10A H 1.1622 0.3511 -0.1897
C18A C 1.0893(2) 0.3564(3) -0.1269(5)
H11A H 1.0646 0.3141 -0.1105
O5A O 1.2414(3) 0.5524(4) 0.3883(7)
O6A O 1.21124(13) 0.61946(19) 0.3645(3)
C19A C 1.1097(5) 0.4335(8) 0.1555(11)
H12A H 1.1133 0.4012 0.1216
C20A C 1.1561(3) 0.4741(4) 0.2274(6)
H13A H 1.1871 0.4657 0.2515
C21A C 1.1571(5) 0.5268(7) 0.2640(9)
C22A C 1.2084(3) 0.5707(4) 0.3430(6)
C23A C 0.9571(4) 0.3174(6) -0.0933(7)
C24A C 0.9484(4) 0.3187(6) -0.2090(7)
H14A H 0.9755 0.3532 -0.2539
C25A C 0.8984(4) 0.2678(7) -0.2598(8)
H15A H 0.8924 0.2682 -0.3403
C26A C 0.8583(4) 0.2182(7) -0.1990(9)
H16A H 0.8242 0.1850 -0.2355
C27A C 0.8681(4) 0.2169(6) -0.0835(10)
H17A H 0.8408 0.1821 -0.0395
C28A C 0.9167(3) 0.2652(5) -0.0307(8)
H18A H 0.9231 0.2634 0.0493
Zn1B Zn 0.68024(3) 0.41175(2) 0.54409(4)
O1B O 0.68396(14) 0.45837(10) 0.40109(18)
O2B O 0.64632(14) 0.39197(10) 0.25472(18)
C1B C 0.66030(18) 0.44228(13) 0.3032(2)
C2B C 0.64818(18) 0.48578(13) 0.2375(2)
C3B C 0.62443(21) 0.47286(15) 0.1273(3)
H1B H 0.6162 0.4356 0.0919
C4B C 0.61244(22) 0.51296(16) 0.0677(3)
H2B H 0.5967 0.5034 -0.0084
C5B C 0.62328(20) 0.56746(14) 0.1189(2)
C6B C 0.64799(23) 0.58096(16) 0.2287(3)
H3B H 0.6561 0.6182 0.2640
C7B C 0.66107(22) 0.54118(15) 0.2879(3)
H4B H 0.6787 0.5516 0.3625
C8B C 0.60606(20) 0.60954(14) 0.0613(3)
C9B C 0.56212(21) 0.61987(15) 0.1305(3)
C10B C 0.46755(22) 0.57781(17) 0.2369(3)
H5B H 0.4332 0.5421 0.2667
C11B C 0.50785(20) 0.57008(15) 0.1680(2)
H6B H 0.4982 0.5300 0.1459
C12B C 0.62752(22) 0.63561(16) -0.0417(3)
C13B C 0.60436(22) 0.67242(17) -0.1004(3)
C14B C 0.54287(25) 0.64647(19) -0.1298(3)
H7B H 0.5153 0.6048 -0.1117
C15B C 0.5213(3) 0.6808(2) -0.1855(4)
H8B H 0.4795 0.6625 -0.2069
C16B C 0.5611(4) 0.7415(3) -0.2093(7)
H9B H 0.5466 0.7650 -0.2480
C17B C 0.6221(4) 0.7687(3) -0.1773(7)
H10B H 0.6489 0.8111 -0.1897
C18B C 0.6436(3) 0.7329(2) -0.1269(5)
H11B H 0.6859 0.7505 -0.1105
O5B O 0.4476(4) 0.6890(3) 0.3883(7)
O6B O 0.38054(19) 0.59178(14) 0.3645(3)
C19B C 0.5665(8) 0.6762(6) 0.1555(11)
H12B H 0.5988 0.7121 0.1216
C20B C 0.5259(4) 0.6820(3) 0.2274(6)
H13B H 0.5343 0.7214 0.2515
C21B C 0.4732(7) 0.6303(5) 0.2640(9)
C22B C 0.4293(4) 0.6377(3) 0.3430(6)
C23B C 0.6826(6) 0.6397(4) -0.0933(7)
C24B C 0.6813(6) 0.6297(5) -0.2090(7)
H14B H 0.6468 0.6223 -0.2539
C25B C 0.7322(7) 0.6306(6) -0.2598(8)
H15B H 0.7318 0.6242 -0.3403
C26B C 0.7818(7) 0.6401(6) -0.1990(9)
H16B H 0.8150 0.6392 -0.2355
C27B C 0.7831(6) 0.6512(5) -0.0835(10)
H17B H 0.8179 0.6587 -0.0395
C28B C 0.7348(5) 0.6515(4) -0.0307(8)
H18B H 0.7366 0.6597 0.0493
Zn1C Zn 0.41175(2) -0.26849(2) 0.45591(4)
Zn1C_2 Zn 0.41175(2) 0.73151(2) 0.45591(4)
Zn1D Zn 0.26849(2) -0.31976(3) 0.45591(4)
Zn1D_2 Zn 1.26849(2) 0.68024(3) 0.45591(4)
Zn1E Zn 0.31976(3) 0.58825(2) 0.45591(4)
Zn1E_2 Zn 1.31976(3) 0.58825(2) 0.45591(4)
O5C O 0.6890(3) 0.2414(3) 0.6117(7)
O5D O 0.7586(3) 0.4476(4) 0.6117(7)
O5E O 0.5524(4) 0.3110(3) 0.6117(7)
O6C O 0.59178(14) 0.21124(13) 0.6355(3)
O6D O 0.78876(13) 0.38054(19) 0.6355(3)
O6E O 0.61946(19) 0.40822(14) 0.6355(3)
C29? C 0.3847(5) 0.0491(5) -0.1214(9)
C30? C 0.4009(4) 0.0493(4) -0.2336(7)
H19? H 0.4013 0.0145 -0.2634
C31? C 0.4167(5) 0.0987(4) -0.3046(9)
H20? H 0.4268 0.0970 -0.3827
C32? C 0.4179(5) 0.1480(5) -0.2654(9)
H21? H 0.4318 0.1828 -0.3136
C33? C 0.3989(6) 0.1499(4) -0.1538(9)
H22? H 0.3965 0.1843 -0.1276
C34? C 0.3834(5) 0.1000(4) -0.0810(8)
H23? H 0.3720 0.1011 -0.0036
O7? O 0.2891(3) -0.2368(3) 0.3866(6)
O8? O 0.3866(3) -0.1914(3) 0.4294(6)
C35? C 0.3198(7) -0.0919(7) 0.1766(13)
H24? H 0.2883 -0.0841 0.1531
C36? C 0.3091(4) -0.1358(5) 0.2552(9)
H25? H 0.2697 -0.1589 0.2888
C37? C 0.3562(6) -0.1472(6) 0.2870(10)
C38? C 0.3463(5) -0.1953(4) 0.3720(9)
loop_
_geom_bond_atom_site_label_1
_geom_bond_atom_site_label_2
_geom_bond_site_symmetry_1
_geom_bond_site_symmetry_2
Zn1 O1 1_555 1_555
Zn2 O2 1_555 1_555
O1 C1 1_555 1_555
O2 C1 1_555 1_555
O3 Zn1 1_555 1_555
O4 Zn1 1_555 1_555
C1 C2 1_555 1_555
C2 C3 1_555 1_555
C3 H1 1_555 1_555
C4 C3 1_555 1_555
H2 C4 1_555 1_555
C5 C4 1_555 1_555
C6 C5 1_555 1_555
H3 C6 1_555 1_555
C7 C2 1_555 1_555
H4 C7 1_555 1_555
C8 C5 1_555 1_555
C9 C8 1_555 1_555
C10 H5 1_555 1_555
C11 C9 1_555 1_555
H6 C11 1_555 1_555
C12 C8 1_555 1_555
C13 C12 1_555 1_555
C14 C13 1_555 1_555
H7 C14 1_555 1_555
C15 C14 1_555 1_555
H8 C15 1_555 1_555
C16 C15 1_555 1_555
H9 C16 1_555 1_555
C17 C16 1_555 1_555
H10 C17 1_555 1_555
C18 C13 1_555 1_555
H11 C18 1_555 1_555
O5 C22 1_555 1_555
O6 C22 1_555 1_555
C19 C9 1_555 1_555
H12 C19 1_555 1_555
C20 C19 1_555 1_555
H13 C20 1_555 1_555
C21 C10 1_555 1_555
C22 C21 1_555 1_555
C23 C12 1_555 1_555
C24 C23 1_555 1_555
H14 C24 1_555 1_555
C25 C24 1_555 1_555
H15 C25 1_555 1_555
C26 C25 1_555 1_555
H16 C26 1_555 1_555
C27 C26 1_555 1_555
H17 C27 1_555 1_555
C28 C23 1_555 1_555
H18 C28 1_555 1_555
Zn1A O3 1_555 1_555
O1A Zn1A 1_555 1_555
O2A Zn2 1_555 1_555
C1A O1A 1_555 1_555
C2A C1A 1_555 1_555
C3A C2A 1_555 1_555
H1A C3A 1_555 1_555
C4A C3A 1_555 1_555
H2A C4A 1_555 1_555
C5A C4A 1_555 1_555
C6A C5A 1_555 1_555
H3A C6A 1_555 1_555
C7A C2A 1_555 1_555
H4A C7A 1_555 1_555
C8A C5A 1_555 1_555
C9A C8A 1_555 1_555
C10A H5A 1_555 1_555
C11A C9A 1_555 1_555
H6A C11A 1_555 1_555
C12A C8A 1_555 1_555
C13A C12A 1_555 1_555
C14A C13A 1_555 1_555
H7A C14A 1_555 1_555
C15A C14A 1_555 1_555
H8A C15A 1_555 1_555
C16A C15A 1_555 1_555
H9A C16A 1_555 1_555
C17A C16A 1_555 1_555
H10A C17A 1_555 1_555
C18A C13A 1_555 1_555
H11A C18A 1_555 1_555
O5A C22A 1_555 1_555
O6A C22A 1_555 1_555
C19A C9A 1_555 1_555
H12A C19A 1_555 1_555
C20A C19A 1_555 1_555
H13A C20A 1_555 1_555
C21A C10A 1_555 1_555
C22A C21A 1_555 1_555
C23A C12A 1_555 1_555
C24A C23A 1_555 1_555
H14A C24A 1_555 1_555
C25A C24A 1_555 1_555
H15A C25A 1_555 1_555
C26A C25A 1_555 1_555
H16A C26A 1_555 1_555
C27A C26A 1_555 1_555
H17A C27A 1_555 1_555
C28A C23A 1_555 1_555
H18A C28A 1_555 1_555
Zn1B O3 1_555 1_555
O1B Zn1B 1_555 1_555
O2B Zn2 1_555 1_555
C1B O1B 1_555 1_555
C2B C1B 1_555 1_555
C3B C2B 1_555 1_555
H1B C3B 1_555 1_555
C4B C3B 1_555 1_555
H2B C4B 1_555 1_555
C5B C4B 1_555 1_555
C6B C5B 1_555 1_555
H3B C6B 1_555 1_555
C7B C2B 1_555 1_555
H4B C7B 1_555 1_555
C8B C5B 1_555 1_555
C9B C8B 1_555 1_555
C10B H5B 1_555 1_555
C11B C9B 1_555 1_555
H6B C11B 1_555 1_555
C12B C8B 1_555 1_555
C13B C12B 1_555 1_555
C14B C13B 1_555 1_555
H7B C14B 1_555 1_555
C15B C14B 1_555 1_555
H8B C15B 1_555 1_555
C16B C15B 1_555 1_555
H9B C16B 1_555 1_555
C17B C16B 1_555 1_555
H10B C17B 1_555 1_555
C18B C13B 1_555 1_555
H11B C18B 1_555 1_555
O5B C22B 1_555 1_555
O6B C22B 1_555 1_555
C19B C9B 1_555 1_555
H12B C19B 1_555 1_555
C20B C19B 1_555 1_555
H13B C20B 1_555 1_555
C21B C10B 1_555 1_555
C22B C21B 1_555 1_555
C23B C12B 1_555 1_555
C24B C23B 1_555 1_555
H14B C24B 1_555 1_555
C25B C24B 1_555 1_555
H15B C25B 1_555 1_555
C26B C25B 1_555 1_555
H16B C26B 1_555 1_555
C27B C26B 1_555 1_555
H17B C27B 1_555 1_555
C28B C23B 1_555 1_555
H18B C28B 1_555 1_555
Zn1C O6 1_555 1_555
Zn1C_2 O5B 1_555 1_555
Zn1D O5 1_555 1_555
Zn1D_2 O6A 1_555 1_555
Zn1E O6B 1_555 1_555
Zn1E_2 O5A 1_555 1_555
O5C Zn1A 1_555 1_555
O5D Zn1B 1_555 1_555
O5E Zn1 1_555 1_555
O6C Zn1 1_555 1_555
O6D Zn1A 1_555 1_555
O6E Zn1B 1_555 1_555
Zn2 O3 1_555 1_555
C6 C7 1_555 1_555
C10 C11 1_555 1_555
C17 C18 1_555 1_555
C20 C21 1_555 1_555
C27 C28 1_555 1_555
O2A C1A 1_555 1_555
C6A C7A 1_555 1_555
C10A C11A 1_555 1_555
C17A C18A 1_555 1_555
C20A C21A 1_555 1_555
C27A C28A 1_555 1_555
O2B C1B 1_555 1_555
C6B C7B 1_555 1_555
C10B C11B 1_555 1_555
C17B C18B 1_555 1_555
C20B C21B 1_555 1_555
C27B C28B 1_555 1_555

#END
