
#######################################################################
#
#                 Cambridge Crystallographic Data Centre
#                                CCDC 
#
#######################################################################
#
# If this CIF has been generated from an entry in the Cambridge 
# Structural Database, then it will include bibliographic, chemical, 
# crystal, experimental, refinement or atomic coordinate data resulting 
# from the CCDC's data processing and validation procedures.
#
#######################################################################

data_COWMEH
_chemical_formula_moiety         '(C12 H18 N1 O8 Tb1)n,n(C3 H7 N1 O1),n(H2 O1)'
_chemical_name_systematic        
'catena-((\m~4~-cis,cis-1,3,5-Cyclohexanetricarboxylato)-(aqua)-(dimethylformamide)-terbium dimethylformamide solvate monohydrate)'
_symmetry_cell_setting           monoclinic
_symmetry_space_group_name_H-M   'P 21/n'
_symmetry_Int_Tables_number      14
_space_group_name_Hall           '-P 2yn'
loop_
_symmetry_equiv_pos_site_id
_symmetry_equiv_pos_as_xyz
1 x,y,z
2 1/2-x,1/2+y,1/2-z
3 -x,-y,-z
4 1/2+x,1/2-y,1/2+z
_cell_length_a                   9.621(2)
_cell_length_b                   13.908(3)
_cell_length_c                   15.337(4)
_cell_angle_alpha                90
_cell_angle_beta                 93.425(6)
_cell_angle_gamma                90
_cell_volume                     2048.56
_cell_formula_units_Z            4
_exptl_crystal_preparation       photoluminescent
loop_
_atom_site_label
_atom_site_type_symbol
_atom_site_fract_x
_atom_site_fract_y
_atom_site_fract_z
Tb1 Tb 0.95766(7) 0.88853(5) 0.08586(5)
C1 C 0.3413(13) 1.1427(9) 0.1941(9)
H1 H 0.3326 1.1077 0.2482
H2 H 0.2654 1.1886 0.1882
C2 C 0.3297(13) 1.0741(10) 0.1197(10)
H3 H 0.3339 1.1119 0.0660
C3 C 0.4537(12) 1.0042(9) 0.1231(9)
H4 H 0.4476 0.9637 0.0715
H5 H 0.4492 0.9629 0.1739
C4 C 0.5927(13) 1.0575(10) 0.1278(10)
H6 H 0.5923 1.0967 0.0747
C5 C 0.6040(12) 1.1284(9) 0.2040(9)
H7 H 0.6901 1.1645 0.2023
H8 H 0.6057 1.0935 0.2588
C6 C 0.4812(13) 1.1972(10) 0.1985(10)
H9 H 0.4858 1.2353 0.1450
C7 C 0.7178(14) 0.9906(11) 0.1239(8)
C8 C 0.1922(13) 1.0180(10) 0.1132(9)
C9 C 0.4953(15) 1.2642(11) 0.2749(11)
C10 C 0.901(2) 0.6761(15) -0.0202(14)
H10 H 0.9969 0.6695 -0.0153
C11 C 0.909(3) 0.5302(16) -0.0943(17)
H11 H 1.0065 0.5441 -0.0882
H12 H 0.8814 0.5203 -0.1549
H13 H 0.8895 0.4732 -0.0619
C12 C 0.686(2) 0.6026(16) -0.0635(16)
H14 H 0.6484 0.6598 -0.0392
H15 H 0.6607 0.5478 -0.0300
H16 H 0.6505 0.5952 -0.1229
O1 O 0.8382(9) 1.0298(6) 0.1364(6)
O2 O 1.1293(9) 0.8311(7) -0.0116(6)
O4 O 0.7065(9) 0.9045(7) 0.1032(6)
O5 O 0.1676(10) 0.9544(8) 0.1667(7)
O6 O 0.1064(9) 1.0371(6) 0.0503(6)
O7 O 0.5752(10) 1.3347(7) 0.2681(6)
O8 O 0.4329(10) 1.2505(7) 0.3437(7)
O9 O 0.8505(10) 0.7484(8) 0.0140(7)
N1 N 0.831(2) 0.6099(12) -0.0613(11)
Tb1_2 Tb -0.04234(7) 0.88853(5) 0.08586(5)
Tb1B Tb 0.04234(7) 1.11147(5) -0.08586(5)
Tb1A Tb 0.54234(7) 1.38853(5) 0.41414(5)
O5_2 O 1.1676(10) 0.9544(8) 0.1667(7)
O6_2 O 1.1064(9) 1.0371(6) 0.0503(6)
O6B O 0.8936(9) 0.9629(6) -0.0503(6)
O7A O 0.9248(10) 0.8347(7) 0.2319(6)
O8A O 1.0671(10) 0.7505(7) 0.1563(7)
C13 C 0.3766(18) 0.7370(14) 0.1085(14)
H17 H 0.3354 0.7931 0.1276
C14 C 0.5146(18) 0.7452(14) 0.2444(13)
H18 H 0.4612 0.8029 0.2501
H19 H 0.6118 0.7611 0.2446
H20 H 0.4992 0.7030 0.2924
C15 C 0.534(3) 0.6085(18) 0.1378(18)
H21 H 0.4931 0.5888 0.0821
H22 H 0.5180 0.5600 0.1806
H23 H 0.6325 0.6172 0.1338
O10 O 0.3365(13) 0.7092(11) 0.0374(8)
N2 N 0.4722(15) 0.6979(12) 0.1633(10)
O3 O 0.7296(15) 0.3977(11) 0.1171(9)
loop_
_geom_bond_atom_site_label_1
_geom_bond_atom_site_label_2
_geom_bond_site_symmetry_1
_geom_bond_site_symmetry_2
Tb1 O1 1_555 1_555
C1 H1 1_555 1_555
H2 C1 1_555 1_555
C2 C1 1_555 1_555
H3 C2 1_555 1_555
C3 C2 1_555 1_555
H4 C3 1_555 1_555
H5 C3 1_555 1_555
C4 C3 1_555 1_555
H6 C4 1_555 1_555
C5 C4 1_555 1_555
H7 C5 1_555 1_555
H8 C5 1_555 1_555
C6 C1 1_555 1_555
H9 C6 1_555 1_555
C7 C4 1_555 1_555
C8 C2 1_555 1_555
C9 C6 1_555 1_555
C10 H10 1_555 1_555
C11 H11 1_555 1_555
H12 C11 1_555 1_555
H13 C11 1_555 1_555
C12 H14 1_555 1_555
H15 C12 1_555 1_555
H16 C12 1_555 1_555
C13 H17 1_555 1_555
C14 H18 1_555 1_555
H19 C14 1_555 1_555
H20 C14 1_555 1_555
C15 H21 1_555 1_555
H22 C15 1_555 1_555
H23 C15 1_555 1_555
O1 C7 1_555 1_555
O2 Tb1 1_555 1_555
O4 Tb1 1_555 1_555
O5 C8 1_555 1_555
O6 C8 1_555 1_555
O7 C9 1_555 1_555
O8 C9 1_555 1_555
O9 Tb1 1_555 1_555
O10 C13 1_555 1_555
N1 C10 1_555 1_555
N2 C13 1_555 1_555
Tb1_2 O5 1_555 1_555
Tb1B O6 1_555 1_555
Tb1A O7 1_555 1_555
O5_2 Tb1 1_555 1_555
O6_2 Tb1 1_555 1_555
O6B Tb1 1_555 1_555
O7A Tb1 1_555 1_555
O8A Tb1 1_555 1_555
C5 C6 1_555 1_555
C7 O4 1_555 1_555
C10 O9 1_555 1_555
C11 N1 1_555 1_555
C12 N1 1_555 1_555
C14 N2 1_555 1_555
C15 N2 1_555 1_555
O6 Tb1_2 1_555 1_555
O8 Tb1A 1_555 1_555

#END
