
#######################################################################
#
#                 Cambridge Crystallographic Data Centre
#                                CCDC 
#
#######################################################################
#
# If this CIF has been generated from an entry in the Cambridge 
# Structural Database, then it will include bibliographic, chemical, 
# crystal, experimental, refinement or atomic coordinate data resulting 
# from the CCDC's data processing and validation procedures.
#
#######################################################################

data_GALCAZ
_chemical_formula_moiety         '(C33 H22 N6 O7 Zn2)n,2n(C3 H7 N1 O1)'
_chemical_name_systematic        
"catena-(tris(\m~2~-2,4'-bipyridine-5-carboxylato)-(\m~2~-hydroxo)-di-zinc(ii) N,N-dimethylformamide solvate)"
_symmetry_cell_setting           monoclinic
_symmetry_space_group_name_H-M   'P 21/c'
_symmetry_Int_Tables_number      14
_space_group_name_Hall           '-P 2ybc'
loop_
_symmetry_equiv_pos_site_id
_symmetry_equiv_pos_as_xyz
1 x,y,z
2 -x,1/2+y,1/2-z
3 -x,-y,-z
4 x,1/2-y,1/2+z
_cell_length_a                   6.1802(4)
_cell_length_b                   29.4218(18)
_cell_length_c                   23.3127(14)
_cell_angle_alpha                90
_cell_angle_beta                 95.6630(10)
_cell_angle_gamma                90
_cell_volume                     4218.32
_exptl_crystal_colour            colorless
_exptl_crystal_description       block
_cell_formula_units_Z            4
loop_
_atom_site_label
_atom_site_type_symbol
_atom_site_fract_x
_atom_site_fract_y
_atom_site_fract_z
Zn1 Zn 0.47547(11) 0.07625(2) 0.26923(3)
Zn2 Zn 1.52028(11) 0.46090(2) 0.24726(3)
C1 C 0.6064(10) 0.1611(2) 0.2654(2)
C2 C 0.7426(10) 0.2024(2) 0.2600(3)
C3 C 0.6671(11) 0.2451(2) 0.2750(3)
H1 H 0.5296 0.2467 0.2899
C4 C 0.9659(10) 0.2807(2) 0.2479(3)
C5 C 1.0549(11) 0.2405(2) 0.2325(3)
H2 H 1.1920 0.2400 0.2173
C6 C 0.9427(10) 0.2009(2) 0.2393(3)
H3 H 1.0035 0.1726 0.2298
C7 C 1.0799(10) 0.3248(2) 0.2428(3)
C8 C 1.0092(10) 0.3648(2) 0.2680(3)
H4 H 0.8778 0.3647 0.2859
C9 C 1.1301(9) 0.40415(19) 0.2667(2)
H5 H 1.0816 0.4306 0.2850
C10 C 1.3755(11) 0.3690(2) 0.2134(3)
H6 H 1.5006 0.3708 0.1929
C11 C 1.2679(10) 0.3282(2) 0.2135(3)
H7 H 1.3196 0.3026 0.1941
C12 C -0.1563(9) 0.03650(19) 0.6681(2)
C13 C -0.0769(9) 0.04929(19) 0.6113(2)
C14 C 0.1295(10) 0.0370(2) 0.5987(2)
H8 H 0.2233 0.0229 0.6282
C15 C 0.0731(10) 0.0653(2) 0.5070(2)
C16 C -0.1295(10) 0.0815(2) 0.5174(3)
H9 H -0.2149 0.0984 0.4888
C17 C -0.2055(10) 0.0728(2) 0.5697(3)
H10 H -0.3460 0.0829 0.5772
C18 C 0.1610(9) 0.0701(2) 0.4500(2)
C19 C 0.3588(10) 0.0508(2) 0.4408(2)
H11 H 0.4401 0.0351 0.4714
C20 C 0.4386(10) 0.0540(2) 0.3886(2)
H12 H 0.5731 0.0397 0.3835
C21 C 0.1463(10) 0.0956(2) 0.3526(3)
H13 H 0.0712 0.1119 0.3216
C22 C 0.0533(10) 0.0932(2) 0.4041(2)
H14 H -0.0831 0.1072 0.4078
C23 C -0.3992(10) 0.0422(2) -0.1386(2)
C24 C -0.2820(10) 0.0493(2) -0.0795(3)
C25 C -0.0657(11) 0.0590(2) -0.0699(3)
H15 H 0.0162 0.0608 -0.1022
C26 C -0.0772(10) 0.0620(2) 0.0285(3)
C27 C -0.2923(12) 0.0539(4) 0.0220(3)
H16 H -0.3721 0.0525 0.0547
C28 C -0.3954(13) 0.0476(4) -0.0320(3)
H17 H -0.5475 0.0420 -0.0366
C29 C 0.0410(10) 0.0676(2) 0.0867(3)
C30 C 0.2383(12) 0.0910(3) 0.0939(3)
H18 H 0.2961 0.1049 0.0619
C31 C 0.3468(12) 0.0937(3) 0.1478(3)
H19 H 0.4819 0.1093 0.1520
C32 C 0.0840(10) 0.0538(2) 0.1876(3)
H20 H 0.0288 0.0407 0.2204
C33 C -0.0345(10) 0.0496(2) 0.1353(3)
H21 H -0.1698 0.0340 0.1325
N1 N 0.7746(9) 0.28310(17) 0.2699(3)
N2 N 1.3147(8) 0.40632(16) 0.2404(2)
N3 N 0.2045(8) 0.04394(19) 0.5477(2)
N4 N 0.3353(8) 0.07642(15) 0.3442(2)
N5 N 0.0375(9) 0.0661(2) -0.0176(2)
N6 N 0.2745(8) 0.07576(16) 0.1948(2)
O1 O 0.6994(7) 0.12280(13) 0.26040(17)
O2 O 0.4123(7) 0.16504(15) 0.2740(2)
O3 O -0.0550(7) 0.00788(14) 0.69889(17)
O4 O -0.3284(7) 0.05667(14) 0.67987(16)
O5 O -0.2864(7) 0.04812(14) -0.18145(16)
O6 O -0.5928(7) 0.03185(17) -0.14310(19)
O7 O 0.6171(8) 0.01800(14) 0.2715(2)
H43 H 0.723(14) 0.022(3) 0.284(4)
Zn2C Zn -0.47972(11) 0.03910(2) 0.74726(3)
Zn2C_2 Zn -0.47972(11) 0.03910(2) -0.25274(3)
Zn2A Zn 0.47972(11) -0.03910(2) 0.25274(3)
O4C O 1.6716(7) 0.44333(14) 0.17987(16)
O5C O 1.7136(7) 0.45188(14) 0.31855(16)
O7A O 1.3829(8) 0.51800(14) 0.2285(2)
H43A H 1.277(14) 0.522(3) 0.216(4)
C34 C 0.718(2) 0.6885(5) -0.0016(5)
H22 H 0.5820 0.6758 -0.0201
H23 H 0.8370 0.6671 -0.0054
H24 H 0.7495 0.7173 -0.0203
C35 C 0.8755(18) 0.7165(4) 0.0952(6)
H25 H 0.8395 0.7196 0.1350
H26 H 0.9070 0.7465 0.0799
H27 H 1.0033 0.6969 0.0943
C36 C 0.5230(14) 0.6820(3) 0.0837(4)
H28 H 0.5239 0.6843 0.1244
N7 N 0.6958(11) 0.6968(2) 0.0608(3)
O8 O 0.3621(11) 0.6656(2) 0.0573(3)
C37 C 0.744(4) 0.3214(8) 0.4215(10)
H29 H 0.7832 0.3195 0.3832
C38 C 0.407(4) 0.3303(6) 0.4789(7)
H30 H 0.2512 0.3348 0.4680
H31 H 0.4644 0.3560 0.5025
H32 H 0.4291 0.3021 0.5010
C39 C 0.421(3) 0.3380(6) 0.3761(7)
H33 H 0.5152 0.3349 0.3448
H34 H 0.3716 0.3696 0.3780
H35 H 0.2953 0.3179 0.3688
N8 N 0.5275(19) 0.3273(3) 0.4237(5)
O9 O 0.903(3) 0.3179(7) 0.4587(8)
C40 C 0.5690(19) 0.2746(4) 0.6173(4)
H36 H 0.5412 0.3063 0.6195
C41 C 0.817(3) 0.2179(7) 0.5926(6)
H37 H 0.6938 0.1990 0.6012
H38 H 0.9445 0.2104 0.6193
H39 H 0.8495 0.2122 0.5529
C42 C 0.926(4) 0.2968(9) 0.5856(10)
H40 H 0.8678 0.3273 0.5909
H41 H 0.9595 0.2932 0.5456
H42 H 1.0596 0.2927 0.6116
N9 N 0.7653(17) 0.2628(5) 0.5987(5)
O10 O 0.4353(12) 0.2513(3) 0.6304(3)
loop_
_geom_bond_atom_site_label_1
_geom_bond_atom_site_label_2
_geom_bond_site_symmetry_1
_geom_bond_site_symmetry_2
Zn1 N4 1_555 1_555
Zn2 N2 1_555 1_555
C1 C2 1_555 1_555
C2 C3 1_555 1_555
C3 H1 1_555 1_555
C4 C5 1_555 1_555
C5 H2 1_555 1_555
C6 C2 1_555 1_555
H3 C6 1_555 1_555
C7 C4 1_555 1_555
C8 C7 1_555 1_555
H4 C8 1_555 1_555
C9 C8 1_555 1_555
H5 C9 1_555 1_555
C10 H6 1_555 1_555
C11 C7 1_555 1_555
H7 C11 1_555 1_555
C12 C13 1_555 1_555
C13 C14 1_555 1_555
C14 H8 1_555 1_555
C15 C16 1_555 1_555
C16 H9 1_555 1_555
C17 C13 1_555 1_555
H10 C17 1_555 1_555
C18 C15 1_555 1_555
C19 C18 1_555 1_555
H11 C19 1_555 1_555
C20 C19 1_555 1_555
H12 C20 1_555 1_555
C21 H13 1_555 1_555
C22 C18 1_555 1_555
H14 C22 1_555 1_555
C23 C24 1_555 1_555
C24 C25 1_555 1_555
C25 H15 1_555 1_555
C26 C27 1_555 1_555
C27 H16 1_555 1_555
C28 C24 1_555 1_555
H17 C28 1_555 1_555
C29 C26 1_555 1_555
C30 C29 1_555 1_555
H18 C30 1_555 1_555
C31 C30 1_555 1_555
H19 C31 1_555 1_555
C32 H20 1_555 1_555
C33 C29 1_555 1_555
H21 C33 1_555 1_555
C34 H22 1_555 1_555
H23 C34 1_555 1_555
H24 C34 1_555 1_555
C35 H25 1_555 1_555
H26 C35 1_555 1_555
H27 C35 1_555 1_555
C36 H28 1_555 1_555
C37 H29 1_555 1_555
C38 H30 1_555 1_555
H31 C38 1_555 1_555
H32 C38 1_555 1_555
C39 H33 1_555 1_555
H34 C39 1_555 1_555
H35 C39 1_555 1_555
C40 H36 1_555 1_555
C41 H37 1_555 1_555
H38 C41 1_555 1_555
H39 C41 1_555 1_555
C42 H40 1_555 1_555
H41 C42 1_555 1_555
H42 C42 1_555 1_555
N1 C3 1_555 1_555
N2 C9 1_555 1_555
N3 C14 1_555 1_555
N4 C20 1_555 1_555
N5 C25 1_555 1_555
N6 Zn1 1_555 1_555
N7 C34 1_555 1_555
N8 C37 1_555 1_555
N9 C40 1_555 1_555
O1 Zn1 1_555 1_555
O2 C1 1_555 1_555
O3 C12 1_555 1_555
O4 C12 1_555 1_555
O5 C23 1_555 1_555
O6 C23 1_555 1_555
O7 Zn1 1_555 1_555
H43 O7 1_555 1_555
O8 C36 1_555 1_555
O9 C37 1_555 1_555
O10 C40 1_555 1_555
Zn2C O4 1_555 1_555
Zn2C_2 O5 1_555 1_555
Zn2A O7 1_555 1_555
O4C Zn2 1_555 1_555
O5C Zn2 1_555 1_555
O7A Zn2 1_555 1_555
H43A O7A 1_555 1_555
C1 O1 1_555 1_555
C4 N1 1_555 1_555
C5 C6 1_555 1_555
C10 C11 1_555 1_555
C10 N2 1_555 1_555
C15 N3 1_555 1_555
C16 C17 1_555 1_555
C21 C22 1_555 1_555
C21 N4 1_555 1_555
C26 N5 1_555 1_555
C27 C28 1_555 1_555
C31 N6 1_555 1_555
C32 C33 1_555 1_555
C32 N6 1_555 1_555
C35 N7 1_555 1_555
C36 N7 1_555 1_555
C38 N8 1_555 1_555
C39 N8 1_555 1_555
C41 N9 1_555 1_555
C42 N9 1_555 1_555

#END
