
#######################################################################
#
#                 Cambridge Crystallographic Data Centre
#                                CCDC 
#
#######################################################################
#
# If this CIF has been generated from an entry in the Cambridge 
# Structural Database, then it will include bibliographic, chemical, 
# crystal, experimental, refinement or atomic coordinate data resulting 
# from the CCDC's data processing and validation procedures.
#
#######################################################################

data_YOTHEW
_chemical_formula_moiety         
'(C4 H12 N1 1+)n,n(C165 H93 O48 S2 Zn12 1-),15n(C5 H11 N1 O1)'
_chemical_name_systematic        
'catena-[Diethylammonium hexakis(\m~6~-1,3,5-tris(4-carboxylatophenyl)benzene)-bis(\m~3~-sulfato)-tris(\m~2~-formato)-dodeca-zinc N,N-diethylformamide solvate]'
_symmetry_cell_setting           rhombohedral
_symmetry_space_group_name_H-M   'R 3 2'
_symmetry_Int_Tables_number      155
_space_group_name_Hall           'R 3 2"'
loop_
_symmetry_equiv_pos_site_id
_symmetry_equiv_pos_as_xyz
1 x,y,z
2 -y,x-y,z
3 -x+y,-x,z
4 y,x,-z
5 -x,-x+y,-z
6 x-y,-y,-z
7 2/3+x,1/3+y,1/3+z
8 2/3-y,1/3+x-y,1/3+z
9 2/3-x+y,1/3-x,1/3+z
10 2/3+y,1/3+x,1/3-z
11 2/3-x,1/3-x+y,1/3-z
12 2/3+x-y,1/3-y,1/3-z
13 1/3+x,2/3+y,2/3+z
14 1/3-y,2/3+x-y,2/3+z
15 1/3-x+y,2/3-x,2/3+z
16 1/3+y,2/3+x,2/3-z
17 1/3-x,2/3-x+y,2/3-z
18 1/3+x-y,2/3-y,2/3-z
_cell_length_a                   29.5723(10)
_cell_length_b                   29.5723(10)
_cell_length_c                   34.1452(13)
_cell_angle_alpha                90
_cell_angle_beta                 90
_cell_angle_gamma                120
_cell_volume                     25860.1
_cell_formula_units_Z            3
loop_
_atom_site_label
_atom_site_type_symbol
_atom_site_fract_x
_atom_site_fract_y
_atom_site_fract_z
Zn1 Zn 0.04666(2) -0.07348(2) 0.262673(19)
Zn2 Zn 0.05624(2) -0.18617(2) 0.27422(2)
C1 C 0.39808(19) 0.20635(19) 0.07547(16)
H1 H 0.3806 0.2251 0.0744
C2 C 0.45267(19) 0.23368(17) 0.07185(14)
C3 C 0.4495(2) 0.15200(18) 0.07446(15)
H2 H 0.4668 0.1330 0.0736
C4 C 0.4043(2) -0.1124(2) 0.01244(16)
C5 C 0.3985(2) 0.12726(18) 0.07866(15)
C6 C 0.29389(18) -0.0085(2) 0.11581(16)
C7 C 0.3664(2) 0.06659(17) 0.08618(16)
C8 C 0.3564(2) -0.0165(2) 0.07347(16)
C9 C 0.38138(18) 0.0368(2) 0.06630(15)
H3 H 0.4082 0.0519 0.0480
C10 C 0.2490(2) -0.0313(2) 0.14191(16)
C11 C 0.3122(2) -0.03825(19) 0.09650(17)
H4 H 0.2936 -0.0744 0.0994
C12 C 0.1197(2) -0.0950(3) 0.2208(2)
C13 C 0.47756(19) 0.2051(2) 0.07137(15)
H5 H 0.5137 0.2220 0.0689
C14 C 0.3226(2) 0.0455(2) 0.11020(15)
H6 H 0.3125 0.0671 0.1224
C15 C 0.3518(2) -0.1293(2) 0.01933(16)
H7 H 0.3268 -0.1619 0.0100
C16 C 0.3711(2) -0.0507(2) 0.05192(15)
C17 C 0.2150(2) -0.0129(2) 0.14402(16)
H8 H 0.2214 0.0154 0.1283
C18 C 0.4246(2) -0.0337(2) 0.04515(16)
H9 H 0.4499 -0.0010 0.0540
C19 C 0.4234(3) -0.1451(2) -0.01065(18)
C20 C 0.1721(3) -0.0336(3) 0.16782(19)
H10 H 0.1492 -0.0205 0.1675
C21 C 0.2389(2) -0.0752(2) 0.16725(16)
H11 H 0.2618 -0.0882 0.1677
C22 C 0.4397(2) -0.0651(2) 0.02572(16)
H12 H 0.4750 -0.0531 0.0218
C23 C 0.1632(2) -0.0748(2) 0.19274(17)
C24 C 0.3355(2) -0.1003(2) 0.03909(16)
H13 H 0.3001 -0.1138 0.0440
C25 C 0.4838(3) 0.29189(18) 0.06949(14)
C26 C 0.3704(2) 0.1554(2) 0.08026(16)
H14 H 0.3345 0.1384 0.0845
C27 C 0.1953(2) -0.0968(2) 0.19030(16)
H15 H 0.1868 -0.1268 0.2046
C28 C 0.06534(18) -0.26799(18) 0.3333
H16 H 0.0339 -0.2994 0.3333
O1 O 0.11492(15) -0.13039(18) 0.24387(13)
O2 O 0.08912(14) -0.07625(14) 0.21915(11)
O3 O 0.45824(12) 0.31660(13) 0.06750(12)
O4 O 0.53284(13) 0.31210(11) 0.06929(10)
O5 O 0.47017(17) -0.12852(14) -0.01411(11)
O6 O 0.38674(17) -0.18444(16) -0.02699(11)
O7 O 0.0750(2) -0.2333(3) 0.2997(3)
O8 O 0.03572(12) -0.01733(12) 0.24972(12)
S1 S 0.0000 0.0000 0.25915(10)
O7O O 0.1000(3) -0.2583(2) 0.3670(3)
O8A O 0.01733(12) 0.05305(17) 0.24972(12)
O8B O -0.05305(17) -0.03572(12) 0.24972(12)
Zn1A Zn 0.07348(2) 0.12014(3) 0.262673(19)
Zn2A Zn 0.18617(2) 0.24241(3) 0.27422(2)
C1A C -0.20635(19) 0.19173(27) 0.07547(16)
H1A H -0.2251 0.1555 0.0744
C2A C -0.23368(17) 0.21899(25) 0.07185(14)
C3A C -0.15200(18) 0.29750(27) 0.07446(15)
H2A H -0.1330 0.3338 0.0736
C4A C 0.1124(2) 0.5167(3) 0.01244(16)
C5A C -0.12726(18) 0.27124(27) 0.07866(15)
C6A C 0.0085(2) 0.30239(27) 0.11581(16)
C7A C -0.06659(17) 0.29981(26) 0.08618(16)
C8A C 0.0165(2) 0.3729(3) 0.07347(16)
C9A C -0.0368(2) 0.34458(27) 0.06630(15)
H3A H -0.0519 0.3563 0.0480
C10A C 0.0313(2) 0.2803(3) 0.14191(16)
C11A C 0.03825(19) 0.35045(28) 0.09650(17)
H4A H 0.0744 0.3680 0.0994
C12A C 0.0950(3) 0.2147(4) 0.2208(2)
C13A C -0.2051(2) 0.27246(28) 0.07137(15)
H5A H -0.2220 0.2917 0.0689
C14A C -0.0455(2) 0.2771(3) 0.11020(15)
H6A H -0.0671 0.2454 0.1224
C15A C 0.1293(2) 0.4811(3) 0.01933(16)
H7A H 0.1619 0.4887 0.0100
C16A C 0.0507(2) 0.4218(3) 0.05192(15)
C17A C 0.0129(2) 0.2279(3) 0.14402(16)
H8A H -0.0154 0.2060 0.1283
C18A C 0.0337(2) 0.4583(3) 0.04515(16)
H9A H 0.0010 0.4509 0.0540
C19A C 0.1451(2) 0.5685(4) -0.01065(18)
C20A C 0.0336(3) 0.2057(4) 0.16782(19)
H10A H 0.0205 0.1697 0.1675
C21A C 0.0752(2) 0.3141(3) 0.16725(16)
H11A H 0.0882 0.3500 0.1677
C22A C 0.0651(2) 0.5048(3) 0.02572(16)
H12A H 0.0531 0.5281 0.0218
C23A C 0.0748(2) 0.2380(3) 0.19274(17)
C24A C 0.1003(2) 0.4358(3) 0.03909(16)
H13A H 0.1138 0.4139 0.0440
C25A C -0.29189(18) 0.19191(35) 0.06949(14)
C26A C -0.1554(2) 0.2150(3) 0.08026(16)
H14A H -0.1384 0.1961 0.0845
C27A C 0.0968(2) 0.2921(3) 0.19030(16)
H15A H 0.1268 0.3136 0.2046
O1A O 0.13039(18) 0.24531(23) 0.24387(13)
O2A O 0.07625(14) 0.16537(20) 0.21915(11)
O3A O -0.31660(13) 0.14164(18) 0.06750(12)
O4A O -0.31210(11) 0.22074(17) 0.06929(10)
O5A O 0.12852(14) 0.59869(22) -0.01411(11)
O6A O 0.18444(16) 0.57118(23) -0.02699(11)
Zn1B Zn -0.12014(3) -0.04666(2) 0.262673(19)
Zn2B Zn -0.24241(3) -0.05624(2) 0.27422(2)
C1B C -0.19173(27) -0.39808(19) 0.07547(16)
H1B H -0.1555 -0.3806 0.0744
C2B C -0.21899(25) -0.45267(19) 0.07185(14)
C3B C -0.29750(27) -0.4495(2) 0.07446(15)
H2B H -0.3338 -0.4668 0.0736
C4B C -0.5167(3) -0.4043(2) 0.01244(16)
C5B C -0.27124(27) -0.3985(2) 0.07866(15)
C6B C -0.30239(27) -0.29389(18) 0.11581(16)
C7B C -0.29981(26) -0.3664(2) 0.08618(16)
C8B C -0.3729(3) -0.3564(2) 0.07347(16)
C9B C -0.34458(27) -0.38138(18) 0.06630(15)
H3B H -0.3563 -0.4082 0.0480
C10B C -0.2803(3) -0.2490(2) 0.14191(16)
C11B C -0.35045(28) -0.3122(2) 0.09650(17)
H4B H -0.3680 -0.2936 0.0994
C12B C -0.2147(4) -0.1197(2) 0.2208(2)
C13B C -0.27246(28) -0.47756(19) 0.07137(15)
H5B H -0.2917 -0.5137 0.0689
C14B C -0.2771(3) -0.3226(2) 0.11020(15)
H6B H -0.2454 -0.3125 0.1224
C15B C -0.4811(3) -0.3518(2) 0.01933(16)
H7B H -0.4887 -0.3268 0.0100
C16B C -0.4218(3) -0.3711(2) 0.05192(15)
C17B C -0.2279(3) -0.2150(2) 0.14402(16)
H8B H -0.2060 -0.2214 0.1283
C18B C -0.4583(3) -0.4246(2) 0.04515(16)
H9B H -0.4509 -0.4499 0.0540
C19B C -0.5685(4) -0.4234(3) -0.01065(18)
C20B C -0.2057(4) -0.1721(3) 0.16782(19)
H10B H -0.1697 -0.1492 0.1675
C21B C -0.3141(3) -0.2389(2) 0.16725(16)
H11B H -0.3500 -0.2618 0.1677
C22B C -0.5048(3) -0.4397(2) 0.02572(16)
H12B H -0.5281 -0.4750 0.0218
C23B C -0.2380(3) -0.1632(2) 0.19274(17)
C24B C -0.4358(3) -0.3355(2) 0.03909(16)
H13B H -0.4139 -0.3001 0.0440
C25B C -0.19191(35) -0.4838(3) 0.06949(14)
C26B C -0.2150(3) -0.3704(2) 0.08026(16)
H14B H -0.1961 -0.3345 0.0845
C27B C -0.2921(3) -0.1953(2) 0.19030(16)
H15B H -0.3136 -0.1868 0.2046
O1B O -0.24531(23) -0.11492(15) 0.24387(13)
O2B O -0.16537(20) -0.08912(14) 0.21915(11)
O3B O -0.14164(18) -0.45824(12) 0.06750(12)
O4B O -0.22074(17) -0.53284(13) 0.06929(10)
O5B O -0.59869(22) -0.47017(17) -0.01411(11)
O6B O -0.57118(23) -0.38674(17) -0.02699(11)
Zn1J Zn 0.62001(2) 0.21319(3) 0.070660(19)
Zn2J Zn 0.61043(2) 0.09092(3) 0.05911(2)
C1J C 0.26859(19) 0.14160(27) 0.25786(16)
H1J H 0.2861 0.1778 0.2589
C2J C 0.21400(19) 0.11434(25) 0.26148(14)
C3J C 0.2172(2) 0.03583(27) 0.25887(15)
H2J H 0.1999 -0.0005 0.2597
C4J C 0.2624(2) -0.1834(3) 0.32089(16)
C5J C 0.2682(2) 0.06209(27) 0.25467(15)
C6J C 0.37278(18) 0.03094(27) 0.21752(16)
C7J C 0.3003(2) 0.03352(26) 0.24715(16)
C8J C 0.3103(2) -0.0396(3) 0.25986(16)
C9J C 0.28529(18) -0.01125(27) 0.26703(15)
H3J H 0.2585 -0.0230 0.2853
C10J C 0.4177(2) 0.0530(3) 0.19142(16)
C11J C 0.3545(2) -0.01712(28) 0.23683(17)
H4J H 0.3731 -0.0347 0.2339
C12J C 0.5470(2) 0.1186(4) 0.1125(2)
C13J C 0.18911(19) 0.06087(28) 0.26196(15)
H5J H 0.1530 0.0416 0.2644
C14J C 0.3441(2) 0.0562(3) 0.22313(15)
H6J H 0.3542 0.0879 0.2109
C15J C 0.3149(2) -0.1478(3) 0.31400(16)
H7J H 0.3399 -0.1554 0.3233
C16J C 0.2956(2) -0.0885(3) 0.28141(15)
C17J C 0.4517(2) 0.1054(3) 0.18931(16)
H8J H 0.4453 0.1273 0.2050
C18J C 0.2421(2) -0.1250(3) 0.28818(16)
H9J H 0.2168 -0.1176 0.2793
C19J C 0.2433(3) -0.2352(4) 0.34398(18)
C20J C 0.4946(3) 0.1276(4) 0.16551(19)
H10J H 0.5175 0.1636 0.1658
C21J C 0.4278(2) 0.0192(3) 0.16608(16)
H11J H 0.4049 -0.0167 0.1656
C22J C 0.2270(2) -0.1715(3) 0.30761(16)
H12J H 0.1917 -0.1948 0.3115
C23J C 0.5035(2) 0.0953(3) 0.14059(17)
C24J C 0.3312(2) -0.1025(3) 0.29424(16)
H13J H 0.3666 -0.0806 0.2893
C25J C 0.1829(3) 0.14142(35) 0.26384(14)
C26J C 0.2963(2) 0.1183(3) 0.25307(16)
H14J H 0.3322 0.1372 0.2488
C27J C 0.4714(2) 0.0412(3) 0.14303(16)
H15J H 0.4799 0.0197 0.1287
O1J O 0.55175(15) 0.08802(23) 0.08946(13)
O2J O 0.57755(14) 0.16796(20) 0.11418(11)
O3J O 0.20843(12) 0.19169(18) 0.26583(12)
O4J O 0.13383(13) 0.11259(17) 0.26404(10)
O5J O 0.19650(17) -0.26536(22) 0.34744(11)
O6J O 0.27993(17) -0.23785(23) 0.36032(11)
O8J O 0.63095(12) 0.28028(17) 0.08361(12)
S1I S 0.6667 0.3333 0.07418(10)
O8I O 0.64934(12) 0.36905(12) 0.08361(12)
O8K O 0.71972(17) 0.35066(12) 0.08361(12)
Zn1K Zn -0.21319(3) -0.59319(2) 0.070660(19)
Zn2K Zn -0.09092(3) -0.48050(2) 0.05911(2)
C1K C -0.14160(27) -0.87302(19) 0.25786(16)
H1K H -0.1778 -0.8918 0.2589
C2K C -0.11434(25) -0.90035(17) 0.26148(14)
C3K C -0.03583(27) -0.81867(18) 0.25887(15)
H2K H 0.0005 -0.7997 0.2597
C4K C 0.1834(3) -0.5543(2) 0.32089(16)
C5K C -0.06209(27) -0.79393(18) 0.25467(15)
C6K C -0.03094(27) -0.6582(2) 0.21752(16)
C7K C -0.03352(26) -0.73326(17) 0.24715(16)
C8K C 0.0396(3) -0.6502(2) 0.25986(16)
C9K C 0.01125(27) -0.7035(2) 0.26703(15)
H3K H 0.0230 -0.7186 0.2853
C10K C -0.0530(3) -0.6354(2) 0.19142(16)
C11K C 0.01712(28) -0.62842(19) 0.23683(17)
H4K H 0.0347 -0.5923 0.2339
C12K C -0.1186(4) -0.5717(3) 0.1125(2)
C13K C -0.06087(28) -0.8718(2) 0.26196(15)
H5K H -0.0416 -0.8887 0.2644
C14K C -0.0562(3) -0.7122(2) 0.22313(15)
H6K H -0.0879 -0.7338 0.2109
C15K C 0.1478(3) -0.5374(2) 0.31400(16)
H7K H 0.1554 -0.5048 0.3233
C16K C 0.0885(3) -0.6160(2) 0.28141(15)
C17K C -0.1054(3) -0.6538(2) 0.18931(16)
H8K H -0.1273 -0.6821 0.2050
C18K C 0.1250(3) -0.6330(2) 0.28818(16)
H9K H 0.1176 -0.6657 0.2793
C19K C 0.2352(4) -0.5216(2) 0.34398(18)
C20K C -0.1276(4) -0.6331(3) 0.16551(19)
H10K H -0.1636 -0.6462 0.1658
C21K C -0.0192(3) -0.5915(2) 0.16608(16)
H11K H 0.0167 -0.5785 0.1656
C22K C 0.1715(3) -0.6016(2) 0.30761(16)
H12K H 0.1948 -0.6136 0.3115
C23K C -0.0953(3) -0.5919(2) 0.14059(17)
C24K C 0.1025(3) -0.5664(2) 0.29424(16)
H13K H 0.0806 -0.5529 0.2893
C25K C -0.14142(35) -0.95856(18) 0.26384(14)
C26K C -0.1183(3) -0.8221(2) 0.25307(16)
H14K H -0.1372 -0.8051 0.2488
C27K C -0.0412(3) -0.5699(2) 0.14303(16)
H15K H -0.0197 -0.5399 0.1287
O1K O -0.08802(23) -0.53628(18) 0.08946(13)
O2K O -0.16796(20) -0.59042(14) 0.11418(11)
O3K O -0.19169(18) -0.98327(13) 0.26583(12)
O4K O -0.11259(17) -0.97877(11) 0.26404(10)
O5K O 0.26536(22) -0.53815(14) 0.34744(11)
O6K O 0.23785(23) -0.48223(16) 0.36032(11)
Zn1O Zn 0.25985(2) -0.28667(2) 0.403994(19)
Zn2O Zn 0.14716(2) -0.27709(2) 0.39245(2)
C1O C 0.53968(19) 0.06475(19) 0.59120(16)
H1O H 0.5584 0.0473 0.5923
C2O C 0.56701(17) 0.11934(19) 0.59482(14)
C3O C 0.48533(18) 0.1162(2) 0.59221(15)
H2O H 0.4663 0.1335 0.5931
C4O C 0.2209(2) 0.0710(2) 0.65423(16)
C5O C 0.46059(18) 0.0652(2) 0.58801(15)
C6O C 0.3248(2) -0.03944(18) 0.55086(16)
C7O C 0.39992(17) 0.0331(2) 0.58049(16)
C8O C 0.3168(2) 0.0231(2) 0.59320(16)
C9O C 0.3701(2) 0.04805(18) 0.60037(15)
H3O H 0.3852 0.0749 0.6187
C10O C 0.3020(2) -0.0843(2) 0.52476(16)
C11O C 0.29508(19) -0.0211(2) 0.57017(17)
H4O H 0.2589 -0.0397 0.5673
C12O C 0.2383(3) -0.2136(2) 0.4459(2)
C13O C 0.5384(2) 0.14423(19) 0.59530(15)
H5O H 0.5553 0.1804 0.5978
C14O C 0.3788(2) -0.0107(2) 0.55647(15)
H6O H 0.4004 -0.0208 0.5443
C15O C 0.2040(2) 0.0185(2) 0.64734(16)
H7O H 0.1714 -0.0065 0.6567
C16O C 0.2826(2) 0.0378(2) 0.61475(15)
C17O C 0.3204(2) -0.1183(2) 0.52265(16)
H8O H 0.3487 -0.1119 0.5384
C18O C 0.2996(2) 0.0913(2) 0.62152(16)
H9O H 0.3323 0.1166 0.6127
C19O C 0.1882(2) 0.0901(3) 0.67732(18)
C20O C 0.2997(3) -0.1612(3) 0.49885(19)
H10O H 0.3128 -0.1841 0.4992
C21O C 0.2581(2) -0.0944(2) 0.49942(16)
H11O H 0.2451 -0.0715 0.4990
C22O C 0.2682(2) 0.1064(2) 0.64095(16)
H12O H 0.2802 0.1417 0.6449
C23O C 0.2585(2) -0.1701(2) 0.47393(17)
C24O C 0.2330(2) 0.0022(2) 0.62758(16)
H13O H 0.2195 -0.0332 0.6227
C25O C 0.62522(18) 0.1505(3) 0.59718(14)
C26O C 0.4887(2) 0.0371(2) 0.58641(16)
H14O H 0.4717 0.0012 0.5822
C27O C 0.2365(2) -0.1380(2) 0.47637(16)
H15O H 0.2065 -0.1465 0.4621
O1O O 0.20294(18) -0.21841(15) 0.42280(13)
O2O O 0.25708(14) -0.24421(14) 0.44752(11)
O3O O 0.64993(13) 0.12491(12) 0.59917(12)
O4O O 0.64543(11) 0.19951(13) 0.59738(10)
O5O O 0.20481(14) 0.13684(17) 0.68078(11)
O6O O 0.14889(16) 0.05341(17) 0.69366(11)
C28A C 0.26799(18) 0.33333(25) 0.3333
H16A H 0.2994 0.3333 0.3333
O7A O 0.2333(3) 0.3083(4) 0.2997(3)
O7P O 0.2583(2) 0.3584(4) 0.3670(3)
C28B C -0.33333(25) -0.06534(18) 0.3333
H16B H -0.3333 -0.0339 0.3333
O7B O -0.3083(4) -0.0750(2) 0.2997(3)
O7Q O -0.3584(4) -0.1000(3) 0.3670(3)
Zn1B_2 Zn -0.12014(3) -1.04666(2) 0.262673(19)
Zn1E Zn 0.12014(3) 0.07348(2) 0.737327(19)
Zn1F Zn 0.71333(2) 0.25985(2) 0.596006(19)
Zn1I Zn 0.59319(2) 0.37999(2) 0.070660(19)
Zn1J_2 Zn -0.37999(2) 0.21319(3) 0.070660(19)
Zn1K_2 Zn 0.78681(3) 0.40681(2) 0.070660(19)
Zn1L Zn -0.62001(2) -0.40681(2) -0.070660(19)
Zn1M Zn 0.40681(2) -0.21319(3) -0.070660(19)
Zn1N Zn 0.21319(3) 0.62001(2) -0.070660(19)
Zn1P Zn 0.28667(2) -0.45347(3) 0.403994(19)
Zn2B_2 Zn -0.24241(3) -1.05624(2) 0.27422(2)
Zn2E Zn 0.24241(3) 0.18617(2) 0.72578(2)
Zn2F Zn 0.72291(2) 0.14716(2) 0.60755(2)
Zn2I Zn 0.48050(2) 0.38957(2) 0.05911(2)
Zn2J_2 Zn -0.38957(2) 0.09092(3) 0.05911(2)
Zn2L Zn -0.61043(2) -0.51950(2) -0.05911(2)
Zn2M Zn 0.51950(2) -0.09092(3) -0.05911(2)
Zn2N Zn 0.09092(3) 0.61043(2) -0.05911(2)
Zn2P Zn 0.27709(2) -0.57574(3) 0.39245(2)
Zn2P_2 Zn 0.27709(2) 0.42426(3) 0.39245(2)
Zn2Q Zn -0.42426(3) -0.14716(2) 0.39245(2)
O3A_2 O 0.68340(13) 0.14164(18) 0.06750(12)
O3F O 0.12491(12) -0.35007(13) 0.40083(12)
O3I O -0.01673(13) -0.20843(12) 0.26583(12)
O3K_2 O -0.19169(18) 0.01673(13) 0.26583(12)
O4A_2 O 0.68790(11) 0.22074(17) 0.06929(10)
O4F O 0.19951(13) -0.35457(11) 0.40262(10)
O4I O -0.02123(11) -0.13383(13) 0.26404(10)
O4K_2 O -0.11259(17) 0.02123(11) 0.26404(10)
O5C O -0.12852(14) -0.52983(17) 0.01411(11)
O5E O 0.59869(22) 0.12852(14) 0.01411(11)
O5F O 0.13684(17) 0.20481(14) 0.31922(11)
O5G O -0.20481(14) -0.06798(22) 0.31922(11)
O5H O 0.06798(22) -0.13684(17) 0.31922(11)
O6C O -0.18444(16) -0.61326(17) 0.02699(11)
O6E O 0.57118(23) 0.18444(16) 0.02699(11)
O6F O 0.05341(17) 0.14889(16) 0.30634(11)
O6G O -0.14889(16) -0.09549(23) 0.30634(11)
O6H O 0.09549(23) -0.05341(17) 0.30634(11)
O7J O 0.5917(2) 0.0250(4) 0.0336(3)
O7K O -0.0250(4) -0.4334(3) 0.0336(3)
O8K_2 O -0.28028(17) -0.64934(12) 0.08361(12)
O8O O 0.31600(12) -0.29761(12) 0.41695(12)
loop_
_geom_bond_atom_site_label_1
_geom_bond_atom_site_label_2
_geom_bond_site_symmetry_1
_geom_bond_site_symmetry_2
Zn1 O2 1_555 1_555
Zn2 O1 1_555 1_555
C1 H1 1_555 1_555
C2 C1 1_555 1_555
C3 H2 1_555 1_555
C4 C15 1_555 1_555
C5 C3 1_555 1_555
C6 C10 1_555 1_555
C7 C5 1_555 1_555
C8 C9 1_555 1_555
C9 C7 1_555 1_555
H3 C9 1_555 1_555
C10 C17 1_555 1_555
C11 C6 1_555 1_555
H4 C11 1_555 1_555
C12 C23 1_555 1_555
C13 C2 1_555 1_555
H5 C13 1_555 1_555
C14 C6 1_555 1_555
H6 C14 1_555 1_555
C15 H7 1_555 1_555
C16 C8 1_555 1_555
C17 H8 1_555 1_555
C18 C16 1_555 1_555
H9 C18 1_555 1_555
C19 C4 1_555 1_555
C20 C17 1_555 1_555
H10 C20 1_555 1_555
C21 C10 1_555 1_555
H11 C21 1_555 1_555
C22 C4 1_555 1_555
H12 C22 1_555 1_555
C23 C20 1_555 1_555
C24 C15 1_555 1_555
H13 C24 1_555 1_555
C25 C2 1_555 1_555
C26 C1 1_555 1_555
H14 C26 1_555 1_555
C27 C21 1_555 1_555
H15 C27 1_555 1_555
C28 H16 1_555 1_555
O1 C12 1_555 1_555
O2 C12 1_555 1_555
O3 C25 1_555 1_555
O4 C25 1_555 1_555
O5 C19 1_555 1_555
O6 C19 1_555 1_555
O7 Zn2 1_555 1_555
O8 Zn1 1_555 1_555
S1 O8 1_555 1_555
O7O C28 1_555 1_555
O8A S1 1_555 1_555
O8B S1 1_555 1_555
Zn1A O8A 1_555 1_555
Zn2A O1A 1_555 1_555
C1A H1A 1_555 1_555
C2A C1A 1_555 1_555
C3A H2A 1_555 1_555
C4A C15A 1_555 1_555
C5A C3A 1_555 1_555
C6A C10A 1_555 1_555
C7A C5A 1_555 1_555
C8A C9A 1_555 1_555
C9A C7A 1_555 1_555
H3A C9A 1_555 1_555
C10A C17A 1_555 1_555
C11A C6A 1_555 1_555
H4A C11A 1_555 1_555
C12A C23A 1_555 1_555
C13A C2A 1_555 1_555
H5A C13A 1_555 1_555
C14A C6A 1_555 1_555
H6A C14A 1_555 1_555
C15A H7A 1_555 1_555
C16A C8A 1_555 1_555
C17A H8A 1_555 1_555
C18A C16A 1_555 1_555
H9A C18A 1_555 1_555
C19A C4A 1_555 1_555
C20A C17A 1_555 1_555
H10A C20A 1_555 1_555
C21A C10A 1_555 1_555
H11A C21A 1_555 1_555
C22A C4A 1_555 1_555
H12A C22A 1_555 1_555
C23A C20A 1_555 1_555
C24A C15A 1_555 1_555
H13A C24A 1_555 1_555
C25A C2A 1_555 1_555
C26A C1A 1_555 1_555
H14A C26A 1_555 1_555
C27A C21A 1_555 1_555
H15A C27A 1_555 1_555
O1A C12A 1_555 1_555
O2A Zn1A 1_555 1_555
O3A C25A 1_555 1_555
O4A C25A 1_555 1_555
O5A C19A 1_555 1_555
O6A C19A 1_555 1_555
Zn1B O8B 1_555 1_555
Zn2B O1B 1_555 1_555
C1B H1B 1_555 1_555
C2B C1B 1_555 1_555
C3B H2B 1_555 1_555
C4B C15B 1_555 1_555
C5B C3B 1_555 1_555
C6B C10B 1_555 1_555
C7B C5B 1_555 1_555
C8B C9B 1_555 1_555
C9B C7B 1_555 1_555
H3B C9B 1_555 1_555
C10B C17B 1_555 1_555
C11B C6B 1_555 1_555
H4B C11B 1_555 1_555
C12B C23B 1_555 1_555
C13B C2B 1_555 1_555
H5B C13B 1_555 1_555
C14B C6B 1_555 1_555
H6B C14B 1_555 1_555
C15B H7B 1_555 1_555
C16B C8B 1_555 1_555
C17B H8B 1_555 1_555
C18B C16B 1_555 1_555
H9B C18B 1_555 1_555
C19B C4B 1_555 1_555
C20B C17B 1_555 1_555
H10B C20B 1_555 1_555
C21B C10B 1_555 1_555
H11B C21B 1_555 1_555
C22B C4B 1_555 1_555
H12B C22B 1_555 1_555
C23B C20B 1_555 1_555
C24B C15B 1_555 1_555
H13B C24B 1_555 1_555
C25B C2B 1_555 1_555
C26B C1B 1_555 1_555
H14B C26B 1_555 1_555
C27B C21B 1_555 1_555
H15B C27B 1_555 1_555
O1B C12B 1_555 1_555
O2B Zn1B 1_555 1_555
O3B C25B 1_555 1_555
O4B C25B 1_555 1_555
O5B C19B 1_555 1_555
O6B C19B 1_555 1_555
Zn1J O2J 1_555 1_555
Zn2J O1J 1_555 1_555
C1J H1J 1_555 1_555
C2J C1J 1_555 1_555
C3J H2J 1_555 1_555
C4J C15J 1_555 1_555
C5J C3J 1_555 1_555
C6J C10J 1_555 1_555
C7J C5J 1_555 1_555
C8J C9J 1_555 1_555
C9J C7J 1_555 1_555
H3J C9J 1_555 1_555
C10J C17J 1_555 1_555
C11J C6J 1_555 1_555
H4J C11J 1_555 1_555
C12J C23J 1_555 1_555
C13J C2J 1_555 1_555
H5J C13J 1_555 1_555
C14J C6J 1_555 1_555
H6J C14J 1_555 1_555
C15J H7J 1_555 1_555
C16J C8J 1_555 1_555
C17J H8J 1_555 1_555
C18J C16J 1_555 1_555
H9J C18J 1_555 1_555
C19J C4J 1_555 1_555
C20J C17J 1_555 1_555
H10J C20J 1_555 1_555
C21J C10J 1_555 1_555
H11J C21J 1_555 1_555
C22J C4J 1_555 1_555
H12J C22J 1_555 1_555
C23J C20J 1_555 1_555
C24J C15J 1_555 1_555
H13J C24J 1_555 1_555
C25J C2J 1_555 1_555
C26J C1J 1_555 1_555
H14J C26J 1_555 1_555
C27J C21J 1_555 1_555
H15J C27J 1_555 1_555
O1J C12J 1_555 1_555
O2J C12J 1_555 1_555
O3J Zn2A 1_555 1_555
O4J Zn1A 1_555 1_555
O5J C19J 1_555 1_555
O6J C19J 1_555 1_555
O8J Zn1J 1_555 1_555
S1I O8J 1_555 1_555
O8I S1I 1_555 1_555
O8K S1I 1_555 1_555
Zn1K O4B 1_555 1_555
Zn2K O3B 1_555 1_555
C1K H1K 1_555 1_555
C2K C1K 1_555 1_555
C3K H2K 1_555 1_555
C4K C15K 1_555 1_555
C5K C3K 1_555 1_555
C6K C10K 1_555 1_555
C7K C5K 1_555 1_555
C8K C9K 1_555 1_555
C9K C7K 1_555 1_555
H3K C9K 1_555 1_555
C10K C17K 1_555 1_555
C11K C6K 1_555 1_555
H4K C11K 1_555 1_555
C12K C23K 1_555 1_555
C13K C2K 1_555 1_555
H5K C13K 1_555 1_555
C14K C6K 1_555 1_555
H6K C14K 1_555 1_555
C15K H7K 1_555 1_555
C16K C8K 1_555 1_555
C17K H8K 1_555 1_555
C18K C16K 1_555 1_555
H9K C18K 1_555 1_555
C19K C4K 1_555 1_555
C20K C17K 1_555 1_555
H10K C20K 1_555 1_555
C21K C10K 1_555 1_555
H11K C21K 1_555 1_555
C22K C4K 1_555 1_555
H12K C22K 1_555 1_555
C23K C20K 1_555 1_555
C24K C15K 1_555 1_555
H13K C24K 1_555 1_555
C25K C2K 1_555 1_555
C26K C1K 1_555 1_555
H14K C26K 1_555 1_555
C27K C21K 1_555 1_555
H15K C27K 1_555 1_555
O1K Zn2K 1_555 1_555
O2K Zn1K 1_555 1_555
O3K C25K 1_555 1_555
O4K C25K 1_555 1_555
O5K C19K 1_555 1_555
O6K C19K 1_555 1_555
Zn1O O6J 1_555 1_555
Zn2O O7O 1_555 1_555
C1O H1O 1_555 1_555
C2O C1O 1_555 1_555
C3O H2O 1_555 1_555
C4O C15O 1_555 1_555
C5O C3O 1_555 1_555
C6O C10O 1_555 1_555
C7O C5O 1_555 1_555
C8O C9O 1_555 1_555
C9O C7O 1_555 1_555
H3O C9O 1_555 1_555
C10O C17O 1_555 1_555
C11O C6O 1_555 1_555
H4O C11O 1_555 1_555
C12O C23O 1_555 1_555
C13O C2O 1_555 1_555
H5O C13O 1_555 1_555
C14O C6O 1_555 1_555
H6O C14O 1_555 1_555
C15O H7O 1_555 1_555
C16O C8O 1_555 1_555
C17O H8O 1_555 1_555
C18O C16O 1_555 1_555
H9O C18O 1_555 1_555
C19O C4O 1_555 1_555
C20O C17O 1_555 1_555
H10O C20O 1_555 1_555
C21O C10O 1_555 1_555
H11O C21O 1_555 1_555
C22O C4O 1_555 1_555
H12O C22O 1_555 1_555
C23O C20O 1_555 1_555
C24O C15O 1_555 1_555
H13O C24O 1_555 1_555
C25O C2O 1_555 1_555
C26O C1O 1_555 1_555
H14O C26O 1_555 1_555
C27O C21O 1_555 1_555
H15O C27O 1_555 1_555
O1O Zn2O 1_555 1_555
O2O Zn1O 1_555 1_555
O3O C25O 1_555 1_555
O4O C25O 1_555 1_555
O5O C19O 1_555 1_555
O6O C19O 1_555 1_555
C28A H16A 1_555 1_555
O7A Zn2A 1_555 1_555
O7P C28A 1_555 1_555
C28B H16B 1_555 1_555
O7B Zn2B 1_555 1_555
O7Q C28B 1_555 1_555
Zn1B_2 O4K 1_555 1_555
Zn1E O6O 1_555 1_555
Zn1F O4O 1_555 1_555
Zn1I O4 1_555 1_555
Zn1J_2 O4A 1_555 1_555
Zn1K_2 O8K 1_555 1_555
Zn1L O6B 1_555 1_555
Zn1M O6 1_555 1_555
Zn1N O6A 1_555 1_555
Zn1P O6K 1_555 1_555
Zn2B_2 O3K 1_555 1_555
Zn2E O5O 1_555 1_555
Zn2F O3O 1_555 1_555
Zn2I O3 1_555 1_555
Zn2J_2 O3A 1_555 1_555
Zn2L O5B 1_555 1_555
Zn2M O5 1_555 1_555
Zn2N O5A 1_555 1_555
Zn2P O5K 1_555 1_555
Zn2P_2 O7P 1_555 1_555
Zn2Q O7Q 1_555 1_555
O3A_2 Zn2J 1_555 1_555
O3F Zn2O 1_555 1_555
O3I Zn2 1_555 1_555
O3K_2 Zn2B 1_555 1_555
O4A_2 Zn1J 1_555 1_555
O4F Zn1O 1_555 1_555
O4I Zn1 1_555 1_555
O4K_2 Zn1B 1_555 1_555
O5C Zn2K 1_555 1_555
O5E Zn2J 1_555 1_555
O5F Zn2A 1_555 1_555
O5G Zn2B 1_555 1_555
O5H Zn2 1_555 1_555
O6C Zn1K 1_555 1_555
O6E Zn1J 1_555 1_555
O6F Zn1A 1_555 1_555
O6G Zn1B 1_555 1_555
O6H Zn1 1_555 1_555
O7J Zn2J 1_555 1_555
O7K Zn2K 1_555 1_555
O8K_2 Zn1K 1_555 1_555
O8O Zn1O 1_555 1_555
C3 C13 1_555 1_555
C5 C26 1_555 1_555
C7 C14 1_555 1_555
C8 C11 1_555 1_555
C16 C24 1_555 1_555
C18 C22 1_555 1_555
C23 C27 1_555 1_555
C28 O7 1_555 1_555
C3A C13A 1_555 1_555
C5A C26A 1_555 1_555
C7A C14A 1_555 1_555
C8A C11A 1_555 1_555
C12A O2A 1_555 1_555
C16A C24A 1_555 1_555
C18A C22A 1_555 1_555
C23A C27A 1_555 1_555
C3B C13B 1_555 1_555
C5B C26B 1_555 1_555
C7B C14B 1_555 1_555
C8B C11B 1_555 1_555
C12B O2B 1_555 1_555
C16B C24B 1_555 1_555
C18B C22B 1_555 1_555
C23B C27B 1_555 1_555
C3J C13J 1_555 1_555
C5J C26J 1_555 1_555
C7J C14J 1_555 1_555
C8J C11J 1_555 1_555
C16J C24J 1_555 1_555
C18J C22J 1_555 1_555
C23J C27J 1_555 1_555
C25J O3J 1_555 1_555
C25J O4J 1_555 1_555
O5J Zn2O 1_555 1_555
O8I Zn1I 1_555 1_555
C3K C13K 1_555 1_555
C5K C26K 1_555 1_555
C7K C14K 1_555 1_555
C8K C11K 1_555 1_555
C12K O1K 1_555 1_555
C12K O2K 1_555 1_555
C16K C24K 1_555 1_555
C18K C22K 1_555 1_555
C23K C27K 1_555 1_555
C3O C13O 1_555 1_555
C5O C26O 1_555 1_555
C7O C14O 1_555 1_555
C8O C11O 1_555 1_555
C12O O1O 1_555 1_555
C12O O2O 1_555 1_555
C16O C24O 1_555 1_555
C18O C22O 1_555 1_555
C23O C27O 1_555 1_555
C28A O7A 1_555 1_555
C28B O7B 1_555 1_555

#END
