
#######################################################################
#
#                 Cambridge Crystallographic Data Centre
#                                CCDC 
#
#######################################################################
#
# If this CIF has been generated from an entry in the Cambridge 
# Structural Database, then it will include bibliographic, chemical, 
# crystal, experimental, refinement or atomic coordinate data resulting 
# from the CCDC's data processing and validation procedures.
#
#######################################################################

data_XUNGIX
_chemical_formula_moiety         '(C84 H96 Cu3 N4 O12)n,22.5n(C4 H8 O1)'
_chemical_name_systematic        
"catena-((\m~3~-Hexamethylenetetramine)-tris(\m~2~-1,1'-biphenyl-4,4'-diyl-bis(4,4-dimethylpentane-1,3-dione-O^1^,O^3^))-tri-copper tetrahydrofuran solvate)"
_symmetry_cell_setting           cubic
_symmetry_space_group_name_H-M   'P 21 3'
_symmetry_Int_Tables_number      198
_space_group_name_Hall           'P 2ac 2ab 3'
loop_
_symmetry_equiv_pos_site_id
_symmetry_equiv_pos_as_xyz
1 x,y,z
2 1/2-x,-y,1/2+z
3 1/2+x,1/2-y,-z
4 -x,1/2+y,1/2-z
5 z,x,y
6 y,z,x
7 1/2-z,-x,1/2+y
8 -y,1/2+z,1/2-x
9 1/2+z,1/2-x,-y
10 1/2-y,-z,1/2+x
11 -z,1/2+x,1/2-y
12 1/2+y,1/2-z,-x
_cell_length_a                   24.2096(30)
_cell_length_b                   24.2096(30)
_cell_length_c                   24.2096(30)
_cell_angle_alpha                90
_cell_angle_beta                 90
_cell_angle_gamma                90
_cell_volume                     14189.4
_exptl_crystal_colour            green
_exptl_crystal_description       prism
_cell_formula_units_Z            4
loop_
_atom_site_label
_atom_site_type_symbol
_atom_site_fract_x
_atom_site_fract_y
_atom_site_fract_z
_atom_site_U_iso_or_equiv
_atom_site_thermal_displace_type
C1 C 0.4390(5) 0.3529(4) 0.5027(4) 0.1373 Uani
H1 H 0.4703 0.3760 0.5139 0.2070 Uiso
H2 H 0.4203 0.3699 0.4710 0.2070 Uiso
H3 H 0.4525 0.3161 0.4923 0.2070 Uiso
C2 C 0.3415(5) 0.3296(4) 0.5323(6) 0.1940 Uani
H4 H 0.3333 0.3438 0.4953 0.2910 Uiso
H5 H 0.3145 0.3441 0.5586 0.2910 Uiso
H6 H 0.3396 0.2892 0.5319 0.2910 Uiso
C3 C 0.4233(5) 0.3064(4) 0.5859(5) 0.1370 Uani
H7 H 0.4274 0.2715 0.5657 0.2050 Uiso
H8 H 0.3989 0.3008 0.6177 0.2050 Uiso
H9 H 0.4595 0.3189 0.5988 0.2050 Uiso
C4 C 0.3996(3) 0.3478(4) 0.5495(4) 0.0657 Uani
C5 C 0.3955(4) 0.4030(3) 0.5787(4) 0.0657 Uani
C6 C 0.3510(3) 0.4396(3) 0.5754(3) 0.0657 Uani
H10 H 0.3191 0.4262 0.5569 0.0790 Uiso
C7 C 0.3476(4) 0.4912(4) 0.5951(4) 0.0657 Uani
C8 C 0.3013(3) 0.5262(4) 0.5842(3) 0.0540 Uani
C9 C 0.3031(4) 0.5802(5) 0.5996(4) 0.0850 Uani
H11 H 0.3339 0.5939 0.6196 0.1020 Uiso
C10 C 0.2590(5) 0.6158(4) 0.5859(4) 0.0967 Uani
H12 H 0.2635 0.6538 0.5943 0.1160 Uiso
C11 C 0.2103(3) 0.6003(4) 0.5616(3) 0.0593 Uani
C12 C 0.2109(4) 0.5439(5) 0.5479(4) 0.0843 Uani
H13 H 0.1786 0.5295 0.5308 0.1010 Uiso
C13 C 0.2537(4) 0.5074(4) 0.5569(4) 0.0710 Uani
H14 H 0.2511 0.4702 0.5448 0.0850 Uiso
C14 C 0.1652(4) 0.6389(4) 0.5505(4) 0.0883 Uani
C15 C 0.1611(4) 0.6855(4) 0.5748(4) 0.0883 Uani
H15 H 0.1899 0.6964 0.5991 0.1060 Uiso
C16 C 0.1171(4) 0.7210(3) 0.5676(4) 0.0883 Uani
H16 H 0.1118 0.7516 0.5915 0.1060 Uiso
C17 C 0.0799(4) 0.7104(4) 0.5234(4) 0.0883 Uani
C18 C 0.0889(4) 0.6640(3) 0.4919(4) 0.0883 Uani
H17 H 0.0660 0.6570 0.4607 0.1060 Uiso
C19 C 0.1311(3) 0.6268(3) 0.5050(4) 0.0883 Uani
H18 H 0.1366 0.5943 0.4838 0.1060 Uiso
C20 C 0.0333(3) 0.7504(4) 0.5146(4) 0.0563 Uani
C21 C -0.0053(4) 0.7405(3) 0.4710(4) 0.0630 Uani
H19 H 0.0007 0.7089 0.4484 0.0760 Uiso
C22 C -0.0507(4) 0.7733(4) 0.4591(4) 0.0640 Uani
C23 C -0.0878(4) 0.7599(4) 0.4132(4) 0.0710 Uani
C24 C -0.0806(5) 0.8040(5) 0.3707(4) 0.1197 Uani
H20 H -0.0849 0.8403 0.3881 0.1800 Uiso
H21 H -0.1085 0.7995 0.3417 0.1800 Uiso
H22 H -0.0437 0.8012 0.3544 0.1800 Uiso
C25 C -0.1475(4) 0.7617(3) 0.4382(4) 0.0937 Uani
H23 H -0.1544 0.7983 0.4541 0.1400 Uiso
H24 H -0.1510 0.7336 0.4670 0.1400 Uiso
H25 H -0.1746 0.7544 0.4089 0.1400 Uiso
C26 C -0.0754(4) 0.7028(4) 0.3874(4) 0.0873 Uani
H26 H -0.1053 0.6926 0.3621 0.1310 Uiso
H27 H -0.0724 0.6751 0.4168 0.1310 Uiso
H28 H -0.0404 0.7046 0.3670 0.1310 Uiso
C27 C 0.5483(3) 0.5613(4) 0.6222(3) 0.0637 Uani
H29 H 0.5256 0.5894 0.6415 0.0760 Uiso
H30 H 0.5674 0.5389 0.6507 0.0760 Uiso
C28 C 0.4824(3) 0.5588(3) 0.5452(3) 0.0433 Uani
H31 H 0.4595 0.5349 0.5213 0.0520 Uiso
H32 H 0.4578 0.5860 0.5633 0.0520 Uiso
N1 N 0.5109(2) 0.5241(3) 0.5885(2) 0.0443 Uani
N2 N 0.5886(2) 0.5886(2) 0.5886(2) 0.0440 Uani
O1 O 0.4398(2) 0.4142(2) 0.6057(2) 0.0680 Uani
O2 O 0.3849(2) 0.51142(19) 0.6252(2) 0.0537 Uani
O3 O 0.03327(18) 0.7921(2) 0.5438(2) 0.0533 Uani
O4 O -0.06041(19) 0.8181(2) 0.4847(2) 0.0540 Uani
Cu1 Cu 0.45256(4) 0.47829(4) 0.65056(4) 0.0542 Uani
C1D C 0.5027(4) 0.4390(5) 0.3529(4) 0.1373 Uani
C1E C 0.3529(4) 0.5027(4) 0.4390(5) 0.1373 Uani
H1D H 0.5139 0.4703 0.3760 0.2070 Uiso
H1E H 0.3760 0.5139 0.4703 0.2070 Uiso
H2D H 0.4710 0.4203 0.3699 0.2070 Uiso
H2E H 0.3699 0.4710 0.4203 0.2070 Uiso
H3D H 0.4923 0.4525 0.3161 0.2070 Uiso
H3E H 0.3161 0.4923 0.4525 0.2070 Uiso
C2D C 0.5323(6) 0.3415(5) 0.3296(4) 0.1940 Uani
C2E C 0.3296(4) 0.5323(6) 0.3415(5) 0.1940 Uani
H4D H 0.4953 0.3333 0.3438 0.2910 Uiso
H4E H 0.3438 0.4953 0.3333 0.2910 Uiso
H5D H 0.5586 0.3145 0.3441 0.2910 Uiso
H5E H 0.3441 0.5586 0.3145 0.2910 Uiso
H6D H 0.5319 0.3396 0.2892 0.2910 Uiso
H6E H 0.2892 0.5319 0.3396 0.2910 Uiso
C3D C 0.5859(5) 0.4233(5) 0.3064(4) 0.1370 Uani
C3E C 0.3064(4) 0.5859(5) 0.4233(5) 0.1370 Uani
H7D H 0.5657 0.4274 0.2715 0.2050 Uiso
H7E H 0.2715 0.5657 0.4274 0.2050 Uiso
H8D H 0.6177 0.3989 0.3008 0.2050 Uiso
H8E H 0.3008 0.6177 0.3989 0.2050 Uiso
H9D H 0.5988 0.4595 0.3189 0.2050 Uiso
H9E H 0.3189 0.5988 0.4595 0.2050 Uiso
C4D C 0.5495(4) 0.3996(3) 0.3478(4) 0.0657 Uani
C4E C 0.3478(4) 0.5495(4) 0.3996(3) 0.0657 Uani
C5D C 0.5787(4) 0.3955(4) 0.4030(3) 0.0657 Uani
C5E C 0.4030(3) 0.5787(4) 0.3955(4) 0.0657 Uani
C6D C 0.5754(3) 0.3510(3) 0.4396(3) 0.0657 Uani
C6E C 0.4396(3) 0.5754(3) 0.3510(3) 0.0657 Uani
H10D H 0.5569 0.3191 0.4262 0.0790 Uiso
H10E H 0.4262 0.5569 0.3191 0.0790 Uiso
C7D C 0.5951(4) 0.3476(4) 0.4912(4) 0.0657 Uani
C7E C 0.4912(4) 0.5951(4) 0.3476(4) 0.0657 Uani
C8D C 0.5842(3) 0.3013(3) 0.5262(4) 0.0540 Uani
C8E C 0.5262(4) 0.5842(3) 0.3013(3) 0.0540 Uani
C9D C 0.5996(4) 0.3031(4) 0.5802(5) 0.0850 Uani
C9E C 0.5802(5) 0.5996(4) 0.3031(4) 0.0850 Uani
H11D H 0.6196 0.3339 0.5939 0.1020 Uiso
H11E H 0.5939 0.6196 0.3339 0.1020 Uiso
C10D C 0.5859(4) 0.2590(5) 0.6158(4) 0.0967 Uani
C10E C 0.6158(4) 0.5859(4) 0.2590(5) 0.0967 Uani
H12D H 0.5943 0.2635 0.6538 0.1160 Uiso
H12E H 0.6538 0.5943 0.2635 0.1160 Uiso
C11D C 0.5616(3) 0.2103(3) 0.6003(4) 0.0593 Uani
C11E C 0.6003(4) 0.5616(3) 0.2103(3) 0.0593 Uani
C12D C 0.5479(4) 0.2109(4) 0.5439(5) 0.0843 Uani
C12E C 0.5439(5) 0.5479(4) 0.2109(4) 0.0843 Uani
H13D H 0.5308 0.1786 0.5295 0.1010 Uiso
H13E H 0.5295 0.5308 0.1786 0.1010 Uiso
C13D C 0.5569(4) 0.2537(4) 0.5074(4) 0.0710 Uani
C13E C 0.5074(4) 0.5569(4) 0.2537(4) 0.0710 Uani
H14D H 0.5448 0.2511 0.4702 0.0850 Uiso
H14E H 0.4702 0.5448 0.2511 0.0850 Uiso
C14D C 0.5505(4) 0.1652(4) 0.6389(4) 0.0883 Uani
C14E C 0.6389(4) 0.5505(4) 0.1652(4) 0.0883 Uani
C15D C 0.5748(4) 0.1611(4) 0.6855(4) 0.0883 Uani
C15E C 0.6855(4) 0.5748(4) 0.1611(4) 0.0883 Uani
H15D H 0.5991 0.1899 0.6964 0.1060 Uiso
H15E H 0.6964 0.5991 0.1899 0.1060 Uiso
C16D C 0.5676(4) 0.1171(4) 0.7210(3) 0.0883 Uani
C16E C 0.7210(3) 0.5676(4) 0.1171(4) 0.0883 Uani
H16D H 0.5915 0.1118 0.7516 0.1060 Uiso
H16E H 0.7516 0.5915 0.1118 0.1060 Uiso
C17D C 0.5234(4) 0.0799(4) 0.7104(4) 0.0883 Uani
C17E C 0.7104(4) 0.5234(4) 0.0799(4) 0.0883 Uani
C18D C 0.4919(4) 0.0889(4) 0.6640(3) 0.0883 Uani
C18E C 0.6640(3) 0.4919(4) 0.0889(4) 0.0883 Uani
H17D H 0.4607 0.0660 0.6570 0.1060 Uiso
H17E H 0.6570 0.4607 0.0660 0.1060 Uiso
C19D C 0.5050(4) 0.1311(3) 0.6268(3) 0.0883 Uani
C19E C 0.6268(3) 0.5050(4) 0.1311(3) 0.0883 Uani
H18D H 0.4838 0.1366 0.5943 0.1060 Uiso
H18E H 0.5943 0.4838 0.1366 0.1060 Uiso
C20D C 0.5146(4) 0.0333(3) 0.7504(4) 0.0563 Uani
C20E C 0.7504(4) 0.5146(4) 0.0333(3) 0.0563 Uani
C21D C 0.4710(4) -0.0053(4) 0.7405(3) 0.0630 Uani
C21E C 0.7405(3) 0.4710(4) -0.0053(4) 0.0630 Uani
H19D H 0.4484 0.0007 0.7089 0.0760 Uiso
H19E H 0.7089 0.4484 0.0007 0.0760 Uiso
C22D C 0.4591(4) -0.0507(4) 0.7733(4) 0.0640 Uani
C22E C 0.7733(4) 0.4591(4) -0.0507(4) 0.0640 Uani
C23D C 0.4132(4) -0.0878(4) 0.7599(4) 0.0710 Uani
C23E C 0.7599(4) 0.4132(4) -0.0878(4) 0.0710 Uani
C24D C 0.3707(4) -0.0806(5) 0.8040(5) 0.1197 Uani
C24E C 0.8040(5) 0.3707(4) -0.0806(5) 0.1197 Uani
H20D H 0.3881 -0.0849 0.8403 0.1800 Uiso
H20E H 0.8403 0.3881 -0.0849 0.1800 Uiso
H21D H 0.3417 -0.1085 0.7995 0.1800 Uiso
H21E H 0.7995 0.3417 -0.1085 0.1800 Uiso
H22D H 0.3544 -0.0437 0.8012 0.1800 Uiso
H22E H 0.8012 0.3544 -0.0437 0.1800 Uiso
C25D C 0.4382(4) -0.1475(4) 0.7617(3) 0.0937 Uani
C25E C 0.7617(3) 0.4382(4) -0.1475(4) 0.0937 Uani
H23D H 0.4541 -0.1544 0.7983 0.1400 Uiso
H23E H 0.7983 0.4541 -0.1544 0.1400 Uiso
H24D H 0.4670 -0.1510 0.7336 0.1400 Uiso
H24E H 0.7336 0.4670 -0.1510 0.1400 Uiso
H25D H 0.4089 -0.1746 0.7544 0.1400 Uiso
H25E H 0.7544 0.4089 -0.1746 0.1400 Uiso
C26D C 0.3874(4) -0.0754(4) 0.7028(4) 0.0873 Uani
C26E C 0.7028(4) 0.3874(4) -0.0754(4) 0.0873 Uani
H26D H 0.3621 -0.1053 0.6926 0.1310 Uiso
H26E H 0.6926 0.3621 -0.1053 0.1310 Uiso
H27D H 0.4168 -0.0724 0.6751 0.1310 Uiso
H27E H 0.6751 0.4168 -0.0724 0.1310 Uiso
H28D H 0.3670 -0.0404 0.7046 0.1310 Uiso
H28E H 0.7046 0.3670 -0.0404 0.1310 Uiso
C27D C 0.6222(3) 0.5483(3) 0.5613(4) 0.0637 Uani
C27E C 0.5613(4) 0.6222(3) 0.5483(3) 0.0637 Uani
H29D H 0.6415 0.5256 0.5894 0.0760 Uiso
H29E H 0.5894 0.6415 0.5256 0.0760 Uiso
H30D H 0.6507 0.5674 0.5389 0.0760 Uiso
H30E H 0.5389 0.6507 0.5674 0.0760 Uiso
C28D C 0.5452(3) 0.4824(3) 0.5588(3) 0.0433 Uani
C28E C 0.5588(3) 0.5452(3) 0.4824(3) 0.0433 Uani
H31D H 0.5213 0.4595 0.5349 0.0520 Uiso
H31E H 0.5349 0.5213 0.4595 0.0520 Uiso
H32D H 0.5633 0.4578 0.5860 0.0520 Uiso
H32E H 0.5860 0.5633 0.4578 0.0520 Uiso
N1D N 0.5885(2) 0.5109(2) 0.5241(3) 0.0443 Uani
N1E N 0.5241(3) 0.5885(2) 0.5109(2) 0.0443 Uani
O1D O 0.6057(2) 0.4398(2) 0.4142(2) 0.0680 Uani
O1E O 0.4142(2) 0.6057(2) 0.4398(2) 0.0680 Uani
O2D O 0.6252(2) 0.3849(2) 0.51142(19) 0.0537 Uani
O2E O 0.51142(19) 0.6252(2) 0.3849(2) 0.0537 Uani
O3D O 0.5438(2) 0.03327(18) 0.7921(2) 0.0533 Uani
O3E O 0.7921(2) 0.5438(2) 0.03327(18) 0.0533 Uani
O3B O 0.53327(18) 0.7079(2) 0.4562(2) 0.0533 Uani
O3I O 0.7079(2) 0.4562(2) 0.53327(18) 0.0533 Uani
O3J O 0.4562(2) 0.53327(18) 0.7079(2) 0.0533 Uani
O4D O 0.4847(2) -0.06041(19) 0.8181(2) 0.0540 Uani
O4E O 0.8181(2) 0.4847(2) -0.06041(19) 0.0540 Uani
O4B O 0.43959(19) 0.6819(2) 0.5153(2) 0.0540 Uani
O4I O 0.6819(2) 0.5153(2) 0.43959(19) 0.0540 Uani
O4J O 0.5153(2) 0.43959(19) 0.6819(2) 0.0540 Uani
Cu1D Cu 0.65056(4) 0.45256(4) 0.47829(4) 0.0542 Uani
Cu1E Cu 0.47829(4) 0.65056(4) 0.45256(4) 0.0542 Uani
Cu1C Cu 0.54744(4) -0.02171(4) 0.84944(4) 0.0542 Uani
Cu1F Cu 0.84944(4) 0.54744(4) -0.02171(4) 0.0542 Uani
Cu1K Cu -0.02171(4) 0.84944(4) 0.54744(4) 0.0542 Uani
loop_
_atom_site_aniso_label
_atom_site_aniso_U_11
_atom_site_aniso_U_22
_atom_site_aniso_U_33
_atom_site_aniso_U_23
_atom_site_aniso_U_13
_atom_site_aniso_U_12
C1 0.163(11) 0.110(9) 0.139(10) -0.049(8) 0.023(10) 0.067(9)
C2 0.185(14) 0.118(10) 0.279(18) -0.124(11) -0.112(13) 0.095(10)
C3 0.156(12) 0.059(7) 0.196(13) -0.010(8) 0.000(10) 0.016(8)
C4 0.038(3) 0.058(3) 0.101(4) -0.021(3) -0.012(3) 0.002(3)
C5 0.038(3) 0.058(3) 0.101(4) -0.021(3) -0.012(3) 0.002(3)
C6 0.038(3) 0.058(3) 0.101(4) -0.021(3) -0.012(3) 0.002(3)
C7 0.038(3) 0.058(3) 0.101(4) -0.021(3) -0.012(3) 0.002(3)
C8 0.040(6) 0.043(7) 0.079(7) -0.008(5) 0.011(5) -0.009(5)
C9 0.045(7) 0.065(8) 0.145(10) 0.001(7) -0.014(6) 0.004(6)
C10 0.119(10) 0.030(6) 0.141(10) -0.010(6) 0.004(8) 0.003(7)
C11 0.037(6) 0.077(8) 0.064(6) -0.026(5) -0.010(5) -0.037(6)
C12 0.081(8) 0.072(7) 0.100(8) -0.026(7) -0.034(6) -0.022(7)
C13 0.058(6) 0.060(6) 0.095(8) -0.009(6) -0.015(6) 0.015(6)
C14 0.074(3) 0.068(3) 0.123(4) -0.022(3) -0.042(3) 0.026(3)
C15 0.074(3) 0.068(3) 0.123(4) -0.022(3) -0.042(3) 0.026(3)
C16 0.074(3) 0.068(3) 0.123(4) -0.022(3) -0.042(3) 0.026(3)
C17 0.074(3) 0.068(3) 0.123(4) -0.022(3) -0.042(3) 0.026(3)
C18 0.074(3) 0.068(3) 0.123(4) -0.022(3) -0.042(3) 0.026(3)
C19 0.074(3) 0.068(3) 0.123(4) -0.022(3) -0.042(3) 0.026(3)
C20 0.059(7) 0.037(5) 0.073(7) -0.017(5) -0.004(6) -0.011(5)
C21 0.064(7) 0.051(6) 0.074(7) -0.022(5) 0.001(6) 0.001(6)
C22 0.065(7) 0.040(6) 0.087(8) 0.001(6) -0.023(6) 0.012(6)
C23 0.083(8) 0.060(7) 0.070(7) -0.025(6) -0.035(7) -0.001(6)
C24 0.165(11) 0.121(9) 0.073(7) 0.034(7) -0.036(7) -0.013(8)
C25 0.058(6) 0.070(6) 0.153(9) -0.013(6) -0.015(7) -0.001(6)
C26 0.084(7) 0.080(7) 0.098(8) -0.020(6) -0.020(6) 0.004(6)
C27 0.055(5) 0.089(7) 0.047(5) -0.003(5) -0.007(5) 0.019(6)
C28 0.047(5) 0.032(4) 0.051(5) -0.001(4) 0.012(5) -0.003(5)
N1 0.041(4) 0.044(4) 0.048(4) -0.018(4) 0.002(4) 0.001(4)
N2 0.044(3) 0.044(3) 0.044(3) 0.002(4) 0.002(4) 0.002(4)
O1 0.057(4) 0.047(3) 0.100(4) -0.007(3) 0.005(4) 0.022(3)
O2 0.038(3) 0.042(3) 0.081(4) -0.003(3) 0.016(3) 0.014(3)
O3 0.054(4) 0.049(3) 0.057(3) 0.002(3) -0.007(3) -0.003(3)
O4 0.053(4) 0.046(4) 0.063(4) 0.008(3) -0.019(3) 0.000(3)
Cu1 0.0514(7) 0.0519(7) 0.0594(7) -0.0007(6) 0.0059(6) 0.0069(5)
C1D 0.139 0.163 0.11 0.067 -0.049 0.023
C1E 0.11 0.139 0.163 0.023 0.067 -0.049
C2D 0.279 0.185 0.118 0.095 -0.124 -0.112
C2E 0.118 0.279 0.185 -0.112 0.095 -0.124
C3D 0.196 0.156 0.059 0.016 -0.01 0
C3E 0.059 0.196 0.156 0 0.016 -0.01
C4D 0.101 0.038 0.058 0.002 -0.021 -0.012
C4E 0.058 0.101 0.038 -0.012 0.002 -0.021
C5D 0.101 0.038 0.058 0.002 -0.021 -0.012
C5E 0.058 0.101 0.038 -0.012 0.002 -0.021
C6D 0.101 0.038 0.058 0.002 -0.021 -0.012
C6E 0.058 0.101 0.038 -0.012 0.002 -0.021
C7D 0.101 0.038 0.058 0.002 -0.021 -0.012
C7E 0.058 0.101 0.038 -0.012 0.002 -0.021
C8D 0.079 0.04 0.043 -0.009 -0.008 0.011
C8E 0.043 0.079 0.04 0.011 -0.009 -0.008
C9D 0.145 0.045 0.065 0.004 0.001 -0.014
C9E 0.065 0.145 0.045 -0.014 0.004 0.001
C10D 0.141 0.119 0.03 0.003 -0.01 0.004
C10E 0.03 0.141 0.119 0.004 0.003 -0.01
C11D 0.064 0.037 0.077 -0.037 -0.026 -0.01
C11E 0.077 0.064 0.037 -0.01 -0.037 -0.026
C12D 0.1 0.081 0.072 -0.022 -0.026 -0.034
C12E 0.072 0.1 0.081 -0.034 -0.022 -0.026
C13D 0.095 0.058 0.06 0.015 -0.009 -0.015
C13E 0.06 0.095 0.058 -0.015 0.015 -0.009
C14D 0.123 0.074 0.068 0.026 -0.022 -0.042
C14E 0.068 0.123 0.074 -0.042 0.026 -0.022
C15D 0.123 0.074 0.068 0.026 -0.022 -0.042
C15E 0.068 0.123 0.074 -0.042 0.026 -0.022
C16D 0.123 0.074 0.068 0.026 -0.022 -0.042
C16E 0.068 0.123 0.074 -0.042 0.026 -0.022
C17D 0.123 0.074 0.068 0.026 -0.022 -0.042
C17E 0.068 0.123 0.074 -0.042 0.026 -0.022
C18D 0.123 0.074 0.068 0.026 -0.022 -0.042
C18E 0.068 0.123 0.074 -0.042 0.026 -0.022
C19D 0.123 0.074 0.068 0.026 -0.022 -0.042
C19E 0.068 0.123 0.074 -0.042 0.026 -0.022
C20D 0.073 0.059 0.037 -0.011 -0.017 -0.004
C20E 0.037 0.073 0.059 -0.004 -0.011 -0.017
C21D 0.074 0.064 0.051 0.001 -0.022 0.001
C21E 0.051 0.074 0.064 0.001 0.001 -0.022
C22D 0.087 0.065 0.04 0.012 0.001 -0.023
C22E 0.04 0.087 0.065 -0.023 0.012 0.001
C23D 0.07 0.083 0.06 -0.001 -0.025 -0.035
C23E 0.06 0.07 0.083 -0.035 -0.001 -0.025
C24D 0.073 0.165 0.121 -0.013 0.034 -0.036
C24E 0.121 0.073 0.165 -0.036 -0.013 0.034
C25D 0.153 0.058 0.07 -0.001 -0.013 -0.015
C25E 0.07 0.153 0.058 -0.015 -0.001 -0.013
C26D 0.098 0.084 0.08 0.004 -0.02 -0.02
C26E 0.08 0.098 0.084 -0.02 0.004 -0.02
C27D 0.047 0.055 0.089 0.019 -0.003 -0.007
C27E 0.089 0.047 0.055 -0.007 0.019 -0.003
C28D 0.051 0.047 0.032 -0.003 -0.001 0.012
C28E 0.032 0.051 0.047 0.012 -0.003 -0.001
N1D 0.048 0.041 0.044 0.001 -0.018 0.002
N1E 0.044 0.048 0.041 0.002 0.001 -0.018
O1D 0.1 0.057 0.047 0.022 -0.007 0.005
O1E 0.047 0.1 0.057 0.005 0.022 -0.007
O2D 0.081 0.038 0.042 0.014 -0.003 0.016
O2E 0.042 0.081 0.038 0.016 0.014 -0.003
O3D 0.057 0.054 0.049 -0.003 0.002 -0.007
O3E 0.049 0.057 0.054 -0.007 -0.003 0.002
O3B 0.054 0.049 0.057 0.002 0.007 0.003
O3I 0.049 0.057 0.054 0.007 0.003 0.002
O3J 0.057 0.054 0.049 0.003 0.002 0.007
O4D 0.063 0.053 0.046 0 0.008 -0.019
O4E 0.046 0.063 0.053 -0.019 0 0.008
O4B 0.053 0.046 0.063 0.008 0.019 0
O4I 0.046 0.063 0.053 0.019 0 0.008
O4J 0.063 0.053 0.046 0 0.008 0.019
Cu1D 0.0594 0.0514 0.0519 0.0069 -0.0007 0.0059
Cu1E 0.0519 0.0594 0.0514 0.0059 0.0069 -0.0007
Cu1C 0.0514 0.0519 0.0594 0.0007 0.0059 -0.0069
Cu1F 0.0594 0.0514 0.0519 -0.0069 0.0007 0.0059
Cu1K 0.0519 0.0594 0.0514 0.0059 -0.0069 0.0007
loop_
_geom_bond_atom_site_label_1
_geom_bond_atom_site_label_2
_geom_bond_site_symmetry_1
_geom_bond_site_symmetry_2
C1 H1 1_555 1_555
H2 C1 1_555 1_555
H3 C1 1_555 1_555
C2 H4 1_555 1_555
H5 C2 1_555 1_555
H6 C2 1_555 1_555
C3 H7 1_555 1_555
H8 C3 1_555 1_555
H9 C3 1_555 1_555
C4 C1 1_555 1_555
C5 C4 1_555 1_555
C6 C5 1_555 1_555
H10 C6 1_555 1_555
C7 C6 1_555 1_555
C8 C7 1_555 1_555
C9 C8 1_555 1_555
H11 C9 1_555 1_555
C10 C9 1_555 1_555
H12 C10 1_555 1_555
C11 C10 1_555 1_555
C12 C11 1_555 1_555
H13 C12 1_555 1_555
C13 C8 1_555 1_555
H14 C13 1_555 1_555
C14 C11 1_555 1_555
C15 C14 1_555 1_555
H15 C15 1_555 1_555
C16 C15 1_555 1_555
H16 C16 1_555 1_555
C17 C16 1_555 1_555
C18 C17 1_555 1_555
H17 C18 1_555 1_555
C19 C14 1_555 1_555
H18 C19 1_555 1_555
C20 C17 1_555 1_555
C21 C20 1_555 1_555
H19 C21 1_555 1_555
C22 C21 1_555 1_555
C23 C22 1_555 1_555
C24 C23 1_555 1_555
H20 C24 1_555 1_555
H21 C24 1_555 1_555
H22 C24 1_555 1_555
C25 C23 1_555 1_555
H23 C25 1_555 1_555
H24 C25 1_555 1_555
H25 C25 1_555 1_555
C26 C23 1_555 1_555
H26 C26 1_555 1_555
H27 C26 1_555 1_555
H28 C26 1_555 1_555
C27 H29 1_555 1_555
H30 C27 1_555 1_555
C28 H31 1_555 1_555
H32 C28 1_555 1_555
N1 C27 1_555 1_555
N2 C27 1_555 1_555
O1 C5 1_555 1_555
O2 C7 1_555 1_555
O3 C20 1_555 1_555
O4 C22 1_555 1_555
Cu1 N1 1_555 1_555
C1D H1D 1_555 1_555
C1E H1E 1_555 1_555
H2D C1D 1_555 1_555
H2E C1E 1_555 1_555
H3D C1D 1_555 1_555
H3E C1E 1_555 1_555
C2D H4D 1_555 1_555
C2E H4E 1_555 1_555
H5D C2D 1_555 1_555
H5E C2E 1_555 1_555
H6D C2D 1_555 1_555
H6E C2E 1_555 1_555
C3D H7D 1_555 1_555
C3E H7E 1_555 1_555
H8D C3D 1_555 1_555
H8E C3E 1_555 1_555
H9D C3D 1_555 1_555
H9E C3E 1_555 1_555
C4D C1D 1_555 1_555
C4E C1E 1_555 1_555
C5D C4D 1_555 1_555
C5E C4E 1_555 1_555
C6D C5D 1_555 1_555
C6E C5E 1_555 1_555
H10D C6D 1_555 1_555
H10E C6E 1_555 1_555
C7D C6D 1_555 1_555
C7E C6E 1_555 1_555
C8D C7D 1_555 1_555
C8E C7E 1_555 1_555
C9D C8D 1_555 1_555
C9E C8E 1_555 1_555
H11D C9D 1_555 1_555
H11E C9E 1_555 1_555
C10D C9D 1_555 1_555
C10E C9E 1_555 1_555
H12D C10D 1_555 1_555
H12E C10E 1_555 1_555
C11D C10D 1_555 1_555
C11E C10E 1_555 1_555
C12D C11D 1_555 1_555
C12E C11E 1_555 1_555
H13D C12D 1_555 1_555
H13E C12E 1_555 1_555
C13D C8D 1_555 1_555
C13E C8E 1_555 1_555
H14D C13D 1_555 1_555
H14E C13E 1_555 1_555
C14D C11D 1_555 1_555
C14E C11E 1_555 1_555
C15D C14D 1_555 1_555
C15E C14E 1_555 1_555
H15D C15D 1_555 1_555
H15E C15E 1_555 1_555
C16D C15D 1_555 1_555
C16E C15E 1_555 1_555
H16D C16D 1_555 1_555
H16E C16E 1_555 1_555
C17D C16D 1_555 1_555
C17E C16E 1_555 1_555
C18D C17D 1_555 1_555
C18E C17E 1_555 1_555
H17D C18D 1_555 1_555
H17E C18E 1_555 1_555
C19D C14D 1_555 1_555
C19E C14E 1_555 1_555
H18D C19D 1_555 1_555
H18E C19E 1_555 1_555
C20D C17D 1_555 1_555
C20E C17E 1_555 1_555
C21D C20D 1_555 1_555
C21E C20E 1_555 1_555
H19D C21D 1_555 1_555
H19E C21E 1_555 1_555
C22D C21D 1_555 1_555
C22E C21E 1_555 1_555
C23D C22D 1_555 1_555
C23E C22E 1_555 1_555
C24D C23D 1_555 1_555
C24E C23E 1_555 1_555
H20D C24D 1_555 1_555
H20E C24E 1_555 1_555
H21D C24D 1_555 1_555
H21E C24E 1_555 1_555
H22D C24D 1_555 1_555
H22E C24E 1_555 1_555
C25D C23D 1_555 1_555
C25E C23E 1_555 1_555
H23D C25D 1_555 1_555
H23E C25E 1_555 1_555
H24D C25D 1_555 1_555
H24E C25E 1_555 1_555
H25D C25D 1_555 1_555
H25E C25E 1_555 1_555
C26D C23D 1_555 1_555
C26E C23E 1_555 1_555
H26D C26D 1_555 1_555
H26E C26E 1_555 1_555
H27D C26D 1_555 1_555
H27E C26E 1_555 1_555
H28D C26D 1_555 1_555
H28E C26E 1_555 1_555
C27D N2 1_555 1_555
C27E N2 1_555 1_555
H29D C27D 1_555 1_555
H29E C27E 1_555 1_555
H30D C27D 1_555 1_555
H30E C27E 1_555 1_555
C28D N1 1_555 1_555
C28E H31E 1_555 1_555
H31D C28D 1_555 1_555
H32D C28D 1_555 1_555
H32E C28E 1_555 1_555
N1D C27D 1_555 1_555
N1E C28 1_555 1_555
O1D C5D 1_555 1_555
O1E C5E 1_555 1_555
O2D C7D 1_555 1_555
O2E C7E 1_555 1_555
O3D C20D 1_555 1_555
O3E C20E 1_555 1_555
O3B Cu1E 1_555 1_555
O3I Cu1D 1_555 1_555
O3J Cu1 1_555 1_555
O4D C22D 1_555 1_555
O4E C22E 1_555 1_555
O4B Cu1E 1_555 1_555
O4I Cu1D 1_555 1_555
O4J Cu1 1_555 1_555
Cu1D N1D 1_555 1_555
Cu1E N1E 1_555 1_555
Cu1C O3D 1_555 1_555
Cu1F O3E 1_555 1_555
Cu1K O3 1_555 1_555
C2 C4 1_555 1_555
C3 C4 1_555 1_555
C12 C13 1_555 1_555
C18 C19 1_555 1_555
C28 N1 1_555 1_555
O1 Cu1 1_555 1_555
O2 Cu1 1_555 1_555
O4 Cu1K 1_555 1_555
C2D C4D 1_555 1_555
C2E C4E 1_555 1_555
C3D C4D 1_555 1_555
C3E C4E 1_555 1_555
C12D C13D 1_555 1_555
C12E C13E 1_555 1_555
C18D C19D 1_555 1_555
C18E C19E 1_555 1_555
C27E N1E 1_555 1_555
C28D N1D 1_555 1_555
C28E N1D 1_555 1_555
C28E N1E 1_555 1_555
O1D Cu1D 1_555 1_555
O1E Cu1E 1_555 1_555
O2D Cu1D 1_555 1_555
O2E Cu1E 1_555 1_555
O4D Cu1C 1_555 1_555
O4E Cu1F 1_555 1_555

#END
