
#######################################################################
#
#                 Cambridge Crystallographic Data Centre
#                                CCDC 
#
#######################################################################
#
# If this CIF has been generated from an entry in the Cambridge 
# Structural Database, then it will include bibliographic, chemical, 
# crystal, experimental, refinement or atomic coordinate data resulting 
# from the CCDC's data processing and validation procedures.
#
#######################################################################

data_KACZEV
_chemical_formula_moiety         '(C120 H75 In9 N18 O42)n,14n(H2 O1)'
_chemical_name_systematic        
"catena-(hexakis(\m~4~-Azobenzene-4,4'-dicarboxylato)-hexakis(\m~3~-isonicotinato)-tris(\m~3~-oxo)-trihydroxy-nona-indium tetradecahydrate)"
_symmetry_cell_setting           cubic
_symmetry_space_group_name_H-M   'I -4 3 d'
_symmetry_Int_Tables_number      220
_space_group_name_Hall           'I -4bd 2c 3'
loop_
_symmetry_equiv_pos_site_id
_symmetry_equiv_pos_as_xyz
1 x,y,z
2 1/2-x,-y,1/2+z
3 -x,1/2+y,1/2-z
4 1/2+x,1/2-y,-z
5 z,x,y
6 1/2+z,1/2-x,-y
7 1/2-z,-x,1/2+y
8 -z,1/2+x,1/2-y
9 y,z,x
10 -y,1/2+z,1/2-x
11 1/2+y,1/2-z,-x
12 1/2-y,-z,1/2+x
13 1/4+y,1/4+x,1/4+z
14 1/4-y,3/4-x,3/4+z
15 3/4+y,1/4-x,3/4-z
16 3/4-y,3/4+x,1/4-z
17 1/4+x,1/4+z,1/4+y
18 3/4-x,3/4+z,1/4-y
19 1/4-x,3/4-z,3/4+y
20 3/4+x,1/4-z,3/4-y
21 1/4+z,1/4+y,1/4+x
22 3/4+z,1/4-y,3/4-x
23 3/4-z,3/4+y,1/4-x
24 1/4-z,3/4-y,3/4+x
25 1/2+x,1/2+y,1/2+z
26 -x,1/2-y,z
27 1/2-x,y,-z
28 x,-y,1/2-z
29 1/2+z,1/2+x,1/2+y
30 z,-x,1/2-y
31 -z,1/2-x,y
32 1/2-z,x,-y
33 1/2+y,1/2+z,1/2+x
34 1/2-y,z,-x
35 y,-z,1/2-x
36 -y,1/2-z,x
37 3/4+y,3/4+x,3/4+z
38 3/4-y,1/4-x,1/4+z
39 1/4+y,3/4-x,1/4-z
40 1/4-y,1/4+x,3/4-z
41 3/4+x,3/4+z,3/4+y
42 1/4-x,1/4+z,3/4-y
43 3/4-x,1/4-z,1/4+y
44 1/4+x,3/4-z,1/4-y
45 3/4+z,3/4+y,3/4+x
46 1/4+z,3/4-y,1/4-x
47 1/4-z,1/4+y,3/4-x
48 3/4-z,1/4-y,1/4+x
_cell_length_a                   38.771(5)
_cell_length_b                   38.771(5)
_cell_length_c                   38.771(5)
_cell_angle_alpha                90
_cell_angle_beta                 90
_cell_angle_gamma                90
_cell_volume                     58280.2
_exptl_crystal_colour            orange
_exptl_crystal_description       block
_cell_formula_units_Z            8
loop_
_atom_site_label
_atom_site_type_symbol
_atom_site_fract_x
_atom_site_fract_y
_atom_site_fract_z
_atom_site_U_iso_or_equiv
_atom_site_thermal_displace_type
In1 In 0.050022(13) 0.0000 0.2500 0.0242 Uani
In2 In 0.129919(9) 0.014742(9) 0.207622(9) 0.0225 Uani
O1 O 0.10274(13) 0.0000 0.2500 0.0250 Uani
O2 O 0.04732(11) 0.04952(11) 0.22200(11) 0.0433 Uani
O3 O 0.09683(12) -0.01218(12) 0.17224(11) 0.0490 Uani
O4 O 0.09994(12) 0.06210(10) 0.20111(12) 0.0450 Uani
O5 O 0.04120(12) -0.22078(11) -0.08520(12) 0.0483 Uani
N1 N 0.03198(13) 0.16067(12) 0.15862(13) 0.0337 Uani
O6 O 0.04827(12) -0.02648(12) 0.20020(12) 0.0497 Uani
C1 C 0.07828(17) 0.12594(16) 0.17975(16) 0.0403 Uani
H1 H 0.1019 0.1230 0.1829 0.0490 Uiso
C2 C 0.02073(17) 0.10671(16) 0.18458(16) 0.0430 Uani
H2 H 0.0046 0.0902 0.1911 0.0510 Uiso
O7 O -0.01441(11) -0.20525(12) -0.08219(11) 0.0453 Uani
C3 C 0.06860(17) -0.02774(17) 0.17477(15) 0.0390 Uani
C4 C 0.05821(19) -0.04892(18) 0.14425(18) 0.0527 Uani
C5 C 0.05583(15) 0.10103(15) 0.19034(14) 0.0337 Uani
C6 C 0.01681(14) -0.20387(15) -0.07267(15) 0.0330 Uani
C7 C 0.01022(18) 0.13660(15) 0.16937(16) 0.0427 Uani
H3 H -0.0133 0.1403 0.1664 0.0510 Uiso
O8 O -0.00324(17) 0.0000 0.2500 0.0573 Uani
C8 C 0.06850(15) 0.06827(15) 0.20612(15) 0.0343 Uani
C9 C 0.06579(18) 0.15559(16) 0.16438(16) 0.0450 Uani
H4 H 0.0813 0.1726 0.1578 0.0540 Uiso
C10 C 0.0245(2) -0.17977(19) -0.04400(19) 0.0533 Uani
C11 C 0.0395(3) -0.0884(3) 0.0875(2) 0.0887 Uani
C12 C -0.0005(2) -0.1635(3) -0.0261(2) 0.0897 Uani
H5 H -0.0234 -0.1671 -0.0324 0.1080 Uiso
N2 N 0.0517(2) -0.1169(2) 0.0402(2) 0.1053 Uani
C13 C 0.0395(3) -0.1368(2) 0.0109(3) 0.0867 Uani
C14 C 0.0804(2) -0.0538(3) 0.1174(2) 0.0880 Uani
H6 H 0.1027 -0.0449 0.1185 0.1060 Uiso
N3 N 0.0283(2) -0.1095(3) 0.0605(2) 0.1057 Uani
C15 C 0.0583(2) -0.1747(3) -0.0336(2) 0.0873 Uani
H7 H 0.0763 -0.1863 -0.0446 0.1050 Uiso
C16 C 0.0063(3) -0.1419(3) 0.0008(3) 0.1097 Uani
H8 H -0.0116 -0.1308 0.0122 0.1320 Uiso
C17 C 0.0650(3) -0.1521(3) -0.0066(3) 0.1117 Uani
H9 H 0.0878 -0.1476 -0.0005 0.1340 Uiso
C18 C 0.0261(3) -0.0652(3) 0.1430(2) 0.0947 Uani
H10 H 0.0109 -0.0641 0.1615 0.1130 Uiso
C19 C 0.0696(3) -0.0719(3) 0.0887(2) 0.1103 Uani
H11 H 0.0839 -0.0726 0.0695 0.1330 Uiso
C20 C 0.0180(3) -0.0828(3) 0.1136(3) 0.1110 Uani
H12 H -0.0042 -0.0916 0.1117 0.1330 Uiso
In1W In 0.0000 -0.2500 -0.199978(13) 0.0242 Uani
In1U In 0.0000 0.2500 0.699978(13) 0.0242 Uani
In1V In 0.5000 -0.2500 0.199978(13) 0.0242 Uani
In1D In 0.2500 0.050022(13) 0.0000 0.0242 Uani
In1T In 0.5000 0.2500 0.300022(13) 0.0242 Uani
In1F In 0.2500 -0.050022(13) 0.5000 0.0242 Uani
In1M In 0.2500 -0.300022(13) 0.0000 0.0242 Uani
In1B In -0.050022(13) -0.5000 0.2500 0.0242 Uani
In2AA In 0.129919(9) -0.014742(9) 0.292378(9) 0.0225 Uani
In2W In 0.042378(9) -0.264742(9) -0.120081(9) 0.0225 Uani
In2TA In 0.042378(9) 0.264742(9) 0.620081(9) 0.0225 Uani
In2H In 0.014742(9) 0.207622(9) 0.129919(9) 0.0225 Uani
In2HA In 0.014742(9) -0.207622(9) 0.370081(9) 0.0225 Uani
In2RA In -0.042378(9) -0.235258(9) -0.120081(9) 0.0225 Uani
In2U In -0.042378(9) 0.235258(9) 0.620081(9) 0.0225 Uani
In2SA In 0.457622(9) -0.264742(9) 0.120081(9) 0.0225 Uani
In2D In 0.207622(9) 0.129919(9) 0.014742(9) 0.0225 Uani
In2T In 0.457622(9) 0.264742(9) 0.379919(9) 0.0225 Uani
In2CA In 0.207622(9) -0.129919(9) 0.485258(9) 0.0225 Uani
In2Z In 0.370081(9) 0.014742(9) -0.207622(9) 0.0225 Uani
In2A In 0.370081(9) -0.014742(9) -0.292378(9) 0.0225 Uani
In2R In 0.120081(9) -0.457622(9) -0.235258(9) 0.0225 Uani
In2M In 0.235258(9) -0.379919(9) -0.042378(9) 0.0225 Uani
In2Y In -0.129919(9) -0.514742(9) 0.207622(9) 0.0225 Uani
O1W O 0.0000 -0.2500 -0.14726(13) 0.0250 Uani
O1U O 0.0000 0.2500 0.64726(13) 0.0250 Uani
O1H O 0.0000 0.2500 0.10274(13) 0.0250 Uani
O1I O 0.0000 -0.2500 0.39726(13) 0.0250 Uani
O2AA O 0.04732(11) -0.04952(11) 0.27800(11) 0.0433 Uani
O2D O 0.22200(11) 0.04732(11) 0.04952(11) 0.0433 Uani
O2CA O 0.22200(11) -0.04732(11) 0.45048(11) 0.0433 Uani
O2W O 0.02800(11) -0.29952(11) -0.20268(11) 0.0433 Uani
O2M O 0.20048(11) -0.29732(11) -0.02800(11) 0.0433 Uani
O2RA O -0.02800(11) -0.20048(11) -0.20268(11) 0.0433 Uani
O2TA O 0.02800(11) 0.29952(11) 0.70268(11) 0.0433 Uani
O2U O -0.02800(11) 0.20048(11) 0.70268(11) 0.0433 Uani
O3AA O 0.09683(12) 0.01218(12) 0.32776(11) 0.0490 Uani
O3SA O 0.42224(11) -0.23782(12) 0.15317(12) 0.0490 Uani
O3T O 0.42224(11) 0.23782(12) 0.34683(12) 0.0490 Uani
O3W O 0.07776(11) -0.23782(12) -0.15317(12) 0.0490 Uani
O3Y O -0.09683(12) -0.48782(12) 0.17224(11) 0.0490 Uani
O3TA O 0.07776(11) 0.23782(12) 0.65317(12) 0.0490 Uani
O3H O -0.01218(12) 0.17224(11) 0.09683(12) 0.0490 Uani
O3HA O -0.01218(12) -0.17224(11) 0.40317(12) 0.0490 Uani
O4AA O 0.09994(12) -0.06210(10) 0.29889(12) 0.0450 Uani
O4D O 0.20111(12) 0.09994(12) 0.06210(10) 0.0450 Uani
O4CA O 0.20111(12) -0.09994(12) 0.43790(10) 0.0450 Uani
O4W O 0.04889(12) -0.31210(10) -0.15006(12) 0.0450 Uani
O4M O 0.18790(10) -0.34994(12) -0.04889(12) 0.0450 Uani
O4TA O 0.04889(12) 0.31210(10) 0.65006(12) 0.0450 Uani
O4H O 0.06210(10) 0.20111(12) 0.09994(12) 0.0450 Uani
O4HA O 0.06210(10) -0.20111(12) 0.40006(12) 0.0450 Uani
O5AA O 0.04120(12) 0.22078(11) 0.58520(12) 0.0483 Uani
O5SA O 0.16480(12) -0.02922(11) 0.20880(12) 0.0483 Uani
O5T O 0.16480(12) 0.02922(11) 0.29120(12) 0.0483 Uani
O5W O 0.33520(12) -0.02922(11) -0.20880(12) 0.0483 Uani
O5Y O -0.04120(12) -0.27922(11) -0.08520(12) 0.0483 Uani
O5KA O -0.02922(11) 0.20880(12) 0.16480(12) 0.0483 Uani
O5O O -0.02922(11) -0.20880(12) 0.33520(12) 0.0483 Uani
N1AA N 0.03198(13) -0.16067(12) 0.34138(13) 0.0337 Uani
N1D N 0.15862(13) 0.03198(13) 0.16067(12) 0.0337 Uani
N1CA N 0.15862(13) -0.03198(13) 0.33933(12) 0.0337 Uani
N1W N 0.09138(13) -0.41067(12) -0.21802(13) 0.0337 Uani
N1M N 0.08933(12) -0.28198(13) -0.09138(13) 0.0337 Uani
N1MA N 0.08933(12) 0.28198(13) 0.59138(13) 0.0337 Uani
O6AA O 0.04827(12) 0.02648(12) 0.29980(12) 0.0497 Uani
O6SA O 0.45020(12) -0.22352(12) 0.20173(12) 0.0497 Uani
O6T O 0.45020(12) 0.22352(12) 0.29827(12) 0.0497 Uani
O6W O 0.04980(12) -0.22352(12) -0.20173(12) 0.0497 Uani
O6Y O -0.04827(12) -0.47352(12) 0.20020(12) 0.0497 Uani
O6RA O -0.04980(12) -0.27648(12) -0.20173(12) 0.0497 Uani
O6TA O 0.04980(12) 0.22352(12) 0.70173(12) 0.0497 Uani
O6U O -0.04980(12) 0.27648(12) 0.70173(12) 0.0497 Uani
C1AA C 0.07828(17) -0.12594(16) 0.32025(16) 0.0403 Uani
C1D C 0.17975(16) 0.07828(17) 0.12594(16) 0.0403 Uani
C1CA C 0.17975(16) -0.07828(17) 0.37406(16) 0.0403 Uani
C1W C 0.07025(16) -0.37594(16) -0.17172(17) 0.0403 Uani
C1M C 0.12406(16) -0.32828(17) -0.07025(16) 0.0403 Uani
H1AA H 0.1019 -0.1230 0.3171 0.0490 Uiso
H1D H 0.1829 0.1019 0.1230 0.0490 Uiso
H1CA H 0.1829 -0.1019 0.3770 0.0490 Uiso
H1W H 0.0671 -0.3730 -0.1481 0.0490 Uiso
H1M H 0.1270 -0.3519 -0.0671 0.0490 Uiso
C2AA C 0.02073(17) -0.10671(16) 0.31542(16) 0.0430 Uani
C2D C 0.18458(16) 0.02073(17) 0.10671(16) 0.0430 Uani
C2CA C 0.18458(16) -0.02073(17) 0.39329(16) 0.0430 Uani
C2W C 0.06542(16) -0.35671(16) -0.22927(17) 0.0430 Uani
C2M C 0.14329(16) -0.27073(17) -0.06542(16) 0.0430 Uani
H2AA H 0.0046 -0.0902 0.3089 0.0510 Uiso
H2D H 0.1911 0.0046 0.0902 0.0510 Uiso
H2CA H 0.1911 -0.0046 0.4098 0.0510 Uiso
H2W H 0.0589 -0.3402 -0.2454 0.0510 Uiso
H2M H 0.1598 -0.2546 -0.0589 0.0510 Uiso
O7AA O -0.01441(11) 0.20525(12) 0.58219(11) 0.0453 Uani
O7SA O 0.16781(11) -0.04475(12) 0.26441(11) 0.0453 Uani
O7T O 0.16781(11) 0.04475(12) 0.23559(11) 0.0453 Uani
O7W O 0.33219(11) -0.04475(12) -0.26441(11) 0.0453 Uani
O7Y O 0.01441(11) -0.29475(12) -0.08219(11) 0.0453 Uani
O7B O 0.01441(11) 0.29475(12) 0.58219(11) 0.0453 Uani
O7L O 0.04475(12) 0.23559(11) 0.16781(11) 0.0453 Uani
O7LA O 0.04475(12) -0.23559(11) 0.33219(11) 0.0453 Uani
C3AA C 0.06860(17) 0.02774(17) 0.32523(15) 0.0390 Uani
C3SA C 0.42477(15) -0.22226(17) 0.18140(17) 0.0390 Uani
C3T C 0.42477(15) 0.22226(17) 0.31860(17) 0.0390 Uani
C3W C 0.07523(15) -0.22226(17) -0.18140(17) 0.0390 Uani
C3Y C -0.06860(17) -0.47226(17) 0.17477(15) 0.0390 Uani
C4AA C 0.05821(19) 0.04892(18) 0.35575(18) 0.0527 Uani
C4SA C 0.39425(18) -0.20108(18) 0.19179(19) 0.0527 Uani
C4T C 0.39425(18) 0.20108(18) 0.30821(19) 0.0527 Uani
C4W C 0.10575(18) -0.20108(18) -0.19179(19) 0.0527 Uani
C4Y C -0.05821(19) -0.45108(18) 0.14425(18) 0.0527 Uani
C5AA C 0.05583(15) -0.10103(15) 0.30966(14) 0.0337 Uani
C5D C 0.19034(14) 0.05583(15) 0.10103(15) 0.0337 Uani
C5CA C 0.19034(14) -0.05583(15) 0.39897(15) 0.0337 Uani
C5W C 0.05966(14) -0.35103(15) -0.19417(15) 0.0337 Uani
C5M C 0.14897(15) -0.30583(15) -0.05966(14) 0.0337 Uani
C6AA C 0.01681(14) 0.20387(15) 0.57267(15) 0.0330 Uani
C6SA C 0.17733(15) -0.04613(15) 0.23319(14) 0.0330 Uani
C6T C 0.17733(15) 0.04613(15) 0.26681(14) 0.0330 Uani
C6W C 0.32267(15) -0.04613(15) -0.23319(14) 0.0330 Uani
C6Y C -0.01681(14) -0.29613(15) -0.07267(15) 0.0330 Uani
C7AA C 0.01022(18) -0.13660(15) 0.33063(16) 0.0427 Uani
C7D C 0.16937(16) 0.01022(18) 0.13660(15) 0.0427 Uani
C7CA C 0.16937(16) -0.01022(18) 0.36340(15) 0.0427 Uani
C7W C 0.08063(16) -0.38660(15) -0.23978(18) 0.0427 Uani
C7M C 0.11340(15) -0.26022(18) -0.08063(16) 0.0427 Uani
H3AA H -0.0133 -0.1403 0.3336 0.0510 Uiso
H3D H 0.1664 -0.0133 0.1403 0.0510 Uiso
H3CA H 0.1664 0.0133 0.3597 0.0510 Uiso
H3W H 0.0836 -0.3903 -0.2633 0.0510 Uiso
H3M H 0.1097 -0.2367 -0.0836 0.0510 Uiso
O8W O 0.0000 -0.2500 -0.25324(17) 0.0573 Uani
O8U O 0.0000 0.2500 0.75324(17) 0.0573 Uani
C8AA C 0.06850(15) -0.06827(15) 0.29388(15) 0.0343 Uani
C8D C 0.20612(15) 0.06850(15) 0.06827(15) 0.0343 Uani
C8CA C 0.20612(15) -0.06850(15) 0.43173(15) 0.0343 Uani
C8W C 0.04388(15) -0.31827(15) -0.18150(15) 0.0343 Uani
C8M C 0.18173(15) -0.31850(15) -0.04388(15) 0.0343 Uani
C9AA C 0.06579(18) -0.15559(16) 0.33562(16) 0.0450 Uani
C9D C 0.16438(16) 0.06579(18) 0.15559(16) 0.0450 Uani
C9CA C 0.16438(16) -0.06579(18) 0.34441(16) 0.0450 Uani
C9W C 0.08562(16) -0.40559(16) -0.18421(18) 0.0450 Uani
C9M C 0.09441(16) -0.31579(18) -0.08562(16) 0.0450 Uani
H4AA H 0.0813 -0.1726 0.3422 0.0540 Uiso
H4D H 0.1578 0.0813 0.1726 0.0540 Uiso
H4CA H 0.1578 -0.0813 0.3274 0.0540 Uiso
H4W H 0.0922 -0.4226 -0.1687 0.0540 Uiso
H4M H 0.0774 -0.3313 -0.0922 0.0540 Uiso
C10AA C 0.0245(2) 0.17977(19) 0.54400(19) 0.0533 Uani
C10SA C 0.20600(19) -0.07023(19) 0.2255(2) 0.0533 Uani
C10T C 0.20600(19) 0.07023(19) 0.2745(2) 0.0533 Uani
C10W C 0.29400(19) -0.07023(19) -0.2255(2) 0.0533 Uani
C10Y C -0.0245(2) -0.32023(19) -0.04400(19) 0.0533 Uani
C11AA C 0.0395(3) 0.0884(3) 0.4125(2) 0.0887 Uani
C11SA C 0.3375(2) -0.1616(3) 0.2105(3) 0.0887 Uani
C11T C 0.3375(2) 0.1616(3) 0.2895(3) 0.0887 Uani
C11W C 0.1625(2) -0.1616(3) -0.2105(3) 0.0887 Uani
C11Y C -0.0395(3) -0.4116(3) 0.0875(2) 0.0887 Uani
C12AA C -0.0005(2) 0.1635(3) 0.5261(2) 0.0897 Uani
C12SA C 0.2239(2) -0.0865(3) 0.2505(2) 0.0897 Uani
C12T C 0.2239(2) 0.0865(3) 0.2495(2) 0.0897 Uani
C12W C 0.2761(2) -0.0865(3) -0.2505(2) 0.0897 Uani
C12Y C 0.0005(2) -0.3365(3) -0.0261(2) 0.0897 Uani
H5AA H -0.0234 0.1671 0.5324 0.1080 Uiso
H5SA H 0.2176 -0.0829 0.2734 0.1080 Uiso
H5T H 0.2176 0.0829 0.2266 0.1080 Uiso
H5W H 0.2824 -0.0829 -0.2734 0.1080 Uiso
H5Y H 0.0234 -0.3329 -0.0324 0.1080 Uiso
N2AA N 0.0517(2) 0.1169(2) 0.4598(2) 0.1053 Uani
N2SA N 0.2902(2) -0.1331(2) 0.1983(2) 0.1053 Uani
N2T N 0.2902(2) 0.1331(2) 0.3017(2) 0.1053 Uani
N2W N 0.2098(2) -0.1331(2) -0.1983(2) 0.1053 Uani
N2Y N -0.0517(2) -0.3831(2) 0.0402(2) 0.1053 Uani
C13AA C 0.0395(3) 0.1368(2) 0.4891(3) 0.0867 Uani
C13SA C 0.2609(3) -0.1132(2) 0.2105(3) 0.0867 Uani
C13T C 0.2609(3) 0.1132(2) 0.2895(3) 0.0867 Uani
C13W C 0.2391(3) -0.1132(2) -0.2105(3) 0.0867 Uani
C13Y C -0.0395(3) -0.3632(2) 0.0109(3) 0.0867 Uani
C14AA C 0.0804(2) 0.0538(3) 0.3826(2) 0.0880 Uani
C14SA C 0.3674(2) -0.1962(3) 0.1696(2) 0.0880 Uani
C14T C 0.3674(2) 0.1962(3) 0.3304(2) 0.0880 Uani
C14W C 0.1326(2) -0.1962(3) -0.1696(2) 0.0880 Uani
C14Y C -0.0804(2) -0.4462(3) 0.1174(2) 0.0880 Uani
H6AA H 0.1027 0.0449 0.3815 0.1060 Uiso
H6SA H 0.3685 -0.2051 0.1473 0.1060 Uiso
H6T H 0.3685 0.2051 0.3527 0.1060 Uiso
H6W H 0.1315 -0.2051 -0.1473 0.1060 Uiso
H6Y H -0.1027 -0.4551 0.1185 0.1060 Uiso
N3AA N 0.0283(2) 0.1095(3) 0.4395(2) 0.1057 Uani
N3SA N 0.3105(2) -0.1405(3) 0.2217(2) 0.1057 Uani
N3T N 0.3105(2) 0.1405(3) 0.2783(2) 0.1057 Uani
N3W N 0.1895(2) -0.1405(3) -0.2217(2) 0.1057 Uani
N3Y N -0.0283(2) -0.3905(3) 0.0605(2) 0.1057 Uani
C15AA C 0.0583(2) 0.1747(3) 0.5336(2) 0.0873 Uani
C15SA C 0.2164(2) -0.0753(3) 0.1917(2) 0.0873 Uani
C15T C 0.2164(2) 0.0753(3) 0.3083(2) 0.0873 Uani
C15W C 0.2836(2) -0.0753(3) -0.1917(2) 0.0873 Uani
C15Y C -0.0583(2) -0.3253(3) -0.0336(2) 0.0873 Uani
H7AA H 0.0763 0.1863 0.5446 0.1050 Uiso
H7SA H 0.2054 -0.0637 0.1737 0.1050 Uiso
H7T H 0.2054 0.0637 0.3263 0.1050 Uiso
H7W H 0.2946 -0.0637 -0.1737 0.1050 Uiso
H7Y H -0.0763 -0.3137 -0.0446 0.1050 Uiso
C16AA C 0.0063(3) 0.1419(3) 0.4992(3) 0.1097 Uani
C16SA C 0.2508(3) -0.1081(3) 0.2437(3) 0.1097 Uani
C16T C 0.2508(3) 0.1081(3) 0.2563(3) 0.1097 Uani
C16W C 0.2492(3) -0.1081(3) -0.2437(3) 0.1097 Uani
C16Y C -0.0063(3) -0.3581(3) 0.0008(3) 0.1097 Uani
H8AA H -0.0116 0.1308 0.4878 0.1320 Uiso
H8SA H 0.2622 -0.1192 0.2616 0.1320 Uiso
H8T H 0.2622 0.1192 0.2384 0.1320 Uiso
H8W H 0.2378 -0.1192 -0.2616 0.1320 Uiso
H8Y H 0.0116 -0.3692 0.0122 0.1320 Uiso
C17AA C 0.0650(3) 0.1521(3) 0.5066(3) 0.1117 Uani
C17SA C 0.2434(3) -0.0979(3) 0.1850(3) 0.1117 Uani
C17T C 0.2434(3) 0.0979(3) 0.3150(3) 0.1117 Uani
C17W C 0.2566(3) -0.0979(3) -0.1850(3) 0.1117 Uani
C17Y C -0.0650(3) -0.3479(3) -0.0066(3) 0.1117 Uani
H9AA H 0.0878 0.1476 0.5005 0.1340 Uiso
H9SA H 0.2495 -0.1024 0.1622 0.1340 Uiso
H9T H 0.2495 0.1024 0.3378 0.1340 Uiso
H9W H 0.2505 -0.1024 -0.1622 0.1340 Uiso
H9Y H -0.0878 -0.3524 -0.0005 0.1340 Uiso
C18AA C 0.0261(3) 0.0652(3) 0.3570(2) 0.0947 Uani
C18SA C 0.3930(2) -0.1848(3) 0.2239(3) 0.0947 Uani
C18T C 0.3930(2) 0.1848(3) 0.2761(3) 0.0947 Uani
C18W C 0.1070(2) -0.1848(3) -0.2239(3) 0.0947 Uani
C18Y C -0.0261(3) -0.4348(3) 0.1430(2) 0.0947 Uani
H10AA H 0.0109 0.0641 0.3385 0.1130 Uiso
H10SA H 0.4115 -0.1859 0.2391 0.1130 Uiso
H10T H 0.4115 0.1859 0.2609 0.1130 Uiso
H10W H 0.0885 -0.1859 -0.2391 0.1130 Uiso
H10Y H -0.0109 -0.4359 0.1615 0.1130 Uiso
C19AA C 0.0696(3) 0.0719(3) 0.4113(2) 0.1103 Uani
C19SA C 0.3387(2) -0.1781(3) 0.1804(3) 0.1103 Uani
C19T C 0.3387(2) 0.1781(3) 0.3196(3) 0.1103 Uani
C19W C 0.1613(2) -0.1781(3) -0.1804(3) 0.1103 Uani
C19Y C -0.0696(3) -0.4281(3) 0.0887(2) 0.1103 Uani
H11AA H 0.0839 0.0726 0.4305 0.1330 Uiso
H11SA H 0.3195 -0.1774 0.1661 0.1330 Uiso
H11T H 0.3195 0.1774 0.3339 0.1330 Uiso
H11W H 0.1805 -0.1774 -0.1661 0.1330 Uiso
H11Y H -0.0839 -0.4274 0.0695 0.1330 Uiso
C20AA C 0.0180(3) 0.0828(3) 0.3864(3) 0.1110 Uani
C20SA C 0.3636(3) -0.1672(3) 0.2320(3) 0.1110 Uani
C20T C 0.3636(3) 0.1672(3) 0.2680(3) 0.1110 Uani
C20W C 0.1364(3) -0.1672(3) -0.2320(3) 0.1110 Uani
C20Y C -0.0180(3) -0.4172(3) 0.1136(3) 0.1110 Uani
H12AA H -0.0042 0.0916 0.3883 0.1330 Uiso
H12SA H 0.3617 -0.1584 0.2542 0.1330 Uiso
H12T H 0.3617 0.1584 0.2458 0.1330 Uiso
H12W H 0.1383 -0.1584 -0.2542 0.1330 Uiso
H12Y H 0.0042 -0.4084 0.1117 0.1330 Uiso
O9 O 0.1662(4) 0.1662(4) 0.1662(4) 0.2500 Uiso
O10 O -0.0857(10) -0.0950(10) 0.3040(10) 0.5600 Uiso
O11 O 0.1048(9) -0.0353(10) 0.0070(9) 0.5700 Uiso
loop_
_atom_site_aniso_label
_atom_site_aniso_U_11
_atom_site_aniso_U_22
_atom_site_aniso_U_33
_atom_site_aniso_U_23
_atom_site_aniso_U_13
_atom_site_aniso_U_12
In1 0.0250(3) 0.0244(3) 0.0231(3) 0.0029(2) 0.000 0.000
In2 0.0250(2) 0.02399(19) 0.01839(18) 0.00304(14) 0.00198(14) 0.00085(15)
O1 0.030(3) 0.025(3) 0.020(3) -0.004(2) 0.000 0.000
O2 0.04 0.035 0.055 0.02 0.007 0.011
O3 0.057(3) 0.050(3) 0.040(3) -0.006(2) -0.005(2) -0.019(2)
O4 0.049 0.031 0.055 0.013 0.002 0.003
O5 0.043 0.045 0.057 -0.026 -0.012 0.003
N1 0.026 0.037 0.038 0.008 -0.002 0.002
O6 0.046(3) 0.061(3) 0.042(3) -0.015(2) 0.000(2) -0.008(2)
C1 0.03 0.034 0.057 0.014 0.002 0.003
C2 0.037 0.036 0.056 0.027 -0.001 -0.001
O7 0.036 0.057 0.043 -0.021 -0.003 0.007
C3 0.042(4) 0.050(4) 0.025(3) -0.004(3) -0.004(3) -0.004(3)
C4 0.061(5) 0.051(4) 0.046(4) -0.027(3) -0.008(3) -0.015(4)
C5 0.038 0.022 0.041 0.009 0.002 0.01
C6 0.033 0.032 0.034 -0.015 -0.007 0.004
C7 0.024 0.041 0.063 0.017 0.01 0.006
O8 0.041(4) 0.070(5) 0.061(4) 0.011(4) 0.000 0.000
C8 0.037 0.03 0.036 0.01 0.005 0.005
C9 0.033 0.036 0.066 0.015 0.002 0
C10 0.05 0.055 0.055 -0.02 -0.017 0
C11 0.080(6) 0.121(8) 0.065(6) -0.064(6) -0.003(5) -0.027(6)
C12 0.054 0.125 0.09 -0.081 -0.017 0.02
N2 0.096(6) 0.130(8) 0.090(6) -0.076(6) -0.008(5) 0.001(6)
C13 0.08 0.088 0.092 -0.071 -0.001 -0.005
C14 0.076(6) 0.130(9) 0.058(5) -0.039(6) 0.010(5) -0.031(6)
N3 0.091(6) 0.139(8) 0.087(6) -0.065(6) -0.016(5) -0.016(6)
C15 0.07 0.115 0.077 -0.063 -0.01 0.007
C16 0.073 0.159 0.097 -0.1 -0.01 0.021
C17 0.075 0.157 0.103 -0.093 -0.022 -0.009
C18 0.076(6) 0.132(9) 0.076(6) -0.051(6) 0.005(5) -0.036(6)
C19 0.118(9) 0.159(11) 0.054(6) -0.066(7) 0.026(6) -0.030(8)
C20 0.084(7) 0.142(10) 0.107(8) -0.075(8) -0.008(6) -0.053(7)
In1W 0.0231 0.0244 0.025 0 0 0.0029
In1U 0.0231 0.0244 0.025 0 0 -0.0029
In1V 0.0231 0.0244 0.025 0 0 -0.0029
In1D 0.0231 0.025 0.0244 0 0.0029 0
In1T 0.0231 0.0244 0.025 0 0 0.0029
In1F 0.0231 0.025 0.0244 0 -0.0029 0
In1M 0.0244 0.025 0.0231 0 -0.0029 0
In1B 0.025 0.0244 0.0231 -0.0029 0 0
In2AA 0.025 0.02399 0.01839 0.00304 -0.00198 -0.00085
In2W 0.01839 0.02399 0.025 -0.00085 -0.00198 0.00304
In2TA 0.01839 0.02399 0.025 -0.00085 0.00198 -0.00304
In2H 0.02399 0.01839 0.025 0.00198 0.00085 0.00304
In2HA 0.02399 0.01839 0.025 0.00198 -0.00085 -0.00304
In2RA 0.01839 0.02399 0.025 0.00085 0.00198 0.00304
In2U 0.01839 0.02399 0.025 0.00085 -0.00198 -0.00304
In2SA 0.01839 0.02399 0.025 0.00085 -0.00198 -0.00304
In2D 0.01839 0.025 0.02399 0.00085 0.00304 0.00198
In2T 0.01839 0.02399 0.025 0.00085 0.00198 0.00304
In2CA 0.01839 0.025 0.02399 0.00085 -0.00304 -0.00198
In2Z 0.025 0.02399 0.01839 -0.00304 0.00198 -0.00085
In2A 0.025 0.02399 0.01839 -0.00304 -0.00198 0.00085
In2R 0.025 0.01839 0.02399 -0.00304 -0.00085 0.00198
In2M 0.02399 0.025 0.01839 -0.00198 -0.00304 0.00085
In2Y 0.025 0.02399 0.01839 -0.00304 -0.00198 0.00085
O1W 0.02 0.025 0.03 0 0 -0.004
O1U 0.02 0.025 0.03 0 0 0.004
O1H 0.025 0.02 0.03 0 0 -0.004
O1I 0.025 0.02 0.03 0 0 0.004
O2AA 0.04 0.035 0.055 0.02 -0.007 -0.011
O2D 0.055 0.04 0.035 0.011 0.02 0.007
O2CA 0.055 0.04 0.035 0.011 -0.02 -0.007
O2W 0.055 0.035 0.04 -0.011 -0.007 0.02
O2M 0.035 0.04 0.055 -0.007 -0.02 0.011
O2RA 0.055 0.035 0.04 0.011 0.007 0.02
O2TA 0.055 0.035 0.04 -0.011 0.007 -0.02
O2U 0.055 0.035 0.04 0.011 -0.007 -0.02
O3AA 0.057 0.05 0.04 -0.006 0.005 0.019
O3SA 0.04 0.05 0.057 -0.019 0.005 0.006
O3T 0.04 0.05 0.057 -0.019 -0.005 -0.006
O3W 0.04 0.05 0.057 0.019 0.005 -0.006
O3Y 0.057 0.05 0.04 0.006 0.005 -0.019
O3TA 0.04 0.05 0.057 0.019 -0.005 0.006
O3H 0.05 0.04 0.057 -0.005 -0.019 -0.006
O3HA 0.05 0.04 0.057 -0.005 0.019 0.006
O4AA 0.049 0.031 0.055 0.013 -0.002 -0.003
O4D 0.055 0.049 0.031 0.003 0.013 0.002
O4CA 0.055 0.049 0.031 0.003 -0.013 -0.002
O4W 0.055 0.031 0.049 -0.003 -0.002 0.013
O4M 0.031 0.049 0.055 -0.002 -0.013 0.003
O4TA 0.055 0.031 0.049 -0.003 0.002 -0.013
O4H 0.031 0.055 0.049 0.002 0.003 0.013
O4HA 0.031 0.055 0.049 0.002 -0.003 -0.013
O5AA 0.043 0.045 0.057 -0.026 0.012 -0.003
O5SA 0.057 0.045 0.043 0.003 0.012 0.026
O5T 0.057 0.045 0.043 0.003 -0.012 -0.026
O5W 0.057 0.045 0.043 -0.003 0.012 -0.026
O5Y 0.043 0.045 0.057 0.026 0.012 0.003
O5KA 0.045 0.043 0.057 0.012 0.026 0.003
O5O 0.045 0.043 0.057 0.012 -0.026 -0.003
N1AA 0.026 0.037 0.038 0.008 0.002 -0.002
N1D 0.038(3) 0.026(2) 0.037(3) 0.002(2) 0.008(2) -0.002(2)
N1CA 0.038 0.026 0.037 0.002 -0.008 0.002
N1W 0.038 0.037 0.026 -0.002 0.002 0.008
N1M 0.037 0.026 0.038 0.002 -0.008 0.002
N1MA 0.037 0.026 0.038 0.002 0.008 -0.002
O6AA 0.046 0.061 0.042 -0.015 0 0.008
O6SA 0.042 0.061 0.046 -0.008 0 0.015
O6T 0.042 0.061 0.046 -0.008 0 -0.015
O6W 0.042 0.061 0.046 0.008 0 -0.015
O6Y 0.046 0.061 0.042 0.015 0 -0.008
O6RA 0.042 0.061 0.046 -0.008 0 -0.015
O6TA 0.042 0.061 0.046 0.008 0 0.015
O6U 0.042 0.061 0.046 -0.008 0 0.015
C1AA 0.03 0.034 0.057 0.014 -0.002 -0.003
C1D 0.057(4) 0.030(3) 0.034(3) 0.003(3) 0.014(3) 0.002(3)
C1CA 0.057 0.03 0.034 0.003 -0.014 -0.002
C1W 0.057 0.034 0.03 -0.003 -0.002 0.014
C1M 0.034 0.03 0.057 -0.002 -0.014 0.003
C2AA 0.037 0.036 0.056 0.027 0.001 0.001
C2D 0.056(4) 0.037(4) 0.036(3) -0.001(3) 0.027(3) -0.001(3)
C2CA 0.056 0.037 0.036 -0.001 -0.027 0.001
C2W 0.056 0.036 0.037 0.001 0.001 0.027
C2M 0.036 0.037 0.056 0.001 -0.027 -0.001
O7AA 0.036 0.057 0.043 -0.021 0.003 -0.007
O7SA 0.043 0.057 0.036 0.007 0.003 0.021
O7T 0.043 0.057 0.036 0.007 -0.003 -0.021
O7W 0.043 0.057 0.036 -0.007 0.003 -0.021
O7Y 0.036 0.057 0.043 0.021 0.003 0.007
O7B 0.036 0.057 0.043 0.021 -0.003 -0.007
O7L 0.057 0.036 0.043 -0.003 -0.021 0.007
O7LA 0.057 0.036 0.043 -0.003 0.021 -0.007
C3AA 0.042 0.05 0.025 -0.004 0.004 0.004
C3SA 0.025 0.05 0.042 -0.004 0.004 0.004
C3T 0.025 0.05 0.042 -0.004 -0.004 -0.004
C3W 0.025 0.05 0.042 0.004 0.004 -0.004
C3Y 0.042 0.05 0.025 0.004 0.004 -0.004
C4AA 0.061 0.051 0.046 -0.027 0.008 0.015
C4SA 0.046 0.051 0.061 -0.015 0.008 0.027
C4T 0.046 0.051 0.061 -0.015 -0.008 -0.027
C4W 0.046 0.051 0.061 0.015 0.008 -0.027
C4Y 0.061 0.051 0.046 0.027 0.008 -0.015
C5AA 0.038 0.022 0.041 0.009 -0.002 -0.01
C5D 0.041(3) 0.038(3) 0.022(3) 0.010(2) 0.009(2) 0.002(3)
C5CA 0.041 0.038 0.022 0.01 -0.009 -0.002
C5W 0.041 0.022 0.038 -0.01 -0.002 0.009
C5M 0.022 0.038 0.041 -0.002 -0.009 0.01
C6AA 0.033 0.032 0.034 -0.015 0.007 -0.004
C6SA 0.034 0.032 0.033 0.004 0.007 0.015
C6T 0.034 0.032 0.033 0.004 -0.007 -0.015
C6W 0.034 0.032 0.033 -0.004 0.007 -0.015
C6Y 0.033 0.032 0.034 0.015 0.007 0.004
C7AA 0.024 0.041 0.063 0.017 -0.01 -0.006
C7D 0.063(4) 0.024(3) 0.041(4) 0.006(3) 0.017(3) 0.010(3)
C7CA 0.063 0.024 0.041 0.006 -0.017 -0.01
C7W 0.063 0.041 0.024 -0.006 -0.01 0.017
C7M 0.041 0.024 0.063 -0.01 -0.017 0.006
O8W 0.061 0.07 0.041 0 0 0.011
O8U 0.061 0.07 0.041 0 0 -0.011
C8AA 0.037 0.03 0.036 0.01 -0.005 -0.005
C8D 0.036 0.037 0.03 0.005 0.01 0.005
C8CA 0.036 0.037 0.03 0.005 -0.01 -0.005
C8W 0.036 0.03 0.037 -0.005 -0.005 0.01
C8M 0.03 0.037 0.036 -0.005 -0.01 0.005
C9AA 0.033 0.036 0.066 0.015 -0.002 0
C9D 0.066(5) 0.033(3) 0.036(3) 0.000(3) 0.015(3) 0.002(3)
C9CA 0.066 0.033 0.036 0 -0.015 -0.002
C9W 0.066 0.036 0.033 0 -0.002 0.015
C9M 0.036 0.033 0.066 -0.002 -0.015 0
C10AA 0.05 0.055 0.055 -0.02 0.017 0
C10SA 0.055 0.055 0.05 0 0.017 0.02
C10T 0.055 0.055 0.05 0 -0.017 -0.02
C10W 0.055 0.055 0.05 0 0.017 -0.02
C10Y 0.05 0.055 0.055 0.02 0.017 0
C11AA 0.08 0.121 0.065 -0.064 0.003 0.027
C11SA 0.065 0.121 0.08 -0.027 0.003 0.064
C11T 0.065 0.121 0.08 -0.027 -0.003 -0.064
C11W 0.065 0.121 0.08 0.027 0.003 -0.064
C11Y 0.08 0.121 0.065 0.064 0.003 -0.027
C12AA 0.054 0.125 0.09 -0.081 0.017 -0.02
C12SA 0.09 0.125 0.054 0.02 0.017 0.081
C12T 0.09 0.125 0.054 0.02 -0.017 -0.081
C12W 0.09 0.125 0.054 -0.02 0.017 -0.081
C12Y 0.054 0.125 0.09 0.081 0.017 0.02
N2AA 0.096 0.13 0.09 -0.076 0.008 -0.001
N2SA 0.09 0.13 0.096 0.001 0.008 0.076
N2T 0.09 0.13 0.096 0.001 -0.008 -0.076
N2W 0.09 0.13 0.096 -0.001 0.008 -0.076
N2Y 0.096 0.13 0.09 0.076 0.008 0.001
C13AA 0.08 0.088 0.092 -0.071 0.001 0.005
C13SA 0.092 0.088 0.08 -0.005 0.001 0.071
C13T 0.092 0.088 0.08 -0.005 -0.001 -0.071
C13W 0.092 0.088 0.08 0.005 0.001 -0.071
C13Y 0.08 0.088 0.092 0.071 0.001 -0.005
C14AA 0.076 0.13 0.058 -0.039 -0.01 0.031
C14SA 0.058 0.13 0.076 -0.031 -0.01 0.039
C14T 0.058 0.13 0.076 -0.031 0.01 -0.039
C14W 0.058 0.13 0.076 0.031 -0.01 -0.039
C14Y 0.076 0.13 0.058 0.039 -0.01 -0.031
N3AA 0.091 0.139 0.087 -0.065 0.016 0.016
N3SA 0.087 0.139 0.091 -0.016 0.016 0.065
N3T 0.087 0.139 0.091 -0.016 -0.016 -0.065
N3W 0.087 0.139 0.091 0.016 0.016 -0.065
N3Y 0.091 0.139 0.087 0.065 0.016 -0.016
C15AA 0.07 0.115 0.077 -0.063 0.01 -0.007
C15SA 0.077 0.115 0.07 0.007 0.01 0.063
C15T 0.077 0.115 0.07 0.007 -0.01 -0.063
C15W 0.077 0.115 0.07 -0.007 0.01 -0.063
C15Y 0.07 0.115 0.077 0.063 0.01 0.007
C16AA 0.073 0.159 0.097 -0.1 0.01 -0.021
C16SA 0.097 0.159 0.073 0.021 0.01 0.1
C16T 0.097 0.159 0.073 0.021 -0.01 -0.1
C16W 0.097 0.159 0.073 -0.021 0.01 -0.1
C16Y 0.073 0.159 0.097 0.1 0.01 0.021
C17AA 0.075 0.157 0.103 -0.093 0.022 0.009
C17SA 0.103 0.157 0.075 -0.009 0.022 0.093
C17T 0.103 0.157 0.075 -0.009 -0.022 -0.093
C17W 0.103 0.157 0.075 0.009 0.022 -0.093
C17Y 0.075 0.157 0.103 0.093 0.022 -0.009
C18AA 0.076 0.132 0.076 -0.051 -0.005 0.036
C18SA 0.076 0.132 0.076 -0.036 -0.005 0.051
C18T 0.076 0.132 0.076 -0.036 0.005 -0.051
C18W 0.076 0.132 0.076 0.036 -0.005 -0.051
C18Y 0.076 0.132 0.076 0.051 -0.005 -0.036
C19AA 0.118 0.159 0.054 -0.066 -0.026 0.03
C19SA 0.054 0.159 0.118 -0.03 -0.026 0.066
C19T 0.054 0.159 0.118 -0.03 0.026 -0.066
C19W 0.054 0.159 0.118 0.03 -0.026 -0.066
C19Y 0.118 0.159 0.054 0.066 -0.026 -0.03
C20AA 0.084 0.142 0.107 -0.075 0.008 0.053
C20SA 0.107 0.142 0.084 -0.053 0.008 0.075
C20T 0.107 0.142 0.084 -0.053 -0.008 -0.075
C20W 0.107 0.142 0.084 0.053 0.008 -0.075
C20Y 0.084 0.142 0.107 0.075 0.008 -0.053
loop_
_geom_bond_atom_site_label_1
_geom_bond_atom_site_label_2
_geom_bond_site_symmetry_1
_geom_bond_site_symmetry_2
In1 O1 1_555 1_555
In2 O1 1_555 1_555
O1 In2AA 1_555 1_555
O2 In1 1_555 1_555
O3 In2 1_555 1_555
O4 In2 1_555 1_555
O5 C6 1_555 1_555
N1 C7 1_555 1_555
O6 In1 1_555 1_555
C1 H1 1_555 1_555
C2 H2 1_555 1_555
O7 C6 1_555 1_555
C3 O3 1_555 1_555
C4 C3 1_555 1_555
C5 C1 1_555 1_555
C6 C10 1_555 1_555
C7 C2 1_555 1_555
H3 C7 1_555 1_555
O8 In1 1_555 1_555
C8 O2 1_555 1_555
C9 N1 1_555 1_555
H4 C9 1_555 1_555
C10 C12 1_555 1_555
C11 N3 1_555 1_555
C12 H5 1_555 1_555
N2 C13 1_555 1_555
C13 C16 1_555 1_555
C14 C4 1_555 1_555
H6 C14 1_555 1_555
N3 N2 1_555 1_555
C15 C10 1_555 1_555
H7 C15 1_555 1_555
C16 C12 1_555 1_555
H8 C16 1_555 1_555
C17 C13 1_555 1_555
H9 C17 1_555 1_555
C18 C4 1_555 1_555
H10 C18 1_555 1_555
C19 C11 1_555 1_555
H11 C19 1_555 1_555
C20 C11 1_555 1_555
H12 C20 1_555 1_555
In1W O1W 1_555 1_555
In1U O1U 1_555 1_555
In1V O6SA 1_555 1_555
In1D O2D 1_555 1_555
In1T O6T 1_555 1_555
In1F O2CA 1_555 1_555
In1M O2M 1_555 1_555
In1B O6Y 1_555 1_555
In2AA O3AA 1_555 1_555
In2W O5 1_555 1_555
In2TA O1U 1_555 1_555
In2H N1 1_555 1_555
In2HA O1I 1_555 1_555
In2RA O7 1_555 1_555
In2U O1U 1_555 1_555
In2SA O3SA 1_555 1_555
In2D O4D 1_555 1_555
In2T O3T 1_555 1_555
In2CA O4CA 1_555 1_555
In2Z O5W 1_555 1_555
In2A O7W 1_555 1_555
In2R N1W 1_555 1_555
In2M O4M 1_555 1_555
In2Y O3Y 1_555 1_555
O1W In2W 1_555 1_555
O1H In2H 1_555 1_555
O2AA In1 1_555 1_555
O2D C8D 1_555 1_555
O2CA C8CA 1_555 1_555
O2W In1W 1_555 1_555
O2M C8M 1_555 1_555
O2RA In1W 1_555 1_555
O2TA In1U 1_555 1_555
O2U In1U 1_555 1_555
O3AA C3AA 1_555 1_555
O3SA C3SA 1_555 1_555
O3T C3T 1_555 1_555
O3W In2W 1_555 1_555
O3Y C3Y 1_555 1_555
O3TA In2TA 1_555 1_555
O3H In2H 1_555 1_555
O3HA In2HA 1_555 1_555
O4AA In2AA 1_555 1_555
O4D C8D 1_555 1_555
O4CA C8CA 1_555 1_555
O4W In2W 1_555 1_555
O4M C8M 1_555 1_555
O4TA In2TA 1_555 1_555
O4H In2H 1_555 1_555
O4HA In2HA 1_555 1_555
O5AA In2TA 1_555 1_555
O5SA In2 1_555 1_555
O5T In2AA 1_555 1_555
O5W C6W 1_555 1_555
O5Y In2RA 1_555 1_555
O5KA In2H 1_555 1_555
O5O In2HA 1_555 1_555
N1AA In2HA 1_555 1_555
N1D In2 1_555 1_555
N1CA In2AA 1_555 1_555
N1W C7W 1_555 1_555
N1M In2W 1_555 1_555
N1MA In2TA 1_555 1_555
O6AA In1 1_555 1_555
O6SA C3SA 1_555 1_555
O6T C3T 1_555 1_555
O6W In1W 1_555 1_555
O6Y C3Y 1_555 1_555
O6RA In1W 1_555 1_555
O6TA In1U 1_555 1_555
O6U In1U 1_555 1_555
C1AA H1AA 1_555 1_555
C1D H1D 1_555 1_555
C1CA H1CA 1_555 1_555
C1W H1W 1_555 1_555
C1M H1M 1_555 1_555
C2AA H2AA 1_555 1_555
C2D H2D 1_555 1_555
C2CA H2CA 1_555 1_555
C2W H2W 1_555 1_555
C2M H2M 1_555 1_555
O7AA In2U 1_555 1_555
O7SA In2AA 1_555 1_555
O7T In2 1_555 1_555
O7W C6W 1_555 1_555
O7Y In2W 1_555 1_555
O7B In2TA 1_555 1_555
O7L In2H 1_555 1_555
O7LA In2HA 1_555 1_555
C3AA O6AA 1_555 1_555
C3SA C4SA 1_555 1_555
C3T C4T 1_555 1_555
C3W O3W 1_555 1_555
C3Y C4Y 1_555 1_555
C4AA C3AA 1_555 1_555
C4SA C14SA 1_555 1_555
C4T C14T 1_555 1_555
C4W C3W 1_555 1_555
C4Y C14Y 1_555 1_555
C5AA C1AA 1_555 1_555
C5D C1D 1_555 1_555
C5CA C1CA 1_555 1_555
C5W C1W 1_555 1_555
C5M C1M 1_555 1_555
C6AA O5AA 1_555 1_555
C6SA O5SA 1_555 1_555
C6T O5T 1_555 1_555
C6W C10W 1_555 1_555
C6Y O5Y 1_555 1_555
C7AA N1AA 1_555 1_555
C7D N1D 1_555 1_555
C7CA N1CA 1_555 1_555
C7W C2W 1_555 1_555
C7M N1M 1_555 1_555
H3AA C7AA 1_555 1_555
H3D C7D 1_555 1_555
H3CA C7CA 1_555 1_555
H3W C7W 1_555 1_555
H3M C7M 1_555 1_555
O8W In1W 1_555 1_555
O8U In1U 1_555 1_555
C8AA O2AA 1_555 1_555
C8D C5D 1_555 1_555
C8CA C5CA 1_555 1_555
C8W O2W 1_555 1_555
C8M C5M 1_555 1_555
C9AA N1AA 1_555 1_555
C9D N1D 1_555 1_555
C9CA N1CA 1_555 1_555
C9W N1W 1_555 1_555
C9M N1M 1_555 1_555
H4AA C9AA 1_555 1_555
H4D C9D 1_555 1_555
H4CA C9CA 1_555 1_555
H4W C9W 1_555 1_555
H4M C9M 1_555 1_555
C10AA C6AA 1_555 1_555
C10SA C6SA 1_555 1_555
C10T C6T 1_555 1_555
C10W C12W 1_555 1_555
C10Y C6Y 1_555 1_555
C11AA N3AA 1_555 1_555
C11SA N3SA 1_555 1_555
C11T N3T 1_555 1_555
C11W N3W 1_555 1_555
C11Y N3Y 1_555 1_555
C12AA C10AA 1_555 1_555
C12SA C10SA 1_555 1_555
C12T C10T 1_555 1_555
C12W H5W 1_555 1_555
C12Y C10Y 1_555 1_555
H5AA C12AA 1_555 1_555
H5SA C12SA 1_555 1_555
H5T C12T 1_555 1_555
H5Y C12Y 1_555 1_555
N2AA C13AA 1_555 1_555
N2SA C13SA 1_555 1_555
N2T C13T 1_555 1_555
N2W C13W 1_555 1_555
N2Y C13Y 1_555 1_555
C13AA C16AA 1_555 1_555
C13SA C16SA 1_555 1_555
C13T C16T 1_555 1_555
C13W C16W 1_555 1_555
C13Y C16Y 1_555 1_555
C14AA C4AA 1_555 1_555
C14SA H6SA 1_555 1_555
C14T H6T 1_555 1_555
C14W C4W 1_555 1_555
C14Y H6Y 1_555 1_555
H6AA C14AA 1_555 1_555
H6W C14W 1_555 1_555
N3AA N2AA 1_555 1_555
N3SA N2SA 1_555 1_555
N3T N2T 1_555 1_555
N3W N2W 1_555 1_555
N3Y N2Y 1_555 1_555
C15AA C10AA 1_555 1_555
C15SA C10SA 1_555 1_555
C15T C10T 1_555 1_555
C15W C10W 1_555 1_555
C15Y C10Y 1_555 1_555
H7AA C15AA 1_555 1_555
H7SA C15SA 1_555 1_555
H7T C15T 1_555 1_555
H7W C15W 1_555 1_555
H7Y C15Y 1_555 1_555
C16AA C12AA 1_555 1_555
C16SA C12SA 1_555 1_555
C16T C12T 1_555 1_555
C16W C12W 1_555 1_555
C16Y C12Y 1_555 1_555
H8AA C16AA 1_555 1_555
H8SA C16SA 1_555 1_555
H8T C16T 1_555 1_555
H8W C16W 1_555 1_555
H8Y C16Y 1_555 1_555
C17AA C13AA 1_555 1_555
C17SA C13SA 1_555 1_555
C17T C13T 1_555 1_555
C17W C13W 1_555 1_555
C17Y C13Y 1_555 1_555
H9AA C17AA 1_555 1_555
H9SA C17SA 1_555 1_555
H9T C17T 1_555 1_555
H9W C17W 1_555 1_555
H9Y C17Y 1_555 1_555
C18AA C4AA 1_555 1_555
C18SA C4SA 1_555 1_555
C18T C4T 1_555 1_555
C18W C4W 1_555 1_555
C18Y C4Y 1_555 1_555
H10AA C18AA 1_555 1_555
H10SA C18SA 1_555 1_555
H10T C18T 1_555 1_555
H10W C18W 1_555 1_555
H10Y C18Y 1_555 1_555
C19AA C11AA 1_555 1_555
C19SA C11SA 1_555 1_555
C19T C11T 1_555 1_555
C19W C11W 1_555 1_555
C19Y C11Y 1_555 1_555
H11AA C19AA 1_555 1_555
H11SA C19SA 1_555 1_555
H11T C19T 1_555 1_555
H11W C19W 1_555 1_555
H11Y C19Y 1_555 1_555
C20AA C11AA 1_555 1_555
C20SA C11SA 1_555 1_555
C20T C11T 1_555 1_555
C20W C11W 1_555 1_555
C20Y C11Y 1_555 1_555
H12AA C20AA 1_555 1_555
H12SA C20SA 1_555 1_555
H12T C20T 1_555 1_555
H12W C20W 1_555 1_555
H12Y C20Y 1_555 1_555
O4 C8 1_555 1_555
O6 C3 1_555 1_555
C1 C9 1_555 1_555
C2 C5 1_555 1_555
C5 C8 1_555 1_555
C14 C19 1_555 1_555
C15 C17 1_555 1_555
C18 C20 1_555 1_555
In2RA O1W 1_555 1_555
O4AA C8AA 1_555 1_555
O4W C8W 1_555 1_555
O6W C3W 1_555 1_555
C1AA C9AA 1_555 1_555
C1D C9D 1_555 1_555
C1CA C9CA 1_555 1_555
C1W C9W 1_555 1_555
C1M C9M 1_555 1_555
C2AA C5AA 1_555 1_555
C2AA C7AA 1_555 1_555
C2D C5D 1_555 1_555
C2D C7D 1_555 1_555
C2CA C5CA 1_555 1_555
C2CA C7CA 1_555 1_555
C2W C5W 1_555 1_555
C2M C5M 1_555 1_555
C2M C7M 1_555 1_555
O7AA C6AA 1_555 1_555
O7SA C6SA 1_555 1_555
O7T C6T 1_555 1_555
O7Y C6Y 1_555 1_555
C5AA C8AA 1_555 1_555
C5W C8W 1_555 1_555
C14AA C19AA 1_555 1_555
C14SA C19SA 1_555 1_555
C14T C19T 1_555 1_555
C14W C19W 1_555 1_555
C14Y C19Y 1_555 1_555
C15AA C17AA 1_555 1_555
C15SA C17SA 1_555 1_555
C15T C17T 1_555 1_555
C15W C17W 1_555 1_555
C15Y C17Y 1_555 1_555
C18AA C20AA 1_555 1_555
C18SA C20SA 1_555 1_555
C18T C20T 1_555 1_555
C18W C20W 1_555 1_555
C18Y C20Y 1_555 1_555

#END
