
#######################################################################
#
#                 Cambridge Crystallographic Data Centre
#                                CCDC 
#
#######################################################################
#
# If this CIF has been generated from an entry in the Cambridge 
# Structural Database, then it will include bibliographic, chemical, 
# crystal, experimental, refinement or atomic coordinate data resulting 
# from the CCDC's data processing and validation procedures.
#
#######################################################################

data_VUWSAJ
_chemical_formula_moiety         '(C36 H26 Nd2 O16)n,4n(C4 H9 N1 O1)'
_chemical_name_systematic        
'catena-[tris(\m-naphthalene-2,6-dicarboxylato)-tetraaqua-di-neodymium N,N-dimethylacetamide solvate]'
_symmetry_cell_setting           monoclinic
_symmetry_space_group_name_H-M   'P 21/n'
_symmetry_Int_Tables_number      14
_space_group_name_Hall           '-P 2yn'
loop_
_symmetry_equiv_pos_site_id
_symmetry_equiv_pos_as_xyz
1 x,y,z
2 1/2-x,1/2+y,1/2-z
3 -x,-y,-z
4 1/2+x,1/2-y,1/2+z
_cell_length_a                   9.8320(3)
_cell_length_b                   21.3218(7)
_cell_length_c                   13.7949(4)
_cell_angle_alpha                90
_cell_angle_beta                 105.6016(14)
_cell_angle_gamma                90
_cell_volume                     2785.35
_exptl_crystal_colour            colorless
_exptl_crystal_description       plate
_cell_formula_units_Z            2
loop_
_atom_site_label
_atom_site_type_symbol
_atom_site_fract_x
_atom_site_fract_y
_atom_site_fract_z
Nd1 Nd 0.26124(3) 0.015615(13) 0.514856(19)
O1 O 0.1236(4) 0.1025(2) 0.5452(3)
O2 O -0.0982(4) 0.06996(19) 0.5147(3)
O3 O -0.1485(4) 0.39497(19) 0.9391(3)
O4 O 0.0607(4) 0.43800(18) 0.9481(3)
O5 O 0.0890(4) 0.0292(2) 0.3415(3)
O6 O 0.2872(4) -0.0198(2) 0.3465(3)
O7 O 0.2002(4) -0.0125(2) 0.6752(3)
O8 O 0.4484(4) 0.0585(2) 0.6566(3)
C1 C -0.0271(6) 0.1576(3) 0.6226(4)
C2 C -0.1590(7) 0.1613(3) 0.6455(5)
H1 H -0.2326 0.1329 0.6152
C3 C -0.1796(7) 0.2049(4) 0.7101(6)
H2 H -0.2671 0.2054 0.7270
C4 C -0.0768(6) 0.2498(3) 0.7539(4)
C5 C -0.0991(6) 0.2986(3) 0.8185(5)
H3 H -0.1869 0.3005 0.8349
C6 C 0.0006(6) 0.3422(3) 0.8574(4)
C7 C 0.1309(7) 0.3395(4) 0.8336(6)
H4 H 0.2016 0.3699 0.8604
C8 C 0.1562(8) 0.2931(4) 0.7720(7)
H5 H 0.2449 0.2918 0.7569
C9 C 0.0539(7) 0.2471(3) 0.7305(5)
C10 C 0.0751(7) 0.1994(3) 0.6656(5)
H6 H 0.1642 0.1964 0.6514
C11 C 0.0016(6) 0.1060(3) 0.5559(4)
C12 C -0.0310(6) 0.3958(3) 0.9199(4)
C13 C 0.1719(7) -0.0432(4) 0.0334(4)
H7 H 0.2305 -0.0658 0.0010
C14 C 0.2116(7) -0.0370(4) 0.1350(4)
H8 H 0.2982 -0.0547 0.1730
C15 C 0.1246(6) -0.0044(3) 0.1845(4)
C16 C 0.0015(6) 0.0210(3) 0.1315(4)
H9 H -0.0558 0.0426 0.1661
C17 C -0.0439(6) 0.0162(3) 0.0252(4)
C18 C 0.1691(6) 0.0020(3) 0.2970(4)
O5B O -0.0890(4) -0.0292(2) -0.3415(3)
O6B O -0.2872(4) 0.0198(2) -0.3465(3)
C13B C -0.1719(7) 0.0432(4) -0.0334(4)
H7B H -0.2305 0.0658 -0.0010
C14B C -0.2116(7) 0.0370(4) -0.1350(4)
H8B H -0.2982 0.0547 -0.1730
C15B C -0.1246(6) 0.0044(3) -0.1845(4)
C16B C -0.0015(6) -0.0210(3) -0.1315(4)
H9B H 0.0558 -0.0426 -0.1661
C17B C 0.0439(6) -0.0162(3) -0.0252(4)
C18B C -0.1691(6) -0.0020(3) -0.2970(4)
Nd1B Nd -0.26124(3) -0.015615(13) -0.514856(19)
O1B O -0.1236(4) -0.1025(2) -0.5452(3)
O2B O 0.0982(4) -0.06996(19) -0.5147(3)
O3B O 0.1485(4) -0.39497(19) -0.9391(3)
O4B O -0.0607(4) -0.43800(18) -0.9481(3)
O7B O -0.2002(4) 0.0125(2) -0.6752(3)
O8B O -0.4484(4) -0.0585(2) -0.6566(3)
C1B C 0.0271(6) -0.1576(3) -0.6226(4)
C2B C 0.1590(7) -0.1613(3) -0.6455(5)
H1B H 0.2326 -0.1329 -0.6152
C3B C 0.1796(7) -0.2049(4) -0.7101(6)
H2B H 0.2671 -0.2054 -0.7270
C4B C 0.0768(6) -0.2498(3) -0.7539(4)
C5B C 0.0991(6) -0.2986(3) -0.8185(5)
H3B H 0.1869 -0.3005 -0.8349
C6B C -0.0006(6) -0.3422(3) -0.8574(4)
C7B C -0.1309(7) -0.3395(4) -0.8336(6)
H4B H -0.2016 -0.3699 -0.8604
C8B C -0.1562(8) -0.2931(4) -0.7720(7)
H5B H -0.2449 -0.2918 -0.7569
C9B C -0.0539(7) -0.2471(3) -0.7305(5)
C10B C -0.0751(7) -0.1994(3) -0.6656(5)
H6B H -0.1642 -0.1964 -0.6514
C11B C -0.0016(6) -0.1060(3) -0.5559(4)
C12B C 0.0310(6) -0.3958(3) -0.9199(4)
Nd1_2 Nd 0.26124(3) 0.015615(13) -0.485144(19)
Nd1A Nd 0.23876(3) -0.484385(13) -1.014856(19)
Nd1A_2 Nd 0.23876(3) 0.515615(13) 0.985144(19)
Nd1B_2 Nd -0.26124(3) -0.015615(13) 0.485144(19)
Nd1C Nd -0.23876(3) -0.515615(13) -0.985144(19)
Nd1C_2 Nd -0.23876(3) 0.484385(13) 1.014856(19)
O2_2 O -0.0982(4) 0.06996(19) -0.4853(3)
O2B_2 O 0.0982(4) -0.06996(19) 0.4853(3)
O3A O -0.3515(4) -0.10503(19) -0.4391(3)
O3C O 0.3515(4) 0.10503(19) 0.4391(3)
O4A O 0.4393(4) -0.06200(18) 0.5519(3)
O4C O -0.4393(4) 0.06200(18) -0.5519(3)
O9 O -0.0289(6) 0.3319(3) 0.2551(5)
N1 N 0.0131(7) 0.2295(3) 0.2873(6)
C19 C -0.0271(8) 0.2780(4) 0.2258(7)
C20 C -0.0671(11) 0.2643(5) 0.1148(7)
H10 H -0.1091 0.3018 0.0776
H11 H -0.1356 0.2299 0.1001
H12 H 0.0174 0.2523 0.0944
C21 C 0.0147(11) 0.1652(5) 0.2609(11)
H13 H -0.0782 0.1467 0.2558
H14 H 0.0865 0.1431 0.3127
H15 H 0.0370 0.1615 0.1960
C22 C 0.0490(12) 0.2434(6) 0.3956(7)
H16 H 0.0515 0.2889 0.4057
H17 H 0.1418 0.2256 0.4287
H18 H -0.0224 0.2249 0.4248
O10 O 0.2047(16) 0.0794(8) 0.8172(11)
N2 N 0.2758(13) 0.1237(6) 0.9686(9)
C23 C 0.2898(16) 0.0861(7) 0.8947(10)
C24 C 0.384(2) 0.0334(9) 0.8906(16)
H19 H 0.3543 -0.0037 0.9216
H20 H 0.4811 0.0445 0.9272
H21 H 0.3801 0.0242 0.8203
C25 C 0.1416(17) 0.1520(10) 0.9681(15)
H22 H 0.0680 0.1361 0.9104
H23 H 0.1485 0.1976 0.9628
H24 H 0.1176 0.1413 1.0306
C26 C 0.3932(18) 0.1137(10) 1.0542(13)
H25 H 0.4568 0.0825 1.0376
H26 H 0.3593 0.0983 1.1105
H27 H 0.4441 0.1532 1.0732
loop_
_geom_bond_atom_site_label_1
_geom_bond_atom_site_label_2
_geom_bond_site_symmetry_1
_geom_bond_site_symmetry_2
Nd1 O1 1_555 1_555
O1 C11 1_555 1_555
O2 C11 1_555 1_555
O3 C12 1_555 1_555
O4 C12 1_555 1_555
O5 Nd1 1_555 1_555
O6 Nd1 1_555 1_555
O7 Nd1 1_555 1_555
O8 Nd1 1_555 1_555
C1 C2 1_555 1_555
C2 H1 1_555 1_555
C3 C2 1_555 1_555
H2 C3 1_555 1_555
C4 C3 1_555 1_555
C5 C4 1_555 1_555
H3 C5 1_555 1_555
C6 C5 1_555 1_555
C7 C6 1_555 1_555
H4 C7 1_555 1_555
C8 C7 1_555 1_555
H5 C8 1_555 1_555
C9 C4 1_555 1_555
C10 C1 1_555 1_555
H6 C10 1_555 1_555
C11 C1 1_555 1_555
C12 C6 1_555 1_555
C13 H7 1_555 1_555
C14 C13 1_555 1_555
H8 C14 1_555 1_555
C15 C14 1_555 1_555
C16 C15 1_555 1_555
H9 C16 1_555 1_555
C17 C16 1_555 1_555
C18 O5 1_555 1_555
O9 C19 1_555 1_555
N1 C19 1_555 1_555
C19 C20 1_555 1_555
C20 H10 1_555 1_555
H11 C20 1_555 1_555
H12 C20 1_555 1_555
C21 N1 1_555 1_555
H13 C21 1_555 1_555
H14 C21 1_555 1_555
H15 C21 1_555 1_555
C22 N1 1_555 1_555
H16 C22 1_555 1_555
H17 C22 1_555 1_555
H18 C22 1_555 1_555
O10 C23 1_555 1_555
N2 C23 1_555 1_555
C23 C24 1_555 1_555
C24 H19 1_555 1_555
H20 C24 1_555 1_555
H21 C24 1_555 1_555
C25 N2 1_555 1_555
H22 C25 1_555 1_555
H23 C25 1_555 1_555
H24 C25 1_555 1_555
C26 N2 1_555 1_555
H25 C26 1_555 1_555
H26 C26 1_555 1_555
H27 C26 1_555 1_555
O5B C18B 1_555 1_555
O6B C18B 1_555 1_555
C13B C17 1_555 1_555
H7B C13B 1_555 1_555
C14B C13B 1_555 1_555
H8B C14B 1_555 1_555
C15B C14B 1_555 1_555
C16B C15B 1_555 1_555
H9B C16B 1_555 1_555
C17B C13 1_555 1_555
C18B C15B 1_555 1_555
Nd1B O5B 1_555 1_555
O1B Nd1B 1_555 1_555
O2B C11B 1_555 1_555
O3B C12B 1_555 1_555
O4B C12B 1_555 1_555
O7B Nd1B 1_555 1_555
O8B Nd1B 1_555 1_555
C1B C2B 1_555 1_555
C2B H1B 1_555 1_555
C3B C2B 1_555 1_555
H2B C3B 1_555 1_555
C4B C3B 1_555 1_555
C5B C4B 1_555 1_555
H3B C5B 1_555 1_555
C6B C5B 1_555 1_555
C7B C6B 1_555 1_555
H4B C7B 1_555 1_555
C8B C7B 1_555 1_555
H5B C8B 1_555 1_555
C9B C4B 1_555 1_555
C10B C1B 1_555 1_555
H6B C10B 1_555 1_555
C11B O1B 1_555 1_555
C12B C6B 1_555 1_555
Nd1_2 O2B 1_555 1_555
Nd1A O3B 1_555 1_555
Nd1A_2 O4 1_555 1_555
Nd1B_2 O2 1_555 1_555
Nd1C O4B 1_555 1_555
Nd1C_2 O3 1_555 1_555
O2_2 Nd1B 1_555 1_555
O2B_2 Nd1 1_555 1_555
O3A Nd1B 1_555 1_555
O3C Nd1 1_555 1_555
O4A Nd1 1_555 1_555
O4C Nd1B 1_555 1_555
O6 C18 1_555 1_555
C8 C9 1_555 1_555
C9 C10 1_555 1_555
C15 C18 1_555 1_555
C17 C17B 1_555 1_555
O6B Nd1B 1_555 1_555
C16B C17B 1_555 1_555
C1B C11B 1_555 1_555
C8B C9B 1_555 1_555
C9B C10B 1_555 1_555

#END
