
#######################################################################
#
#                 Cambridge Crystallographic Data Centre
#                                CCDC 
#
#######################################################################
#
# If this CIF has been generated from an entry in the Cambridge 
# Structural Database, then it will include bibliographic, chemical, 
# crystal, experimental, refinement or atomic coordinate data resulting 
# from the CCDC's data processing and validation procedures.
#
#######################################################################

data_FANWOI
_chemical_formula_moiety         '(C78 H54 N18 O13 Zn4)n'
_chemical_name_systematic        
catena-[tris(\m~4~-4,4'-(Benzene-1,3-diylbis(5-methyl-4H-1,2,4-triazole-3,4-diyl))dibenzoato-N,O,O',O'')-(\m~4~-oxo)-tetra-zinc(ii)]
_symmetry_cell_setting           trigonal
_symmetry_space_group_name_H-M   'P 3 1 c'
_symmetry_Int_Tables_number      159
_space_group_name_Hall           'P 3 -2c'
loop_
_symmetry_equiv_pos_site_id
_symmetry_equiv_pos_as_xyz
1 x,y,z
2 -y,x-y,z
3 y,x,1/2+z
4 -x+y,-x,z
5 -x,-x+y,1/2+z
6 x-y,-y,1/2+z
_cell_length_a                   19.2401(8)
_cell_length_b                   19.2401(8)
_cell_length_c                   17.8208(9)
_cell_angle_alpha                90
_cell_angle_beta                 90
_cell_angle_gamma                120
_cell_volume                     5713.11
_exptl_crystal_colour            colorless
_exptl_crystal_description       prism
_cell_formula_units_Z            2
_exptl_crystal_preparation       
'The crystal was heated to 180 deg.C at ambient pressure within 24h, held at 180 deg.C for 4h and then cooled to RT over a 12h period'
loop_
_atom_site_label
_atom_site_type_symbol
_atom_site_fract_x
_atom_site_fract_y
_atom_site_fract_z
_atom_site_U_iso_or_equiv
_atom_site_thermal_displace_type
C1 C 0.53193(17) 0.36212(17) 0.60689(15) 0.0373 Uani
C2 C 0.49924(17) 0.40690(18) 0.65005(15) 0.0402 Uani
C3 C 0.5322(3) 0.4389(3) 0.7196(3) 0.0890 Uani
H1 H 0.5745 0.4321 0.7388 0.1070 Uiso
C4 C 0.5043(3) 0.4802(4) 0.7611(3) 0.0959 Uani
H2 H 0.5266 0.5009 0.8090 0.1150 Uiso
C5 C 0.44335(18) 0.4916(2) 0.73239(18) 0.0477 Uani
C6 C 0.4099(2) 0.4608(2) 0.66335(18) 0.0491 Uani
H3 H 0.3682 0.4684 0.6439 0.0590 Uiso
C7 C 0.4384(2) 0.4180(2) 0.62212(18) 0.0463 Uani
H4 H 0.4156 0.3963 0.5745 0.0550 Uiso
C8 C 0.3272(2) 0.4109(2) 0.8626(3) 0.0654 Uani
H5 H 0.2913 0.4001 0.9055 0.0980 Uiso
H6 H 0.3699 0.3997 0.8766 0.0980 Uiso
H7 H 0.2965 0.3765 0.8204 0.0980 Uiso
C9 C 0.36327(17) 0.49660(17) 0.84022(16) 0.0405 Uani
C10 C 0.43525(16) 0.61196(17) 0.78147(15) 0.0361 Uani
C11 C 0.70296(18) 0.56446(19) 0.45654(17) 0.0430 Uani
C12 C 0.65129(17) 0.60370(17) 0.45707(16) 0.0390 Uani
C13 C 0.6817(2) 0.6808(2) 0.4277(2) 0.0538 Uani
H8 H 0.7341 0.7078 0.4068 0.0640 Uiso
C14 C 0.6356(2) 0.7186(2) 0.4289(2) 0.0537 Uani
H9 H 0.6570 0.7714 0.4095 0.0650 Uiso
C15 C 0.55894(17) 0.67889(17) 0.45849(16) 0.0383 Uani
C16 C 0.52587(18) 0.60065(18) 0.48567(17) 0.0412 Uani
H10 H 0.4725 0.5729 0.5045 0.0490 Uiso
C17 C 0.57288(18) 0.56396(17) 0.48465(17) 0.0415 Uani
H11 H 0.5509 0.5108 0.5032 0.0500 Uiso
C18 C 0.4829(3) 0.7238(3) 0.3255(2) 0.0655 Uani
H12 H 0.4470 0.7362 0.2968 0.0980 Uiso
H13 H 0.4658 0.6668 0.3198 0.0980 Uiso
H14 H 0.5379 0.7565 0.3069 0.0980 Uiso
C19 C 0.4798(2) 0.74197(19) 0.40624(18) 0.0450 Uani
C20 C 0.49313(18) 0.74494(18) 0.52835(17) 0.0416 Uani
C21 C 0.51951(19) 0.73580(19) 0.60423(17) 0.0441 Uani
C22 C 0.5982(2) 0.7861(3) 0.6257(2) 0.0859 Uani
H15 H 0.6354 0.8240 0.5911 0.1030 Uiso
C23 C 0.6230(3) 0.7813(4) 0.6972(3) 0.1319 Uani
H16 H 0.6768 0.8172 0.7119 0.1590 Uiso
C24 C 0.5700(2) 0.7242(4) 0.7481(2) 0.0973 Uani
H17 H 0.5877 0.7209 0.7971 0.1170 Uiso
C25 C 0.49118(18) 0.67231(19) 0.72671(16) 0.0418 Uani
C26 C 0.46592(18) 0.67853(18) 0.65503(16) 0.0393 Uani
H18 H 0.4118 0.6436 0.6405 0.0470 Uiso
N1 N 0.35576(13) 0.55240(13) 0.87471(12) 0.0334 Uani
N2 N 0.40161(14) 0.62591(13) 0.83869(13) 0.0368 Uani
N3 N 0.41226(16) 0.53101(15) 0.77927(15) 0.0466 Uani
N4 N 0.4433(2) 0.77897(19) 0.43395(17) 0.0570 Uani
N5 N 0.45178(18) 0.78020(19) 0.51280(16) 0.0552 Uani
N6 N 0.51329(15) 0.71979(15) 0.46375(13) 0.0387 Uani
O1 O 0.6667 0.3333 0.49218(16) 0.0283 Uani
O2 O 0.58291(14) 0.35058(15) 0.64204(11) 0.0482 Uani
O3 O 0.50717(12) 0.33915(12) 0.54142(11) 0.0387 Uani
O4 O 0.67273(13) 0.49571(12) 0.48802(12) 0.0451 Uani
O5 O 0.76942(15) 0.59887(17) 0.42559(15) 0.0606 Uani
Zn1 Zn 0.6667 0.3333 0.60008(2) 0.0291 Uani
Zn2 Zn 0.292230(16) 0.552720(16) 0.965170(15) 0.0293 Uani
C1C C 0.83019(24) 0.46807(17) 0.60689(15) 0.0373 Uani
C1A C 0.63788(17) 0.16981(24) 0.60689(15) 0.0373 Uani
C2C C 0.90766(25) 0.50076(17) 0.65005(15) 0.0402 Uani
C2A C 0.59310(18) 0.09234(25) 0.65005(15) 0.0402 Uani
C3C C 0.9067(4) 0.4678(3) 0.7196(3) 0.0890 Uani
C3A C 0.5611(3) 0.0933(4) 0.7196(3) 0.0890 Uani
H1C H 0.8576 0.4255 0.7388 0.1070 Uiso
H1A H 0.5679 0.1424 0.7388 0.1070 Uiso
C4C C 0.9759(5) 0.4957(3) 0.7611(3) 0.0959 Uani
C4A C 0.5198(4) 0.0241(5) 0.7611(3) 0.0959 Uani
H2C H 0.9743 0.4734 0.8090 0.1150 Uiso
H2A H 0.4991 0.0257 0.8090 0.1150 Uiso
C5C C 1.04825(27) 0.55665(18) 0.73239(18) 0.0477 Uani
C5A C 0.5084(2) -0.04825(27) 0.73239(18) 0.0477 Uani
C6C C 1.0509(3) 0.5901(2) 0.66335(18) 0.0491 Uani
C6A C 0.5392(2) -0.0509(3) 0.66335(18) 0.0491 Uani
H3C H 1.1002 0.6318 0.6439 0.0590 Uiso
H3A H 0.5316 -0.1002 0.6439 0.0590 Uiso
C7C C 0.9796(3) 0.5616(2) 0.62212(18) 0.0463 Uani
C7A C 0.5820(2) 0.0204(3) 0.62212(18) 0.0463 Uani
H4C H 0.9807 0.5844 0.5745 0.0550 Uiso
H4A H 0.6037 0.0193 0.5745 0.0550 Uiso
C8C C 1.0837(3) 0.6728(2) 0.8626(3) 0.0654 Uani
C8A C 0.5891(2) -0.0837(3) 0.8626(3) 0.0654 Uani
H5C H 1.1088 0.7087 0.9055 0.0980 Uiso
H5A H 0.5999 -0.1088 0.9055 0.0980 Uiso
H6C H 1.0298 0.6301 0.8766 0.0980 Uiso
H6A H 0.6003 -0.0298 0.8766 0.0980 Uiso
H7C H 1.0800 0.7035 0.8204 0.0980 Uiso
H7A H 0.6235 -0.0800 0.8204 0.0980 Uiso
C9C C 1.13333(24) 0.63673(17) 0.84022(16) 0.0405 Uani
C9A C 0.50340(17) -0.13333(24) 0.84022(16) 0.0405 Uani
C10C C 1.17671(23) 0.56475(16) 0.78147(15) 0.0361 Uani
C10A C 0.38804(17) -0.17671(23) 0.78147(15) 0.0361 Uani
C11C C 0.86150(26) 0.29704(18) 0.45654(17) 0.0430 Uani
C11A C 0.43554(19) 0.13850(26) 0.45654(17) 0.0430 Uani
C12C C 0.95241(24) 0.34871(17) 0.45707(16) 0.0390 Uani
C12A C 0.39630(17) 0.04759(24) 0.45707(16) 0.0390 Uani
C13C C 0.9991(3) 0.3183(2) 0.4277(2) 0.0538 Uani
C13A C 0.3192(2) 0.0009(3) 0.4277(2) 0.0538 Uani
H8C H 0.9737 0.2659 0.4068 0.0640 Uiso
H8A H 0.2922 0.0263 0.4068 0.0640 Uiso
C14C C 1.0830(3) 0.3644(2) 0.4289(2) 0.0537 Uani
C14A C 0.2814(2) -0.0830(3) 0.4289(2) 0.0537 Uani
H9C H 1.1144 0.3430 0.4095 0.0650 Uiso
H9A H 0.2286 -0.1144 0.4095 0.0650 Uiso
C15C C 1.11995(24) 0.44106(17) 0.45849(16) 0.0383 Uani
C15A C 0.32111(17) -0.11995(24) 0.45849(16) 0.0383 Uani
C16C C 1.07478(25) 0.47413(18) 0.48567(17) 0.0412 Uani
C16A C 0.39935(18) -0.07478(25) 0.48567(17) 0.0412 Uani
H10C H 1.1004 0.5275 0.5045 0.0490 Uiso
H10A H 0.4271 -0.1004 0.5045 0.0490 Uiso
C17C C 0.99108(25) 0.42712(18) 0.48465(17) 0.0415 Uani
C17A C 0.43604(17) 0.00892(25) 0.48465(17) 0.0415 Uani
H11C H 0.9599 0.4491 0.5032 0.0500 Uiso
H11A H 0.4892 0.0401 0.5032 0.0500 Uiso
C18C C 1.2409(4) 0.5171(3) 0.3255(2) 0.0655 Uani
C18A C 0.2762(3) -0.2409(4) 0.3255(2) 0.0655 Uani
H12C H 1.2892 0.5530 0.2968 0.0980 Uiso
H12A H 0.2638 -0.2892 0.2968 0.0980 Uiso
H13C H 1.2010 0.5342 0.3198 0.0980 Uiso
H13A H 0.3332 -0.2010 0.3198 0.0980 Uiso
H14C H 1.2186 0.4621 0.3069 0.0980 Uiso
H14A H 0.2435 -0.2186 0.3069 0.0980 Uiso
C19C C 1.26217(28) 0.5202(2) 0.40624(18) 0.0450 Uani
C19A C 0.25803(19) -0.26217(28) 0.40624(18) 0.0450 Uani
C20C C 1.25181(25) 0.50687(18) 0.52835(17) 0.0416 Uani
C20A C 0.25506(18) -0.25181(25) 0.52835(17) 0.0416 Uani
C21C C 1.21629(27) 0.48049(19) 0.60423(17) 0.0441 Uani
C21A C 0.26420(19) -0.21629(27) 0.60423(17) 0.0441 Uani
C22C C 1.1879(4) 0.4018(2) 0.6257(2) 0.0859 Uani
C22A C 0.2139(3) -0.1879(4) 0.6257(2) 0.0859 Uani
H15C H 1.1886 0.3646 0.5911 0.1030 Uiso
H15A H 0.1760 -0.1886 0.5911 0.1030 Uiso
C23C C 1.1583(5) 0.3770(3) 0.6972(3) 0.1319 Uani
C23A C 0.2187(4) -0.1583(5) 0.6972(3) 0.1319 Uani
H16C H 1.1404 0.3232 0.7119 0.1590 Uiso
H16A H 0.1828 -0.1404 0.7119 0.1590 Uiso
C24C C 1.1542(4) 0.4300(2) 0.7481(2) 0.0973 Uani
C24A C 0.2758(4) -0.1542(4) 0.7481(2) 0.0973 Uani
H17C H 1.1332 0.4123 0.7971 0.1170 Uiso
H17A H 0.2791 -0.1332 0.7971 0.1170 Uiso
C25C C 1.18113(26) 0.50882(18) 0.72671(16) 0.0418 Uani
C25A C 0.32769(19) -0.18113(26) 0.72671(16) 0.0418 Uani
C26C C 1.21261(25) 0.53408(18) 0.65503(16) 0.0393 Uani
C26A C 0.32147(18) -0.21261(25) 0.65503(16) 0.0393 Uani
H18C H 1.2318 0.5882 0.6405 0.0470 Uiso
H18A H 0.3564 -0.2318 0.6405 0.0470 Uiso
N1C N 1.19664(18) 0.64424(13) 0.87471(12) 0.0334 Uani
N1A N 0.44760(13) -0.19664(18) 0.87471(12) 0.0334 Uani
N2C N 1.22430(19) 0.59839(14) 0.83869(13) 0.0368 Uani
N2A N 0.37409(13) -0.22430(19) 0.83869(13) 0.0368 Uani
N3C N 1.11875(22) 0.58774(16) 0.77927(15) 0.0466 Uani
N3A N 0.46899(15) -0.11875(22) 0.77927(15) 0.0466 Uani
N4C N 1.33567(28) 0.5567(2) 0.43395(17) 0.0570 Uani
N4A N 0.22103(19) -0.33567(28) 0.43395(17) 0.0570 Uani
N5C N 1.32842(26) 0.54822(18) 0.51280(16) 0.0552 Uani
N5A N 0.21980(19) -0.32842(26) 0.51280(16) 0.0552 Uani
N6C N 1.20650(21) 0.48671(15) 0.46375(13) 0.0387 Uani
N6A N 0.28021(15) -0.20650(21) 0.46375(13) 0.0387 Uani
O1E O 0.3334 0.6667 0.99218(16) 0.0283 Uani
O1D O 1.3333 0.6666 0.99218(16) 0.0283 Uani
O1B O 0.3333 -0.3333 0.99218(16) 0.0283 Uani
O2C O 0.76767(21) 0.41709(14) 0.64204(11) 0.0482 Uani
O2A O 0.64942(15) 0.23233(21) 0.64204(11) 0.0482 Uani
O3C O 0.83198(17) 0.49283(12) 0.54142(11) 0.0387 Uani
O3A O 0.66085(12) 0.16802(17) 0.54142(11) 0.0387 Uani
O3B O 0.33915(12) 0.50717(12) 1.04142(11) 0.0387 Uani
O3E O 1.16802(17) 0.66085(12) 1.04142(11) 0.0387 Uani
O3D O 0.49283(12) -0.16802(17) 1.04142(11) 0.0387 Uani
O4C O 0.82298(18) 0.32727(13) 0.48802(12) 0.0451 Uani
O4A O 0.50429(12) 0.17702(18) 0.48802(12) 0.0451 Uani
O4E O 0.17702(18) 0.50429(12) 0.98802(12) 0.0451 Uani
O4D O 1.32727(13) 0.82298(18) 0.98802(12) 0.0451 Uani
O4B O 0.49571(12) -0.32727(13) 0.98802(12) 0.0451 Uani
O5C O 0.82945(23) 0.23058(15) 0.42559(15) 0.0606 Uani
O5A O 0.40113(17) 0.17055(23) 0.42559(15) 0.0606 Uani
Zn2C Zn 1.260490(23) 0.707770(16) 0.965170(15) 0.0293 Uani
Zn2A Zn 0.447280(16) -0.260490(23) 0.965170(15) 0.0293 Uani
Zn2E Zn 0.739510(23) 0.447280(16) 0.465170(15) 0.0293 Uani
Zn2B Zn 0.552720(16) 0.292230(16) 0.465170(15) 0.0293 Uani
Zn2D Zn 0.707770(16) 0.260490(23) 0.465170(15) 0.0293 Uani
loop_
_atom_site_aniso_label
_atom_site_aniso_U_11
_atom_site_aniso_U_22
_atom_site_aniso_U_33
_atom_site_aniso_U_23
_atom_site_aniso_U_13
_atom_site_aniso_U_12
C1 0.0355(13) 0.0414(14) 0.0347(14) -0.0012(11) 0.0040(11) 0.0191(12)
C2 0.0366(14) 0.0457(15) 0.0375(14) -0.0092(12) 0.0018(11) 0.0199(12)
C3 0.075(3) 0.149(5) 0.079(3) -0.074(3) -0.038(2) 0.083(3)
C4 0.073(3) 0.153(5) 0.089(3) -0.082(3) -0.037(2) 0.077(3)
C5 0.0444(16) 0.0495(17) 0.0485(17) -0.0157(13) 0.0085(13) 0.0229(14)
C6 0.0586(19) 0.0617(19) 0.0435(16) -0.0054(14) 0.0044(14) 0.0424(17)
C7 0.0558(18) 0.0544(17) 0.0405(15) -0.0084(13) -0.0010(13) 0.0365(15)
C8 0.064(2) 0.0427(17) 0.093(3) 0.0006(18) 0.026(2) 0.0292(17)
C9 0.0409(14) 0.0383(14) 0.0450(15) -0.0046(11) 0.0086(12) 0.0219(12)
C10 0.0353(13) 0.0457(15) 0.0298(12) -0.0038(11) 0.0022(10) 0.0222(12)
C11 0.0438(16) 0.0502(16) 0.0411(15) -0.0045(13) -0.0055(13) 0.0280(14)
C12 0.0394(14) 0.0420(14) 0.0419(14) -0.0023(12) -0.0002(11) 0.0250(12)
C13 0.0447(17) 0.0514(18) 0.071(2) 0.0150(16) 0.0218(15) 0.0282(15)
C14 0.0530(18) 0.0446(17) 0.072(2) 0.0191(15) 0.0206(16) 0.0307(15)
C15 0.0451(15) 0.0430(14) 0.0358(13) 0.0003(11) 0.0018(11) 0.0287(13)
C16 0.0372(14) 0.0414(15) 0.0493(16) 0.0080(12) 0.0054(12) 0.0229(12)
C17 0.0395(14) 0.0360(14) 0.0521(16) 0.0062(12) 0.0023(12) 0.0213(12)
C18 0.090(3) 0.088(3) 0.0404(18) -0.0036(17) -0.0090(18) 0.061(2)
C19 0.0541(17) 0.0491(17) 0.0422(16) 0.0056(13) -0.0006(13) 0.0335(15)
C20 0.0453(15) 0.0460(16) 0.0400(15) 0.0014(12) 0.0044(12) 0.0277(14)
C21 0.0474(16) 0.0507(17) 0.0389(15) -0.0010(13) 0.0054(13) 0.0280(14)
C22 0.053(2) 0.110(4) 0.051(2) 0.025(2) 0.0050(17) 0.008(2)
C23 0.052(2) 0.177(6) 0.065(3) 0.043(3) -0.012(2) -0.019(3)
C24 0.044(2) 0.143(5) 0.048(2) 0.027(2) -0.0049(16) 0.004(2)
C25 0.0392(14) 0.0499(16) 0.0336(13) -0.0002(12) 0.0052(11) 0.0202(13)
C26 0.0397(14) 0.0408(14) 0.0410(15) 0.0000(11) 0.0043(12) 0.0228(12)
N1 0.0351(11) 0.0345(11) 0.0331(11) -0.0013(9) 0.0015(9) 0.0192(9)
N2 0.0394(12) 0.0354(11) 0.0368(11) 0.0023(9) 0.0062(9) 0.0196(10)
N3 0.0489(14) 0.0403(13) 0.0503(14) -0.0086(11) 0.0132(11) 0.0220(11)
N4 0.073(2) 0.0657(18) 0.0547(17) 0.0021(14) -0.0036(14) 0.0514(17)
N5 0.0692(19) 0.0676(18) 0.0517(15) -0.0044(14) -0.0010(13) 0.0513(16)
N6 0.0478(13) 0.0419(12) 0.0360(12) 0.0024(9) 0.0019(10) 0.0297(11)
O1 0.0285(9) 0.0285(9) 0.0278(14) 0.000 0.000 0.0142(4)
O2 0.0534(12) 0.0712(15) 0.0319(10) -0.0035(10) 0.0032(9) 0.0401(12)
O3 0.0389(10) 0.0417(10) 0.0383(10) -0.0073(8) -0.0001(8) 0.0223(8)
O4 0.0505(12) 0.0398(11) 0.0512(12) -0.0055(9) -0.0093(9) 0.0272(10)
O5 0.0541(14) 0.0800(17) 0.0644(15) 0.0081(13) 0.0120(12) 0.0460(13)
Zn1 0.03220(16) 0.03220(16) 0.0228(2) 0.000 0.000 0.01610(8)
Zn2 0.03121 0.02923 0.02766 -0.00214 -0.00083 0.01529
C1C 0.0387 0.0355 0.0347 -0.004 -0.0052 0.0164
C1A 0.0414 0.0387 0.0347 0.0052 0.0012 0.0223
C2C 0.0425 0.0366 0.0375 -0.0018 -0.011 0.0167
C2A 0.0457 0.0425 0.0375 0.011 0.0092 0.0258
C3C 0.058 0.075 0.079 0.038 -0.036 -0.008
C3A 0.149 0.058 0.079 0.036 0.074 0.066
C4C 0.072 0.073 0.089 0.037 -0.045 -0.004
C4A 0.153 0.072 0.089 0.045 0.082 0.076
C5C 0.0481 0.0444 0.0485 -0.0085 -0.0242 0.0215
C5A 0.0495 0.0481 0.0485 0.0242 0.0157 0.0266
C6C 0.0355 0.0586 0.0435 -0.0044 -0.0098 0.0162
C6A 0.0617 0.0355 0.0435 0.0098 0.0054 0.0193
C7C 0.0372 0.0558 0.0405 0.001 -0.0074 0.0193
C7A 0.0544 0.0372 0.0405 0.0074 0.0084 0.0179
C8C 0.0483 0.064 0.093 -0.026 -0.0254 0.0348
C8A 0.0427 0.0483 0.093 0.0254 -0.0006 0.0135
C9C 0.0354 0.0409 0.045 -0.0086 -0.0132 0.019
C9A 0.0383 0.0354 0.045 0.0132 0.0046 0.0164
C10C 0.0366 0.0353 0.0298 -0.0022 -0.006 0.0131
C10A 0.0457 0.0366 0.0298 0.006 0.0038 0.0235
C11C 0.038 0.0438 0.0411 0.0055 0.001 0.0158
C11A 0.0502 0.038 0.0411 -0.001 0.0045 0.0222
C12C 0.0314 0.0394 0.0419 0.0002 -0.0021 0.0144
C12A 0.042 0.0314 0.0419 0.0021 0.0023 0.017
C13C 0.0397 0.0447 0.071 -0.0218 -0.0068 0.0165
C13A 0.0514 0.0397 0.071 0.0068 -0.015 0.0232
C14C 0.0362 0.053 0.072 -0.0206 -0.0015 0.0223
C14A 0.0446 0.0362 0.072 0.0015 -0.0191 0.0139
C15C 0.0307 0.0451 0.0358 -0.0018 -0.0015 0.0164
C15A 0.043 0.0307 0.0358 0.0015 -0.0003 0.0143
C16C 0.0328 0.0372 0.0493 -0.0054 0.0026 0.0143
C16A 0.0414 0.0328 0.0493 -0.0026 -0.008 0.0185
C17C 0.0329 0.0395 0.0521 -0.0023 0.0039 0.0182
C17A 0.036 0.0329 0.0521 -0.0039 -0.0062 0.0147
C18C 0.056 0.09 0.0404 0.009 0.0054 0.029
C18A 0.088 0.056 0.0404 -0.0054 0.0036 0.027
C19C 0.0362 0.0541 0.0422 0.0006 0.0062 0.0206
C19A 0.0491 0.0362 0.0422 -0.0062 -0.0056 0.0156
C20C 0.0359 0.0453 0.04 -0.0044 -0.003 0.0176
C20A 0.046 0.0359 0.04 0.003 -0.0014 0.0183
C21C 0.0421 0.0474 0.0389 -0.0054 -0.0064 0.0194
C21A 0.0507 0.0421 0.0389 0.0064 0.001 0.0227
C22C 0.147 0.053 0.051 -0.005 0.02 0.045
C22A 0.11 0.147 0.051 -0.02 -0.025 0.102
C23C 0.267 0.052 0.065 0.012 0.055 0.071
C23A 0.177 0.267 0.065 -0.055 -0.043 0.196
C24C 0.179 0.044 0.048 0.0049 0.0319 0.04
C24A 0.143 0.179 0.048 -0.0319 -0.027 0.139
C25C 0.0487 0.0392 0.0336 -0.0052 -0.0054 0.019
C25A 0.0499 0.0487 0.0336 0.0054 0.0002 0.0297
C26C 0.0349 0.0397 0.041 -0.0043 -0.0043 0.0169
C26A 0.0408 0.0349 0.041 0.0043 0 0.018
N1C 0.0312 0.0351 0.0331 -0.0015 -0.0028 0.0159
N1A 0.0345 0.0312 0.0331 0.0028 0.0013 0.0153
N2C 0.0356 0.0394 0.0368 -0.0062 -0.0039 0.0198
N2A 0.0354 0.0356 0.0368 0.0039 -0.0023 0.0158
N3C 0.0452 0.0489 0.0503 -0.0132 -0.0218 0.0269
N3A 0.0403 0.0452 0.0503 0.0218 0.0086 0.0183
N4C 0.0359 0.073 0.0547 0.0036 0.0057 0.0216
N4A 0.0657 0.0359 0.0547 -0.0057 -0.0021 0.0143
N5C 0.0342 0.0692 0.0517 0.001 -0.0034 0.0179
N5A 0.0676 0.0342 0.0517 0.0034 0.0044 0.0163
N6C 0.0303 0.0478 0.036 -0.0019 0.0005 0.0181
N6A 0.0419 0.0303 0.036 -0.0005 -0.0024 0.0122
O1E 0.0285 0.0285 0.0278 0 0 0.0142
O1D 0.0285 0.0285 0.0278 0 0 0.0142
O1B 0.0285 0.0285 0.0278 0 0 0.0142
O2C 0.0444 0.0534 0.0319 -0.0032 -0.0067 0.0133
O2A 0.0712 0.0444 0.0319 0.0067 0.0035 0.0311
O3C 0.036 0.0389 0.0383 0.0001 -0.0072 0.0166
O3A 0.0417 0.036 0.0383 0.0072 0.0073 0.0194
O3B 0.0417 0.0389 0.0383 -0.0001 -0.0073 0.0223
O3E 0.036 0.0417 0.0383 0.0073 0.0072 0.0194
O3D 0.0389 0.036 0.0383 -0.0072 0.0001 0.0166
O4C 0.0359 0.0505 0.0512 0.0093 0.0038 0.0233
O4A 0.0398 0.0359 0.0512 -0.0038 0.0055 0.0126
O4E 0.0359 0.0398 0.0512 0.0055 -0.0038 0.0126
O4D 0.0505 0.0359 0.0512 0.0038 0.0093 0.0233
O4B 0.0398 0.0505 0.0512 -0.0093 -0.0055 0.0272
O5C 0.0421 0.0541 0.0644 -0.012 -0.0039 0.0081
O5A 0.08 0.0421 0.0644 0.0039 -0.0081 0.034
Zn2C 0.02986 0.03121 0.02766 0.00083 -0.00131 0.01592
Zn2A 0.02923 0.02986 0.02766 0.00131 0.00214 0.01394
Zn2E 0.02986(15) 0.02923(15) 0.02766(14) 0.00214(11) 0.00131(11) 0.01394(12)
Zn2B 0.02923 0.03121 0.02766 -0.00083 -0.00214 0.01529
Zn2D 0.03121 0.02986 0.02766 -0.00131 0.00083 0.01592
loop_
_geom_bond_atom_site_label_1
_geom_bond_atom_site_label_2
_geom_bond_site_symmetry_1
_geom_bond_site_symmetry_2
C1 C2 1_555 1_555
C2 C3 1_555 1_555
C3 H1 1_555 1_555
C4 C3 1_555 1_555
H2 C4 1_555 1_555
C5 C4 1_555 1_555
C6 C5 1_555 1_555
H3 C6 1_555 1_555
C7 C2 1_555 1_555
H4 C7 1_555 1_555
C8 H5 1_555 1_555
H6 C8 1_555 1_555
H7 C8 1_555 1_555
C9 C8 1_555 1_555
C10 C25 1_555 1_555
C11 C12 1_555 1_555
C12 C13 1_555 1_555
C13 H8 1_555 1_555
C14 C13 1_555 1_555
H9 C14 1_555 1_555
C15 C14 1_555 1_555
C16 C15 1_555 1_555
H10 C16 1_555 1_555
C17 C12 1_555 1_555
H11 C17 1_555 1_555
C18 H12 1_555 1_555
H13 C18 1_555 1_555
H14 C18 1_555 1_555
C19 C18 1_555 1_555
C20 C21 1_555 1_555
C21 C22 1_555 1_555
C22 H15 1_555 1_555
C23 C22 1_555 1_555
H16 C23 1_555 1_555
C24 C23 1_555 1_555
H17 C24 1_555 1_555
C25 C24 1_555 1_555
C26 C21 1_555 1_555
H18 C26 1_555 1_555
N1 C9 1_555 1_555
N2 C10 1_555 1_555
N3 C5 1_555 1_555
N4 C19 1_555 1_555
N5 C20 1_555 1_555
N6 C15 1_555 1_555
O1 Zn1 1_555 1_555
O2 C1 1_555 1_555
O3 C1 1_555 1_555
O4 C11 1_555 1_555
O5 C11 1_555 1_555
Zn1 O2 1_555 1_555
Zn2 N1 1_555 1_555
C1C C2C 1_555 1_555
C1A C2A 1_555 1_555
C2C C3C 1_555 1_555
C2A C3A 1_555 1_555
C3C H1C 1_555 1_555
C3A H1A 1_555 1_555
C4C C3C 1_555 1_555
C4A C3A 1_555 1_555
H2C C4C 1_555 1_555
H2A C4A 1_555 1_555
C5C C4C 1_555 1_555
C5A C4A 1_555 1_555
C6C C5C 1_555 1_555
C6A C5A 1_555 1_555
H3C C6C 1_555 1_555
H3A C6A 1_555 1_555
C7C C2C 1_555 1_555
C7A C2A 1_555 1_555
H4C C7C 1_555 1_555
H4A C7A 1_555 1_555
C8C H5C 1_555 1_555
C8A H5A 1_555 1_555
H6C C8C 1_555 1_555
H6A C8A 1_555 1_555
H7C C8C 1_555 1_555
H7A C8A 1_555 1_555
C9C C8C 1_555 1_555
C9A C8A 1_555 1_555
C10C C25C 1_555 1_555
C10A C25A 1_555 1_555
C11C C12C 1_555 1_555
C11A C12A 1_555 1_555
C12C C13C 1_555 1_555
C12A C13A 1_555 1_555
C13C H8C 1_555 1_555
C13A H8A 1_555 1_555
C14C C13C 1_555 1_555
C14A C13A 1_555 1_555
H9C C14C 1_555 1_555
H9A C14A 1_555 1_555
C15C C14C 1_555 1_555
C15A C14A 1_555 1_555
C16C C15C 1_555 1_555
C16A C15A 1_555 1_555
H10C C16C 1_555 1_555
H10A C16A 1_555 1_555
C17C C12C 1_555 1_555
C17A C12A 1_555 1_555
H11C C17C 1_555 1_555
H11A C17A 1_555 1_555
C18C H12C 1_555 1_555
C18A H12A 1_555 1_555
H13C C18C 1_555 1_555
H13A C18A 1_555 1_555
H14C C18C 1_555 1_555
H14A C18A 1_555 1_555
C19C C18C 1_555 1_555
C19A C18A 1_555 1_555
C20C C21C 1_555 1_555
C20A C21A 1_555 1_555
C21C C22C 1_555 1_555
C21A C22A 1_555 1_555
C22C H15C 1_555 1_555
C22A H15A 1_555 1_555
C23C C22C 1_555 1_555
C23A C22A 1_555 1_555
H16C C23C 1_555 1_555
H16A C23A 1_555 1_555
C24C C23C 1_555 1_555
C24A C23A 1_555 1_555
H17C C24C 1_555 1_555
H17A C24A 1_555 1_555
C25C C24C 1_555 1_555
C25A C24A 1_555 1_555
C26C C21C 1_555 1_555
C26A C21A 1_555 1_555
H18C C26C 1_555 1_555
H18A C26A 1_555 1_555
N1C C9C 1_555 1_555
N1A C9A 1_555 1_555
N2C C10C 1_555 1_555
N2A C10A 1_555 1_555
N3C C5C 1_555 1_555
N3A C5A 1_555 1_555
N4C C19C 1_555 1_555
N4A C19A 1_555 1_555
N5C C20C 1_555 1_555
N5A C20A 1_555 1_555
N6C C15C 1_555 1_555
N6A C15A 1_555 1_555
O1E Zn2 1_555 1_555
O1D Zn2C 1_555 1_555
O1B Zn2A 1_555 1_555
O2C Zn1 1_555 1_555
O2A Zn1 1_555 1_555
O3C C1C 1_555 1_555
O3A C1A 1_555 1_555
O3B Zn2 1_555 1_555
O3E Zn2C 1_555 1_555
O3D Zn2A 1_555 1_555
O4C C11C 1_555 1_555
O4A C11A 1_555 1_555
O4E Zn2 1_555 1_555
O4D Zn2C 1_555 1_555
O4B Zn2A 1_555 1_555
O5C C11C 1_555 1_555
O5A C11A 1_555 1_555
Zn2C N1C 1_555 1_555
Zn2A N1A 1_555 1_555
Zn2E O1 1_555 1_555
Zn2B O1 1_555 1_555
Zn2D O1 1_555 1_555
C6 C7 1_555 1_555
C9 N3 1_555 1_555
C10 N3 1_555 1_555
C16 C17 1_555 1_555
C19 N6 1_555 1_555
C20 N6 1_555 1_555
C25 C26 1_555 1_555
N1 N2 1_555 1_555
N4 N5 1_555 1_555
O3 Zn2B 1_555 1_555
O4 Zn2E 1_555 1_555
C1C O2C 1_555 1_555
C1A O2A 1_555 1_555
C6C C7C 1_555 1_555
C6A C7A 1_555 1_555
C9C N3C 1_555 1_555
C9A N3A 1_555 1_555
C10C N3C 1_555 1_555
C10A N3A 1_555 1_555
C16C C17C 1_555 1_555
C16A C17A 1_555 1_555
C19C N6C 1_555 1_555
C19A N6A 1_555 1_555
C20C N6C 1_555 1_555
C20A N6A 1_555 1_555
C25C C26C 1_555 1_555
C25A C26A 1_555 1_555
N1C N2C 1_555 1_555
N1A N2A 1_555 1_555
N4C N5C 1_555 1_555
N4A N5A 1_555 1_555
O3C Zn2E 1_555 1_555
O3A Zn2D 1_555 1_555
O4C Zn2D 1_555 1_555
O4A Zn2B 1_555 1_555

#END
