
#######################################################################
#
#                 Cambridge Crystallographic Data Centre
#                                CCDC 
#
#######################################################################
#
# If this CIF has been generated from an entry in the Cambridge 
# Structural Database, then it will include bibliographic, chemical, 
# crystal, experimental, refinement or atomic coordinate data resulting 
# from the CCDC's data processing and validation procedures.
#
#######################################################################

data_WUXYOF
_chemical_name_common            'MOF-705 after supercritical CO2'
_chemical_formula_moiety         
'(C33 H34 N4 Na8 O24)n,0.73(H2 O1),0.75(C1 H4 O1)'
_chemical_name_systematic        
"catena-(bis(\m-2,2'-(1,4-Phenylenebis(carbonylimino))disuccinato)-bis(\m-aqua)-methanol-aqua-tetra-sodium methanol solvate hydrate)"
_symmetry_cell_setting           monoclinic
_symmetry_space_group_name_H-M   'P 21'
_symmetry_Int_Tables_number      4
_space_group_name_Hall           'P 2yb'
loop_
_symmetry_equiv_pos_site_id
_symmetry_equiv_pos_as_xyz
1 x,y,z
2 -x,1/2+y,-z
_cell_length_a                   24.0448(19)
_cell_length_b                   5.2432(5)
_cell_length_c                   16.9833(14)
_cell_angle_alpha                90
_cell_angle_beta                 103.366(6)
_cell_angle_gamma                90
_cell_volume                     2083.12
_exptl_crystal_colour            colorless
_exptl_crystal_description       Needle
_cell_formula_units_Z            2
loop_
_atom_site_label
_atom_site_type_symbol
_atom_site_fract_x
_atom_site_fract_y
_atom_site_fract_z
Na1 Na 0.04619(19) -1.0311(10) -0.9641(3)
Na2 Na -0.0812(2) 0.0093(9) 0.0915(3)
Na3 Na -0.54697(19) -1.5737(9) -0.0408(3)
Na4 Na -0.19383(19) 0.4337(10) -0.0339(3)
Na5 Na -0.4167(2) -0.5331(10) -0.0839(3)
Na6 Na -0.3057(2) -0.0845(10) -0.9656(3)
Na7 Na -0.1630(2) -0.8953(10) -0.7661(3)
Na8 Na -0.3352(2) -0.4658(11) -0.2305(3)
O1 O -0.1183(3) 0.1706(17) -0.0375(5)
O2 O -0.4990(3) -1.2685(17) -0.0901(5)
O3 O -0.1246(3) -0.2499(17) -0.0402(5)
O4 O -0.3778(4) -0.3609(16) -0.9528(5)
O5 O -0.1381(4) -0.2408(17) -0.8375(5)
O6 O -0.0091(4) -0.3084(17) -0.8992(5)
O7 O -0.2383(3) 0.5753(17) 0.0679(5)
H1 H -0.2080 0.6298 0.1149
H2 H -0.2581 0.4278 0.0856
O8 O -0.3608(4) -0.7810(18) -0.1543(5)
O9 O -0.3766(3) -0.7816(17) -0.9567(5)
O10 O 0.0032(4) -0.7256(18) -0.9039(5)
O11 O -0.1144(3) -0.6505(17) -0.8413(5)
O12 O -0.2584(4) 0.0726(17) -1.0639(5)
H3 H -0.2883 0.1176 -1.1125
H4 H -0.2364 -0.0711 -1.0794
O13 O -0.4883(4) -0.8507(17) -0.0988(5)
O14 O -0.2583(4) -0.8719(17) -0.8468(6)
O15 O -0.4193(3) -0.5478(18) -0.3349(5)
O16 O -0.2390(4) -0.3752(18) -0.1560(6)
O17 O -0.0779(4) 0.0041(19) -0.6625(5)
O18 O -0.3801(4) -1.1989(19) -0.1551(6)
O19 O -0.1855(4) -0.5226(19) -0.6996(5)
H5 H -0.1883 -0.5600 -0.6500
H6 H -0.2184 -0.4588 -0.7265
O20 O -0.2508(4) -1.063(2) -0.7279(6)
N1 N -0.0529(4) -0.408(2) -0.6746(6)
H7 H -0.0442 -0.5554 -0.6504
N2 N -0.4427(4) -0.961(2) -0.3208(6)
H8 H -0.4505 -1.1103 -0.3445
N3 N -0.3471(4) -0.819(2) -0.7042(7)
H9 H -0.3267 -0.7092 -0.6704
C1 C -0.1287(5) -0.038(3) -0.0749(8)
N4 N -0.1478(5) -0.238(3) -0.2929(7)
H10 H -0.1523 -0.0873 -0.3161
C2 C -0.0015(5) -0.524(3) -0.8668(8)
O21 O -0.4098(5) -1.142(2) -0.7189(7)
C3 C -0.3691(5) -0.577(3) -0.9195(8)
C4 C -0.4947(5) -1.074(3) -0.1285(8)
C5 C -0.4255(5) -0.768(3) -0.3610(8)
C6 C -0.0473(5) -0.373(2) -0.7569(7)
H11 H -0.0369 -0.1909 -0.7630
C7 C -0.0716(5) -0.214(3) -0.6345(8)
C8 C -0.4179(5) -0.827(2) -0.4440(8)
C9 C -0.3514(5) -0.572(2) -0.8273(7)
H12 H -0.3821 -0.4882 -0.8068
H13 H -0.3167 -0.4652 -0.8111
C10 C -0.4486(6) -0.925(3) -0.2377(7)
H14 H -0.4592 -0.7426 -0.2313
C11 C 0.0009(5) -0.540(3) -0.7762(7)
H15 H 0.0385 -0.4780 -0.7450
H16 H -0.0038 -0.7187 -0.7606
C12 C -0.3388(6) -0.834(3) -0.7848(8)
H17 H -0.3667 -0.9609 -0.8155
C13 C -0.4957(5) -1.094(2) -0.2192(7)
H18 H -0.4895 -1.2733 -0.2333
H19 H -0.5334 -1.0386 -0.2517
O22 O -0.1289(7) -0.652(2) -0.3063(8)
C14 C -0.3916(6) -0.978(3) -0.1778(8)
C15 C -0.0835(5) -0.276(2) -0.5554(8)
C16 C -0.4402(5) -1.033(3) -0.4906(8)
H20 H -0.4632 -1.1514 -0.4700
C17 C -0.1467(6) -0.022(3) -0.1660(8)
H21 H -0.1161 0.0678 -0.1850
H22 H -0.1812 0.0877 -0.1799
C18 C -0.3850(6) -0.967(3) -0.6781(9)
C19 C -0.1599(6) -0.267(3) -0.2139(8)
H23 H -0.1349 -0.4048 -0.1842
C20 C -0.2777(6) -0.926(3) -0.7859(10)
C21 C -0.3945(6) -0.913(3) -0.5953(8)
C22 C -0.1210(6) -0.108(3) -0.5285(8)
H24 H -0.1361 0.0356 -0.5606
C23 C -0.1140(7) -0.362(3) -0.4105(8)
O23 O -0.2588(6) -0.307(3) -0.2908(9)
C24 C -0.1045(6) -0.422(3) -0.8160(8)
C25 C -0.0619(6) -0.481(3) -0.5088(8)
H25 H -0.0362 -0.5934 -0.5265
C26 C -0.4301(6) -1.073(3) -0.5666(8)
H26 H -0.4480 -1.2121 -0.5988
C27 C -0.3746(7) -0.699(3) -0.5505(9)
H27 H -0.3532 -0.5772 -0.5727
C28 C -0.3843(6) -0.654(3) -0.4764(8)
H28 H -0.3686 -0.5074 -0.4465
C29 C -0.0768(6) -0.529(3) -0.4372(8)
H29 H -0.0618 -0.6735 -0.4058
C30 C -0.1363(6) -0.151(3) -0.4555(8)
H30 H -0.1614 -0.0380 -0.4370
C31 C -0.1304(7) -0.428(4) -0.3312(10)
C32 C -0.2241(7) -0.340(4) -0.2185(11)
O24 O -0.2955(11) 0.189(5) -0.3013(14)
H31 H -0.2829 0.2119 -0.3429
C33 C -0.3089(17) -0.032(10) -0.298(3)
H32 H -0.2989 -0.0884 -0.2410
H33 H -0.3502 -0.0502 -0.3189
Na1_2 Na 0.04619(19) -0.0311(10) -0.9641(3)
Na1A Na -0.04619(19) -0.5311(10) -1.0359(3)
Na1A_2 Na -0.04619(19) -0.5311(10) -0.0359(3)
Na1A_3 Na -0.04619(19) 0.4689(10) -0.0359(3)
Na2_2 Na -0.0812(2) -0.9907(9) -0.9085(3)
Na2_3 Na -0.0812(2) 0.0093(9) -0.9085(3)
Na3_2 Na -0.54697(19) -0.5737(9) -0.0408(3)
Na3A Na -0.45303(19) -1.0737(9) -0.9592(3)
Na3A_2 Na -0.45303(19) -1.0737(9) 0.0408(3)
Na3A_3 Na -0.45303(19) -0.0737(9) -0.9592(3)
Na4_2 Na -0.19383(19) -0.5663(10) -0.0339(3)
Na4_3 Na -0.19383(19) 0.4337(10) -1.0339(3)
Na5_2 Na -0.4167(2) -1.5331(10) -0.0839(3)
Na5_3 Na -0.4167(2) -0.5331(10) -1.0839(3)
Na6_2 Na -0.3057(2) -1.0845(10) -0.9656(3)
Na6_3 Na -0.3057(2) 0.9155(10) 0.0344(3)
Na7_2 Na -0.1630(2) 0.1047(10) -0.7661(3)
Na8_2 Na -0.3352(2) -1.4658(11) -0.2305(3)
Na8_3 Na -0.3352(2) 0.5342(11) -0.2305(3)
O1A O 0.1183(3) -1.3294(17) -0.9625(5)
O2_2 O -0.4990(3) -0.2685(17) -0.0901(5)
O2A O -0.5010(3) -1.7685(17) 0.0901(5)
O3_2 O -0.1246(3) 0.7501(17) -0.0402(5)
O3A O 0.1246(3) -0.7499(17) -0.9598(5)
O4_2 O -0.3778(4) -0.3609(16) 0.0472(5)
O4A O -0.6222(4) -1.8609(16) -0.0472(5)
O5_2 O -0.1381(4) -1.2408(17) -0.8375(5)
O5_3 O -0.1381(4) -0.2408(17) 0.1625(5)
O6_2 O -0.0091(4) -1.3084(17) -0.8992(5)
O6_3 O -0.0091(4) -0.3084(17) 0.1008(5)
O6A O 0.0091(4) -0.8084(17) -1.1008(5)
O7_2 O -0.2383(3) -0.4247(17) -0.9321(5)
O9_2 O -0.3766(3) -0.7816(17) 0.0433(5)
O9_3 O -0.3766(3) 0.2184(17) -0.9567(5)
O9A O -0.6234(3) -1.2816(17) -0.0433(5)
O10_2 O 0.0032(4) 0.2744(18) 0.0961(5)
O10A O -0.0032(4) -1.2256(18) -1.0961(5)
O11_2 O -0.1144(3) 0.3495(17) 0.1587(5)
O12_2 O -0.2584(4) 0.0726(17) -0.0639(5)
O13_2 O -0.4883(4) -1.8507(17) -0.0988(5)
O13A O -0.5117(4) -1.3507(17) 0.0988(5)
O14_2 O -0.2583(4) 0.1281(17) -0.8468(6)
O16_2 O -0.2390(4) 0.6248(18) -0.1560(6)
O17_2 O -0.0779(4) -0.9959(19) -0.6625(5)
O18_2 O -0.3801(4) -0.1989(19) -0.1551(6)
O24_2 O -0.2955(11) -0.811(5) -0.3013(14)
O25 O -0.2707(5) -1.390(3) -0.6110(8)
C34 C -0.268(2) -1.213(14) -0.583(3)
O26 O -0.2787(6) -0.170(4) -0.4488(9)
H34 H -0.2670 -0.2650 -0.4063
H35 H -0.2693 -0.0118 -0.4366
O27 O -0.227(2) -1.736(12) -0.407(3)
C35 C -0.248(2) -1.542(13) -0.443(3)
O28? O -0.2409(16) -0.555(9) -0.266(2)
O29? O -0.2224(18) -1.696(9) -0.561(2)
H36? H -0.2885 -0.1365 -0.3296
loop_
_geom_bond_atom_site_label_1
_geom_bond_atom_site_label_2
_geom_bond_site_symmetry_1
_geom_bond_site_symmetry_2
Na1 O10 1_555 1_555
Na2 O1 1_555 1_555
Na3 O2 1_555 1_555
Na4 O1 1_555 1_555
Na5 O8 1_555 1_555
Na6 O4 1_555 1_555
Na7 O11 1_555 1_555
Na8 O8 1_555 1_555
O1 C1 1_555 1_555
O2 C4 1_555 1_555
O3 Na2 1_555 1_555
O4 C3 1_555 1_555
O5 C24 1_555 1_555
O6 C2 1_555 1_555
O7 Na4 1_555 1_555
H1 O7 1_555 1_555
H2 O7 1_555 1_555
O8 C14 1_555 1_555
O9 C3 1_555 1_555
O10 C2 1_555 1_555
O11 C24 1_555 1_555
O12 Na6 1_555 1_555
H3 O12 1_555 1_555
H4 O12 1_555 1_555
O13 Na5 1_555 1_555
O14 Na7 1_555 1_555
O15 Na8 1_555 1_555
O16 Na8 1_555 1_555
O17 C7 1_555 1_555
O18 C14 1_555 1_555
O19 Na7 1_555 1_555
H5 O19 1_555 1_555
H6 O19 1_555 1_555
O20 Na7 1_555 1_555
N1 H7 1_555 1_555
N2 H8 1_555 1_555
N3 H9 1_555 1_555
C1 O3 1_555 1_555
N4 H10 1_555 1_555
C2 C11 1_555 1_555
O21 C18 1_555 1_555
C3 C9 1_555 1_555
C4 O13 1_555 1_555
C5 O15 1_555 1_555
C6 N1 1_555 1_555
H11 C6 1_555 1_555
C7 N1 1_555 1_555
C8 C5 1_555 1_555
C9 H12 1_555 1_555
H13 C9 1_555 1_555
C10 N2 1_555 1_555
H14 C10 1_555 1_555
C11 C6 1_555 1_555
H15 C11 1_555 1_555
H16 C11 1_555 1_555
C12 N3 1_555 1_555
H17 C12 1_555 1_555
C13 C4 1_555 1_555
H18 C13 1_555 1_555
H19 C13 1_555 1_555
O22 C31 1_555 1_555
C14 C10 1_555 1_555
C15 C7 1_555 1_555
C16 C8 1_555 1_555
H20 C16 1_555 1_555
C17 C1 1_555 1_555
H21 C17 1_555 1_555
H22 C17 1_555 1_555
C18 N3 1_555 1_555
C19 N4 1_555 1_555
H23 C19 1_555 1_555
C20 O14 1_555 1_555
C21 C18 1_555 1_555
C22 C15 1_555 1_555
H24 C22 1_555 1_555
C23 C29 1_555 1_555
O23 Na8 1_555 1_555
C24 C6 1_555 1_555
C25 C15 1_555 1_555
H25 C25 1_555 1_555
C26 C16 1_555 1_555
H26 C26 1_555 1_555
C27 C21 1_555 1_555
H27 C27 1_555 1_555
C28 C8 1_555 1_555
H28 C28 1_555 1_555
C29 C25 1_555 1_555
H29 C29 1_555 1_555
C30 C22 1_555 1_555
H30 C30 1_555 1_555
C31 N4 1_555 1_555
C32 O16 1_555 1_555
O24 H31 1_555 1_555
C33 O24 1_555 1_555
H32 C33 1_555 1_555
H33 C33 1_555 1_555
O25 C34 1_555 1_555
O26 H34 1_555 1_555
H35 O26 1_555 1_555
O27 C35 1_555 1_555
Na1_2 O6 1_555 1_555
Na1A O6 1_555 1_555
Na1A_2 O3 1_555 1_555
Na1A_3 O1 1_555 1_555
Na2_2 O10 1_555 1_555
Na2_3 O5 1_555 1_555
Na3_2 O13 1_555 1_555
Na3A O9 1_555 1_555
Na3A_2 O2 1_555 1_555
Na3A_3 O4 1_555 1_555
Na4_2 O3 1_555 1_555
Na4_3 O12 1_555 1_555
Na5_2 O2 1_555 1_555
Na5_3 O4 1_555 1_555
Na6_2 O9 1_555 1_555
Na6_3 O7 1_555 1_555
Na7_2 O5 1_555 1_555
Na8_2 O18 1_555 1_555
Na8_3 O24 1_555 1_555
O1A Na1 1_555 1_555
O2_2 Na5 1_555 1_555
O2A Na3 1_555 1_555
O3_2 Na4 1_555 1_555
O3A Na1 1_555 1_555
O4_2 Na5 1_555 1_555
O4A Na3 1_555 1_555
O5_2 Na7 1_555 1_555
O5_3 Na2 1_555 1_555
O6_2 Na1 1_555 1_555
O6_3 Na2 1_555 1_555
O6A Na1 1_555 1_555
O7_2 Na6 1_555 1_555
O9_2 Na5 1_555 1_555
O9_3 Na6 1_555 1_555
O9A Na3 1_555 1_555
O10_2 Na2 1_555 1_555
O10A Na1 1_555 1_555
O11_2 Na2 1_555 1_555
O12_2 Na4 1_555 1_555
O13_2 Na3 1_555 1_555
O13A Na3 1_555 1_555
O14_2 Na6 1_555 1_555
O16_2 Na4 1_555 1_555
O17_2 Na7 1_555 1_555
O18_2 Na5 1_555 1_555
O24_2 Na8 1_555 1_555
Na8 O18_2 1_555 1_555
O6 Na2_3 1_555 1_555
O9 Na5_3 1_555 1_555
O10 Na1A 1_555 1_555
O11 Na2_2 1_555 1_555
O13 Na3A_2 1_555 1_555
O14 Na6_2 1_555 1_555
O16 Na4_2 1_555 1_555
O17 Na7_2 1_555 1_555
O18 Na5_2 1_555 1_555
O20 C20 1_555 1_555
N2 C5 1_555 1_555
C9 C12 1_555 1_555
C10 C13 1_555 1_555
C12 C20 1_555 1_555
C17 C19 1_555 1_555
C19 C32 1_555 1_555
C21 C26 1_555 1_555
C23 C30 1_555 1_555
C23 C31 1_555 1_555
O23 C32 1_555 1_555
C27 C28 1_555 1_555
Na1A O6A 1_555 1_555
Na1A_2 O6_3 1_555 1_555
Na1A_3 O3_2 1_555 1_555
Na1A_3 O10_2 1_555 1_555
Na2_2 O5_2 1_555 1_555
Na2_2 O6_2 1_555 1_555
Na3_2 O2_2 1_555 1_555
Na3A_2 O9_2 1_555 1_555
Na3A_2 O13A 1_555 1_555
Na3A_3 O9_3 1_555 1_555
Na5_2 O13_2 1_555 1_555
Na7_2 O14_2 1_555 1_555
Na8_3 O16_2 1_555 1_555

#END
