
#######################################################################
#
#                 Cambridge Crystallographic Data Centre
#                                CCDC 
#
#######################################################################
#
# If this CIF has been generated from an entry in the Cambridge 
# Structural Database, then it will include bibliographic, chemical, 
# crystal, experimental, refinement or atomic coordinate data resulting 
# from the CCDC's data processing and validation procedures.
#
#######################################################################

data_WUXZAS
_chemical_name_common            'MOF-706 after supercritical CO2'
_chemical_formula_moiety         '(C23 H22 N2 Na4 O12)n'
_chemical_name_systematic        
catena-((\m-2,2'-(biphenyl-4,4'-diylbis(carbonylimino))disuccinato)-(\m-aqua)-methanol-tetra-sodium)
_symmetry_cell_setting           monoclinic
_symmetry_space_group_name_H-M   'P 21'
_symmetry_Int_Tables_number      4
_space_group_name_Hall           'P 2yb'
loop_
_symmetry_equiv_pos_site_id
_symmetry_equiv_pos_as_xyz
1 x,y,z
2 -x,1/2+y,-z
_cell_length_a                   11.9807(16)
_cell_length_b                   5.2345(6)
_cell_length_c                   21.796(3)
_cell_angle_alpha                90
_cell_angle_beta                 99.274(10)
_cell_angle_gamma                90
_cell_volume                     1349.03
_exptl_crystal_colour            colorless
_exptl_crystal_description       Needle
_cell_formula_units_Z            2
loop_
_atom_site_label
_atom_site_type_symbol
_atom_site_fract_x
_atom_site_fract_y
_atom_site_fract_z
Na1 Na 0.5893(7) -0.306(2) 0.0291(3)
Na2 Na 0.3229(7) 0.723(2) 0.0685(4)
Na3 Na 0.1104(9) 1.170(2) 0.9680(4)
Na4 Na 0.1576(10) 0.776(3) 0.1897(5)
O1 O 0.4875(13) -0.010(3) 0.0722(8)
O2 O 0.2605(13) 0.897(4) 0.9681(8)
O3 O 0.2546(13) 0.475(3) 0.9660(8)
O4 O 0.4678(15) 0.420(4) 0.0770(8)
O5 O 0.2105(16) 0.479(4) 0.1254(9)
N1 N 0.3740(18) 0.316(5) 0.2531(9)
H1 H 0.3855 0.1661 0.2715
O6 O 0.3340(17) 0.730(4) 0.2654(8)
O7 O 0.2533(17) 0.043(4) 0.1315(9)
N2 N 0.2348(18) 0.493(4) 0.7709(10)
H2 H 0.2319 0.6460 0.7541
O8 O 0.0203(16) 1.308(4) 1.0518(8)
H3 H 0.0799 1.3537 1.0871
H4 H -0.0219 1.1612 1.0653
C1 C 0.318(2) 0.402(5) 0.5477(11)
C2 C 0.249(2) 0.701(9) 0.9393(12)
C3 C 0.396(2) 0.282(5) 0.3905(10)
H5 H 0.4395 0.1601 0.3724
C4 C 0.327(2) 0.420(5) 0.4811(11)
C5 C 0.4784(17) 0.208(8) 0.1007(10)
C6 C 0.283(2) 0.345(5) 0.6741(11)
C7 C 0.348(2) 0.511(7) 0.2856(13)
C8 C 0.479(2) 0.184(6) 0.1710(9)
H6 H 0.4709 0.0026 0.1822
H7 H 0.5522 0.2474 0.1939
C9 C 0.344(2) 0.468(6) 0.3537(12)
C10 C 0.225(2) 0.719(6) 0.8685(9)
H8 H 0.2902 0.8066 0.8545
H9 H 0.1580 0.8286 0.8566
C11 C 0.385(2) 0.336(6) 0.1882(11)
H10 H 0.4028 0.5190 0.1810
C12 C 0.266(3) 0.292(8) 0.7374(13)
O9 O 0.308(5) 0.074(11) 0.766(3)
C13 C 0.389(2) 0.259(6) 0.4516(10)
H11 H 0.4298 0.1245 0.4747
O10 O 0.025(2) 0.366(5) 0.8776(11)
C14 C 0.277(2) 0.635(5) 0.3834(11)
H12 H 0.2353 0.7647 0.3594
C15 C 0.270(3) 0.275(8) 0.1433(12)
C16 C 0.270(2) 0.618(6) 0.4450(12)
H13 H 0.2272 0.7401 0.4636
C17 C 0.206(3) 0.466(6) 0.8336(11)
H14 H 0.2468 0.3217 0.8572
O11 O 0.005(3) 0.449(6) 0.7752(12)
O12 O 0.085(3) 0.448(9) 0.2541(15)
H15 H 0.1077 0.3121 0.2395
C18 C 0.000(10) 0.38(3) 0.301(5)
H16 H -0.0745 0.4525 0.2860
H17 H 0.0292 0.4525 0.3424
H18 H -0.0060 0.1943 0.3049
C19 C 0.277(10) 0.596(16) 0.582(3)
H19 H 0.2585 0.7539 0.5613
C20 C 0.329(11) 0.149(15) 0.642(4)
H20 H 0.3522 -0.0043 0.6632
C21 C 0.260(8) 0.578(10) 0.644(3)
H21 H 0.2331 0.7201 0.6642
C22 C 0.342(6) 0.169(10) 0.579(3)
H22 H 0.3677 0.0265 0.5580
C23 C 0.071(3) 0.433(6) 0.8261(14)
Na1_2 Na 0.5893(7) 0.694(2) 0.0291(3)
Na1A Na 0.4107(7) 0.194(2) -0.0291(3)
Na1A_2 Na 0.4107(7) 0.194(2) 0.9709(3)
Na1A_3 Na 0.4107(7) 1.194(2) 0.9709(3)
Na2_2 Na 0.3229(7) -0.277(2) 0.0685(4)
Na2_3 Na 0.3229(7) 0.723(2) 1.0685(4)
Na3_2 Na 0.1104(9) 0.170(2) 0.9680(4)
Na3A Na -0.1104(9) 1.670(2) 1.0320(4)
Na4_2 Na 0.1576(10) -0.224(3) 0.1897(5)
Na4A Na -0.1576(10) 0.276(3) 0.8103(5)
O1_2 O 0.4875(13) 0.990(3) 0.0722(8)
O1A O 0.5125(13) -0.510(3) -0.0722(8)
O2_2 O 0.2605(13) 0.897(4) -0.0319(8)
O2A O 0.7395(13) -0.603(4) 0.0319(8)
O3_2 O 0.2546(13) 0.475(3) -0.0340(8)
O3_3 O 0.2546(13) 1.475(3) 0.9660(8)
O3A O 0.7454(13) -0.025(3) 0.0340(8)
O4_2 O 0.4678(15) -0.580(4) 0.0770(8)
O4A O 0.5322(15) -0.080(4) -0.0770(8)
O7_2 O 0.2533(17) 1.043(4) 0.1315(9)
O8A O -0.0203(16) 0.808(4) 0.9482(8)
O10_2 O 0.025(2) 1.366(5) 0.8776(11)
O10A O -0.025(2) 0.866(5) 0.1224(11)
O11A O -0.005(3) 0.949(6) 0.2248(12)
C24? C 0.392(5) 0.252(12) 0.589(3)
H23? H 0.4549 0.1712 0.5757
C25? C 0.228(8) 0.522(19) 0.570(4)
H24? H 0.1809 0.6368 0.5438
C26? C 0.206(7) 0.475(16) 0.630(3)
H25? H 0.1375 0.5336 0.6413
C27? C 0.372(9) 0.22(2) 0.650(4)
H26? H 0.4206 0.1147 0.6771
O13? O 0.246(5) 0.082(12) 0.755(3)
loop_
_geom_bond_atom_site_label_1
_geom_bond_atom_site_label_2
_geom_bond_site_symmetry_1
_geom_bond_site_symmetry_2
Na1 O1 1_555 1_555
Na2 O4 1_555 1_555
Na3 O2 1_555 1_555
Na4 O5 1_555 1_555
O1 C5 1_555 1_555
O2 C2 1_555 1_555
O3 C2 1_555 1_555
O4 C5 1_555 1_555
O5 Na2 1_555 1_555
N1 H1 1_555 1_555
O6 Na4 1_555 1_555
O7 C15 1_555 1_555
N2 H2 1_555 1_555
O8 Na3 1_555 1_555
H3 O8 1_555 1_555
H4 O8 1_555 1_555
C1 C4 1_555 1_555
C2 C10 1_555 1_555
C3 H5 1_555 1_555
C4 C13 1_555 1_555
C5 C8 1_555 1_555
C6 C12 1_555 1_555
C7 N1 1_555 1_555
C8 H6 1_555 1_555
H7 C8 1_555 1_555
C9 C3 1_555 1_555
C10 H8 1_555 1_555
H9 C10 1_555 1_555
C11 N1 1_555 1_555
H10 C11 1_555 1_555
C12 N2 1_555 1_555
O9 C12 1_555 1_555
C13 C3 1_555 1_555
H11 C13 1_555 1_555
O10 C23 1_555 1_555
C14 C9 1_555 1_555
H12 C14 1_555 1_555
C15 O5 1_555 1_555
C16 C4 1_555 1_555
H13 C16 1_555 1_555
C17 N2 1_555 1_555
H14 C17 1_555 1_555
O11 C23 1_555 1_555
O12 Na4 1_555 1_555
H15 O12 1_555 1_555
C18 O12 1_555 1_555
H16 C18 1_555 1_555
H17 C18 1_555 1_555
H18 C18 1_555 1_555
C19 C1 1_555 1_555
H19 C19 1_555 1_555
C20 C6 1_555 1_555
H20 C20 1_555 1_555
C21 C6 1_555 1_555
H21 C21 1_555 1_555
C22 C1 1_555 1_555
H22 C22 1_555 1_555
C23 C17 1_555 1_555
Na1_2 O4 1_555 1_555
Na1A O1 1_555 1_555
Na1A_2 O3 1_555 1_555
Na1A_3 O2 1_555 1_555
Na2_2 O1 1_555 1_555
Na2_3 O2 1_555 1_555
Na3_2 O3 1_555 1_555
Na3A O8 1_555 1_555
Na4_2 O7 1_555 1_555
Na4A O10 1_555 1_555
O1_2 Na2 1_555 1_555
O1A Na1 1_555 1_555
O2_2 Na2 1_555 1_555
O2A Na1 1_555 1_555
O3_2 Na2 1_555 1_555
O3_3 Na3 1_555 1_555
O3A Na1 1_555 1_555
O4_2 Na1 1_555 1_555
O4A Na1 1_555 1_555
O7_2 Na2 1_555 1_555
O8A Na3 1_555 1_555
O10_2 Na3 1_555 1_555
O10A Na4 1_555 1_555
O11A Na4 1_555 1_555
Na4 O7_2 1_555 1_555
O3 Na2_3 1_555 1_555
O4 Na1A 1_555 1_555
O6 C7 1_555 1_555
O7 Na2_2 1_555 1_555
C7 C9 1_555 1_555
C8 C11 1_555 1_555
C10 C17 1_555 1_555
C11 C15 1_555 1_555
O10 Na3_2 1_555 1_555
C14 C16 1_555 1_555
O11 Na4A 1_555 1_555
C19 C21 1_555 1_555
C20 C22 1_555 1_555
Na1_2 O1_2 1_555 1_555
Na1A O3_2 1_555 1_555
Na1A O4A 1_555 1_555
Na1A_3 O3_3 1_555 1_555
Na2_2 O4_2 1_555 1_555

#END
