
#######################################################################
#
#                 Cambridge Crystallographic Data Centre
#                                CCDC 
#
#######################################################################
#
# If this CIF has been generated from an entry in the Cambridge 
# Structural Database, then it will include bibliographic, chemical, 
# crystal, experimental, refinement or atomic coordinate data resulting 
# from the CCDC's data processing and validation procedures.
#
#######################################################################

data_UWAFUU
_chemical_formula_moiety         '(C78 H48 N2 O13 Zn4)n,14n(C7 H8),3n(H2 O1)'
_chemical_name_systematic        
"catena-(bis(\m~6~-4',4'',4'''-Nitrilotribiphenyl-4-carboxylato)-(\m~4~-oxo)-tetra-zinc toluene solvate trihydrate)"
_symmetry_cell_setting           cubic
_symmetry_space_group_name_H-M   'P a -3'
_symmetry_Int_Tables_number      205
_space_group_name_Hall           '-P 2ac 2ab 3'
loop_
_symmetry_equiv_pos_site_id
_symmetry_equiv_pos_as_xyz
1 x,y,z
2 1/2-x,-y,1/2+z
3 1/2+x,1/2-y,-z
4 -x,1/2+y,1/2-z
5 y,z,x
6 1/2-y,-z,1/2+x
7 1/2+y,1/2-z,-x
8 -y,1/2+z,1/2-x
9 z,x,y
10 -z,1/2+x,1/2-y
11 1/2-z,-x,1/2+y
12 1/2+z,1/2-x,-y
13 -x,-y,-z
14 1/2+x,y,1/2-z
15 1/2-x,1/2+y,z
16 x,1/2-y,1/2+z
17 -y,-z,-x
18 1/2+y,z,1/2-x
19 1/2-y,1/2+z,x
20 y,1/2-z,1/2+x
21 -z,-x,-y
22 z,1/2-x,1/2+y
23 1/2+z,x,1/2-y
24 1/2-z,1/2+x,y
_cell_length_a                   32.5926(6)
_cell_length_b                   32.5926(6)
_cell_length_c                   32.5926(6)
_cell_angle_alpha                90
_cell_angle_beta                 90
_cell_angle_gamma                90
_cell_volume                     34622.4
_exptl_crystal_colour            brown
_exptl_crystal_description       prism
_cell_formula_units_Z            8
loop_
_atom_site_label
_atom_site_type_symbol
_atom_site_fract_x
_atom_site_fract_y
_atom_site_fract_z
O1 O 0.74479(7) 0.79499(7) 0.16546(6)
O2 O 0.85145(8) 0.75107(7) 0.24767(8)
Zn1 Zn 0.717177(11) 0.782823(11) 0.217177(11)
Zn2 Zn 0.801100(11) 0.731269(10) 0.222695(11)
O3 O 0.75227(6) 0.74773(6) 0.25227(6)
O4 O 0.79945(7) 0.75353(8) 0.16815(7)
O5 O 0.82798(7) 0.78129(7) 0.30432(7)
C1 C 0.77657(12) 0.77978(11) 0.15097(10)
C2 C 0.85637(12) 0.77086(12) 0.28081(11)
C3 C 1.09901(10) 0.84671(10) 0.34992(9)
C4 C 1.08959(10) 0.84187(10) 0.30852(10)
H1 H 1.1095 0.8469 0.2887
N1 N 1.13874(9) 0.86126(9) 0.36126(9)
C5 C 0.78276(10) 0.83519(11) 0.04944(11)
H2 H 0.7672 0.8544 0.0351
N2 N 0.87641(10) 0.87641(10) -0.12359(10)
C6 C 1.05081(11) 0.82971(11) 0.29681(10)
H3 H 1.045 0.827 0.2690
C7 C 0.83342(12) 0.83377(11) -0.00913(12)
C8 C 0.79007(10) 0.79394(11) 0.10942(11)
C9 C 0.97822(12) 0.80813(11) 0.31305(11)
C10 C 1.03090(11) 0.82439(11) 0.36593(10)
H4 H 1.0115 0.8178 0.3858
C11 C 0.80680(11) 0.84448(12) -0.04057(12)
H5 H 0.7787 0.8426 -0.0362
C12 C 0.81801(12) 0.82016(11) 0.03206(11)
C13 C 0.82488(14) 0.77681(14) 0.09197(13)
H6 H 0.8391 0.7564 0.106
C14 C 0.88868(13) 0.85035(13) -0.05504(13)
H7 H 0.9168 0.8525 -0.0595
C15 C 0.93158(11) 0.77469(12) 0.26753(12)
H8 H 0.9274 0.7601 0.2433
C16 C 0.82105(12) 0.85780(12) -0.07823(12)
H9 H 0.8025 0.8646 -0.0988
C17 C 1.02017(10) 0.82147(11) 0.32531(10)
C18 C 0.89877(11) 0.78372(11) 0.29145(11)
C19 C 0.86215(12) 0.86095(11) -0.08522(11)
C20 C 0.97071(11) 0.78629(11) 0.27781(12)
H10 H 0.9924 0.7793 0.2607
C21 C 0.76988(10) 0.82259(11) 0.08743(11)
H11 H 0.7463 0.8343 0.0985
C22 C 0.83880(15) 0.78988(15) 0.05360(14)
H12 H 0.8623 0.7782 0.0424
C23 C 0.90596(13) 0.80393(12) 0.32741(12)
H13 H 0.8843 0.8095 0.3452
C24 C 0.87395(13) 0.83609(13) -0.01702(13)
H14 H 0.8926 0.8281 0.0031
C25 C 1.06976(11) 0.83681(10) 0.37854(9)
H15 H 1.0759 0.8384 0.4064
C26 C 0.94547(13) 0.81621(12) 0.33762(12)
H16 H 0.950 0.8304 0.3620
O1D O 0.79499(7) 1.16546(6) -0.25521(7)
O1H O 1.16546(6) 0.74479(7) -0.20501(7)
O1K O 0.66546(6) 0.75521(7) 0.20501(7)
O1E O 0.70501(7) 0.83454(6) 0.24479(7)
O2J O 1.25233(8) 1.14855(8) 0.25107(7)
O2G O 1.24893(7) 0.74767(8) 0.64855(8)
O2D O 0.75107(7) 1.24767(8) -0.14855(8)
O2H O 1.24767(8) 0.85145(8) -0.24893(7)
Zn1A Zn 0.782823(11) 1.217177(11) -0.282823(11)
Zn1B Zn 1.217177(11) 0.717177(11) -0.217177(11)
Zn2D Zn 0.731269(10) 1.222695(11) -0.198900(11)
Zn2H Zn 1.222695(11) 0.801100(11) -0.268731(10)
Zn2K Zn 0.722695(11) 0.698900(11) 0.268731(10)
Zn2E Zn 0.768731(10) 0.777305(11) 0.301100(11)
Zn2J Zn 1.277305(11) 1.198900(11) 0.231269(10)
Zn2C Zn 1.198900(11) 1.231269(10) 0.277305(11)
Zn2G Zn 1.268731(10) 0.722695(11) 0.698900(11)
Zn2H_2 Zn 1.222695(11) 0.801100(11) 0.731269(10)
O3A O 0.74773(6) 1.25227(6) -0.24773(6)
O3B O 1.25227(6) 0.75227(6) -0.25227(6)
O4D O 0.75353(8) 1.16815(7) -0.20055(7)
O4H O 1.16815(7) 0.79945(7) -0.24647(8)
O5J O 1.19568(7) 1.17202(7) 0.28129(7)
O5G O 1.21871(7) 0.80432(7) 0.67202(7)
O5K O 0.80432(7) 0.67202(7) 0.21871(7)
O5A O 0.67202(7) 1.21871(7) -0.19568(7)
O5G_2 O 1.21871(7) 0.80432(7) -0.32798(7)
C1D C 0.77978(11) 1.15097(10) -0.22343(12)
C1H C 1.15097(10) 0.77657(12) -0.22022(11)
C2J C 1.21919(11) 1.14363(12) 0.27086(12)
C2G C 1.22914(12) 0.78081(11) 0.64363(12)
C3J C 1.15008(9) 0.90099(10) 0.34671(10)
C3G C 1.15329(10) 0.84992(9) 0.40099(10)
C4J C 1.19148(10) 0.91041(10) 0.34187(10)
C4G C 1.15813(10) 0.80852(10) 0.41041(10)
H1J H 1.2113 0.8905 0.3469
H1G H 1.1531 0.7887 0.3905
C5D C 0.83519(11) 1.04944(11) -0.21724(10)
C5H C 1.04944(11) 0.78276(10) -0.16481(11)
H2D H 0.8544 1.0351 -0.2328
H2H H 1.0351 0.7672 -0.1456
C6J C 1.20319(10) 0.94919(11) 0.32971(11)
C6G C 1.17029(11) 0.79681(10) 0.44919(11)
H3J H 1.2310 0.955 0.327
H3G H 1.173 0.7690 0.455
C7D C 0.83377(11) 0.99087(12) -0.16658(12)
C7H C 0.99087(12) 0.83342(12) -0.16623(11)
C8D C 0.79394(11) 1.10942(11) -0.20993(10)
C8H C 1.10942(11) 0.79007(10) -0.20606(11)
C9J C 1.18695(11) 1.02178(12) 0.30813(11)
C9G C 1.19187(11) 0.81305(11) 0.52178(12)
C10J C 1.13407(10) 0.96910(11) 0.32439(11)
C10G C 1.17561(11) 0.86593(10) 0.46910(11)
H4J H 1.1142 0.9885 0.3178
H4G H 1.1822 0.8858 0.4885
C11D C 0.84448(12) 0.95943(12) -0.19320(11)
C11H C 0.95943(12) 0.80680(11) -0.15552(12)
H5D H 0.8426 0.9638 -0.2213
H5H H 0.9638 0.7787 -0.1574
C12D C 0.82016(11) 1.03206(11) -0.18199(12)
C12H C 1.03206(11) 0.81801(12) -0.17984(11)
C13D C 0.77681(14) 1.09197(13) -0.17512(14)
C13H C 1.09197(13) 0.82488(14) -0.22319(14)
H6D H 0.7564 1.106 -0.1609
H6H H 1.106 0.8391 -0.2436
C14D C 0.85035(13) 0.94496(13) -0.11132(13)
C14H C 0.94496(13) 0.88868(13) -0.14965(13)
H7D H 0.8525 0.9405 -0.0832
H7H H 0.9405 0.9168 -0.1475
C15J C 1.23247(12) 1.06842(11) 0.27469(12)
C15G C 1.22531(12) 0.76753(12) 0.56842(11)
H8J H 1.2567 1.0726 0.2601
H8G H 1.2399 0.7433 0.5726
C16D C 0.85780(12) 0.92177(12) -0.17895(12)
C16H C 0.92177(12) 0.82105(12) -0.14220(12)
H9D H 0.8646 0.9012 -0.1975
H9H H 0.9012 0.8025 -0.1354
C17J C 1.17469(10) 0.97983(10) 0.32147(11)
C17G C 1.17853(11) 0.82531(10) 0.47983(10)
C18J C 1.20855(11) 1.10123(11) 0.28372(11)
C18G C 1.21628(11) 0.79145(11) 0.60123(11)
C19D C 0.86095(11) 0.91478(11) -0.13785(12)
C19H C 0.91478(11) 0.86215(12) -0.13905(11)
C20J C 1.22219(12) 1.02929(11) 0.28629(11)
C20G C 1.21371(11) 0.77781(12) 0.52929(11)
H10J H 1.2393 1.0076 0.2793
H10G H 1.2207 0.7607 0.5076
C21D C 0.82259(11) 1.08743(11) -0.23012(10)
C21H C 1.08743(11) 0.76988(10) -0.17741(11)
H11D H 0.8343 1.0985 -0.2537
H11H H 1.0985 0.7463 -0.1657
C22D C 0.78988(15) 1.05360(14) -0.16120(15)
C22H C 1.05360(14) 0.83880(15) -0.21012(15)
H12D H 0.7782 1.0424 -0.1377
H12H H 1.0424 0.8623 -0.2218
C23J C 1.17259(12) 1.09404(13) 0.30393(12)
C23G C 1.19607(12) 0.82741(12) 0.59404(13)
H13J H 1.1548 1.1157 0.3095
H13G H 1.1905 0.8452 0.6157
C24D C 0.83609(13) 0.98298(13) -0.12605(13)
C24H C 0.98298(13) 0.87395(13) -0.16391(13)
H14D H 0.8281 1.0031 -0.1074
H14H H 1.0031 0.8926 -0.1719
C25J C 1.12146(9) 0.93024(11) 0.33681(10)
C25G C 1.16319(10) 0.87854(9) 0.43024(11)
H15J H 1.0936 0.9241 0.3384
H15G H 1.1616 0.9064 0.4241
C26J C 1.16238(12) 1.05453(13) 0.31621(12)
C26G C 1.18379(12) 0.83762(12) 0.55453(13)
H16J H 1.1380 1.050 0.3304
H16G H 1.1696 0.8620 0.550
loop_
_geom_bond_atom_site_label_1
_geom_bond_atom_site_label_2
_geom_bond_site_symmetry_1
_geom_bond_site_symmetry_2
O1 Zn1 1_555 1_555
O2 Zn2 1_555 1_555
Zn1 O3 1_555 1_555
Zn2 O3 1_555 1_555
O3 Zn2K 1_555 1_555
O4 Zn2 1_555 1_555
O5 C2 1_555 1_555
C1 O1 1_555 1_555
C2 O2 1_555 1_555
C3 C4 1_555 1_555
C4 H1 1_555 1_555
N1 C3 1_555 1_555
C5 H2 1_555 1_555
N2 C19 1_555 1_555
C6 C4 1_555 1_555
H3 C6 1_555 1_555
C7 C11 1_555 1_555
C8 C1 1_555 1_555
C9 C17 1_555 1_555
C10 H4 1_555 1_555
C11 H5 1_555 1_555
C12 C5 1_555 1_555
C13 C8 1_555 1_555
H6 C13 1_555 1_555
C14 H7 1_555 1_555
C15 H8 1_555 1_555
C16 C11 1_555 1_555
H9 C16 1_555 1_555
C17 C6 1_555 1_555
C18 C2 1_555 1_555
C19 C14 1_555 1_555
C20 C9 1_555 1_555
H10 C20 1_555 1_555
C21 C5 1_555 1_555
H11 C21 1_555 1_555
C22 C12 1_555 1_555
H12 C22 1_555 1_555
C23 C18 1_555 1_555
H13 C23 1_555 1_555
C24 C7 1_555 1_555
H14 C24 1_555 1_555
C25 C3 1_555 1_555
H15 C25 1_555 1_555
C26 C9 1_555 1_555
H16 C26 1_555 1_555
O1D Zn1A 1_555 1_555
O1H Zn1B 1_555 1_555
O1K Zn1 1_555 1_555
O1E Zn1 1_555 1_555
O2J Zn2J 1_555 1_555
O2G Zn2G 1_555 1_555
O2D Zn2D 1_555 1_555
O2H Zn2H 1_555 1_555
Zn1A O3A 1_555 1_555
Zn1B O3B 1_555 1_555
Zn2D O3A 1_555 1_555
Zn2H O3B 1_555 1_555
Zn2E O3 1_555 1_555
Zn2C O5J 1_555 1_555
Zn2H_2 O5G 1_555 1_555
O4D Zn2D 1_555 1_555
O4H Zn2H 1_555 1_555
O5J C2J 1_555 1_555
O5G C2G 1_555 1_555
O5K Zn2 1_555 1_555
O5A Zn2D 1_555 1_555
O5G_2 Zn2H 1_555 1_555
C1D O1D 1_555 1_555
C1H O1H 1_555 1_555
C2J O2J 1_555 1_555
C2G O2G 1_555 1_555
C3J N1 1_555 1_555
C3G N1 1_555 1_555
C4J C3J 1_555 1_555
C4G C3G 1_555 1_555
H1J C4J 1_555 1_555
H1G C4G 1_555 1_555
C5D H2D 1_555 1_555
C5H H2H 1_555 1_555
C6J C4J 1_555 1_555
C6G C4G 1_555 1_555
H3J C6J 1_555 1_555
H3G C6G 1_555 1_555
C7D C11D 1_555 1_555
C7H C11H 1_555 1_555
C8D C1D 1_555 1_555
C8H C1H 1_555 1_555
C9J C17J 1_555 1_555
C9G C17G 1_555 1_555
C10J H4J 1_555 1_555
C10G H4G 1_555 1_555
C11D H5D 1_555 1_555
C11H H5H 1_555 1_555
C12D C5D 1_555 1_555
C12H C5H 1_555 1_555
C13D C8D 1_555 1_555
C13H C8H 1_555 1_555
H6D C13D 1_555 1_555
H6H C13H 1_555 1_555
C14D H7D 1_555 1_555
C14H H7H 1_555 1_555
C15J H8J 1_555 1_555
C15G H8G 1_555 1_555
C16D C11D 1_555 1_555
C16H C11H 1_555 1_555
H9D C16D 1_555 1_555
H9H C16H 1_555 1_555
C17J C6J 1_555 1_555
C17G C6G 1_555 1_555
C18J C2J 1_555 1_555
C18G C2G 1_555 1_555
C19D N2 1_555 1_555
C19H N2 1_555 1_555
C20J C9J 1_555 1_555
C20G C9G 1_555 1_555
H10J C20J 1_555 1_555
H10G C20G 1_555 1_555
C21D C5D 1_555 1_555
C21H C5H 1_555 1_555
H11D C21D 1_555 1_555
H11H C21H 1_555 1_555
C22D C12D 1_555 1_555
C22H C12H 1_555 1_555
H12D C22D 1_555 1_555
H12H C22H 1_555 1_555
C23J C18J 1_555 1_555
C23G C18G 1_555 1_555
H13J C23J 1_555 1_555
H13G C23G 1_555 1_555
C24D C7D 1_555 1_555
C24H C7H 1_555 1_555
H14D C24D 1_555 1_555
H14H C24H 1_555 1_555
C25J C3J 1_555 1_555
C25G C3G 1_555 1_555
H15J C25J 1_555 1_555
H15G C25G 1_555 1_555
C26J C9J 1_555 1_555
C26G C9G 1_555 1_555
H16J C26J 1_555 1_555
H16G C26G 1_555 1_555
O4 C1 1_555 1_555
O5 Zn2E 1_555 1_555
C7 C12 1_555 1_555
C8 C21 1_555 1_555
C10 C17 1_555 1_555
C10 C25 1_555 1_555
C13 C22 1_555 1_555
C14 C24 1_555 1_555
C15 C18 1_555 1_555
C15 C20 1_555 1_555
C16 C19 1_555 1_555
C23 C26 1_555 1_555
O4D C1D 1_555 1_555
O4H C1H 1_555 1_555
C7D C12D 1_555 1_555
C7H C12H 1_555 1_555
C8D C21D 1_555 1_555
C8H C21H 1_555 1_555
C10J C17J 1_555 1_555
C10J C25J 1_555 1_555
C10G C17G 1_555 1_555
C10G C25G 1_555 1_555
C13D C22D 1_555 1_555
C13H C22H 1_555 1_555
C14D C19D 1_555 1_555
C14D C24D 1_555 1_555
C14H C19H 1_555 1_555
C14H C24H 1_555 1_555
C15J C18J 1_555 1_555
C15J C20J 1_555 1_555
C15G C18G 1_555 1_555
C15G C20G 1_555 1_555
C16D C19D 1_555 1_555
C16H C19H 1_555 1_555
C23J C26J 1_555 1_555
C23G C26G 1_555 1_555

#END
