
#######################################################################
#
#                 Cambridge Crystallographic Data Centre
#                                CCDC 
#
#######################################################################
#
# If this CIF has been generated from an entry in the Cambridge 
# Structural Database, then it will include bibliographic, chemical, 
# crystal, experimental, refinement or atomic coordinate data resulting 
# from the CCDC's data processing and validation procedures.
#
#######################################################################

data_ZAFWUB
_chemical_formula_moiety         
'(C24 H20 O32 Tb6 1-)n,n(C2 H8 N1 1+),6n(H2 O1),5n(C3 H7 N1 O1)'
_chemical_name_systematic        
'catena-[dimethylammonium hexakis(\m-fumarato)-octakis(\m-hydroxo)-hexa-terbium N,N-dimethylformamide solvate hexahydrate]'
_symmetry_cell_setting           cubic
_symmetry_space_group_name_H-M   'P n -3'
_symmetry_Int_Tables_number      201
_space_group_name_Hall           '-P 2ab 2bc 3'
loop_
_symmetry_equiv_pos_site_id
_symmetry_equiv_pos_as_xyz
1 x,y,z
2 1/2-x,1/2-y,z
3 x,1/2-y,1/2-z
4 1/2-x,y,1/2-z
5 z,x,y
6 y,z,x
7 1/2-z,1/2-x,y
8 1/2-y,z,1/2-x
9 z,1/2-x,1/2-y
10 1/2-y,1/2-z,x
11 1/2-z,x,1/2-y
12 y,1/2-z,1/2-x
13 -x,-y,-z
14 1/2+x,1/2+y,-z
15 -x,1/2+y,1/2+z
16 1/2+x,-y,1/2+z
17 -z,-x,-y
18 -y,-z,-x
19 1/2+z,1/2+x,-y
20 1/2+y,-z,1/2+x
21 -z,1/2+x,1/2+y
22 1/2+y,1/2+z,-x
23 1/2+z,-x,1/2+y
24 -y,1/2+z,1/2+x
_cell_length_a                   18.6657(6)
_cell_length_b                   18.6657(6)
_cell_length_c                   18.6657(6)
_cell_angle_alpha                90
_cell_angle_beta                 90
_cell_angle_gamma                90
_cell_volume                     6503.29
_exptl_crystal_colour            colorless
_exptl_crystal_description       cube
_cell_formula_units_Z            4
loop_
_atom_site_label
_atom_site_type_symbol
_atom_site_fract_x
_atom_site_fract_y
_atom_site_fract_z
Tb1 Tb 0.01230(3) 0.51310(4) 0.64743(3)
O1 O 0.0683(4) 0.5798(4) 0.5557(4)
O2 O -0.0672(4) 0.5672(4) 0.5672(4)
O3 O 0.1321(5) 0.5237(5) 0.6882(5)
O4 O 0.2084(5) 0.5227(4) 0.5957(5)
O5 O 0.0072(5) 0.6321(6) 0.6900(6)
O6 O -0.0108(5) 0.7104(5) 0.5966(5)
C1 C 0.1915(8) 0.5236(8) 0.6624(9)
C2 C 0.0002(10) 0.7543(10) 0.7129(10)
H1 H 0.0006 0.8007 0.6949
C3 C 0.2522(10) 0.5279(9) 0.7139(10)
H2 H 0.2979 0.5308 0.6943
C4 C -0.0005(8) 0.6937(10) 0.6599(9)
O3C O 0.3679(5) 0.5237(5) 0.8118(5)
C1C C 0.3085(8) 0.5236(8) 0.8376(9)
C3C C 0.2478(10) 0.5279(9) 0.7861(10)
H2C H 0.2021 0.5308 0.8057
O4C O 0.2916(5) 0.5227(4) 0.9043(5)
O5B O 0.0072(5) 0.8679(6) 0.8100(6)
O6B O -0.0108(5) 0.7896(5) 0.9034(5)
C2B C 0.0002(10) 0.7457(10) 0.7871(10)
H1B H 0.0006 0.6993 0.8051
C4B C -0.0005(8) 0.8063(10) 0.8401(9)
Tb1B Tb 0.01230(3) 0.98690(4) 0.85257(3)
O1B O 0.0683(4) 0.9202(4) 0.9443(4)
O2B O -0.0672(4) 0.9328(4) 0.9328(4)
O3B O 0.1321(5) 0.9763(5) 0.8118(5)
O4B O 0.2084(5) 0.9773(4) 0.9043(5)
C1B C 0.1915(8) 0.9764(8) 0.8376(9)
C3B C 0.2522(10) 0.9721(9) 0.7861(10)
H2B H 0.2979 0.9692 0.8057
O3A O 0.3679(5) 0.9763(5) 0.6882(5)
C1A C 0.3085(8) 0.9764(8) 0.6624(9)
C3A C 0.2478(10) 0.9721(9) 0.7139(10)
H2A H 0.2021 0.9692 0.6943
O4A O 0.2916(5) 0.9773(4) 0.5957(5)
Tb1C Tb 0.48770(3) 0.51310(4) 0.85257(3)
O1C O 0.4317(4) 0.5798(4) 0.9443(4)
O5C O 0.4928(5) 0.6321(6) 0.8100(6)
O6C O 0.5108(5) 0.7104(5) 0.9034(5)
C2C C 0.4998(10) 0.7543(10) 0.7871(10)
H1C H 0.4994 0.8007 0.8051
C4C C 0.5005(8) 0.6937(10) 0.8401(9)
O5A O 0.4928(5) 0.8679(6) 0.6900(6)
O6A O 0.5108(5) 0.7896(5) 0.5966(5)
C2A C 0.4998(10) 0.7457(10) 0.7129(10)
H1A H 0.4994 0.6993 0.6949
C4A C 0.5005(8) 0.8063(10) 0.6599(9)
Tb1P Tb 0.35257(3) 0.98770(3) 0.48690(4)
O1P O 0.4443(4) 0.9317(4) 0.4202(4)
O3P O 0.3118(5) 0.8679(5) 0.4763(5)
O4P O 0.4043(5) 0.7916(5) 0.4773(4)
O5P O 0.3100(6) 0.9928(5) 0.3679(6)
O6P O 0.4034(5) 1.0108(5) 0.2896(5)
C1P C 0.3376(9) 0.8085(8) 0.4764(8)
C2P C 0.2871(10) 0.9998(10) 0.2457(10)
H1P H 0.3051 0.9994 0.1993
C3P C 0.2861(10) 0.7478(10) 0.4721(9)
H2P H 0.3057 0.7021 0.4692
C4P C 0.3401(9) 1.0005(8) 0.3063(10)
O3R O 0.1882(5) 0.6321(5) 0.4763(5)
C1R C 0.1624(9) 0.6915(8) 0.4764(8)
C3R C 0.2139(10) 0.7522(10) 0.4721(9)
H2R H 0.1943 0.7979 0.4692
O4R O 0.0957(5) 0.7084(5) 0.4773(4)
O5V O 0.1900(6) 0.9928(5) 0.1321(6)
O6V O 0.0966(5) 1.0108(5) 0.2104(5)
C2V C 0.2129(10) 0.9998(10) 0.2543(10)
H1V H 0.1949 0.9994 0.3007
C4V C 0.1599(9) 1.0005(8) 0.1937(10)
Tb1Q Tb 0.48690(4) 0.35257(3) 0.98770(3)
O1Q O 0.4202(4) 0.4443(4) 0.9317(4)
Tb1T Tb 0.35257(3) 0.51230(3) 1.01310(4)
O1T O 0.4443(4) 0.5683(4) 1.0798(4)
Tb1A Tb 0.48770(3) 0.98690(4) 0.64743(3)
Tb1E Tb 0.51310(4) 0.64743(3) 1.01230(3)
Tb1F Tb -0.14743(3) 0.48770(3) 0.51310(4)
Tb1G Tb -0.01310(4) 0.64743(3) 0.48770(3)
Tb1I Tb -0.01310(4) 0.85257(3) 1.01230(3)
Tb1J Tb -0.14743(3) 1.01230(3) 0.98690(4)
Tb1K Tb 0.51310(4) 0.85257(3) 0.48770(3)
Tb1M Tb 0.51230(3) 1.01310(4) 0.35257(3)
Tb1N Tb -0.01230(3) 1.01310(4) 0.14743(3)
Tb1O Tb 0.51230(3) 0.48690(4) 1.14743(3)
Tb1R Tb 0.14743(3) 0.51230(3) 0.48690(4)
Tb1V Tb 0.14743(3) 0.98770(3) 0.01310(4)
Tb1V_2 Tb 0.14743(3) 0.98770(3) 1.01310(4)
O1A O 0.4317(4) 0.9202(4) 0.5557(4)
O1F O -0.0557(4) 0.4317(4) 0.5798(4)
O1H O 0.5557(4) 0.4317(4) 0.9202(4)
O1J O -0.0557(4) 1.0683(4) 0.9202(4)
O1O O 0.5683(4) 0.4202(4) 1.0557(4)
O1S O 0.0798(4) 0.4443(4) 0.5683(4)
O1U O 0.0798(4) 1.0557(4) 0.9317(4)
O1W O 0.4202(4) 1.0557(4) 0.5683(4)
O2C O 0.5672(4) 0.5672(4) 0.9328(4)
O2M O 0.4328(4) 1.0672(4) 0.4328(4)
O2O O 0.4328(4) 0.4328(4) 1.0672(4)
O3Q O 0.4763(5) 0.3118(5) 0.8679(5)
O3T O 0.3118(5) 0.6321(5) 1.0237(5)
O4H O 0.5957(5) 0.2916(5) 0.9773(4)
O4Q O 0.4773(4) 0.4043(5) 0.7916(5)
O4S O 0.0227(4) 0.4043(5) 0.7084(5)
O4U O 0.0227(4) 1.0957(5) 0.7916(5)
O5Q O 0.3679(6) 0.3100(6) 0.9928(5)
O5T O 0.3100(6) 0.5072(5) 1.1321(6)
O6F O -0.0966(5) 0.5108(5) 0.7104(5)
O6H O 0.5966(5) 0.5108(5) 0.7896(5)
O6J O -0.0966(5) 0.9892(5) 0.7896(5)
O6O O 0.4892(5) 0.2896(5) 1.0966(5)
O6Q O 0.2896(5) 0.4034(5) 1.0108(5)
O6W O 0.2896(5) 1.0966(5) 0.4892(5)
loop_
_geom_bond_atom_site_label_1
_geom_bond_atom_site_label_2
_geom_bond_site_symmetry_1
_geom_bond_site_symmetry_2
Tb1 O1 1_555 1_555
O1 Tb1G 1_555 1_555
O2 Tb1 1_555 1_555
O3 Tb1 1_555 1_555
O4 C1 1_555 1_555
O5 Tb1 1_555 1_555
O6 C4 1_555 1_555
C1 O3 1_555 1_555
C2 H1 1_555 1_555
C3 C1 1_555 1_555
H2 C3 1_555 1_555
C4 O5 1_555 1_555
O3C C1C 1_555 1_555
C1C C3C 1_555 1_555
C3C C3 1_555 1_555
H2C C3C 1_555 1_555
O4C C1C 1_555 1_555
O5B C4B 1_555 1_555
O6B C4B 1_555 1_555
C2B C2 1_555 1_555
H1B C2B 1_555 1_555
C4B C2B 1_555 1_555
Tb1B O5B 1_555 1_555
O1B Tb1B 1_555 1_555
O2B Tb1B 1_555 1_555
O3B Tb1B 1_555 1_555
O4B C1B 1_555 1_555
C1B O3B 1_555 1_555
C3B C1B 1_555 1_555
H2B C3B 1_555 1_555
O3A C1A 1_555 1_555
C1A C3A 1_555 1_555
C3A C3B 1_555 1_555
H2A C3A 1_555 1_555
O4A C1A 1_555 1_555
Tb1C O3C 1_555 1_555
O1C Tb1C 1_555 1_555
O5C Tb1C 1_555 1_555
O6C C4C 1_555 1_555
C2C H1C 1_555 1_555
C4C O5C 1_555 1_555
O5A C4A 1_555 1_555
O6A C4A 1_555 1_555
C2A C2C 1_555 1_555
H1A C2A 1_555 1_555
C4A C2A 1_555 1_555
Tb1P O4A 1_555 1_555
O1P Tb1P 1_555 1_555
O3P Tb1P 1_555 1_555
O4P C1P 1_555 1_555
O5P Tb1P 1_555 1_555
O6P C4P 1_555 1_555
C1P O3P 1_555 1_555
C2P H1P 1_555 1_555
C3P C1P 1_555 1_555
H2P C3P 1_555 1_555
C4P O5P 1_555 1_555
O3R C1R 1_555 1_555
C1R C3R 1_555 1_555
C3R C3P 1_555 1_555
H2R C3R 1_555 1_555
O4R C1R 1_555 1_555
O5V C4V 1_555 1_555
O6V C4V 1_555 1_555
C2V C2P 1_555 1_555
H1V C2V 1_555 1_555
C4V C2V 1_555 1_555
Tb1Q O1Q 1_555 1_555
O1Q Tb1C 1_555 1_555
Tb1T O4C 1_555 1_555
O1T Tb1T 1_555 1_555
Tb1A O3A 1_555 1_555
Tb1E O1C 1_555 1_555
Tb1F O2 1_555 1_555
Tb1G O2 1_555 1_555
Tb1I O6B 1_555 1_555
Tb1J O2B 1_555 1_555
Tb1K O6A 1_555 1_555
Tb1M O1P 1_555 1_555
Tb1N O6V 1_555 1_555
Tb1O O1T 1_555 1_555
Tb1R O1 1_555 1_555
Tb1V O5V 1_555 1_555
Tb1V_2 O1B 1_555 1_555
O1A Tb1P 1_555 1_555
O1F Tb1 1_555 1_555
O1H Tb1C 1_555 1_555
O1J Tb1B 1_555 1_555
O1O Tb1Q 1_555 1_555
O1S Tb1 1_555 1_555
O1U Tb1B 1_555 1_555
O1W Tb1P 1_555 1_555
O2C Tb1C 1_555 1_555
O2M Tb1P 1_555 1_555
O2O Tb1Q 1_555 1_555
O3Q Tb1Q 1_555 1_555
O3T Tb1T 1_555 1_555
O4H Tb1Q 1_555 1_555
O4Q Tb1C 1_555 1_555
O4S Tb1 1_555 1_555
O4U Tb1B 1_555 1_555
O5Q Tb1Q 1_555 1_555
O5T Tb1T 1_555 1_555
O6F Tb1 1_555 1_555
O6H Tb1C 1_555 1_555
O6J Tb1B 1_555 1_555
O6O Tb1Q 1_555 1_555
O6Q Tb1T 1_555 1_555
O6W Tb1P 1_555 1_555
O4 Tb1R 1_555 1_555
O6 Tb1G 1_555 1_555
C2 C4 1_555 1_555
O1B Tb1I 1_555 1_555
O2B Tb1I 1_555 1_555
O4B Tb1V_2 1_555 1_555
O1C Tb1T 1_555 1_555
O6C Tb1E 1_555 1_555
C2C C4C 1_555 1_555
O5A Tb1A 1_555 1_555
O1P Tb1K 1_555 1_555
O4P Tb1K 1_555 1_555
O6P Tb1M 1_555 1_555
C2P C4P 1_555 1_555
O3R Tb1R 1_555 1_555
O4R Tb1G 1_555 1_555
Tb1Q O1H 1_555 1_555
O1Q Tb1T 1_555 1_555
Tb1T O2O 1_555 1_555
O1T Tb1E 1_555 1_555
Tb1A O1A 1_555 1_555
Tb1A O1W 1_555 1_555
Tb1E O2C 1_555 1_555
Tb1F O1F 1_555 1_555
Tb1J O1J 1_555 1_555
Tb1K O1A 1_555 1_555
Tb1M O2M 1_555 1_555
Tb1O O1O 1_555 1_555
Tb1O O2O 1_555 1_555
Tb1R O1S 1_555 1_555
Tb1V_2 O1U 1_555 1_555

#END
