
#######################################################################
#
#                 Cambridge Crystallographic Data Centre
#                                CCDC 
#
#######################################################################
#
# If this CIF has been generated from an entry in the Cambridge 
# Structural Database, then it will include bibliographic, chemical, 
# crystal, experimental, refinement or atomic coordinate data resulting 
# from the CCDC's data processing and validation procedures.
#
#######################################################################

data_PIHREF
_chemical_formula_moiety         
'(C11 H11 N4 O4 P1 Zn1)n,n(C3 H7 N1 O1),n(H2 O1)'
_chemical_name_systematic        
"catena-[(\m~3~-N,N'-dipyridin-4-ylphosphorodiamidato)-(formato)-zinc N,N-dimethylformamide solvate monohydrate]"
_symmetry_cell_setting           orthorhombic
_symmetry_space_group_name_H-M   'P b c a'
_symmetry_Int_Tables_number      61
_space_group_name_Hall           '-P 2ac 2ab'
loop_
_symmetry_equiv_pos_site_id
_symmetry_equiv_pos_as_xyz
1 x,y,z
2 1/2+x,1/2-y,-z
3 -x,1/2+y,1/2-z
4 1/2-x,-y,1/2+z
5 -x,-y,-z
6 1/2-x,1/2+y,z
7 x,1/2-y,1/2+z
8 1/2+x,y,1/2-z
_cell_length_a                   14.073(2)
_cell_length_b                   15.623(3)
_cell_length_c                   18.459(3)
_cell_angle_alpha                90
_cell_angle_beta                 90
_cell_angle_gamma                90
_cell_volume                     4058.44
_exptl_crystal_colour            colorless
_exptl_crystal_description       prism
_cell_formula_units_Z            8
loop_
_atom_site_label
_atom_site_type_symbol
_atom_site_fract_x
_atom_site_fract_y
_atom_site_fract_z
_atom_site_U_iso_or_equiv
_atom_site_thermal_displace_type
Zn1 Zn 0.16580(4) 1.04053(4) 0.35947(3) 0.0258 Uani
P1 P 0.34223(9) 0.99500(8) 0.46331(7) 0.0235 Uani
O1 O 0.4052(2) 1.0687(2) 0.47885(19) 0.0303 Uani
O2 O 0.2842(2) 0.9950(2) 0.39494(17) 0.0280 Uani
N1 N 0.4127(3) 0.9094(3) 0.4621(2) 0.0273 Uani
H1 H 0.4718 0.9183 0.4756 0.0330 Uiso
N2 N 0.2631(3) 0.9799(3) 0.5295(2) 0.0300 Uani
H2 H 0.2032 0.9761 0.5161 0.0360 Uiso
C1 C 0.3906(4) 0.8261(3) 0.4426(3) 0.0253 Uani
C2 C 0.4615(4) 0.7630(3) 0.4466(3) 0.0323 Uani
H3 H 0.5228 0.7769 0.4646 0.0390 Uiso
C3 C 0.4415(4) 0.6815(3) 0.4243(3) 0.0333 Uani
H4 H 0.4908 0.6400 0.4260 0.0400 Uiso
N3 N 0.3553(3) 0.6572(3) 0.4002(2) 0.0287 Uani
C4 C 0.2866(4) 0.7177(3) 0.3992(3) 0.0347 Uani
H5 H 0.2250 0.7013 0.3833 0.0420 Uiso
C5 C 0.3000(4) 0.8006(3) 0.4196(3) 0.0337 Uani
H6 H 0.2490 0.8404 0.4182 0.0400 Uiso
C6 C 0.2807(4) 0.9728(3) 0.6024(3) 0.0280 Uani
C7 C 0.2053(4) 0.9622(4) 0.6508(3) 0.0337 Uani
H7 H 0.1421 0.9592 0.6329 0.0400 Uiso
C8 C 0.2216(4) 0.9560(4) 0.7234(3) 0.0353 Uani
H8 H 0.1689 0.9492 0.7550 0.0430 Uiso
N4 N 0.3102(3) 0.9591(3) 0.7523(2) 0.0290 Uani
C9 C 0.3826(4) 0.9683(4) 0.7053(3) 0.0340 Uani
H9 H 0.4454 0.9699 0.7241 0.0410 Uiso
C10 C 0.3711(4) 0.9757(3) 0.6326(3) 0.0333 Uani
H10 H 0.4250 0.9828 0.6022 0.0400 Uiso
O3 O 0.0473(3) 0.9770(3) 0.3671(2) 0.0447 Uani
C11 C 0.0352(4) 0.9321(4) 0.4229(3) 0.0443 Uani
H11 H -0.0211 0.8986 0.4244 0.0530 Uiso
O4 O 0.0873(3) 0.9267(3) 0.4751(2) 0.0547 Uani
Zn1C Zn 0.33420(4) 0.95947(4) 0.85947(3) 0.0258 Uani
Zn1E Zn 0.33420(4) 0.54053(4) 0.35947(3) 0.0258 Uani
N3E N 0.1447(3) 1.1572(3) 0.4002(2) 0.0287 Uani
N4C N 0.1898(3) 1.0409(3) 0.2523(2) 0.0290 Uani
O5 O 0.4139(6) 0.7357(5) 0.6647(5) 0.1463 Uani
C12 C 0.3402(9) 0.7213(7) 0.6988(7) 0.1243 Uani
H12 H 0.3453 0.7137 0.7497 0.1490 Uiso
N5 N 0.2565(6) 0.7157(4) 0.6704(4) 0.0853 Uani
C13 C 0.2431(9) 0.7252(6) 0.5934(5) 0.1317 Uani
H13 H 0.3052 0.7283 0.5695 0.1970 Uiso
H14 H 0.2075 0.7779 0.5837 0.1970 Uiso
H15 H 0.2077 0.6760 0.5746 0.1970 Uiso
C14 C 0.1711(8) 0.7045(7) 0.7140(6) 0.1377 Uani
H16 H 0.1891 0.6914 0.7641 0.2070 Uiso
H17 H 0.1332 0.6573 0.6943 0.2070 Uiso
H18 H 0.1336 0.7573 0.7130 0.2070 Uiso
O6 O 0.5724(4) 0.8410(4) 0.6600(3) 0.0770 Uani
H19 H 0.572(6) 0.857(5) 0.6151(18) 0.1150 Uiso
H20 H 0.531(5) 0.799(4) 0.659(4) 0.1150 Uiso
loop_
_atom_site_aniso_label
_atom_site_aniso_U_11
_atom_site_aniso_U_22
_atom_site_aniso_U_33
_atom_site_aniso_U_23
_atom_site_aniso_U_13
_atom_site_aniso_U_12
Zn1 0.0279(4) 0.0295(3) 0.0199(3) -0.0008(3) -0.0016(3) 0.0017(3)
P1 0.0229(7) 0.0267(7) 0.0209(7) -0.0004(5) -0.0025(6) -0.0004(6)
O1 0.025(2) 0.030(2) 0.036(2) -0.0010(16) -0.0025(16) -0.0050(16)
O2 0.026(2) 0.036(2) 0.0221(18) 0.0012(16) -0.0028(15) 0.0023(17)
N1 0.022(2) 0.026(2) 0.034(3) 0.000(2) -0.008(2) 0.001(2)
N2 0.020(2) 0.045(3) 0.025(2) 0.000(2) -0.0029(18) -0.003(2)
C1 0.022(3) 0.028(3) 0.026(3) 0.007(2) 0.002(2) -0.004(2)
C2 0.020(3) 0.032(3) 0.045(4) -0.004(3) -0.010(2) -0.001(2)
C3 0.029(3) 0.035(3) 0.036(3) -0.006(3) -0.006(3) 0.002(3)
N3 0.029(3) 0.032(2) 0.025(2) -0.0016(19) -0.0048(19) -0.003(2)
C4 0.026(3) 0.035(3) 0.043(3) -0.003(3) -0.010(3) -0.004(3)
C5 0.025(3) 0.028(3) 0.048(4) -0.002(3) -0.003(3) 0.001(2)
C6 0.029(3) 0.037(3) 0.018(3) -0.002(2) 0.002(2) 0.002(2)
C7 0.020(3) 0.055(4) 0.026(3) -0.002(3) -0.004(2) 0.002(3)
C8 0.024(3) 0.053(4) 0.029(3) 0.006(3) 0.007(2) 0.001(3)
N4 0.025(3) 0.041(3) 0.021(2) 0.000(2) 0.0019(18) 0.000(2)
C9 0.021(3) 0.054(4) 0.027(3) -0.001(3) 0.002(2) -0.002(3)
C10 0.027(3) 0.053(4) 0.020(3) 0.003(3) 0.000(2) -0.002(3)
O3 0.037(2) 0.060(3) 0.037(2) 0.007(2) -0.0022(18) -0.012(2)
C11 0.037(4) 0.059(4) 0.037(4) 0.003(3) 0.000(3) -0.014(3)
O4 0.033(2) 0.088(3) 0.043(3) 0.015(2) -0.007(2) -0.019(2)
Zn1C 0.0279 0.0295 0.0199 0.0008 0.0016 0.0017
Zn1E 0.0279 0.0295 0.0199 -0.0008 0.0016 -0.0017
N3E 0.029 0.032 0.025 -0.0016 0.0048 0.003
N4C 0.025 0.041 0.021 0 -0.0019 0
O5 0.101(6) 0.123(6) 0.215(9) -0.039(6) 0.063(6) -0.024(5)
C12 0.088(9) 0.131(10) 0.154(11) -0.057(8) 0.003(8) -0.024(8)
N5 0.107(6) 0.065(4) 0.084(5) -0.016(4) 0.023(5) -0.018(4)
C13 0.196(13) 0.125(9) 0.074(7) 0.010(6) 0.025(8) -0.005(8)
C14 0.154(11) 0.131(9) 0.128(9) -0.053(7) 0.081(8) -0.058(8)
O6 0.047(3) 0.109(5) 0.075(4) 0.021(3) 0.004(3) 0.006(3)
loop_
_geom_bond_atom_site_label_1
_geom_bond_atom_site_label_2
_geom_bond_site_symmetry_1
_geom_bond_site_symmetry_2
Zn1 O2 1_555 1_555
P1 O1 1_555 1_555
O2 P1 1_555 1_555
N1 P1 1_555 1_555
H1 N1 1_555 1_555
N2 P1 1_555 1_555
H2 N2 1_555 1_555
C1 N1 1_555 1_555
C2 C1 1_555 1_555
H3 C2 1_555 1_555
C3 C2 1_555 1_555
H4 C3 1_555 1_555
N3 C3 1_555 1_555
C4 N3 1_555 1_555
H5 C4 1_555 1_555
C5 C1 1_555 1_555
H6 C5 1_555 1_555
C6 N2 1_555 1_555
C7 C6 1_555 1_555
H7 C7 1_555 1_555
C8 C7 1_555 1_555
H8 C8 1_555 1_555
N4 C8 1_555 1_555
C9 N4 1_555 1_555
H9 C9 1_555 1_555
C10 C6 1_555 1_555
H10 C10 1_555 1_555
O3 Zn1 1_555 1_555
C11 O3 1_555 1_555
H11 C11 1_555 1_555
O4 C11 1_555 1_555
O5 C12 1_555 1_555
C12 H12 1_555 1_555
N5 C12 1_555 1_555
C13 N5 1_555 1_555
H13 C13 1_555 1_555
H14 C13 1_555 1_555
H15 C13 1_555 1_555
C14 N5 1_555 1_555
H16 C14 1_555 1_555
H17 C14 1_555 1_555
H18 C14 1_555 1_555
O6 H19 1_555 1_555
H20 O6 1_555 1_555
Zn1C N4 1_555 1_555
Zn1E N3 1_555 1_555
N3E Zn1 1_555 1_555
N4C Zn1 1_555 1_555
C4 C5 1_555 1_555
C9 C10 1_555 1_555

#END
