
#######################################################################
#
#                 Cambridge Crystallographic Data Centre
#                                CCDC 
#
#######################################################################
#
# If this CIF has been generated from an entry in the Cambridge 
# Structural Database, then it will include bibliographic, chemical, 
# crystal, experimental, refinement or atomic coordinate data resulting 
# from the CCDC's data processing and validation procedures.
#
#######################################################################

data_FUWQIZ
_chemical_name_common            ZJU-8
_chemical_formula_moiety         '(C22 H15 Cu2 N1 O10)n'
_chemical_name_systematic        
catena-[(\m-2'-amino-1,1':4',1''-terphenyl-3,3'',5,5''-tetracarboxylato)-di-aqua-di-copper]
_symmetry_cell_setting           rhombohedral
_symmetry_space_group_name_H-M   'R -3 m'
_symmetry_Int_Tables_number      166
_space_group_name_Hall           '-R 3 2"'
loop_
_symmetry_equiv_pos_site_id
_symmetry_equiv_pos_as_xyz
1 x,y,z
2 -y,x-y,z
3 -x+y,-x,z
4 y,x,-z
5 -x,-x+y,-z
6 x-y,-y,-z
7 2/3+x,1/3+y,1/3+z
8 2/3-y,1/3+x-y,1/3+z
9 2/3-x+y,1/3-x,1/3+z
10 2/3+y,1/3+x,1/3-z
11 2/3-x,1/3-x+y,1/3-z
12 2/3+x-y,1/3-y,1/3-z
13 1/3+x,2/3+y,2/3+z
14 1/3-y,2/3+x-y,2/3+z
15 1/3-x+y,2/3-x,2/3+z
16 1/3+y,2/3+x,2/3-z
17 1/3-x,2/3-x+y,2/3-z
18 1/3+x-y,2/3-y,2/3-z
19 -x,-y,-z
20 y,-x+y,-z
21 x-y,x,-z
22 -y,-x,z
23 x,x-y,z
24 -x+y,y,z
25 1/3-x,2/3-y,2/3-z
26 1/3+y,2/3-x+y,2/3-z
27 1/3+x-y,2/3+x,2/3-z
28 1/3-y,2/3-x,2/3+z
29 1/3+x,2/3+x-y,2/3+z
30 1/3-x+y,2/3+y,2/3+z
31 2/3-x,1/3-y,1/3-z
32 2/3+y,1/3-x+y,1/3-z
33 2/3+x-y,1/3+x,1/3-z
34 2/3-y,1/3-x,1/3+z
35 2/3+x,1/3+x-y,1/3+z
36 2/3-x+y,1/3+y,1/3+z
_cell_length_a                   18.639(4)
_cell_length_b                   18.639(4)
_cell_length_c                   38.614(6)
_cell_angle_alpha                90
_cell_angle_beta                 90
_cell_angle_gamma                120
_cell_volume                     11617.7
_exptl_crystal_colour            blue
_exptl_crystal_description       block
_cell_formula_units_Z            9
loop_
_atom_site_label
_atom_site_type_symbol
_atom_site_fract_x
_atom_site_fract_y
_atom_site_fract_z
_atom_site_U_iso_or_equiv
_atom_site_thermal_displace_type
Cu1 Cu 0.52351(2) 0.47649(2) -0.02814(2) 0.0393 Uani
O1 O 0.48144(16) 0.37127(14) -0.00330(6) 0.0588 Uani
O2 O 0.55994(15) 0.44006(15) -0.07532(12) 0.1081 Uani
O3 O 0.44153(16) 0.41089(14) 0.04401(6) 0.0600 Uani
C1 C 0.4521(2) 0.3599(2) 0.02694(8) 0.0500 Uani
C2 C 0.2679(7) 0.1791(5) 0.17738(19) 0.0844 Uani
C3 C 0.3866(4) 0.19330(18) 0.09515(13) 0.0642 Uani
C4 C 0.4458(3) 0.22292(15) 0.02717(12) 0.0503 Uani
H1 H 0.4655 0.2328 0.0045 0.0600 Uiso
C5 C 0.4018(2) 0.2650(2) 0.07756(9) 0.0618 Uani
H2 H 0.3919 0.3034 0.0887 0.0740 Uiso
C6 C 0.4312(2) 0.2799(2) 0.04398(8) 0.0505 Uani
N1 N 0.2434(12) 0.2117(12) 0.1193(5) 0.1366 Uani
H3 H 0.2526 0.2171 0.0973 0.1620 Uiso
H4 H 0.2044 0.2180 0.1279 0.1620 Uiso
C7 C 0.3590(4) 0.1795(2) 0.13207(14) 0.0700 Uani
C8 C 0.2956(7) 0.1911(6) 0.1425(2) 0.0837 Uani
O1J O 0.18523(16) 0.22316(21) 0.33663(6) 0.0588 Uani
O3J O 0.22514(16) 0.30269(21) 0.28932(6) 0.0600 Uani
C1J C 0.2146(2) 0.2411(3) 0.30639(8) 0.0500 Uani
C2J C 0.3988(7) 0.2445(9) 0.15595(19) 0.0844 Uani
C3J C 0.2801(4) 0.14003(44) 0.23818(13) 0.0642 Uani
C4J C 0.2209(3) 0.11045(34) 0.30616(12) 0.0503 Uani
H1J H 0.2012 0.1006 0.3288 0.0600 Uiso
C5J C 0.2649(2) 0.1965(3) 0.25577(9) 0.0618 Uani
H2J H 0.2748 0.2448 0.2446 0.0740 Uiso
C6J C 0.2355(2) 0.1820(3) 0.28935(8) 0.0505 Uani
N1J N 0.4233(12) 0.3016(17) 0.2140(5) 0.1366 Uani
H3J H 0.4141 0.2978 0.2360 0.1620 Uiso
H4J H 0.4623 0.3469 0.2054 0.1620 Uiso
C7J C 0.3077(4) 0.1538(4) 0.20126(14) 0.0700 Uani
C8J C 0.3711(7) 0.2288(9) 0.1908(2) 0.0837 Uani
O1V O 0.48144(16) 0.11017(21) -0.00330(6) 0.0588 Uani
O3V O 0.44153(16) 0.03064(21) 0.04401(6) 0.0600 Uani
C1V C 0.4521(2) 0.0922(3) 0.02694(8) 0.0500 Uani
C2V C 0.2679(7) 0.0888(9) 0.17738(19) 0.0844 Uani
C5V C 0.4018(2) 0.1368(3) 0.07756(9) 0.0618 Uani
H2V H 0.3919 0.0885 0.0887 0.0740 Uiso
C6V C 0.4312(2) 0.1513(3) 0.04398(8) 0.0505 Uani
N1V N 0.2434(12) 0.0317(17) 0.1193(5) 0.1366 Uani
H3V H 0.2526 0.0355 0.0973 0.1620 Uiso
H4V H 0.2044 -0.0136 0.1279 0.1620 Uiso
C8V C 0.2956(7) 0.1045(9) 0.1425(2) 0.0837 Uani
O1DA O 0.18523(16) -0.03794(14) 0.33663(6) 0.0588 Uani
O3DA O 0.22514(16) -0.07756(14) 0.28932(6) 0.0600 Uani
C1DA C 0.2146(2) -0.0266(2) 0.30639(8) 0.0500 Uani
C2DA C 0.3988(7) 0.1542(5) 0.15595(19) 0.0844 Uani
C5DA C 0.2649(2) 0.0683(2) 0.25577(9) 0.0618 Uani
H2DA H 0.2748 0.0299 0.2446 0.0740 Uiso
C6DA C 0.2355(2) 0.0534(2) 0.28935(8) 0.0505 Uani
N1DA N 0.4233(12) 0.1216(12) 0.2140(5) 0.1366 Uani
H3DA H 0.4141 0.1162 0.2360 0.1620 Uiso
H4DA H 0.4623 0.1153 0.2054 0.1620 Uiso
C8DA C 0.3711(7) 0.1422(6) 0.1908(2) 0.0837 Uani
Cu1A Cu 0.52351(2) 0.04702(3) -0.02814(2) 0.0393 Uani
O2A O 0.55994(15) 0.11988(21) -0.07532(12) 0.1081 Uani
Cu1C Cu 0.47649(2) 0.52351(2) 0.02814(2) 0.0393 Uani
Cu1D Cu 0.47649(2) -0.04702(3) 0.02814(2) 0.0393 Uani
Cu1F Cu 0.19018(2) -0.19018(2) 0.30519(2) 0.0393 Uani
Cu1G Cu 0.19018(2) 0.38035(3) 0.30519(2) 0.0393 Uani
Cu1I Cu 0.14316(2) -0.14316(2) 0.36147(2) 0.0393 Uani
Cu1J Cu 0.14316(2) 0.28631(3) 0.36147(2) 0.0393 Uani
O1A O 0.62873(14) 0.11017(21) -0.00330(6) 0.0588 Uani
O1U O 0.62873(14) 0.51856(16) -0.00330(6) 0.0588 Uani
O3C O 0.41089(14) 0.44153(16) -0.04401(6) 0.0600 Uani
O3D O 0.55847(16) -0.03064(21) -0.04401(6) 0.0600 Uani
O3R O 0.55847(16) 0.58911(14) -0.04401(6) 0.0600 Uani
O3S O 0.41089(14) -0.03064(21) -0.04401(6) 0.0600 Uani
loop_
_atom_site_aniso_label
_atom_site_aniso_U_11
_atom_site_aniso_U_22
_atom_site_aniso_U_33
_atom_site_aniso_U_23
_atom_site_aniso_U_13
_atom_site_aniso_U_12
Cu1 0.0475(3) 0.0475(3) 0.0359(3) -0.00119(11) 0.00119(11) 0.0334(3)
O1 0.0874(18) 0.0505(14) 0.0492(13) 0.0075(11) 0.0112(12) 0.0424(13)
O2 0.119(3) 0.119(3) 0.091(3) -0.0297(14) 0.0297(14) 0.063(3)
O3 0.0879(18) 0.0546(14) 0.0555(13) 0.0098(11) 0.0161(13) 0.0491(14)
C1 0.057(2) 0.055(2) 0.0480(18) 0.0031(16) 0.0005(15) 0.0355(18)
C2 0.143(9) 0.095(6) 0.052(4) 0.020(4) 0.029(5) 0.087(7)
C3 0.089(4) 0.056(2) 0.058(3) 0.0105(14) 0.021(3) 0.044(2)
C4 0.060(3) 0.0480(19) 0.047(2) 0.0025(11) 0.005(2) 0.0300(15)
C5 0.085(3) 0.054(2) 0.060(2) 0.0028(17) 0.0129(19) 0.045(2)
C6 0.059(2) 0.051(2) 0.0490(17) 0.0054(15) 0.0060(16) 0.0331(17)
N1 0.143(17) 0.17(2) 0.107(13) 0.037(13) 0.012(13) 0.086(17)
C7 0.103(5) 0.059(2) 0.062(3) 0.0162(16) 0.032(3) 0.051(2)
C8 0.132(8) 0.090(6) 0.055(4) 0.021(4) 0.023(5) 0.075(6)
O1J 0.0874 0.0531 0.0492 0.0037 0.0112 0.045
O3J 0.0879 0.0443 0.0555 0.0063 0.0161 0.0388
C1J 0.057 0.041 0.048 -0.0026 0.0005 0.0215
C2J 0.143 0.064 0.052 0.009 0.029 0.056
C3J 0.089 0.057 0.058 0.0105 0.021 0.045
C4J 0.06 0.048 0.047 0.0025 0.005 0.03
C5J 0.085 0.049 0.06 0.0101 0.0129 0.04
C6J 0.059 0.0438 0.049 0.0006 0.006 0.0259
N1J 0.143 0.141 0.107 -0.025 0.012 0.057
C7J 0.103 0.06 0.062 0.0158 0.032 0.052
C8J 0.132 0.072 0.055 0.002 0.023 0.057
O1V 0.0874 0.0531 0.0492 0.0037 0.0112 0.045
O3V 0.0879 0.0443 0.0555 0.0063 0.0161 0.0388
C1V 0.057 0.041 0.048 -0.0026 0.0005 0.0215
C2V 0.143 0.064 0.052 0.009 0.029 0.056
C5V 0.085 0.049 0.06 0.0101 0.0129 0.04
C6V 0.059 0.0438 0.049 0.0006 0.006 0.0259
N1V 0.143 0.141 0.107 -0.025 0.012 0.057
C8V 0.132 0.072 0.055 0.002 0.023 0.057
O1DA 0.0874 0.0505 0.0492 0.0075 0.0112 0.0424
O3DA 0.0879 0.0546 0.0555 0.0098 0.0161 0.0491
C1DA 0.057 0.055 0.048 0.0031 0.0005 0.0355
C2DA 0.143 0.095 0.052 0.02 0.029 0.087
C5DA 0.085 0.054 0.06 0.0028 0.0129 0.045
C6DA 0.059 0.051 0.049 0.0054 0.006 0.0331
N1DA 0.143 0.17 0.107 0.037 0.012 0.086
C8DA 0.132 0.09 0.055 0.021 0.023 0.075
Cu1A 0.0475 0.0282 0.0359 0.00238 0.00119 0.0141
O2A 0.119 0.112 0.091 0.0594 0.0297 0.056
Cu1C 0.0475 0.0475 0.0359 -0.00119 0.00119 0.0334
Cu1D 0.0475 0.0282 0.0359 0.00238 0.00119 0.0141
Cu1F 0.0475 0.0475 0.0359 -0.00119 0.00119 0.0334
Cu1G 0.0475 0.0282 0.0359 0.00238 0.00119 0.0141
Cu1I 0.0475 0.0475 0.0359 -0.00119 0.00119 0.0334
Cu1J 0.0475 0.0282 0.0359 0.00238 0.00119 0.0141
O1A 0.0505 0.0531 0.0492 0.0037 -0.0075 0.0081
O1U 0.0505 0.0874 0.0492 -0.0112 -0.0075 0.0424
O3C 0.0546 0.0879 0.0555 -0.0161 -0.0098 0.0491
O3D 0.0879 0.0443 0.0555 0.0063 0.0161 0.0388
O3R 0.0879 0.0546 0.0555 0.0098 0.0161 0.0491
O3S 0.0546 0.0443 0.0555 0.0063 -0.0098 0.0055
loop_
_geom_bond_atom_site_label_1
_geom_bond_atom_site_label_2
_geom_bond_site_symmetry_1
_geom_bond_site_symmetry_2
Cu1 O1 1_555 1_555
O1 C1 1_555 1_555
O2 Cu1 1_555 1_555
O3 C1 1_555 1_555
C1 C6 1_555 1_555
C2 C8 1_555 1_555
C3 C5 1_555 1_555
C4 H1 1_555 1_555
C5 H2 1_555 1_555
C6 C4 1_555 1_555
N1 H3 1_555 1_555
H4 N1 1_555 1_555
C7 C3 1_555 1_555
C8 N1 1_555 1_555
O1J C1J 1_555 1_555
O3J C1J 1_555 1_555
C1J C6J 1_555 1_555
C2J C7 1_555 1_555
C3J C5J 1_555 1_555
C4J H1J 1_555 1_555
C5J H2J 1_555 1_555
C6J C4J 1_555 1_555
N1J H3J 1_555 1_555
H4J N1J 1_555 1_555
C7J C2 1_555 1_555
C8J C2 1_555 1_555
O1V C1V 1_555 1_555
O3V C1V 1_555 1_555
C1V C6V 1_555 1_555
C2V C2 1_555 1_555
C5V C3 1_555 1_555
H2V C5V 1_555 1_555
C6V C4 1_555 1_555
N1V H3V 1_555 1_555
H4V N1V 1_555 1_555
C8V C7 1_555 1_555
O1DA C1DA 1_555 1_555
O3DA C1DA 1_555 1_555
C1DA C6DA 1_555 1_555
C2DA C7 1_555 1_555
C5DA C3J 1_555 1_555
H2DA C5DA 1_555 1_555
C6DA C4J 1_555 1_555
N1DA H3DA 1_555 1_555
H4DA N1DA 1_555 1_555
C8DA C7J 1_555 1_555
Cu1A O1V 1_555 1_555
O2A Cu1A 1_555 1_555
Cu1C Cu1 1_555 1_555
Cu1D O3V 1_555 1_555
Cu1F O3DA 1_555 1_555
Cu1G O3J 1_555 1_555
Cu1I O1DA 1_555 1_555
Cu1J O1J 1_555 1_555
O1A Cu1A 1_555 1_555
O1U Cu1 1_555 1_555
O3C Cu1 1_555 1_555
O3D Cu1A 1_555 1_555
O3R Cu1 1_555 1_555
O3S Cu1A 1_555 1_555
O3 Cu1C 1_555 1_555
C5 C6 1_555 1_555
C7 C8 1_555 1_555
C8 C2J 1_555 1_555
C8 C8V 1_555 1_555
C2J C8J 1_555 1_555
C2J C2DA 1_555 1_555
C3J C7J 1_555 1_555
C5J C6J 1_555 1_555
N1J C8J 1_555 1_555
C7J C8J 1_555 1_555
C7J C2V 1_555 1_555
C8J C8DA 1_555 1_555
C2V C8V 1_555 1_555
C2V C8DA 1_555 1_555
C5V C6V 1_555 1_555
N1V C8V 1_555 1_555
C8V C2DA 1_555 1_555
C2DA C8DA 1_555 1_555
C5DA C6DA 1_555 1_555
N1DA C8DA 1_555 1_555
Cu1A Cu1D 1_555 1_555
Cu1F Cu1I 1_555 1_555
Cu1G Cu1J 1_555 1_555

#END
