
#######################################################################
#
#                 Cambridge Crystallographic Data Centre
#                                CCDC 
#
#######################################################################
#
# If this CIF has been generated from an entry in the Cambridge 
# Structural Database, then it will include bibliographic, chemical, 
# crystal, experimental, refinement or atomic coordinate data resulting 
# from the CCDC's data processing and validation procedures.
#
#######################################################################

data_TEYHIP
_chemical_formula_moiety         
'(C48 H36 Cd1 N12 O6 2+)n,2n(N1 O3 1-),2n(C3 H7 N1 O1),6n(H2 O1)'
_chemical_name_systematic        
'catena-(bis(\m~3~-benzene-1,3,5-tricarboxylic acid tris(N-(4-pyridyl)amido))-cadmium(ii) dinitrate dimethylformamide solvate hexahydrate)'
_symmetry_cell_setting           cubic
_symmetry_space_group_name_H-M   'I a -3'
_symmetry_Int_Tables_number      206
_space_group_name_Hall           '-I 2b 2c 3'
loop_
_symmetry_equiv_pos_site_id
_symmetry_equiv_pos_as_xyz
1 x,y,z
2 y,z,x
3 z,x,y
4 1/2+x,1/2+y,1/2+z
5 1/2+y,1/2+z,1/2+x
6 1/2+z,1/2+x,1/2+y
7 1/2-x,-y,1/2+z
8 1/2-y,-z,1/2+x
9 1/2-z,-x,1/2+y
10 1/2+y,1/2-z,-x
11 1/2+z,1/2-x,-y
12 -z,1/2+x,1/2-y
13 -x,1/2+y,1/2-z
14 -y,1/2+z,1/2-x
15 1/2+x,1/2-y,-z
16 -x,1/2-y,z
17 -y,1/2-z,x
18 -z,1/2-x,y
19 y,-z,1/2-x
20 z,-x,1/2-y
21 1/2-z,x,-y
22 1/2-x,y,-z
23 1/2-y,z,-x
24 x,-y,1/2-z
25 -x,-y,-z
26 -y,-z,-x
27 -z,-x,-y
28 1/2-x,1/2-y,1/2-z
29 1/2-y,1/2-z,1/2-x
30 1/2-z,1/2-x,1/2-y
31 1/2+x,y,1/2-z
32 1/2+y,z,1/2-x
33 1/2+z,x,1/2-y
34 1/2-y,1/2+z,x
35 1/2-z,1/2+x,y
36 z,1/2-x,1/2+y
37 x,1/2-y,1/2+z
38 y,1/2-z,1/2+x
39 1/2-x,1/2+y,z
40 x,1/2+y,-z
41 y,1/2+z,-x
42 z,1/2+x,-y
43 -y,z,1/2+x
44 -z,x,1/2+y
45 1/2+z,-x,y
46 1/2+x,-y,z
47 1/2+y,-z,x
48 -x,y,1/2+z
_cell_length_a                   24.756(4)
_cell_length_b                   24.756(4)
_cell_length_c                   24.756(4)
_cell_angle_alpha                90
_cell_angle_beta                 90
_cell_angle_gamma                90
_cell_volume                     15172
_exptl_crystal_colour            colorless
_exptl_crystal_description       prism
_cell_formula_units_Z            8
loop_
_atom_site_label
_atom_site_type_symbol
_atom_site_fract_x
_atom_site_fract_y
_atom_site_fract_z
O2 O 0.2133(8) -0.0918(9) 0.2202(9)
Cd1 Cd 0.0000 0.0000 0.0000
O1 O 0.0159(4) -0.1066(5) 0.2812(4)
N1 N 0.0294(3) -0.0232(3) 0.0882(3)
N2 N 0.0900(4) -0.0794(4) 0.2369(4)
C1 C -0.0021(5) -0.0386(4) 0.1273(4)
C2 C 0.0118(4) -0.0577(5) 0.1780(4)
C3 C 0.0672(5) -0.0603(4) 0.1877(4)
C4 C 0.1019(4) -0.0441(4) 0.1463(4)
C5 C 0.0820(4) -0.0251(4) 0.0997(4)
C6 C 0.0647(5) -0.1010(5) 0.2794(5)
C7 C 0.1012(4) -0.1169(4) 0.3254(4)
C8 C 0.0871(4) -0.1596(5) 0.3542(4)
H1 H -0.0390 -0.0370 0.1206
H2 H -0.0133 -0.0678 0.2041
H3 H 0.1391 -0.0459 0.1515
H4 H 0.1063 -0.0135 0.0735
H5 H 0.0571 -0.1798 0.3441
H6 H 0.1247 -0.0778 0.2394
Cd1IA Cd 0.0000 -0.5000 0.5000
Cd1DA Cd 0.5000 0.0000 0.5000
Cd1GA Cd -0.5000 0.5000 0.0000
Cd1IA_2 Cd 0.0000 0.5000 0.5000
O1M O 0.1066(5) -0.2188(4) 0.4841(4)
O1H O 0.2188(4) -0.0159(4) 0.3934(5)
O1A O -0.1066(5) 0.2812(4) 0.0159(4)
O1J O -0.2188(4) 0.4841(4) 0.1066(5)
O1L O -0.0159(4) 0.3934(5) 0.2188(4)
N1M N 0.0232(3) -0.4118(3) 0.4706(3)
N1H N 0.4118(3) -0.0294(3) 0.4768(3)
N1A N -0.0232(3) 0.0882(3) 0.0294(3)
N1J N -0.4118(3) 0.4706(3) 0.0232(3)
N1L N -0.0294(3) 0.4768(3) 0.4118(3)
N1B N 0.0882(3) 0.0294(3) -0.0232(3)
N1X N -0.0294(3) 0.0232(3) -0.0882(3)
N1Y N 0.0232(3) -0.0882(3) -0.0294(3)
N1Z N -0.0882(3) -0.0294(3) 0.0232(3)
N2M N 0.0794(4) -0.2631(4) 0.4100(4)
N2H N 0.2631(4) -0.0900(4) 0.4206(4)
N2A N -0.0794(4) 0.2369(4) 0.0900(4)
N2J N -0.2631(4) 0.4100(4) 0.0794(4)
N2L N -0.0900(4) 0.4206(4) 0.2631(4)
C1M C 0.0386(4) -0.3727(4) 0.5021(5)
C1H C 0.3727(4) 0.0021(5) 0.4614(4)
C1A C -0.0386(4) 0.1273(4) -0.0021(5)
C1J C -0.3727(4) 0.5021(5) 0.0386(4)
C1L C 0.0021(5) 0.4614(4) 0.3727(4)
C2M C 0.0577(5) -0.3220(4) 0.4882(4)
C2H C 0.3220(4) -0.0118(4) 0.4423(5)
C2A C -0.0577(5) 0.1780(4) 0.0118(4)
C2J C -0.3220(4) 0.4882(4) 0.0577(5)
C2L C -0.0118(4) 0.4423(5) 0.3220(4)
C3M C 0.0603(4) -0.3123(4) 0.4328(5)
C3H C 0.3123(4) -0.0672(5) 0.4397(4)
C3A C -0.0603(4) 0.1877(4) 0.0672(5)
C3J C -0.3123(4) 0.4328(5) 0.0603(4)
C3L C -0.0672(5) 0.4397(4) 0.3123(4)
C4M C 0.0441(4) -0.3537(4) 0.3981(4)
C4H C 0.3537(4) -0.1019(4) 0.4559(4)
C4A C -0.0441(4) 0.1463(4) 0.1019(4)
C4J C -0.3537(4) 0.3981(4) 0.0441(4)
C4L C -0.1019(4) 0.4559(4) 0.3537(4)
C5M C 0.0251(4) -0.4003(4) 0.4180(4)
C5H C 0.4003(4) -0.0820(4) 0.4749(4)
C5A C -0.0251(4) 0.0997(4) 0.0820(4)
C5J C -0.4003(4) 0.4180(4) 0.0251(4)
C5L C -0.0820(4) 0.4749(4) 0.4003(4)
C6M C 0.1010(5) -0.2206(5) 0.4353(5)
C6H C 0.2206(5) -0.0647(5) 0.3990(5)
C6A C -0.1010(5) 0.2794(5) 0.0647(5)
C6J C -0.2206(5) 0.4353(5) 0.1010(5)
C6L C -0.0647(5) 0.3990(5) 0.2206(5)
C7M C 0.1169(4) -0.1746(4) 0.3988(4)
C7H C 0.1746(4) -0.1012(4) 0.3831(4)
C7A C -0.1169(4) 0.3254(4) 0.1012(4)
C7J C -0.1746(4) 0.3988(4) 0.1169(4)
C7L C -0.1012(4) 0.3831(4) 0.1746(4)
C8M C 0.1596(5) -0.1458(4) 0.4129(4)
C8H C 0.1458(4) -0.0871(4) 0.3404(5)
C8A C -0.1596(5) 0.3542(4) 0.0871(4)
C8J C -0.1458(4) 0.4129(4) 0.1596(5)
C8L C -0.0871(4) 0.3404(5) 0.1458(4)
H1M H 0.0370 -0.3794 0.5390
H1H H 0.3794 0.0390 0.4630
H1A H -0.0370 0.1206 -0.0390
H1J H -0.3794 0.5390 0.0370
H1L H 0.0390 0.4630 0.3794
H2M H 0.0678 -0.2959 0.5133
H2H H 0.2959 0.0133 0.4322
H2A H -0.0678 0.2041 -0.0133
H2J H -0.2959 0.5133 0.0678
H2L H 0.0133 0.4322 0.2959
H3M H 0.0459 -0.3485 0.3609
H3H H 0.3485 -0.1391 0.4541
H3A H -0.0459 0.1515 0.1391
H3J H -0.3485 0.3609 0.0459
H3L H -0.1391 0.4541 0.3485
H4M H 0.0135 -0.4265 0.3937
H4H H 0.4265 -0.1063 0.4865
H4A H -0.0135 0.0735 0.1063
H4J H -0.4265 0.3937 0.0135
H4L H -0.1063 0.4865 0.4265
H5H H 0.1559 -0.0571 0.3202
H5M H 0.1798 -0.1559 0.4429
H5A H -0.1798 0.3441 0.0571
H5L H -0.0571 0.3202 0.1559
H5J H -0.1559 0.4429 0.1798
H6M H 0.0778 -0.2606 0.3753
H6H H 0.2606 -0.1247 0.4222
H6A H -0.0778 0.2394 0.1247
H6J H -0.2606 0.3753 0.0778
H6L H -0.1247 0.4222 0.2606
loop_
_geom_bond_atom_site_label_1
_geom_bond_atom_site_label_2
_geom_bond_site_symmetry_1
_geom_bond_site_symmetry_2
Cd1 N1 1_555 1_555
O1 C6 1_555 1_555
N1 C1 1_555 1_555
N2 C3 1_555 1_555
C1 C2 1_555 1_555
C2 C3 1_555 1_555
C3 C4 1_555 1_555
C4 C5 1_555 1_555
C5 N1 1_555 1_555
C6 N2 1_555 1_555
C7 C6 1_555 1_555
C8 C7 1_555 1_555
H1 C1 1_555 1_555
H2 C2 1_555 1_555
H3 C4 1_555 1_555
H4 C5 1_555 1_555
H5 C8 1_555 1_555
H6 N2 1_555 1_555
Cd1IA N1M 1_555 1_555
Cd1DA N1H 1_555 1_555
Cd1GA N1J 1_555 1_555
Cd1IA_2 N1L 1_555 1_555
O1M C6M 1_555 1_555
O1H C6H 1_555 1_555
O1A C6A 1_555 1_555
O1J C6J 1_555 1_555
O1L C6L 1_555 1_555
N1M C1M 1_555 1_555
N1H C1H 1_555 1_555
N1A Cd1 1_555 1_555
N1J C1J 1_555 1_555
N1L C1L 1_555 1_555
N1B Cd1 1_555 1_555
N1X Cd1 1_555 1_555
N1Y Cd1 1_555 1_555
N1Z Cd1 1_555 1_555
N2M C3M 1_555 1_555
N2H C3H 1_555 1_555
N2A C3A 1_555 1_555
N2J C3J 1_555 1_555
N2L C3L 1_555 1_555
C1M C2M 1_555 1_555
C1H C2H 1_555 1_555
C1A N1A 1_555 1_555
C1J C2J 1_555 1_555
C1L C2L 1_555 1_555
C2M C3M 1_555 1_555
C2H C3H 1_555 1_555
C2A C1A 1_555 1_555
C2J C3J 1_555 1_555
C2L C3L 1_555 1_555
C3M C4M 1_555 1_555
C3H C4H 1_555 1_555
C3A C2A 1_555 1_555
C3J C4J 1_555 1_555
C3L C4L 1_555 1_555
C4M C5M 1_555 1_555
C4H C5H 1_555 1_555
C4A C3A 1_555 1_555
C4J C5J 1_555 1_555
C4L C5L 1_555 1_555
C5M N1M 1_555 1_555
C5H N1H 1_555 1_555
C5A N1A 1_555 1_555
C5J N1J 1_555 1_555
C5L N1L 1_555 1_555
C6M N2M 1_555 1_555
C6H N2H 1_555 1_555
C6A N2A 1_555 1_555
C6J N2J 1_555 1_555
C6L N2L 1_555 1_555
C7M C8 1_555 1_555
C7H C6H 1_555 1_555
C7A C6A 1_555 1_555
C7J C6J 1_555 1_555
C7L C6L 1_555 1_555
C8M C7M 1_555 1_555
C8H C7 1_555 1_555
C8A C7A 1_555 1_555
C8J C7J 1_555 1_555
C8L C7A 1_555 1_555
H1M C1M 1_555 1_555
H1H C1H 1_555 1_555
H1A C1A 1_555 1_555
H1J C1J 1_555 1_555
H1L C1L 1_555 1_555
H2M C2M 1_555 1_555
H2H C2H 1_555 1_555
H2A C2A 1_555 1_555
H2J C2J 1_555 1_555
H2L C2L 1_555 1_555
H3M C4M 1_555 1_555
H3H C4H 1_555 1_555
H3A C4A 1_555 1_555
H3J C4J 1_555 1_555
H3L C4L 1_555 1_555
H4M C5M 1_555 1_555
H4H C5H 1_555 1_555
H4A C5A 1_555 1_555
H4J C5J 1_555 1_555
H4L C5L 1_555 1_555
H5H C8H 1_555 1_555
H5M C8M 1_555 1_555
H5A C8A 1_555 1_555
H5L C8L 1_555 1_555
H5J C8J 1_555 1_555
H6M N2M 1_555 1_555
H6H N2H 1_555 1_555
H6A N2A 1_555 1_555
H6J N2J 1_555 1_555
H6L N2L 1_555 1_555
C4A C5A 1_555 1_555
C6M C7M 1_555 1_555
C7H C8M 1_555 1_555
C7H C8H 1_555 1_555
C7J C8A 1_555 1_555
C7L C8J 1_555 1_555
C7L C8L 1_555 1_555

#END
