
#######################################################################
#
#                 Cambridge Crystallographic Data Centre
#                                CCDC 
#
#######################################################################
#
# If this CIF has been generated from an entry in the Cambridge 
# Structural Database, then it will include bibliographic, chemical, 
# crystal, experimental, refinement or atomic coordinate data resulting 
# from the CCDC's data processing and validation procedures.
#
#######################################################################

data_IYIHOO
_chemical_formula_moiety         '(C51 H34 Br2 N2 O8 Si1 Zn2)n'
_chemical_name_systematic        
"catena-((\m~8~-1,2,4,5-tetrakis(4-carboxylatophenyl)-3,6-dibromobenzene)-(\m~2~-4,4'-ethene-1,2-diylbis(3-(trimethylsilylethynyl)pyridine))-di-zinc unknown solvate)"
_symmetry_cell_setting           monoclinic
_symmetry_space_group_name_H-M   'P 2/m'
_symmetry_Int_Tables_number      10
_space_group_name_Hall           '-P 2y'
loop_
_symmetry_equiv_pos_site_id
_symmetry_equiv_pos_as_xyz
1 x,y,z
2 -x,y,-z
3 -x,-y,-z
4 x,-y,z
_cell_length_a                   10.4988(3)
_cell_length_b                   16.2306(6)
_cell_length_c                   16.2841(3)
_cell_angle_alpha                90
_cell_angle_beta                 90.008(2)
_cell_angle_gamma                90
_cell_volume                     2774.84
_exptl_crystal_colour            orange
_exptl_crystal_description       tablet
_cell_formula_units_Z            1
loop_
_atom_site_label
_atom_site_type_symbol
_atom_site_fract_x
_atom_site_fract_y
_atom_site_fract_z
Zn1 Zn 0.5000 0.90994(7) 1.0000
Br1 Br -0.31207(13) 1.0000 0.50005(7)
O1 O 0.3674(5) 0.9312(3) 0.9114(3)
O2 O -0.3664(5) 0.9320(3) 0.9112(3)
C1 C 0.3383(10) 1.0000 0.8827(5)
C2 C 0.2634(10) 1.0000 0.8051(5)
C3 C 0.2289(8) 0.9289(5) 0.7673(4)
H1 H 0.2469 0.8779 0.7935
C4 C 0.1687(9) 0.9284(5) 0.6925(4)
H2 H 0.1487 0.8774 0.6669
C5 C 0.1376(10) 1.0000 0.6550(5)
C6 C 0.0630(10) 1.0000 0.5757(5)
C7 C -0.0633(10) 1.0000 0.5753(5)
C8 C -0.1346(10) 1.0000 0.5003(5)
C9 C -0.1376(10) 1.0000 0.6553(5)
C10 C -0.1691(9) 1.0711(6) 0.6931(5)
H3 H -0.1499 1.1220 0.6671
C11 C -0.2278(9) 1.0716(5) 0.7674(4)
H4 H -0.2444 1.1228 0.7936
C12 C -0.2634(10) 1.0000 0.8052(5)
C13 C -0.3391(10) 1.0000 0.8827(5)
N1 N 0.486(4) 0.7876(12) 1.003(3)
C14 C 0.571(3) 0.7351(13) 1.041(2)
H5 H 0.6423 0.7566 1.0700
C15 C 0.551(3) 0.6505(12) 1.0375(17)
H6 H 0.6086 0.6150 1.0652
C16 C 0.450(3) 0.6161(10) 0.995(2)
C17 C 0.361(2) 0.6682(10) 0.957(2)
C18 C 0.381(3) 0.7533(11) 0.964(2)
H7 H 0.3194 0.7894 0.9408
C19 C 0.435(3) 0.5289(10) 0.990(2)
H8 H 0.3503 0.5095 0.9972
Si1 Si 0.0070(15) 0.6138(13) 0.8134(11)
C20 C 0.252(2) 0.6357(16) 0.912(2)
C21 C 0.155(2) 0.622(2) 0.8746(18)
C22 C 0.011(4) 0.517(2) 0.752(3)
H9 H -0.0690 0.5115 0.7217
H10 H 0.0218 0.4701 0.7889
H11 H 0.0824 0.5194 0.7134
C23 C -0.134(2) 0.613(4) 0.882(2)
H12 H -0.2107 0.6041 0.8492
H13 H -0.1398 0.6665 0.9101
H14 H -0.1246 0.5692 0.9225
C24 C -0.004(4) 0.703(2) 0.742(3)
H15 H -0.0803 0.6975 0.7077
H16 H 0.0718 0.7041 0.7064
H17 H -0.0085 0.7542 0.7734
N2 N 0.495(4) 0.2119(11) 0.993(2)
C25 C 0.394(3) 0.2617(14) 1.0181(18)
H18 H 0.3200 0.2374 1.0407
C26 C 0.402(3) 0.3462(13) 1.0103(16)
H19 H 0.3315 0.3789 1.0262
C27 C 0.510(3) 0.3850(9) 0.9802(17)
C28 C 0.606(3) 0.3347(11) 0.9488(16)
H20 H 0.6796 0.3588 0.9252
C29 C 0.594(3) 0.2500(12) 0.9516(17)
H21 H 0.6560 0.2169 0.9245
C30 C 0.519(4) 0.4720(10) 0.9764(17)
H22 H 0.6012 0.4922 0.9615
Zn1_2 Zn -0.5000 0.90994(7) 0.0000
Zn1B Zn -0.5000 0.09006(7) 0.0000
Zn1B_2 Zn 0.5000 0.09006(7) 1.0000
Zn1_3 Zn -0.5000 -0.09006(7) 0.0000
Zn1_4 Zn -0.5000 -0.09006(7) 1.0000
Zn1_5 Zn -0.5000 0.90994(7) 1.0000
Zn1_6 Zn 0.5000 -0.09006(7) 0.0000
Zn1_7 Zn 0.5000 -0.09006(7) 1.0000
Zn1_8 Zn 0.5000 0.90994(7) 0.0000
Zn1B_3 Zn -0.5000 0.09006(7) 1.0000
Zn1B_4 Zn -0.5000 1.09006(7) 0.0000
Zn1B_5 Zn -0.5000 1.09006(7) 1.0000
Zn1B_6 Zn 0.5000 0.09006(7) 0.0000
Zn1B_7 Zn 0.5000 1.09006(7) 0.0000
Zn1B_8 Zn 0.5000 1.09006(7) 1.0000
Br1A Br 0.31207(13) 1.0000 0.49995(7)
Br1A_2 Br 0.31207(13) 0.0000 0.49995(7)
Br1_2 Br -0.31207(13) 0.0000 0.50005(7)
O1A O -0.3674(5) 0.9312(3) 0.0886(3)
O1B O -0.3674(5) 1.0688(3) 0.0886(3)
O1C O 0.3674(5) 1.0688(3) 0.9114(3)
O1B_2 O -0.3674(5) 0.0688(3) 0.0886(3)
O1C_2 O 0.3674(5) 0.0688(3) 0.9114(3)
O1_2 O 0.3674(5) -0.0688(3) 0.9114(3)
O1A_2 O -0.3674(5) -0.0688(3) 0.0886(3)
O1_3 O -0.6326(5) 0.9312(3) -0.0886(3)
O1A_3 O 0.6326(5) 0.9312(3) 1.0886(3)
O1B_3 O 0.6326(5) 0.0688(3) 1.0886(3)
O1C_3 O -0.6326(5) 0.0688(3) -0.0886(3)
O2A O 0.3664(5) 0.9320(3) 0.0888(3)
O2B O 0.3664(5) 1.0680(3) 0.0888(3)
O2C O -0.3664(5) 1.0680(3) 0.9112(3)
O2B_2 O 0.3664(5) 0.0680(3) 0.0888(3)
O2C_2 O -0.3664(5) 0.0680(3) 0.9112(3)
O2_2 O -0.3664(5) -0.0680(3) 0.9112(3)
O2A_2 O 0.3664(5) -0.0680(3) 0.0888(3)
O2_3 O -0.3664(5) 0.9320(3) -0.0888(3)
O2_4 O 0.6336(5) 0.9320(3) 0.9112(3)
O2A_3 O -0.6336(5) 0.9320(3) 0.0888(3)
O2A_4 O 0.3664(5) 0.9320(3) 1.0888(3)
O2B_3 O -0.6336(5) 0.0680(3) 0.0888(3)
O2B_4 O 0.3664(5) 0.0680(3) 1.0888(3)
O2C_3 O -0.3664(5) 0.0680(3) -0.0888(3)
O2C_4 O 0.6336(5) 0.0680(3) 0.9112(3)
C1A C -0.3383(10) 1.0000 0.1173(5)
C1A_2 C -0.3383(10) 0.0000 0.1173(5)
C1_2 C 0.3383(10) 0.0000 0.8827(5)
C2A C -0.2634(10) 1.0000 0.1949(5)
C2A_2 C -0.2634(10) 0.0000 0.1949(5)
C2_2 C 0.2634(10) 0.0000 0.8051(5)
C3A C -0.2289(8) 0.9289(5) 0.2327(4)
C3B C -0.2289(8) 1.0711(5) 0.2327(4)
C3C C 0.2289(8) 1.0711(5) 0.7673(4)
C3B_2 C -0.2289(8) 0.0711(5) 0.2327(4)
C3C_2 C 0.2289(8) 0.0711(5) 0.7673(4)
C3_2 C 0.2289(8) -0.0711(5) 0.7673(4)
C3A_2 C -0.2289(8) -0.0711(5) 0.2327(4)
H1A H -0.2469 0.8779 0.2065
H1B H -0.2469 1.1221 0.2065
H1C H 0.2469 1.1221 0.7935
H1B_2 H -0.2469 0.1221 0.2065
H1C_2 H 0.2469 0.1221 0.7935
H1_2 H 0.2469 -0.1221 0.7935
H1A_2 H -0.2469 -0.1221 0.2065
C4A C -0.1687(9) 0.9284(5) 0.3075(4)
C4B C -0.1687(9) 1.0716(5) 0.3075(4)
C4C C 0.1687(9) 1.0716(5) 0.6925(4)
C4B_2 C -0.1687(9) 0.0716(5) 0.3075(4)
C4C_2 C 0.1687(9) 0.0716(5) 0.6925(4)
C4_2 C 0.1687(9) -0.0716(5) 0.6925(4)
C4A_2 C -0.1687(9) -0.0716(5) 0.3075(4)
H2A H -0.1487 0.8774 0.3331
H2B H -0.1487 1.1226 0.3331
H2C H 0.1487 1.1226 0.6669
H2B_2 H -0.1487 0.1226 0.3331
H2C_2 H 0.1487 0.1226 0.6669
H2_2 H 0.1487 -0.1226 0.6669
H2A_2 H -0.1487 -0.1226 0.3331
C5A C -0.1376(10) 1.0000 0.3450(5)
C5A_2 C -0.1376(10) 0.0000 0.3450(5)
C5_2 C 0.1376(10) 0.0000 0.6550(5)
C6A C -0.0630(10) 1.0000 0.4243(5)
C6A_2 C -0.0630(10) 0.0000 0.4243(5)
C6_2 C 0.0630(10) 0.0000 0.5757(5)
C7A C 0.0633(10) 1.0000 0.4247(5)
C7A_2 C 0.0633(10) 0.0000 0.4247(5)
C7_2 C -0.0633(10) 0.0000 0.5753(5)
C8A C 0.1346(10) 1.0000 0.4997(5)
C8A_2 C 0.1346(10) 0.0000 0.4997(5)
C8_2 C -0.1346(10) 0.0000 0.5003(5)
C9A C 0.1376(10) 1.0000 0.3447(5)
C9A_2 C 0.1376(10) 0.0000 0.3447(5)
C9_2 C -0.1376(10) 0.0000 0.6553(5)
C10A C 0.1691(9) 1.0711(6) 0.3069(5)
C10B C 0.1691(9) 0.9289(6) 0.3069(5)
C10C C -0.1691(9) 0.9289(6) 0.6931(5)
C10B_2 C 0.1691(9) -0.0711(6) 0.3069(5)
C10C_2 C -0.1691(9) -0.0711(6) 0.6931(5)
C10_2 C -0.1691(9) 0.0711(6) 0.6931(5)
C10A_2 C 0.1691(9) 0.0711(6) 0.3069(5)
H3A H 0.1499 1.1220 0.3329
H3B H 0.1499 0.8780 0.3329
H3C H -0.1499 0.8780 0.6671
H3B_2 H 0.1499 -0.1220 0.3329
H3C_2 H -0.1499 -0.1220 0.6671
H3_2 H -0.1499 0.1220 0.6671
H3A_2 H 0.1499 0.1220 0.3329
C11A C 0.2278(9) 1.0716(5) 0.2326(4)
C11B C 0.2278(9) 0.9284(5) 0.2326(4)
C11C C -0.2278(9) 0.9284(5) 0.7674(4)
C11B_2 C 0.2278(9) -0.0716(5) 0.2326(4)
C11C_2 C -0.2278(9) -0.0716(5) 0.7674(4)
C11_2 C -0.2278(9) 0.0716(5) 0.7674(4)
C11A_2 C 0.2278(9) 0.0716(5) 0.2326(4)
H4A H 0.2444 1.1228 0.2064
H4B H 0.2444 0.8772 0.2064
H4C H -0.2444 0.8772 0.7936
H4B_2 H 0.2444 -0.1228 0.2064
H4C_2 H -0.2444 -0.1228 0.7936
H4_2 H -0.2444 0.1228 0.7936
H4A_2 H 0.2444 0.1228 0.2064
C12A C 0.2634(10) 1.0000 0.1948(5)
C12A_2 C 0.2634(10) 0.0000 0.1948(5)
C12_2 C -0.2634(10) 0.0000 0.8052(5)
C13A C 0.3391(10) 1.0000 0.1173(5)
C13A_2 C 0.3391(10) 0.0000 0.1173(5)
C13_2 C -0.3391(10) 0.0000 0.8827(5)
N1A N 0.514(4) 0.7876(12) 0.997(3)
N1B N 0.514(4) 0.2124(12) 0.997(3)
N1C N 0.486(4) 0.2124(12) 1.003(3)
N1A_2 N -0.486(4) 0.7876(12) -0.003(3)
N1_2 N -0.514(4) 0.7876(12) 0.003(3)
N1C_2 N -0.514(4) 0.2124(12) 0.003(3)
N1B_2 N -0.486(4) 0.2124(12) -0.003(3)
C14A C 0.429(3) 0.7351(13) 0.959(2)
C14B C 0.429(3) 0.2649(13) 0.959(2)
C14C C 0.571(3) 0.2649(13) 1.041(2)
C14A_2 C -0.571(3) 0.7351(13) -0.041(2)
C14_2 C -0.429(3) 0.7351(13) 0.041(2)
C14C_2 C -0.429(3) 0.2649(13) 0.041(2)
C14B_2 C -0.571(3) 0.2649(13) -0.041(2)
H5A H 0.3577 0.7566 0.9300
H5B H 0.3577 0.2434 0.9300
H5C H 0.6423 0.2434 1.0700
H5A_2 H -0.6423 0.7566 -0.0700
H5_2 H -0.3577 0.7566 0.0700
H5C_2 H -0.3577 0.2434 0.0700
H5B_2 H -0.6423 0.2434 -0.0700
C15A C 0.449(3) 0.6505(12) 0.9625(17)
C15B C 0.449(3) 0.3495(12) 0.9625(17)
C15C C 0.551(3) 0.3495(12) 1.0375(17)
C15A_2 C -0.551(3) 0.6505(12) -0.0375(17)
C15_2 C -0.449(3) 0.6505(12) 0.0375(17)
C15C_2 C -0.449(3) 0.3495(12) 0.0375(17)
C15B_2 C -0.551(3) 0.3495(12) -0.0375(17)
H6A H 0.3914 0.6150 0.9348
H6B H 0.3914 0.3850 0.9348
H6C H 0.6086 0.3850 1.0652
H6A_2 H -0.6086 0.6150 -0.0652
H6_2 H -0.3914 0.6150 0.0652
H6C_2 H -0.3914 0.3850 0.0652
H6B_2 H -0.6086 0.3850 -0.0652
C16A C 0.550(3) 0.6161(10) 1.005(2)
C16B C 0.550(3) 0.3839(10) 1.005(2)
C16C C 0.450(3) 0.3839(10) 0.995(2)
C16A_2 C -0.450(3) 0.6161(10) 0.005(2)
C16_2 C -0.550(3) 0.6161(10) -0.005(2)
C16C_2 C -0.550(3) 0.3839(10) -0.005(2)
C16B_2 C -0.450(3) 0.3839(10) 0.005(2)
C17A C 0.639(2) 0.6682(10) 1.043(2)
C17B C 0.639(2) 0.3318(10) 1.043(2)
C17C C 0.361(2) 0.3318(10) 0.957(2)
C17A_2 C -0.361(2) 0.6682(10) 0.043(2)
C17_2 C -0.639(2) 0.6682(10) -0.043(2)
C17C_2 C -0.639(2) 0.3318(10) -0.043(2)
C17B_2 C -0.361(2) 0.3318(10) 0.043(2)
C18A C 0.619(3) 0.7533(11) 1.036(2)
C18B C 0.619(3) 0.2467(11) 1.036(2)
C18C C 0.381(3) 0.2467(11) 0.964(2)
C18A_2 C -0.381(3) 0.7533(11) 0.036(2)
C18_2 C -0.619(3) 0.7533(11) -0.036(2)
C18C_2 C -0.619(3) 0.2467(11) -0.036(2)
C18B_2 C -0.381(3) 0.2467(11) 0.036(2)
H7A H 0.6806 0.7894 1.0592
H7B H 0.6806 0.2106 1.0592
H7C H 0.3194 0.2106 0.9408
H7A_2 H -0.3194 0.7894 0.0592
H7_2 H -0.6806 0.7894 -0.0592
H7C_2 H -0.6806 0.2106 -0.0592
H7B_2 H -0.3194 0.2106 0.0592
C19A C 0.565(3) 0.5289(10) 1.010(2)
C19B C 0.565(3) 0.4711(10) 1.010(2)
C19C C 0.435(3) 0.4711(10) 0.990(2)
C19A_2 C -0.435(3) 0.5289(10) 0.010(2)
C19_2 C -0.565(3) 0.5289(10) -0.010(2)
C19C_2 C -0.565(3) 0.4711(10) -0.010(2)
C19B_2 C -0.435(3) 0.4711(10) 0.010(2)
H8A H 0.6497 0.5095 1.0028
H8B H 0.6497 0.4905 1.0028
H8C H 0.3503 0.4905 0.9972
H8A_2 H -0.3503 0.5095 0.0028
H8_2 H -0.6497 0.5095 -0.0028
H8C_2 H -0.6497 0.4905 -0.0028
H8B_2 H -0.3503 0.4905 0.0028
Si1A Si 0.9930(15) 0.6138(13) 1.1866(11)
Si1B Si 0.9930(15) 0.3862(13) 1.1866(11)
Si1C Si 0.0070(15) 0.3862(13) 0.8134(11)
Si1A_2 Si -0.0070(15) 0.6138(13) 0.1866(11)
Si1_2 Si -0.9930(15) 0.6138(13) -0.1866(11)
Si1C_2 Si -0.9930(15) 0.3862(13) -0.1866(11)
Si1B_2 Si -0.0070(15) 0.3862(13) 0.1866(11)
C20A C 0.748(2) 0.6357(16) 1.088(2)
C20B C 0.748(2) 0.3643(16) 1.088(2)
C20C C 0.252(2) 0.3643(16) 0.912(2)
C20A_2 C -0.252(2) 0.6357(16) 0.088(2)
C20_2 C -0.748(2) 0.6357(16) -0.088(2)
C20C_2 C -0.748(2) 0.3643(16) -0.088(2)
C20B_2 C -0.252(2) 0.3643(16) 0.088(2)
C21A C 0.845(2) 0.622(2) 1.1254(18)
C21B C 0.845(2) 0.378(2) 1.1254(18)
C21C C 0.155(2) 0.378(2) 0.8746(18)
C21A_2 C -0.155(2) 0.622(2) 0.1254(18)
C21_2 C -0.845(2) 0.622(2) -0.1254(18)
C21C_2 C -0.845(2) 0.378(2) -0.1254(18)
C21B_2 C -0.155(2) 0.378(2) 0.1254(18)
C22A C 0.989(4) 0.517(2) 1.248(3)
C22B C 0.989(4) 0.483(2) 1.248(3)
C22C C 0.011(4) 0.483(2) 0.752(3)
C22A_2 C -0.011(4) 0.517(2) 0.248(3)
C22_2 C -0.989(4) 0.517(2) -0.248(3)
C22C_2 C -0.989(4) 0.483(2) -0.248(3)
C22B_2 C -0.011(4) 0.483(2) 0.248(3)
H9A H 1.0690 0.5115 1.2783
H9B H 1.0690 0.4885 1.2783
H9C H -0.0690 0.4885 0.7217
H9A_2 H 0.0690 0.5115 0.2783
H9_2 H -1.0690 0.5115 -0.2783
H9C_2 H -1.0690 0.4885 -0.2783
H9B_2 H 0.0690 0.4885 0.2783
H10A H 0.9782 0.4701 1.2111
H10B H 0.9782 0.5299 1.2111
H10C H 0.0218 0.5299 0.7889
H10A_2 H -0.0218 0.4701 0.2111
H10_2 H -0.9782 0.4701 -0.2111
H10C_2 H -0.9782 0.5299 -0.2111
H10B_2 H -0.0218 0.5299 0.2111
H11A H 0.9176 0.5194 1.2866
H11B H 0.9176 0.4806 1.2866
H11C H 0.0824 0.4806 0.7134
H11A_2 H -0.0824 0.5194 0.2866
H11_2 H -0.9176 0.5194 -0.2866
H11C_2 H -0.9176 0.4806 -0.2866
H11B_2 H -0.0824 0.4806 0.2866
C23A C 1.134(2) 0.613(4) 1.118(2)
C23B C 1.134(2) 0.387(4) 1.118(2)
C23C C -0.134(2) 0.387(4) 0.882(2)
C23A_2 C 0.134(2) 0.613(4) 0.118(2)
C23_2 C -1.134(2) 0.613(4) -0.118(2)
C23C_2 C -1.134(2) 0.387(4) -0.118(2)
C23B_2 C 0.134(2) 0.387(4) 0.118(2)
H12A H 1.2107 0.6041 1.1508
H12B H 1.2107 0.3959 1.1508
H12C H -0.2107 0.3959 0.8492
H12A_2 H 0.2107 0.6041 0.1508
H12_2 H -1.2107 0.6041 -0.1508
H12C_2 H -1.2107 0.3959 -0.1508
H12B_2 H 0.2107 0.3959 0.1508
H13A H 1.1398 0.6665 1.0899
H13B H 1.1398 0.3335 1.0899
H13C H -0.1398 0.3335 0.9101
H13A_2 H 0.1398 0.6665 0.0899
H13_2 H -1.1398 0.6665 -0.0899
H13C_2 H -1.1398 0.3335 -0.0899
H13B_2 H 0.1398 0.3335 0.0899
H14A H 1.1246 0.5692 1.0775
H14B H 1.1246 0.4308 1.0775
H14C H -0.1246 0.4308 0.9225
H14A_2 H 0.1246 0.5692 0.0775
H14_2 H -1.1246 0.5692 -0.0775
H14C_2 H -1.1246 0.4308 -0.0775
H14B_2 H 0.1246 0.4308 0.0775
C24A C 1.004(4) 0.703(2) 1.258(3)
C24B C 1.004(4) 0.297(2) 1.258(3)
C24C C -0.004(4) 0.297(2) 0.742(3)
C24A_2 C 0.004(4) 0.703(2) 0.258(3)
C24_2 C -1.004(4) 0.703(2) -0.258(3)
C24C_2 C -1.004(4) 0.297(2) -0.258(3)
C24B_2 C 0.004(4) 0.297(2) 0.258(3)
H15A H 1.0803 0.6975 1.2923
H15B H 1.0803 0.3025 1.2923
H15C H -0.0803 0.3025 0.7077
H15A_2 H 0.0803 0.6975 0.2923
H15_2 H -1.0803 0.6975 -0.2923
H15C_2 H -1.0803 0.3025 -0.2923
H15B_2 H 0.0803 0.3025 0.2923
H16A H 0.9282 0.7041 1.2936
H16B H 0.9282 0.2959 1.2936
H16C H 0.0718 0.2959 0.7064
H16A_2 H -0.0718 0.7041 0.2936
H16_2 H -0.9282 0.7041 -0.2936
H16C_2 H -0.9282 0.2959 -0.2936
H16B_2 H -0.0718 0.2959 0.2936
H17A H 1.0085 0.7542 1.2266
H17B H 1.0085 0.2458 1.2266
H17C H -0.0085 0.2458 0.7734
H17A_2 H 0.0085 0.7542 0.2266
H17_2 H -1.0085 0.7542 -0.2266
H17C_2 H -1.0085 0.2458 -0.2266
H17B_2 H 0.0085 0.2458 0.2266
N2A N 0.505(4) 0.2119(11) 1.007(2)
N2B N 0.505(4) 0.7881(11) 1.007(2)
N2C N 0.495(4) 0.7881(11) 0.993(2)
N2A_2 N -0.495(4) 0.2119(11) 0.007(2)
N2_2 N -0.505(4) 0.2119(11) -0.007(2)
N2C_2 N -0.505(4) 0.7881(11) -0.007(2)
N2B_2 N -0.495(4) 0.7881(11) 0.007(2)
C25A C 0.606(3) 0.2617(14) 0.9819(18)
C25B C 0.606(3) 0.7383(14) 0.9819(18)
C25C C 0.394(3) 0.7383(14) 1.0181(18)
C25A_2 C -0.394(3) 0.2617(14) -0.0181(18)
C25_2 C -0.606(3) 0.2617(14) 0.0181(18)
C25C_2 C -0.606(3) 0.7383(14) 0.0181(18)
C25B_2 C -0.394(3) 0.7383(14) -0.0181(18)
H18A H 0.6800 0.2374 0.9593
H18B H 0.6800 0.7626 0.9593
H18C H 0.3200 0.7626 1.0407
H18A_2 H -0.3200 0.2374 -0.0407
H18_2 H -0.6800 0.2374 0.0407
H18C_2 H -0.6800 0.7626 0.0407
H18B_2 H -0.3200 0.7626 -0.0407
C26A C 0.598(3) 0.3462(13) 0.9897(16)
C26B C 0.598(3) 0.6538(13) 0.9897(16)
C26C C 0.402(3) 0.6538(13) 1.0103(16)
C26A_2 C -0.402(3) 0.3462(13) -0.0103(16)
C26_2 C -0.598(3) 0.3462(13) 0.0103(16)
C26C_2 C -0.598(3) 0.6538(13) 0.0103(16)
C26B_2 C -0.402(3) 0.6538(13) -0.0103(16)
H19A H 0.6685 0.3789 0.9738
H19B H 0.6685 0.6211 0.9738
H19C H 0.3315 0.6211 1.0262
H19A_2 H -0.3315 0.3789 -0.0262
H19_2 H -0.6685 0.3789 0.0262
H19C_2 H -0.6685 0.6211 0.0262
H19B_2 H -0.3315 0.6211 -0.0262
C27A C 0.490(3) 0.3850(9) 1.0198(17)
C27B C 0.490(3) 0.6150(9) 1.0198(17)
C27C C 0.510(3) 0.6150(9) 0.9802(17)
C27A_2 C -0.510(3) 0.3850(9) 0.0198(17)
C27_2 C -0.490(3) 0.3850(9) -0.0198(17)
C27C_2 C -0.490(3) 0.6150(9) -0.0198(17)
C27B_2 C -0.510(3) 0.6150(9) 0.0198(17)
C28A C 0.394(3) 0.3347(11) 1.0512(16)
C28B C 0.394(3) 0.6653(11) 1.0512(16)
C28C C 0.606(3) 0.6653(11) 0.9488(16)
C28A_2 C -0.606(3) 0.3347(11) 0.0512(16)
C28_2 C -0.394(3) 0.3347(11) -0.0512(16)
C28C_2 C -0.394(3) 0.6653(11) -0.0512(16)
C28B_2 C -0.606(3) 0.6653(11) 0.0512(16)
H20A H 0.3204 0.3588 1.0748
H20B H 0.3204 0.6412 1.0748
H20C H 0.6796 0.6412 0.9252
H20A_2 H -0.6796 0.3588 0.0748
H20_2 H -0.3204 0.3588 -0.0748
H20C_2 H -0.3204 0.6412 -0.0748
H20B_2 H -0.6796 0.6412 0.0748
C29A C 0.406(3) 0.2500(12) 1.0484(17)
C29B C 0.406(3) 0.7500(12) 1.0484(17)
C29C C 0.594(3) 0.7500(12) 0.9516(17)
C29A_2 C -0.594(3) 0.2500(12) 0.0484(17)
C29_2 C -0.406(3) 0.2500(12) -0.0484(17)
C29C_2 C -0.406(3) 0.7500(12) -0.0484(17)
C29B_2 C -0.594(3) 0.7500(12) 0.0484(17)
H21A H 0.3440 0.2169 1.0755
H21B H 0.3440 0.7831 1.0755
H21C H 0.6560 0.7831 0.9245
H21A_2 H -0.6560 0.2169 0.0755
H21_2 H -0.3440 0.2169 -0.0755
H21C_2 H -0.3440 0.7831 -0.0755
H21B_2 H -0.6560 0.7831 0.0755
C30A C 0.481(4) 0.4720(10) 1.0236(17)
C30B C 0.481(4) 0.5280(10) 1.0236(17)
C30C C 0.519(4) 0.5280(10) 0.9764(17)
C30A_2 C -0.519(4) 0.4720(10) 0.0236(17)
C30_2 C -0.481(4) 0.4720(10) -0.0236(17)
C30C_2 C -0.481(4) 0.5280(10) -0.0236(17)
C30B_2 C -0.519(4) 0.5280(10) 0.0236(17)
H22A H 0.3988 0.4922 1.0385
H22B H 0.3988 0.5078 1.0385
H22C H 0.6012 0.5078 0.9615
H22A_2 H -0.6012 0.4922 0.0385
H22_2 H -0.3988 0.4922 -0.0385
H22C_2 H -0.3988 0.5078 -0.0385
H22B_2 H -0.6012 0.5078 0.0385
loop_
_geom_bond_atom_site_label_1
_geom_bond_atom_site_label_2
_geom_bond_site_symmetry_1
_geom_bond_site_symmetry_2
Zn1 O1 1_555 1_555
Br1 C8 1_555 1_555
O1 C1 1_555 1_555
O2 C13 1_555 1_555
C1 C2 1_555 1_555
C2 C3 1_555 1_555
C3 H1 1_555 1_555
C4 C3 1_555 1_555
H2 C4 1_555 1_555
C5 C4 1_555 1_555
C6 C5 1_555 1_555
C7 C6 1_555 1_555
C8 C7 1_555 1_555
C9 C7 1_555 1_555
C10 C9 1_555 1_555
H3 C10 1_555 1_555
C11 C10 1_555 1_555
H4 C11 1_555 1_555
C12 C11 1_555 1_555
C13 C12 1_555 1_555
N1 Zn1 1_555 1_555
C14 N1 1_555 1_555
H5 C14 1_555 1_555
C15 C14 1_555 1_555
H6 C15 1_555 1_555
C16 C15 1_555 1_555
C17 C16 1_555 1_555
C18 C17 1_555 1_555
H7 C18 1_555 1_555
C19 C16 1_555 1_555
H8 C19 1_555 1_555
Si1 C21 1_555 1_555
C20 C17 1_555 1_555
C21 C20 1_555 1_555
C22 Si1 1_555 1_555
H9 C22 1_555 1_555
H10 C22 1_555 1_555
H11 C22 1_555 1_555
C23 Si1 1_555 1_555
H12 C23 1_555 1_555
H13 C23 1_555 1_555
H14 C23 1_555 1_555
C24 Si1 1_555 1_555
H15 C24 1_555 1_555
H16 C24 1_555 1_555
H17 C24 1_555 1_555
N2 Zn1B_2 1_555 1_555
C25 H18 1_555 1_555
H18 C29A 1_555 1_555
C26 C25 1_555 1_555
H19 C26 1_555 1_555
C27 C28 1_555 1_555
C28 H20 1_555 1_555
C29 C28 1_555 1_555
H21 C29 1_555 1_555
C30 H22 1_555 1_555
H22 C19A 1_555 1_555
Zn1_2 O1A 1_555 1_555
Zn1B O1B_2 1_555 1_555
Zn1B_2 O1C_2 1_555 1_555
Zn1_3 O1A_2 1_555 1_555
Zn1_4 O2_2 1_555 1_555
Zn1_5 O2 1_555 1_555
Zn1_6 O2A_2 1_555 1_555
Zn1_7 O1_2 1_555 1_555
Zn1_8 O2A 1_555 1_555
Zn1B_3 O2C_2 1_555 1_555
Zn1B_4 O1B 1_555 1_555
Zn1B_5 O2C 1_555 1_555
Zn1B_6 O2B_2 1_555 1_555
Zn1B_7 O2B 1_555 1_555
Zn1B_8 O1C 1_555 1_555
Br1A C8A 1_555 1_555
Br1A_2 C8A_2 1_555 1_555
Br1_2 C8_2 1_555 1_555
O1A C1A 1_555 1_555
O1B C1A 1_555 1_555
O1C C1 1_555 1_555
O1B_2 C1A_2 1_555 1_555
O1C_2 C1_2 1_555 1_555
O1_2 C1_2 1_555 1_555
O1A_2 C1A_2 1_555 1_555
O1_3 Zn1_2 1_555 1_555
O1A_3 Zn1 1_555 1_555
O1B_3 Zn1B_2 1_555 1_555
O1C_3 Zn1B 1_555 1_555
O2A C13A 1_555 1_555
O2B C13A 1_555 1_555
O2C C13 1_555 1_555
O2B_2 C13A_2 1_555 1_555
O2C_2 C13_2 1_555 1_555
O2_2 C13_2 1_555 1_555
O2A_2 C13A_2 1_555 1_555
O2_3 Zn1_2 1_555 1_555
O2_4 Zn1 1_555 1_555
O2A_3 Zn1_2 1_555 1_555
O2A_4 Zn1 1_555 1_555
O2B_3 Zn1B 1_555 1_555
O2B_4 Zn1B_2 1_555 1_555
O2C_3 Zn1B 1_555 1_555
O2C_4 Zn1B_2 1_555 1_555
C1A C2A 1_555 1_555
C1A_2 C2A_2 1_555 1_555
C1_2 C2_2 1_555 1_555
C2A C3A 1_555 1_555
C2A_2 C3B_2 1_555 1_555
C2_2 C3C_2 1_555 1_555
C3A H1A 1_555 1_555
C3B C2A 1_555 1_555
C3C C2 1_555 1_555
C3B_2 H1B_2 1_555 1_555
C3C_2 H1C_2 1_555 1_555
C3_2 C2_2 1_555 1_555
C3A_2 C2A_2 1_555 1_555
H1B C3B 1_555 1_555
H1C C3C 1_555 1_555
H1_2 C3_2 1_555 1_555
H1A_2 C3A_2 1_555 1_555
C4A C3A 1_555 1_555
C4B C3B 1_555 1_555
C4C C5 1_555 1_555
C4B_2 C3B_2 1_555 1_555
C4C_2 C3C_2 1_555 1_555
C4_2 C3_2 1_555 1_555
C4A_2 C3A_2 1_555 1_555
H2A C4A 1_555 1_555
H2B C4B 1_555 1_555
H2C C4C 1_555 1_555
H2B_2 C4B_2 1_555 1_555
H2C_2 C4C_2 1_555 1_555
H2_2 C4_2 1_555 1_555
H2A_2 C4A_2 1_555 1_555
C5A C4A 1_555 1_555
C5A_2 C4B_2 1_555 1_555
C5_2 C4C_2 1_555 1_555
C6A C8 1_555 1_555
C6A_2 C5A_2 1_555 1_555
C6_2 C5_2 1_555 1_555
C7A C6A 1_555 1_555
C7A_2 C6A_2 1_555 1_555
C7_2 C6_2 1_555 1_555
C8A C6 1_555 1_555
C8A_2 C6_2 1_555 1_555
C8_2 C6A_2 1_555 1_555
C9A C7A 1_555 1_555
C9A_2 C7A_2 1_555 1_555
C9_2 C7_2 1_555 1_555
C10A C9A 1_555 1_555
C10B C9A 1_555 1_555
C10C C9 1_555 1_555
C10B_2 C9A_2 1_555 1_555
C10C_2 C9_2 1_555 1_555
C10_2 C9_2 1_555 1_555
C10A_2 C9A_2 1_555 1_555
H3A C10A 1_555 1_555
H3B C10B 1_555 1_555
H3C C10C 1_555 1_555
H3B_2 C10B_2 1_555 1_555
H3C_2 C10C_2 1_555 1_555
H3_2 C10_2 1_555 1_555
H3A_2 C10A_2 1_555 1_555
C11A C10A 1_555 1_555
C11B C10B 1_555 1_555
C11C C12 1_555 1_555
C11B_2 C10B_2 1_555 1_555
C11C_2 C10C_2 1_555 1_555
C11_2 C10_2 1_555 1_555
C11A_2 C10A_2 1_555 1_555
H4A C11A 1_555 1_555
H4B C11B 1_555 1_555
H4C C11C 1_555 1_555
H4B_2 C11B_2 1_555 1_555
H4C_2 C11C_2 1_555 1_555
H4_2 C11_2 1_555 1_555
H4A_2 C11A_2 1_555 1_555
C12A C11A 1_555 1_555
C12A_2 C11B_2 1_555 1_555
C12_2 C11C_2 1_555 1_555
C13A C12A 1_555 1_555
C13A_2 C12A_2 1_555 1_555
C13_2 C12_2 1_555 1_555
N1A Zn1 1_555 1_555
N1B N2 1_555 1_555
N1C N2 1_555 1_555
N1A_2 Zn1_2 1_555 1_555
N1_2 Zn1_2 1_555 1_555
N1C_2 Zn1B 1_555 1_555
N1B_2 Zn1B 1_555 1_555
C14A N1 1_555 1_555
C14B C25 1_555 1_555
C14C N1B 1_555 1_555
C14A_2 N1A_2 1_555 1_555
C14_2 N1A_2 1_555 1_555
C14C_2 N1C_2 1_555 1_555
C14B_2 N1C_2 1_555 1_555
H5A C18 1_555 1_555
H5B C14B 1_555 1_555
H5C C14C 1_555 1_555
H5A_2 C14A_2 1_555 1_555
H5_2 C14_2 1_555 1_555
H5C_2 C14C_2 1_555 1_555
H5B_2 C14B_2 1_555 1_555
C15A C15 1_555 1_555
C15B C26 1_555 1_555
C15C C26 1_555 1_555
C15A_2 C14A_2 1_555 1_555
C15_2 C14_2 1_555 1_555
C15C_2 C14C_2 1_555 1_555
C15B_2 C14B_2 1_555 1_555
H6A C16 1_555 1_555
H6B C15B 1_555 1_555
H6C C15C 1_555 1_555
H6A_2 C15A_2 1_555 1_555
H6_2 C15_2 1_555 1_555
H6C_2 C15C_2 1_555 1_555
H6B_2 C15B_2 1_555 1_555
C16A C15 1_555 1_555
C16B C27 1_555 1_555
C16C H19 1_555 1_555
C16A_2 C15A_2 1_555 1_555
C16_2 C15A_2 1_555 1_555
C16C_2 C15C_2 1_555 1_555
C16B_2 C15C_2 1_555 1_555
C17A C14 1_555 1_555
C17B C28 1_555 1_555
C17C C26 1_555 1_555
C17A_2 C14_2 1_555 1_555
C17_2 C14A_2 1_555 1_555
C17C_2 C14B_2 1_555 1_555
C17B_2 C14C_2 1_555 1_555
C18A C14 1_555 1_555
C18B C29 1_555 1_555
C18C C25 1_555 1_555
C18A_2 C14_2 1_555 1_555
C18_2 C14A_2 1_555 1_555
C18C_2 C14B_2 1_555 1_555
C18B_2 C14C_2 1_555 1_555
H7A C18A 1_555 1_555
H7B C18B 1_555 1_555
H7C C18C 1_555 1_555
H7A_2 C18A_2 1_555 1_555
H7_2 C18_2 1_555 1_555
H7C_2 C18C_2 1_555 1_555
H7B_2 C18B_2 1_555 1_555
C19A C16A 1_555 1_555
C19B H22 1_555 1_555
C19C H8 1_555 1_555
C19A_2 C16A_2 1_555 1_555
C19_2 C16_2 1_555 1_555
C19C_2 C16C_2 1_555 1_555
C19B_2 C16B_2 1_555 1_555
H8A C19A 1_555 1_555
H8B C19A 1_555 1_555
H8C C19 1_555 1_555
H8A_2 C19A_2 1_555 1_555
H8_2 C19_2 1_555 1_555
H8C_2 C19_2 1_555 1_555
H8B_2 C19A_2 1_555 1_555
Si1A C21A 1_555 1_555
Si1B C21B 1_555 1_555
Si1C H10 1_555 1_555
Si1A_2 C21A_2 1_555 1_555
Si1_2 C21_2 1_555 1_555
Si1C_2 C21C_2 1_555 1_555
Si1B_2 C21B_2 1_555 1_555
C20A C17A 1_555 1_555
C20B C17B 1_555 1_555
C20C C17C 1_555 1_555
C20A_2 C17A_2 1_555 1_555
C20_2 C17_2 1_555 1_555
C20C_2 C17C_2 1_555 1_555
C20B_2 C17B_2 1_555 1_555
C21A C20A 1_555 1_555
C21B C20B 1_555 1_555
C21C Si1C 1_555 1_555
C21A_2 C20A_2 1_555 1_555
C21_2 C20_2 1_555 1_555
C21C_2 C20C_2 1_555 1_555
C21B_2 C20B_2 1_555 1_555
C22A Si1A 1_555 1_555
C22B Si1B 1_555 1_555
C22C C22 1_555 1_555
C22A_2 Si1A_2 1_555 1_555
C22_2 Si1_2 1_555 1_555
C22C_2 Si1C_2 1_555 1_555
C22B_2 Si1B_2 1_555 1_555
H9A C22A 1_555 1_555
H9B C22A 1_555 1_555
H9C C22 1_555 1_555
H9A_2 C22A_2 1_555 1_555
H9_2 C22_2 1_555 1_555
H9C_2 C22_2 1_555 1_555
H9B_2 C22A_2 1_555 1_555
H10A Si1B 1_555 1_555
H10B Si1A 1_555 1_555
H10C Si1 1_555 1_555
H10A_2 Si1B_2 1_555 1_555
H10_2 Si1C_2 1_555 1_555
H10C_2 Si1_2 1_555 1_555
H10B_2 Si1A_2 1_555 1_555
H11A C22A 1_555 1_555
H11B C22A 1_555 1_555
H11C C22 1_555 1_555
H11A_2 C22A_2 1_555 1_555
H11_2 C22_2 1_555 1_555
H11C_2 C22_2 1_555 1_555
H11B_2 C22A_2 1_555 1_555
C23A Si1A 1_555 1_555
C23B Si1B 1_555 1_555
C23C Si1C 1_555 1_555
C23A_2 Si1A_2 1_555 1_555
C23_2 Si1_2 1_555 1_555
C23C_2 Si1C_2 1_555 1_555
C23B_2 Si1B_2 1_555 1_555
H12A C23A 1_555 1_555
H12B C23B 1_555 1_555
H12C C23C 1_555 1_555
H12A_2 C23A_2 1_555 1_555
H12_2 C23_2 1_555 1_555
H12C_2 C23C_2 1_555 1_555
H12B_2 C23B_2 1_555 1_555
H13A C23A 1_555 1_555
H13B C23B 1_555 1_555
H13C C23C 1_555 1_555
H13A_2 C23A_2 1_555 1_555
H13_2 C23_2 1_555 1_555
H13C_2 C23C_2 1_555 1_555
H13B_2 C23B_2 1_555 1_555
H14A C23A 1_555 1_555
H14B C23B 1_555 1_555
H14C C23C 1_555 1_555
H14A_2 C23A_2 1_555 1_555
H14_2 C23_2 1_555 1_555
H14C_2 C23C_2 1_555 1_555
H14B_2 C23B_2 1_555 1_555
C24A Si1A 1_555 1_555
C24B Si1B 1_555 1_555
C24C Si1C 1_555 1_555
C24A_2 Si1A_2 1_555 1_555
C24_2 Si1_2 1_555 1_555
C24C_2 Si1C_2 1_555 1_555
C24B_2 Si1B_2 1_555 1_555
H15A C24A 1_555 1_555
H15B C24B 1_555 1_555
H15C C24C 1_555 1_555
H15A_2 C24A_2 1_555 1_555
H15_2 C24_2 1_555 1_555
H15C_2 C24C_2 1_555 1_555
H15B_2 C24B_2 1_555 1_555
H16A C24A 1_555 1_555
H16B C24B 1_555 1_555
H16C C24C 1_555 1_555
H16A_2 C24A_2 1_555 1_555
H16_2 C24_2 1_555 1_555
H16C_2 C24C_2 1_555 1_555
H16B_2 C24B_2 1_555 1_555
H17A C24A 1_555 1_555
H17B C24B 1_555 1_555
H17C C24C 1_555 1_555
H17A_2 C24A_2 1_555 1_555
H17_2 C24_2 1_555 1_555
H17C_2 C24C_2 1_555 1_555
H17B_2 C24B_2 1_555 1_555
N2A N2 1_555 1_555
N2B Zn1 1_555 1_555
N2C Zn1 1_555 1_555
N2A_2 Zn1B 1_555 1_555
N2_2 Zn1B 1_555 1_555
N2C_2 Zn1_2 1_555 1_555
N2B_2 Zn1_2 1_555 1_555
C25A C28 1_555 1_555
C25B C14 1_555 1_555
C25C C18 1_555 1_555
C25A_2 C14C_2 1_555 1_555
C25_2 C14B_2 1_555 1_555
C25C_2 C14A_2 1_555 1_555
C25B_2 C14_2 1_555 1_555
H18A C29 1_555 1_555
H18B C25B 1_555 1_555
H18C C25C 1_555 1_555
H18A_2 C25A_2 1_555 1_555
H18_2 C25_2 1_555 1_555
H18C_2 C25C_2 1_555 1_555
H18B_2 C25B_2 1_555 1_555
C26A C28 1_555 1_555
C26B C15 1_555 1_555
C26C C15 1_555 1_555
C26A_2 C15C_2 1_555 1_555
C26_2 C15C_2 1_555 1_555
C26C_2 C15A_2 1_555 1_555
C26B_2 C15A_2 1_555 1_555
H19A C28 1_555 1_555
H19B C16A 1_555 1_555
H19C C16 1_555 1_555
H19A_2 C16B_2 1_555 1_555
H19_2 C16C_2 1_555 1_555
H19C_2 C16_2 1_555 1_555
H19B_2 C16A_2 1_555 1_555
C27A C27 1_555 1_555
C27B C16 1_555 1_555
C27C C16 1_555 1_555
C27A_2 C16C_2 1_555 1_555
C27_2 C16C_2 1_555 1_555
C27C_2 C16A_2 1_555 1_555
C27B_2 C16A_2 1_555 1_555
C28A C25 1_555 1_555
C28B C15 1_555 1_555
C28C C15 1_555 1_555
C28A_2 C15C_2 1_555 1_555
C28_2 C15C_2 1_555 1_555
C28C_2 C15A_2 1_555 1_555
C28B_2 C15A_2 1_555 1_555
H20A C28A 1_555 1_555
H20B C28B 1_555 1_555
H20C C28C 1_555 1_555
H20A_2 C28A_2 1_555 1_555
H20_2 C28_2 1_555 1_555
H20C_2 C28C_2 1_555 1_555
H20B_2 C28B_2 1_555 1_555
C29A C25 1_555 1_555
C29B C18 1_555 1_555
C29C C18A 1_555 1_555
C29A_2 C18C_2 1_555 1_555
C29_2 C18B_2 1_555 1_555
C29C_2 C18A_2 1_555 1_555
C29B_2 C18_2 1_555 1_555
H21A C25 1_555 1_555
H21B C25C 1_555 1_555
H21C C25B 1_555 1_555
H21A_2 C25_2 1_555 1_555
H21_2 C25A_2 1_555 1_555
H21C_2 C25B_2 1_555 1_555
H21B_2 C25C_2 1_555 1_555
C30A H22A 1_555 1_555
C30B H22A 1_555 1_555
C30C H22 1_555 1_555
C30A_2 H22A_2 1_555 1_555
C30_2 H22_2 1_555 1_555
C30C_2 H22_2 1_555 1_555
C30B_2 H22A_2 1_555 1_555
H22A C19 1_555 1_555
H22B C19 1_555 1_555
H22C C30 1_555 1_555
H22A_2 C19_2 1_555 1_555
H22_2 C19A_2 1_555 1_555
H22C_2 C19A_2 1_555 1_555
H22B_2 C19_2 1_555 1_555
N1 N2B 1_555 1_555
N1 N2C 1_555 1_555
C14 N1A 1_555 1_555
H5 C18A 1_555 1_555
C15 C17A 1_555 1_555
H6 C16A 1_555 1_555
H6 C17A 1_555 1_555
C16 C15A 1_555 1_555
C17 C14A 1_555 1_555
C17 C15A 1_555 1_555
C17 H6A 1_555 1_555
C17 C26C 1_555 1_555
C17 C28B 1_555 1_555
C18 C14A 1_555 1_555
C22 H10C 1_555 1_555
H9 C22C 1_555 1_555
H10 C22C 1_555 1_555
H11 C22C 1_555 1_555
C26 C28A 1_555 1_555
H19 C28A 1_555 1_555
C27 C16C 1_555 1_555
C28 C15B 1_555 1_555
C28 C15C 1_555 1_555
C29 C25A 1_555 1_555
H21 C25A 1_555 1_555
Zn1B_2 N1B 1_555 1_555
Zn1B_2 N1C 1_555 1_555
Zn1B_2 N2A 1_555 1_555
C3C C4C 1_555 1_555
C4B C5A 1_555 1_555
C4_2 C5_2 1_555 1_555
C4A_2 C5A_2 1_555 1_555
C5A C6A 1_555 1_555
C7A C8A 1_555 1_555
C7A_2 C8A_2 1_555 1_555
C7_2 C8_2 1_555 1_555
C10C C11C 1_555 1_555
C11B C12A 1_555 1_555
C11_2 C12_2 1_555 1_555
C11A_2 C12A_2 1_555 1_555
N1A C14A 1_555 1_555
N1A N2B 1_555 1_555
N1A N2C 1_555 1_555
N1B C14B 1_555 1_555
N1B N2A 1_555 1_555
N1C C14B 1_555 1_555
N1C C14C 1_555 1_555
N1C N2A 1_555 1_555
N1A_2 N2C_2 1_555 1_555
N1A_2 N2B_2 1_555 1_555
N1_2 C14A_2 1_555 1_555
N1_2 C14_2 1_555 1_555
N1_2 N2C_2 1_555 1_555
N1_2 N2B_2 1_555 1_555
N1C_2 N2A_2 1_555 1_555
N1C_2 N2_2 1_555 1_555
N1B_2 C14C_2 1_555 1_555
N1B_2 C14B_2 1_555 1_555
N1B_2 N2A_2 1_555 1_555
N1B_2 N2_2 1_555 1_555
C14A H5A 1_555 1_555
C14A C15A 1_555 1_555
C14A C25C 1_555 1_555
C14B C15B 1_555 1_555
C14B C17C 1_555 1_555
C14B C18C 1_555 1_555
C14C C15C 1_555 1_555
C14C C17B 1_555 1_555
C14C C18B 1_555 1_555
C14C C25A 1_555 1_555
H5B C18C 1_555 1_555
H5C C18B 1_555 1_555
H5A_2 C18_2 1_555 1_555
H5_2 C18A_2 1_555 1_555
H5C_2 C18B_2 1_555 1_555
H5B_2 C18C_2 1_555 1_555
C15A H6A 1_555 1_555
C15A C16A 1_555 1_555
C15A C26B 1_555 1_555
C15A C26C 1_555 1_555
C15A C28B 1_555 1_555
C15A C28C 1_555 1_555
C15B C15C 1_555 1_555
C15B C16B 1_555 1_555
C15B C16C 1_555 1_555
C15B C17C 1_555 1_555
C15B C26A 1_555 1_555
C15B C28A 1_555 1_555
C15C C16B 1_555 1_555
C15C C16C 1_555 1_555
C15C C17B 1_555 1_555
C15C C26A 1_555 1_555
C15C C28A 1_555 1_555
C15A_2 C15_2 1_555 1_555
C15A_2 C17_2 1_555 1_555
C15_2 C16A_2 1_555 1_555
C15_2 C16_2 1_555 1_555
C15_2 C17A_2 1_555 1_555
C15_2 C26C_2 1_555 1_555
C15_2 C26B_2 1_555 1_555
C15_2 C28C_2 1_555 1_555
C15_2 C28B_2 1_555 1_555
C15C_2 C15B_2 1_555 1_555
C15C_2 C17B_2 1_555 1_555
C15B_2 C16C_2 1_555 1_555
C15B_2 C16B_2 1_555 1_555
C15B_2 C17C_2 1_555 1_555
C15B_2 C26A_2 1_555 1_555
C15B_2 C26_2 1_555 1_555
C15B_2 C28A_2 1_555 1_555
C15B_2 C28_2 1_555 1_555
H6B C16C 1_555 1_555
H6B C17C 1_555 1_555
H6C C16B 1_555 1_555
H6C C17B 1_555 1_555
H6A_2 C16_2 1_555 1_555
H6A_2 C17_2 1_555 1_555
H6_2 C16A_2 1_555 1_555
H6_2 C17A_2 1_555 1_555
H6C_2 C16B_2 1_555 1_555
H6C_2 C17B_2 1_555 1_555
H6B_2 C16C_2 1_555 1_555
H6B_2 C17C_2 1_555 1_555
C16A C17A 1_555 1_555
C16A C27B 1_555 1_555
C16A C27C 1_555 1_555
C16B C17B 1_555 1_555
C16B C19B 1_555 1_555
C16B H19A 1_555 1_555
C16B C27A 1_555 1_555
C16C C17C 1_555 1_555
C16C C19C 1_555 1_555
C16C C27A 1_555 1_555
C16A_2 C17A_2 1_555 1_555
C16_2 C17_2 1_555 1_555
C16_2 C27C_2 1_555 1_555
C16_2 C27B_2 1_555 1_555
C16C_2 C17C_2 1_555 1_555
C16B_2 C17B_2 1_555 1_555
C16B_2 C27A_2 1_555 1_555
C16B_2 C27_2 1_555 1_555
C17A C18A 1_555 1_555
C17A C26B 1_555 1_555
C17A C28C 1_555 1_555
C17B C18B 1_555 1_555
C17B C26A 1_555 1_555
C17C C18C 1_555 1_555
C17C C28A 1_555 1_555
C17A_2 C18A_2 1_555 1_555
C17A_2 C26B_2 1_555 1_555
C17A_2 C28C_2 1_555 1_555
C17_2 C18_2 1_555 1_555
C17_2 C26C_2 1_555 1_555
C17_2 C28B_2 1_555 1_555
C17C_2 C18C_2 1_555 1_555
C17C_2 C26_2 1_555 1_555
C17C_2 C28A_2 1_555 1_555
C17B_2 C18B_2 1_555 1_555
C17B_2 C26A_2 1_555 1_555
C17B_2 C28_2 1_555 1_555
C18A C25B 1_555 1_555
C18B C25A 1_555 1_555
C18C C29A 1_555 1_555
C18A_2 C25B_2 1_555 1_555
C18_2 C25C_2 1_555 1_555
C18C_2 C25_2 1_555 1_555
C18B_2 C25A_2 1_555 1_555
C19A H22C 1_555 1_555
C19B H8A 1_555 1_555
C19B H8B 1_555 1_555
C19B H22C 1_555 1_555
C19C H8C 1_555 1_555
C19C H22A 1_555 1_555
C19C H22B 1_555 1_555
C19C_2 H8_2 1_555 1_555
C19C_2 H8C_2 1_555 1_555
C19C_2 H22A_2 1_555 1_555
C19C_2 H22B_2 1_555 1_555
C19B_2 H8A_2 1_555 1_555
C19B_2 H8B_2 1_555 1_555
C19B_2 H22_2 1_555 1_555
C19B_2 H22C_2 1_555 1_555
Si1C C22C 1_555 1_555
C20C C21C 1_555 1_555
C22A C22B 1_555 1_555
C22A H10A 1_555 1_555
C22A H10B 1_555 1_555
C22B H9A 1_555 1_555
C22B H9B 1_555 1_555
C22B H10A 1_555 1_555
C22B H10B 1_555 1_555
C22B H11A 1_555 1_555
C22B H11B 1_555 1_555
C22C H9C 1_555 1_555
C22C H10C 1_555 1_555
C22C H11C 1_555 1_555
C22A_2 C22B_2 1_555 1_555
C22A_2 H10A_2 1_555 1_555
C22A_2 H10B_2 1_555 1_555
C22_2 C22C_2 1_555 1_555
C22_2 H10_2 1_555 1_555
C22_2 H10C_2 1_555 1_555
C22C_2 H9_2 1_555 1_555
C22C_2 H9C_2 1_555 1_555
C22C_2 H10_2 1_555 1_555
C22C_2 H10C_2 1_555 1_555
C22C_2 H11_2 1_555 1_555
C22C_2 H11C_2 1_555 1_555
C22B_2 H9A_2 1_555 1_555
C22B_2 H9B_2 1_555 1_555
C22B_2 H10A_2 1_555 1_555
C22B_2 H10B_2 1_555 1_555
C22B_2 H11A_2 1_555 1_555
C22B_2 H11B_2 1_555 1_555
N2B N2C 1_555 1_555
N2A_2 N2_2 1_555 1_555
N2C_2 N2B_2 1_555 1_555
C25A H18A 1_555 1_555
C25A C26A 1_555 1_555
C25B C26B 1_555 1_555
C25B C28C 1_555 1_555
C25B C29C 1_555 1_555
C25C C26C 1_555 1_555
C25C C28B 1_555 1_555
C25C C29B 1_555 1_555
C25A_2 C26A_2 1_555 1_555
C25A_2 C28_2 1_555 1_555
C25A_2 C29_2 1_555 1_555
C25_2 C26_2 1_555 1_555
C25_2 C28A_2 1_555 1_555
C25_2 C29A_2 1_555 1_555
C25C_2 C26C_2 1_555 1_555
C25C_2 C28B_2 1_555 1_555
C25C_2 C29B_2 1_555 1_555
C25B_2 C26B_2 1_555 1_555
C25B_2 C28C_2 1_555 1_555
C25B_2 C29C_2 1_555 1_555
H18B C29C 1_555 1_555
H18C C29B 1_555 1_555
H18A_2 C29_2 1_555 1_555
H18_2 C29A_2 1_555 1_555
H18C_2 C29B_2 1_555 1_555
H18B_2 C29C_2 1_555 1_555
C26A H19A 1_555 1_555
C26B H19B 1_555 1_555
C26B C28C 1_555 1_555
C26C H19C 1_555 1_555
C26C C28B 1_555 1_555
C26A_2 H19A_2 1_555 1_555
C26A_2 C28_2 1_555 1_555
C26_2 H19_2 1_555 1_555
C26_2 C28A_2 1_555 1_555
C26C_2 H19C_2 1_555 1_555
C26C_2 C28B_2 1_555 1_555
C26B_2 H19B_2 1_555 1_555
C26B_2 C28C_2 1_555 1_555
H19B C28C 1_555 1_555
H19C C28B 1_555 1_555
H19A_2 C28_2 1_555 1_555
H19_2 C28A_2 1_555 1_555
H19C_2 C28B_2 1_555 1_555
H19B_2 C28C_2 1_555 1_555
C27A C28A 1_555 1_555
C27B C27C 1_555 1_555
C27B C28B 1_555 1_555
C27C C28C 1_555 1_555
C27A_2 C27_2 1_555 1_555
C27A_2 C28A_2 1_555 1_555
C27_2 C28_2 1_555 1_555
C27C_2 C27B_2 1_555 1_555
C27C_2 C28C_2 1_555 1_555
C27B_2 C28B_2 1_555 1_555
C28A C29A 1_555 1_555
C28B C29B 1_555 1_555
C28C C29C 1_555 1_555
C28A_2 C29A_2 1_555 1_555
C28_2 C29_2 1_555 1_555
C28C_2 C29C_2 1_555 1_555
C28B_2 C29B_2 1_555 1_555
C29A H21A 1_555 1_555
C29B H21B 1_555 1_555
C29C H21C 1_555 1_555
C29A_2 H21A_2 1_555 1_555
C29_2 H21_2 1_555 1_555
C29C_2 H21C_2 1_555 1_555
C29B_2 H21B_2 1_555 1_555
C30A H22B 1_555 1_555
C30B H22B 1_555 1_555
C30C H22C 1_555 1_555
C30A_2 H22B_2 1_555 1_555
C30_2 H22C_2 1_555 1_555
C30C_2 H22C_2 1_555 1_555
C30B_2 H22B_2 1_555 1_555

#END
