
#######################################################################
#
#                 Cambridge Crystallographic Data Centre
#                                CCDC 
#
#######################################################################
#
# If this CIF has been generated from an entry in the Cambridge 
# Structural Database, then it will include bibliographic, chemical, 
# crystal, experimental, refinement or atomic coordinate data resulting 
# from the CCDC's data processing and validation procedures.
#
#######################################################################

data_HAHCUR
_chemical_formula_moiety         '(C34 H20 N6 Ni2 O8)n,5(H2 O1)'
_chemical_name_systematic        
"catena-[bis(\m-4,2':6',4''-terpyridine-4'-carboxylato)-(\m-oxalato)-di-nickel pentahydrate]"
_symmetry_cell_setting           monoclinic
_symmetry_space_group_name_H-M   'C 2/m'
_symmetry_Int_Tables_number      12
_space_group_name_Hall           '-C 2y'
loop_
_symmetry_equiv_pos_site_id
_symmetry_equiv_pos_as_xyz
1 x,y,z
2 -x,y,-z
3 1/2+x,1/2+y,z
4 1/2-x,1/2+y,-z
5 -x,-y,-z
6 x,-y,z
7 1/2-x,1/2-y,-z
8 1/2+x,1/2-y,z
_cell_length_a                   19.7500(19)
_cell_length_b                   22.1947(15)
_cell_length_c                   11.6334(11)
_cell_angle_alpha                90
_cell_angle_beta                 116.797(5)
_cell_angle_gamma                90
_cell_volume                     4551.81
_exptl_crystal_colour            green
_exptl_crystal_description       Prism
_cell_formula_units_Z            4
loop_
_atom_site_label
_atom_site_type_symbol
_atom_site_fract_x
_atom_site_fract_y
_atom_site_fract_z
Ni1 Ni 0.18730(3) 0.12067(2) 0.88351(4)
O1 O 0.18829(17) 0.12079(13) 0.6990(3)
O2 O 0.26629(17) 0.17700(14) 0.8602(3)
O3 O 0.26418(15) 0.05031(13) 0.9350(3)
O4 O 0.11417(15) 0.05005(13) 0.8597(3)
N1 N 0.21753(18) 0.13819(16) 0.0728(3)
N2 N 0.3591(2) 0.20858(18) 0.5277(3)
N3 N 0.59612(19) 0.32094(16) 0.8119(3)
C1 C 0.1722(3) 0.1290(2) 0.1282(4)
H1 H 0.1239 0.1137 0.0783
C2 C 0.1940(3) 0.1412(3) 0.2567(4)
H2 H 0.1606 0.1343 0.2914
C3 C 0.2666(2) 0.1641(2) 0.3343(4)
C4 C 0.3124(3) 0.1743(3) 0.2749(4)
H3 H 0.3607 0.1904 0.3214
C5 C 0.2861(3) 0.1604(3) 0.1461(4)
H4 H 0.3182 0.1670 0.1085
C6 C 0.2938(2) 0.1780(2) 0.4725(4)
C7 C 0.2545(2) 0.1596(2) 0.5408(4)
H5 H 0.2093 0.1382 0.5002
C8 C 0.2843(2) 0.1741(2) 0.6702(4)
C9 C 0.3525(2) 0.2047(2) 0.7284(4)
H6 H 0.3739 0.2142 0.8155
C10 C 0.3889(2) 0.2211(2) 0.6541(4)
C11 C 0.4612(2) 0.2543(2) 0.7095(4)
C12 C 0.5197(3) 0.2417(2) 0.8304(4)
H7 H 0.5144 0.2108 0.8800
C13 C 0.5854(3) 0.2750(2) 0.8765(4)
H8 H 0.6244 0.2651 0.9567
C14 C 0.5396(3) 0.3333(2) 0.6941(4)
H9 H 0.5460 0.3649 0.6475
C15 C 0.4726(3) 0.3010(2) 0.6395(4)
H10 H 0.4355 0.3103 0.5571
C16 C 0.2436(2) 0.15593(19) 0.7477(4)
C17 C 0.1461(3) 0.0000 0.8758(5)
C18 C 0.2332(3) 0.0000 0.9195(5)
O3E O 0.26418(15) -0.05031(13) 0.9350(3)
O4E O 0.11417(15) -0.05005(13) 0.8597(3)
Ni1E Ni 0.18730(3) -0.12067(2) 0.88351(4)
O1E O 0.18829(17) -0.12079(13) 0.6990(3)
O2E O 0.26629(17) -0.17700(14) 0.8602(3)
N1E N 0.21753(18) -0.13819(16) 0.0728(3)
N2E N 0.3591(2) -0.20858(18) 0.5277(3)
N3E N 0.59612(19) -0.32094(16) 0.8119(3)
C1E C 0.1722(3) -0.1290(2) 0.1282(4)
H1E H 0.1239 -0.1137 0.0783
C2E C 0.1940(3) -0.1412(3) 0.2567(4)
H2E H 0.1606 -0.1343 0.2914
C3E C 0.2666(2) -0.1641(2) 0.3343(4)
C4E C 0.3124(3) -0.1743(3) 0.2749(4)
H3E H 0.3607 -0.1904 0.3214
C5E C 0.2861(3) -0.1604(3) 0.1461(4)
H4E H 0.3182 -0.1670 0.1085
C6E C 0.2938(2) -0.1780(2) 0.4725(4)
C7E C 0.2545(2) -0.1596(2) 0.5408(4)
H5E H 0.2093 -0.1382 0.5002
C8E C 0.2843(2) -0.1741(2) 0.6702(4)
C9E C 0.3525(2) -0.2047(2) 0.7284(4)
H6E H 0.3739 -0.2142 0.8155
C10E C 0.3889(2) -0.2211(2) 0.6541(4)
C11E C 0.4612(2) -0.2543(2) 0.7095(4)
C12E C 0.5197(3) -0.2417(2) 0.8304(4)
H7E H 0.5144 -0.2108 0.8800
C13E C 0.5854(3) -0.2750(2) 0.8765(4)
H8E H 0.6244 -0.2651 0.9567
C14E C 0.5396(3) -0.3333(2) 0.6941(4)
H9E H 0.5460 -0.3649 0.6475
C15E C 0.4726(3) -0.3010(2) 0.6395(4)
H10E H 0.4355 -0.3103 0.5571
C16E C 0.2436(2) -0.15593(19) 0.7477(4)
Ni1_2 Ni 0.18730(3) 0.12067(2) -0.11649(4)
Ni1B Ni 0.68730(3) -0.37933(2) 0.88351(4)
Ni1E_2 Ni 0.18730(3) -0.12067(2) -0.11649(4)
Ni1G Ni 0.68730(3) 0.37933(2) 0.88351(4)
N1_2 N 0.21753(18) 0.13819(16) 1.0728(3)
N1E_2 N 0.21753(18) -0.13819(16) 1.0728(3)
N3B N 0.09612(19) -0.17906(16) 0.8119(3)
N3G N 0.09612(19) 0.17906(16) 0.8119(3)
O5 O 0.2889(19) 0.0000 0.399(3)
O6 O 0.1334(17) 0.0000 0.339(3)
O7 O 0.1581(15) 0.0000 0.612(3)
O8 O -0.0230(8) 0.0630(8) 0.8761(14)
O9 O 0.4380(14) 0.0925(13) 0.990(2)
loop_
_geom_bond_atom_site_label_1
_geom_bond_atom_site_label_2
_geom_bond_site_symmetry_1
_geom_bond_site_symmetry_2
Ni1 O1 1_555 1_555
O1 C16 1_555 1_555
O2 Ni1 1_555 1_555
O3 Ni1 1_555 1_555
O4 Ni1 1_555 1_555
N1 C1 1_555 1_555
N2 C6 1_555 1_555
N3 C13 1_555 1_555
C1 H1 1_555 1_555
C2 C1 1_555 1_555
H2 C2 1_555 1_555
C3 C2 1_555 1_555
C4 C3 1_555 1_555
H3 C4 1_555 1_555
C5 N1 1_555 1_555
H4 C5 1_555 1_555
C6 C3 1_555 1_555
C7 C6 1_555 1_555
H5 C7 1_555 1_555
C8 C7 1_555 1_555
C9 C8 1_555 1_555
H6 C9 1_555 1_555
C10 N2 1_555 1_555
C11 C10 1_555 1_555
C12 C11 1_555 1_555
H7 C12 1_555 1_555
C13 C12 1_555 1_555
H8 C13 1_555 1_555
C14 N3 1_555 1_555
H9 C14 1_555 1_555
C15 C11 1_555 1_555
H10 C15 1_555 1_555
C16 O2 1_555 1_555
C17 O4 1_555 1_555
C18 O3 1_555 1_555
O3E C18 1_555 1_555
O4E C17 1_555 1_555
Ni1E O3E 1_555 1_555
O1E Ni1E 1_555 1_555
O2E Ni1E 1_555 1_555
N1E C1E 1_555 1_555
N2E C6E 1_555 1_555
N3E C13E 1_555 1_555
C1E H1E 1_555 1_555
C2E C1E 1_555 1_555
H2E C2E 1_555 1_555
C3E C2E 1_555 1_555
C4E C3E 1_555 1_555
H3E C4E 1_555 1_555
C5E N1E 1_555 1_555
H4E C5E 1_555 1_555
C6E C3E 1_555 1_555
C7E C6E 1_555 1_555
H5E C7E 1_555 1_555
C8E C7E 1_555 1_555
C9E C8E 1_555 1_555
H6E C9E 1_555 1_555
C10E N2E 1_555 1_555
C11E C10E 1_555 1_555
C12E C11E 1_555 1_555
H7E C12E 1_555 1_555
C13E C12E 1_555 1_555
H8E C13E 1_555 1_555
C14E N3E 1_555 1_555
H9E C14E 1_555 1_555
C15E C11E 1_555 1_555
H10E C15E 1_555 1_555
C16E O1E 1_555 1_555
Ni1_2 N1 1_555 1_555
Ni1B N3E 1_555 1_555
Ni1E_2 N1E 1_555 1_555
Ni1G N3 1_555 1_555
N1_2 Ni1 1_555 1_555
N1E_2 Ni1E 1_555 1_555
N3B Ni1E 1_555 1_555
N3G Ni1 1_555 1_555
C4 C5 1_555 1_555
C8 C16 1_555 1_555
C9 C10 1_555 1_555
C14 C15 1_555 1_555
C17 C18 1_555 1_555
O4E Ni1E 1_555 1_555
O2E C16E 1_555 1_555
C4E C5E 1_555 1_555
C8E C16E 1_555 1_555
C9E C10E 1_555 1_555
C14E C15E 1_555 1_555

#END
