
#######################################################################
#
#                 Cambridge Crystallographic Data Centre
#                                CCDC 
#
#######################################################################
#
# If this CIF has been generated from an entry in the Cambridge 
# Structural Database, then it will include bibliographic, chemical, 
# crystal, experimental, refinement or atomic coordinate data resulting 
# from the CCDC's data processing and validation procedures.
#
#######################################################################

data_YINSUL
_chemical_formula_moiety         '(C34 H20 N6 Ni2 O8)n'
_chemical_name_systematic        
catena-[bis(\m~3~-4,2':6',4''-terpyridine-4'-carboxylato)-(\m~2~-oxalato)-di-nickel]
_symmetry_cell_setting           monoclinic
_symmetry_space_group_name_H-M   'C 2/m'
_symmetry_Int_Tables_number      12
_space_group_name_Hall           '-C 2y'
loop_
_symmetry_equiv_pos_site_id
_symmetry_equiv_pos_as_xyz
1 x,y,z
2 -x,y,-z
3 1/2+x,1/2+y,z
4 1/2-x,1/2+y,-z
5 -x,-y,-z
6 x,-y,z
7 1/2-x,1/2-y,-z
8 1/2+x,1/2-y,z
_cell_length_a                   19.513(3)
_cell_length_b                   22.317(3)
_cell_length_c                   11.6320(15)
_cell_angle_alpha                90
_cell_angle_beta                 116.608(18)
_cell_angle_gamma                90
_cell_volume                     4528.94
_exptl_crystal_colour            green
_exptl_crystal_description       prism
_cell_formula_units_Z            4
loop_
_atom_site_label
_atom_site_type_symbol
_atom_site_fract_x
_atom_site_fract_y
_atom_site_fract_z
Ni1 Ni 0.18805(4) 0.11842(3) 0.89204(6)
O1 O 0.18831(19) 0.12057(15) 0.7063(3)
O2 O 0.26815(19) 0.17531(15) 0.8691(3)
O3 O 0.26565(15) 0.04990(14) 0.9449(3)
O4 O 0.11423(15) 0.04978(14) 0.8692(3)
N1 N 0.2179(2) 0.13630(17) 0.0817(3)
N2 N 0.3601(2) 0.20743(19) 0.5352(3)
N3 N 0.5966(2) 0.32227(17) 0.8203(3)
C1 C 0.1759(3) 0.1240(3) 0.1393(4)
H1 H 0.1287 0.1058 0.0915
C2 C 0.1975(3) 0.1367(3) 0.2697(5)
H2 H 0.1646 0.1278 0.3055
C3 C 0.2668(3) 0.1620(2) 0.3422(4)
C4 C 0.3110(3) 0.1756(3) 0.2813(4)
H3 H 0.3582 0.1943 0.3261
C5 C 0.2848(3) 0.1612(3) 0.1528(4)
H4 H 0.3165 0.1696 0.1143
C6 C 0.2945(3) 0.1768(2) 0.4813(4)
C7 C 0.2560(3) 0.1581(2) 0.5502(4)
H5 H 0.2110 0.1360 0.5105
C8 C 0.2859(3) 0.1729(2) 0.6798(4)
C9 C 0.3541(3) 0.2036(2) 0.7365(4)
H6 H 0.3760 0.2134 0.8234
C10 C 0.3898(3) 0.2198(2) 0.6607(4)
C11 C 0.4627(3) 0.2538(2) 0.7165(4)
C12 C 0.5215(3) 0.2414(3) 0.8353(5)
H7 H 0.5168 0.2100 0.8840
C13 C 0.5879(3) 0.2756(2) 0.8827(4)
H8 H 0.6279 0.2653 0.9617
C14 C 0.5401(3) 0.3343(3) 0.7045(4)
H9 H 0.5460 0.3666 0.6594
C15 C 0.4736(3) 0.3017(3) 0.6480(4)
H10 H 0.4363 0.3111 0.5658
C16 C 0.2446(3) 0.1552(2) 0.7573(4)
C17 C 0.1460(3) 0.0000 0.8844(5)
C18 C 0.2340(3) 0.0000 0.9276(5)
O3E O 0.26565(15) -0.04990(14) 0.9449(3)
O4E O 0.11423(15) -0.04978(14) 0.8692(3)
Ni1E Ni 0.18805(4) -0.11842(3) 0.89204(6)
O1E O 0.18831(19) -0.12057(15) 0.7063(3)
O2E O 0.26815(19) -0.17531(15) 0.8691(3)
N1E N 0.2179(2) -0.13630(17) 0.0817(3)
N2E N 0.3601(2) -0.20743(19) 0.5352(3)
N3E N 0.5966(2) -0.32227(17) 0.8203(3)
C1E C 0.1759(3) -0.1240(3) 0.1393(4)
H1E H 0.1287 -0.1058 0.0915
C2E C 0.1975(3) -0.1367(3) 0.2697(5)
H2E H 0.1646 -0.1278 0.3055
C3E C 0.2668(3) -0.1620(2) 0.3422(4)
C4E C 0.3110(3) -0.1756(3) 0.2813(4)
H3E H 0.3582 -0.1943 0.3261
C5E C 0.2848(3) -0.1612(3) 0.1528(4)
H4E H 0.3165 -0.1696 0.1143
C6E C 0.2945(3) -0.1768(2) 0.4813(4)
C7E C 0.2560(3) -0.1581(2) 0.5502(4)
H5E H 0.2110 -0.1360 0.5105
C8E C 0.2859(3) -0.1729(2) 0.6798(4)
C9E C 0.3541(3) -0.2036(2) 0.7365(4)
H6E H 0.3760 -0.2134 0.8234
C10E C 0.3898(3) -0.2198(2) 0.6607(4)
C11E C 0.4627(3) -0.2538(2) 0.7165(4)
C12E C 0.5215(3) -0.2414(3) 0.8353(5)
H7E H 0.5168 -0.2100 0.8840
C13E C 0.5879(3) -0.2756(2) 0.8827(4)
H8E H 0.6279 -0.2653 0.9617
C14E C 0.5401(3) -0.3343(3) 0.7045(4)
H9E H 0.5460 -0.3666 0.6594
C15E C 0.4736(3) -0.3017(3) 0.6480(4)
H10E H 0.4363 -0.3111 0.5658
C16E C 0.2446(3) -0.1552(2) 0.7573(4)
Ni1_2 Ni 0.18805(4) 0.11842(3) -0.10796(6)
Ni1B Ni 0.68805(4) -0.38158(3) 0.89204(6)
Ni1E_2 Ni 0.18805(4) -0.11842(3) -0.10796(6)
Ni1G Ni 0.68805(4) 0.38158(3) 0.89204(6)
N1_2 N 0.2179(2) 0.13630(17) 1.0817(3)
N1E_2 N 0.2179(2) -0.13630(17) 1.0817(3)
N3B N 0.0966(2) -0.17773(17) 0.8203(3)
N3G N 0.0966(2) 0.17773(17) 0.8203(3)
loop_
_geom_bond_atom_site_label_1
_geom_bond_atom_site_label_2
_geom_bond_site_symmetry_1
_geom_bond_site_symmetry_2
Ni1 O1 1_555 1_555
O1 C16 1_555 1_555
O2 Ni1 1_555 1_555
O3 Ni1 1_555 1_555
O4 Ni1 1_555 1_555
N1 C1 1_555 1_555
N2 C6 1_555 1_555
N3 C13 1_555 1_555
C1 H1 1_555 1_555
C2 C1 1_555 1_555
H2 C2 1_555 1_555
C3 C2 1_555 1_555
C4 C3 1_555 1_555
H3 C4 1_555 1_555
C5 N1 1_555 1_555
H4 C5 1_555 1_555
C6 C3 1_555 1_555
C7 C6 1_555 1_555
H5 C7 1_555 1_555
C8 C7 1_555 1_555
C9 C8 1_555 1_555
H6 C9 1_555 1_555
C10 N2 1_555 1_555
C11 C10 1_555 1_555
C12 C11 1_555 1_555
H7 C12 1_555 1_555
C13 C12 1_555 1_555
H8 C13 1_555 1_555
C14 N3 1_555 1_555
H9 C14 1_555 1_555
C15 C11 1_555 1_555
H10 C15 1_555 1_555
C16 O2 1_555 1_555
C17 O4 1_555 1_555
C18 O3 1_555 1_555
O3E C18 1_555 1_555
O4E C17 1_555 1_555
Ni1E O3E 1_555 1_555
O1E Ni1E 1_555 1_555
O2E Ni1E 1_555 1_555
N1E C1E 1_555 1_555
N2E C6E 1_555 1_555
N3E C13E 1_555 1_555
C1E H1E 1_555 1_555
C2E C1E 1_555 1_555
H2E C2E 1_555 1_555
C3E C2E 1_555 1_555
C4E C3E 1_555 1_555
H3E C4E 1_555 1_555
C5E N1E 1_555 1_555
H4E C5E 1_555 1_555
C6E C3E 1_555 1_555
C7E C6E 1_555 1_555
H5E C7E 1_555 1_555
C8E C7E 1_555 1_555
C9E C8E 1_555 1_555
H6E C9E 1_555 1_555
C10E N2E 1_555 1_555
C11E C10E 1_555 1_555
C12E C11E 1_555 1_555
H7E C12E 1_555 1_555
C13E C12E 1_555 1_555
H8E C13E 1_555 1_555
C14E N3E 1_555 1_555
H9E C14E 1_555 1_555
C15E C11E 1_555 1_555
H10E C15E 1_555 1_555
C16E O1E 1_555 1_555
Ni1_2 N1 1_555 1_555
Ni1B N3E 1_555 1_555
Ni1E_2 N1E 1_555 1_555
Ni1G N3 1_555 1_555
N1_2 Ni1 1_555 1_555
N1E_2 Ni1E 1_555 1_555
N3B Ni1E 1_555 1_555
N3G Ni1 1_555 1_555
C4 C5 1_555 1_555
C8 C16 1_555 1_555
C9 C10 1_555 1_555
C14 C15 1_555 1_555
C17 C18 1_555 1_555
O4E Ni1E 1_555 1_555
O2E C16E 1_555 1_555
C4E C5E 1_555 1_555
C8E C16E 1_555 1_555
C9E C10E 1_555 1_555
C14E C15E 1_555 1_555

#END
