
#######################################################################
#
#                 Cambridge Crystallographic Data Centre
#                                CCDC 
#
#######################################################################
#
# If this CIF has been generated from an entry in the Cambridge 
# Structural Database, then it will include bibliographic, chemical, 
# crystal, experimental, refinement or atomic coordinate data resulting 
# from the CCDC's data processing and validation procedures.
#
#######################################################################

data_RAYKIN
_chemical_formula_moiety         '(C32 H22 N4 O6 Zn1)n'
_chemical_name_systematic        
catena-[(\m~2~-N,N'-Di(pyridin-4-yl)biphenyl-4,4'-dicarboxamido)-(\m~2~-isophthalato)-zinc]
_symmetry_cell_setting           hexagonal
_symmetry_space_group_name_H-M   'P 62 2 2'
_symmetry_Int_Tables_number      180
_space_group_name_Hall           'P 62 2 (0 0 4)'
loop_
_symmetry_equiv_pos_site_id
_symmetry_equiv_pos_as_xyz
1 x,y,z
2 x-y,x,1/3+z
3 -y,x-y,2/3+z
4 -x,-y,z
5 -x+y,-x,1/3+z
6 y,-x+y,2/3+z
7 -y,-x,2/3-z
8 x-y,-y,-z
9 x,x-y,1/3-z
10 y,x,2/3-z
11 -x+y,y,-z
12 -x,-x+y,1/3-z
_cell_length_a                   16.5276(3)
_cell_length_b                   16.5276(3)
_cell_length_c                   25.3959(10)
_cell_angle_alpha                90
_cell_angle_beta                 90
_cell_angle_gamma                120
_cell_volume                     6007.78
_exptl_crystal_colour            colorless
_exptl_crystal_description       block
_cell_formula_units_Z            6
loop_
_atom_site_label
_atom_site_type_symbol
_atom_site_fract_x
_atom_site_fract_y
_atom_site_fract_z
_atom_site_U_iso_or_equiv
_atom_site_thermal_displace_type
C1 C 0.5841(2) 0.3240(2) 0.07075(15) 0.0666 Uani
C2 C 0.5329(2) 0.2822(3) 0.12067(15) 0.0743 Uani
C3 C 0.5790(3) 0.28950(17) 0.1667 0.0627 Uani
H1 H 0.6440 0.3220 0.1667 0.0750 Uiso
C4 C 0.4345(3) 0.2313(4) 0.11920(18) 0.1297 Uani
H2 H 0.4024 0.2232 0.0878 0.1550 Uiso
C5 C 0.3859(5) 0.1929(2) 0.1667 0.1613 Uani
H3 H 0.3209 0.1605 0.1667 0.1930 Uiso
C6 C 1.2656(2) 0.8157(3) 0.10566(14) 0.0742 Uani
C7 C 1.1653(3) 0.7437(3) 0.10430(15) 0.1007 Uani
C8 C 1.3251(3) 0.8313(4) 0.0693(2) 0.1280 Uani
H4 H 1.3066 0.7925 0.0399 0.1530 Uiso
C9 C 1.4188(4) 0.9062(4) 0.0724(2) 0.1533 Uani
H5 H 1.4582 0.9140 0.0444 0.1840 Uiso
C10 C 0.9156(3) 0.5540(3) -0.01640(15) 0.0864 Uani
H6 H 0.8995 0.5419 -0.0518 0.1030 Uiso
C11 C 1.0115(2) 0.6162(2) -0.00365(15) 0.0768 Uani
H7 H 1.0562 0.6413 -0.0302 0.0920 Uiso
C12 C 0.9646(3) 0.5947(3) 0.08326(16) 0.1051 Uani
H8 H 0.9776 0.6087 0.1188 0.1260 Uiso
C13 C 1.0363(2) 0.6379(3) 0.04673(14) 0.0644 Uani
C14 C 1.3954(3) 0.9390(5) 0.1517(2) 0.1747 Uani
H9 H 1.4167 0.9723 0.1830 0.2090 Uiso
C15 C 1.3024(4) 0.8637(5) 0.1486(2) 0.2019 Uani
H10 H 1.2657 0.8475 0.1788 0.2430 Uiso
C16 C 1.4530(2) 0.9633(2) 0.11069(15) 0.0680 Uani
C17 C 0.8745(3) 0.5312(3) 0.06784(15) 0.0883 Uani
H11 H 0.8298 0.5000 0.0938 0.1060 Uiso
N1 N 0.84917(17) 0.51308(19) 0.01855(10) 0.0578 Uani
N2 N 1.12806(19) 0.7012(2) 0.05880(11) 0.0712 Uani
H12 H 1.1669 0.7153 0.0332 0.0850 Uiso
O1 O 0.66972(16) 0.37843(17) 0.07166(9) 0.0736 Uani
O2 O 0.53870(18) 0.30402(18) 0.02857(11) 0.0944 Uani
O3 O 1.1174(3) 0.7259(4) 0.14347(13) 0.2106 Uani
Zn1 Zn 0.71295(2) 0.42591(4) 0.0000 0.0579 Uani
C1H C 0.5841(2) 0.2601(3) 0.26258(15) 0.0666 Uani
C2H C 0.5329(2) 0.2507(4) 0.21266(15) 0.0743 Uani
C4H C 0.4345(3) 0.2032(5) 0.21413(18) 0.1297 Uani
H2H H 0.4024 0.1792 0.2455 0.1550 Uiso
C6C C 1.7344(2) 1.1843(3) 0.10566(14) 0.0742 Uani
C7C C 1.8347(3) 1.2563(3) 0.10430(15) 0.1007 Uani
C8C C 1.6749(3) 1.1687(4) 0.0693(2) 0.1280 Uani
H4C H 1.6934 1.2075 0.0399 0.1530 Uiso
C9C C 1.5812(4) 1.0938(4) 0.0724(2) 0.1533 Uani
H5C H 1.5418 1.0860 0.0444 0.1840 Uiso
C10C C 2.0844(3) 1.4460(3) -0.01640(15) 0.0864 Uani
H6C H 2.1005 1.4581 -0.0518 0.1030 Uiso
C11C C 1.9885(2) 1.3838(2) -0.00365(15) 0.0768 Uani
H7C H 1.9438 1.3587 -0.0302 0.0920 Uiso
C12C C 2.0354(3) 1.4053(3) 0.08326(16) 0.1051 Uani
H8C H 2.0224 1.3913 0.1188 0.1260 Uiso
C13C C 1.9637(2) 1.3621(3) 0.04673(14) 0.0644 Uani
C14C C 1.6046(3) 1.0610(5) 0.1517(2) 0.1747 Uani
H9C H 1.5833 1.0277 0.1830 0.2090 Uiso
C15C C 1.6976(4) 1.1363(5) 0.1486(2) 0.2019 Uani
H10C H 1.7343 1.1525 0.1788 0.2430 Uiso
C16C C 1.5470(2) 1.0367(2) 0.11069(15) 0.0680 Uani
C17C C 2.1255(3) 1.4688(3) 0.06784(15) 0.0883 Uani
H11C H 2.1702 1.5000 0.0938 0.1060 Uiso
N1C N 2.15083(17) 1.48692(19) 0.01855(10) 0.0578 Uani
N1J N 0.66391(25) 0.51308(19) -0.01855(10) 0.0578 Uani
N2C N 1.87194(19) 1.2988(2) 0.05880(11) 0.0712 Uani
H12C H 1.8331 1.2847 0.0332 0.0850 Uiso
O1H O 0.66972(16) 0.29129(23) 0.26167(9) 0.0736 Uani
O1J O 0.70871(23) 0.37843(17) -0.07166(9) 0.0736 Uani
O2H O 0.53870(18) 0.23468(25) 0.30476(11) 0.0944 Uani
O3C O 1.8826(3) 1.2741(4) 0.14347(13) 0.2106 Uani
Zn1H Zn 0.71295(2) 0.28704(4) 0.3333 0.0579 Uani
Zn1C Zn 2.28705(2) 1.57409(4) 0.0000 0.0579 Uani
loop_
_atom_site_aniso_label
_atom_site_aniso_U_11
_atom_site_aniso_U_22
_atom_site_aniso_U_33
_atom_site_aniso_U_23
_atom_site_aniso_U_13
_atom_site_aniso_U_12
C1 0.0709(17) 0.0651(16) 0.076(2) 0.0097(16) -0.0208(18) 0.0431(14)
C2 0.0479(17) 0.076(2) 0.089(3) 0.027(2) -0.0096(18) 0.0234(16)
C3 0.040(3) 0.058(2) 0.084(3) 0.017(3) 0.000 0.0200(14)
C4 0.056(2) 0.163(4) 0.129(3) 0.075(3) -0.018(2) 0.024(3)
C5 0.059(4) 0.210(7) 0.164(6) 0.078(7) 0.000 0.029(2)
C6 0.054(2) 0.079(2) 0.056(2) -0.008(2) 0.0089(19) 0.0080(19)
C7 0.053(2) 0.119(4) 0.066(3) -0.017(2) 0.014(2) -0.005(2)
C8 0.085(3) 0.096(3) 0.128(4) -0.041(3) 0.016(3) -0.011(3)
C9 0.080(3) 0.150(5) 0.148(4) -0.057(4) 0.017(3) -0.004(4)
C10 0.073(2) 0.094(3) 0.058(2) -0.011(2) -0.006(2) 0.016(2)
C11 0.0550(19) 0.080(2) 0.071(2) -0.001(2) 0.018(2) 0.0155(17)
C12 0.071(3) 0.122(4) 0.062(2) -0.018(2) 0.008(2) 0.003(3)
C13 0.0508(19) 0.070(2) 0.058(2) -0.0014(18) 0.0088(17) 0.0194(17)
C14 0.080(4) 0.182(6) 0.140(4) -0.063(4) 0.014(3) -0.026(4)
C15 0.086(4) 0.223(7) 0.107(4) -0.053(4) 0.018(3) -0.065(5)
C16 0.0518(19) 0.0489(19) 0.089(2) -0.0096(19) 0.0006(19) 0.0144(14)
C17 0.050(2) 0.099(3) 0.069(3) 0.001(2) 0.003(2) 0.002(2)
N1 0.0517(15) 0.0566(15) 0.0572(18) -0.0013(14) 0.0055(13) 0.0212(12)
N2 0.0533(15) 0.0717(18) 0.0680(19) -0.0002(17) 0.0185(16) 0.0158(14)
O1 0.0569(13) 0.0856(14) 0.0694(15) 0.0124(12) -0.0025(12) 0.0289(11)
O2 0.1076(17) 0.0910(16) 0.0880(19) 0.0029(14) -0.0312(15) 0.0523(13)
O3 0.073(2) 0.274(5) 0.089(2) -0.057(3) 0.0224(19) -0.060(3)
Zn1 0.0529(2) 0.0610(4) 0.0625(3) 0.000 -0.0058(3) 0.03049(19)
C1H 0.0709 0.0498 0.076 0.0305 0.0208 0.0278
C2H 0.0479 0.0771 0.089 0.0366 0.0096 0.0245
C4H 0.056 0.171 0.129 0.093 0.018 0.032
C6C 0.054 0.079 0.056 0.008 -0.0089 0.008
C7C 0.053 0.119 0.066 0.017 -0.014 -0.005
C8C 0.085 0.096 0.128 0.041 -0.016 -0.011
C9C 0.08 0.15 0.148 0.057 -0.017 -0.004
C10C 0.073 0.094 0.058 0.011 0.006 0.016
C11C 0.055 0.08 0.071 0.001 -0.018 0.0155
C12C 0.071 0.122 0.062 0.018 -0.008 0.003
C13C 0.0508 0.07 0.058 0.0014 -0.0088 0.0194
C14C 0.08 0.182 0.14 0.063 -0.014 -0.026
C15C 0.086 0.223 0.107 0.053 -0.018 -0.065
C16C 0.0518 0.0489 0.089 0.0096 -0.0006 0.0144
C17C 0.05 0.099 0.069 -0.001 -0.003 0.002
N1C 0.0517 0.0566 0.0572 0.0013 -0.0055 0.0212
N1J 0.0659 0.0566 0.0572 0.0013 0.0068 0.0354
N2C 0.0533 0.0717 0.068 0.0002 -0.0185 0.0158
O1H 0.0569 0.0847 0.0694 0.0149 0.0025 0.028
O1J 0.0847 0.0856 0.0694 -0.0124 -0.0149 0.0567
O2H 0.1076 0.094 0.088 0.0341 0.0312 0.0553
O3C 0.073 0.274 0.089 0.057 -0.0224 -0.06
Zn1H 0.05292 0.0529 0.0625 0.0058 0.0058 0.02241
Zn1C 0.0529 0.061 0.0625 0 0.0058 0.03049
loop_
_geom_bond_atom_site_label_1
_geom_bond_atom_site_label_2
_geom_bond_site_symmetry_1
_geom_bond_site_symmetry_2
C1 C2 1_555 1_555
C2 C3 1_555 1_555
C3 H1 1_555 1_555
C4 C2 1_555 1_555
H2 C4 1_555 1_555
C5 C4 1_555 1_555
H3 C5 1_555 1_555
C6 C7 1_555 1_555
C7 N2 1_555 1_555
C8 C6 1_555 1_555
H4 C8 1_555 1_555
C9 C8 1_555 1_555
H5 C9 1_555 1_555
C10 H6 1_555 1_555
C11 C10 1_555 1_555
H7 C11 1_555 1_555
C12 H8 1_555 1_555
C13 C11 1_555 1_555
C14 H9 1_555 1_555
C15 C6 1_555 1_555
H10 C15 1_555 1_555
C16 C9 1_555 1_555
C17 C12 1_555 1_555
H11 C17 1_555 1_555
N1 C10 1_555 1_555
N2 C13 1_555 1_555
H12 N2 1_555 1_555
O1 C1 1_555 1_555
O2 C1 1_555 1_555
O3 C7 1_555 1_555
Zn1 N1 1_555 1_555
C1H C2H 1_555 1_555
C2H C3 1_555 1_555
C4H C5 1_555 1_555
H2H C4H 1_555 1_555
C6C C7C 1_555 1_555
C7C N2C 1_555 1_555
C8C C6C 1_555 1_555
H4C C8C 1_555 1_555
C9C C8C 1_555 1_555
H5C C9C 1_555 1_555
C10C H6C 1_555 1_555
C11C C10C 1_555 1_555
H7C C11C 1_555 1_555
C12C H8C 1_555 1_555
C13C C11C 1_555 1_555
C14C H9C 1_555 1_555
C15C C6C 1_555 1_555
H10C C15C 1_555 1_555
C16C C16 1_555 1_555
C17C C12C 1_555 1_555
H11C C17C 1_555 1_555
N1C C10C 1_555 1_555
N1J Zn1 1_555 1_555
N2C C13C 1_555 1_555
H12C N2C 1_555 1_555
O1H C1H 1_555 1_555
O1J Zn1 1_555 1_555
O2H C1H 1_555 1_555
O3C C7C 1_555 1_555
Zn1H O1H 1_555 1_555
Zn1C N1C 1_555 1_555
C12 C13 1_555 1_555
C14 C15 1_555 1_555
C14 C16 1_555 1_555
C17 N1 1_555 1_555
O1 Zn1 1_555 1_555
C2H C4H 1_555 1_555
C9C C16C 1_555 1_555
C12C C13C 1_555 1_555
C14C C15C 1_555 1_555
C14C C16C 1_555 1_555
C17C N1C 1_555 1_555

#END
