
#######################################################################
#
#                 Cambridge Crystallographic Data Centre
#                                CCDC 
#
#######################################################################
#
# If this CIF has been generated from an entry in the Cambridge 
# Structural Database, then it will include bibliographic, chemical, 
# crystal, experimental, refinement or atomic coordinate data resulting 
# from the CCDC's data processing and validation procedures.
#
#######################################################################

data_XENZUN
_chemical_formula_moiety         
'(C36 H12 O27 V3 6-)n,3n(Na1 1+),1.5n(C3 H7 N1 O1),3n(C3 H10 N1 1+)'
_chemical_name_systematic        
'catena-(tris(trimethylammonium) tri-sodium tetrakis(\m~3~-benzene-1,3,5-tricarboxylato)-trioxo-tri-vanadium(iv) N,N-dimethylformamide solvate)'
_symmetry_cell_setting           rhombohedral
_symmetry_space_group_name_H-M   'R -3'
_symmetry_Int_Tables_number      148
_space_group_name_Hall           '-R 3'
loop_
_symmetry_equiv_pos_site_id
_symmetry_equiv_pos_as_xyz
1 x,y,z
2 -y,x-y,z
3 -x+y,-x,z
4 2/3+x,1/3+y,1/3+z
5 2/3-y,1/3+x-y,1/3+z
6 2/3-x+y,1/3-x,1/3+z
7 1/3+x,2/3+y,2/3+z
8 1/3-y,2/3+x-y,2/3+z
9 1/3-x+y,2/3-x,2/3+z
10 -x,-y,-z
11 y,-x+y,-z
12 x-y,x,-z
13 1/3-x,2/3-y,2/3-z
14 1/3+y,2/3-x+y,2/3-z
15 1/3+x-y,2/3+x,2/3-z
16 2/3-x,1/3-y,1/3-z
17 2/3+y,1/3-x+y,1/3-z
18 2/3+x-y,1/3+x,1/3-z
_cell_length_a                   20.463(4)
_cell_length_b                   20.463(4)
_cell_length_c                   27.880(7)
_cell_angle_alpha                90
_cell_angle_beta                 90
_cell_angle_gamma                120
_cell_volume                     10110.3
_exptl_crystal_colour            blue
_exptl_crystal_description       block
_cell_formula_units_Z            6
loop_
_atom_site_label
_atom_site_type_symbol
_atom_site_fract_x
_atom_site_fract_y
_atom_site_fract_z
_atom_site_U_iso_or_equiv
_atom_site_thermal_displace_type
Na1 Na 0.39915(5) 0.28033(5) 0.13472(3) 0.0308 Uani
V1 V 0.411901(18) 0.098582(18) 0.120184(12) 0.0183 Uani
C1 C 0.24457(12) -0.12733(12) 0.03103(7) 0.0293 Uani
H1 H 0.2879 -0.1014 0.0125 0.0350 Uiso
C2 C 0.30926(11) -0.03094(11) 0.09438(7) 0.0235 Uani
C3 C 0.11975(12) -0.23163(12) 0.04161(7) 0.0289 Uani
H2 H 0.0782 -0.2750 0.0298 0.0350 Uiso
C4 C 0.18264(11) -0.19122(11) 0.01253(7) 0.0274 Uani
C5 C 0.24282(11) -0.10159(11) 0.07675(7) 0.0266 Uani
C6 C 0.58324(11) 0.17007(11) 0.11739(7) 0.0230 Uani
C7 C 0.58875(11) 0.29575(11) 0.12075(8) 0.0245 Uani
H3 H 0.5363 0.2703 0.1204 0.0290 Uiso
C8 C 0.62643(11) 0.25484(10) 0.12099(8) 0.0233 Uani
C9 C 0.05044(12) -0.25286(12) 0.11917(7) 0.0273 Uani
C10 C 0.17916(11) -0.14134(11) 0.10508(7) 0.0278 Uani
H4 H 0.1772 -0.1235 0.1354 0.0330 Uiso
C11 C 0.11823(11) -0.20784(11) 0.08820(7) 0.0261 Uani
C12 C 0.18459(12) -0.21324(12) -0.03856(7) 0.0270 Uani
O1 O 0.61340(8) 0.13323(8) 0.12818(6) 0.0351 Uani
O2 O 0.30009(7) 0.01197(8) 0.12355(5) 0.0260 Uani
O3 O 0.51607(7) 0.14182(7) 0.09999(5) 0.0259 Uani
O4 O 0.37403(8) -0.01170(8) 0.07976(5) 0.0274 Uani
O5 O 0.40076(8) 0.15778(8) 0.15147(5) 0.0289 Uani
O6 O 0.05621(7) -0.22687(8) 0.16159(5) 0.0281 Uani
O7 O -0.00501(9) -0.30924(9) 0.10290(6) 0.0487 Uani
O8 O 0.12235(8) -0.26754(8) -0.05443(5) 0.0300 Uani
O9 O 0.24333(9) -0.17899(9) -0.06147(5) 0.0400 Uani
V1P V 0.765249(18) 0.020014(25) 0.213149(12) 0.0183 Uani
V1K V 0.313319(25) 0.411901(18) -0.120184(12) 0.0183 Uani
V1Q V -0.020014(25) -0.254766(18) 0.213149(12) 0.0183 Uani
V1J V 0.098582(18) -0.313319(25) -0.120184(12) 0.0183 Uani
V1B V 0.686681(25) 0.588099(18) 0.120184(12) 0.0183 Uani
V1A V 0.901418(18) 0.313319(25) 0.120184(12) 0.0183 Uani
V1E V 0.353348(25) -0.078568(18) 0.453517(12) 0.0183 Uani
V1G V 0.234751(18) -0.020014(25) -0.213149(12) 0.0183 Uani
C1P C 0.53934(12) -0.03857(17) 0.30230(7) 0.0293 Uani
C1K C 0.37190(17) 0.24457(12) -0.03103(7) 0.0293 Uani
H1P H 0.5653 -0.0560 0.3208 0.0350 Uiso
H1K H 0.3893 0.2879 -0.0125 0.0350 Uiso
C2P C 0.63573(11) -0.00687(16) 0.23895(7) 0.0235 Uani
C2K C 0.34020(16) 0.30926(11) -0.09438(7) 0.0235 Uani
C3P C 0.43504(12) -0.01805(17) 0.29172(7) 0.0289 Uani
C3K C 0.35138(17) 0.11975(12) -0.04161(7) 0.0289 Uani
H2P H 0.3917 -0.0199 0.3035 0.0350 Uiso
H2K H 0.3532 0.0782 -0.0298 0.0350 Uiso
C4P C 0.47545(11) -0.04053(16) 0.32080(7) 0.0274 Uani
C4K C 0.37386(16) 0.18264(11) -0.01253(7) 0.0274 Uani
C5P C 0.56508(11) -0.01108(16) 0.25658(7) 0.0266 Uani
C5K C 0.34441(16) 0.24282(11) -0.07675(7) 0.0266 Uani
C6B C 0.58683(16) 0.41676(11) 0.11739(7) 0.0230 Uani
C6A C 0.82993(11) 0.41317(16) 0.11739(7) 0.0230 Uani
C7B C 0.70700(16) 0.41125(11) 0.12075(8) 0.0245 Uani
C7A C 0.70425(11) 0.29300(16) 0.12075(8) 0.0245 Uani
H3B H 0.7340 0.4637 0.1204 0.0290 Uiso
H3A H 0.7297 0.2660 0.1204 0.0290 Uiso
C8B C 0.62841(15) 0.37357(11) 0.12099(8) 0.0233 Uani
C8A C 0.74516(10) 0.37159(15) 0.12099(8) 0.0233 Uani
C9P C 0.41381(12) 0.03003(17) 0.21416(7) 0.0273 Uani
C9K C 0.30330(17) 0.05044(12) -0.11917(7) 0.0273 Uani
C10P C 0.52533(11) 0.01283(16) 0.22825(7) 0.0278 Uani
C10K C 0.32050(16) 0.17916(11) -0.10508(7) 0.0278 Uani
H4P H 0.5432 0.0326 0.1979 0.0330 Uiso
H4K H 0.3007 0.1772 -0.1354 0.0330 Uiso
C11P C 0.45883(11) 0.00726(16) 0.24513(7) 0.0261 Uani
C11K C 0.32607(16) 0.11823(11) -0.08820(7) 0.0261 Uani
C12P C 0.45343(12) -0.06450(17) 0.37189(7) 0.0270 Uani
C12K C 0.39783(17) 0.18459(12) 0.03856(7) 0.0270 Uani
O1B O 0.51983(11) 0.38660(8) 0.12818(6) 0.0351 Uani
O1A O 0.86677(8) 0.48017(11) 0.12818(6) 0.0351 Uani
O2P O 0.67864(8) 0.04521(11) 0.20978(5) 0.0260 Uani
O2K O 0.28812(11) 0.30009(7) -0.12355(5) 0.0260 Uani
O3B O 0.62575(10) 0.48393(7) 0.09999(5) 0.0259 Uani
O3A O 0.85818(7) 0.37425(10) 0.09999(5) 0.0259 Uani
O3P O 0.80849(7) -0.04092(10) 0.23334(5) 0.0259 Uani
O3K O 0.37425(10) 0.51607(7) -0.09999(5) 0.0259 Uani
O4P O 0.65497(8) -0.05240(11) 0.25357(5) 0.0274 Uani
O4K O 0.38573(11) 0.37403(8) -0.07976(5) 0.0274 Uani
O5P O 0.82445(8) 0.09035(11) 0.18186(5) 0.0289 Uani
O5K O 0.24298(11) 0.40076(8) -0.15147(5) 0.0289 Uani
O6P O 0.43980(8) 0.05025(11) 0.17174(5) 0.0281 Uani
O6K O 0.28308(11) 0.05621(7) -0.16159(5) 0.0281 Uani
O6B O 0.71692(11) -0.05621(7) 0.16159(5) 0.0281 Uani
O6F O 0.38954(7) 0.43980(8) -0.17174(5) 0.0281 Uani
O7P O 0.35743(9) 0.02910(13) 0.23043(6) 0.0487 Uani
O7K O 0.30423(13) -0.00501(9) -0.10290(6) 0.0487 Uani
O8P O 0.39913(8) -0.05656(11) 0.38776(5) 0.0300 Uani
O8K O 0.38989(11) 0.12235(8) 0.05443(5) 0.0300 Uani
O8C O 0.78902(8) 0.06579(8) 0.27890(5) 0.0300 Uani
O8A O 0.26754(8) 0.38989(11) -0.05443(5) 0.0300 Uani
O9P O 0.48768(9) -0.08899(13) 0.39480(5) 0.0400 Uani
O9K O 0.42232(13) 0.24333(9) 0.06147(5) 0.0400 Uani
loop_
_atom_site_aniso_label
_atom_site_aniso_U_11
_atom_site_aniso_U_22
_atom_site_aniso_U_33
_atom_site_aniso_U_23
_atom_site_aniso_U_13
_atom_site_aniso_U_12
Na1 0.0269(5) 0.0369(5) 0.0315(5) -0.0057(4) -0.0019(4) 0.0181(4)
V1 0.01817(18) 0.01908(18) 0.01671(17) -0.00050(13) -0.00196(13) 0.00861(15)
C1 0.0214(11) 0.0296(12) 0.0230(11) -0.0018(9) 0.0072(8) 0.0024(9)
C2 0.0248(11) 0.0228(11) 0.0150(10) -0.0006(8) -0.0027(8) 0.0060(9)
C3 0.0252(11) 0.0247(11) 0.0234(11) -0.0067(9) 0.0013(9) 0.0025(9)
C4 0.0242(11) 0.0255(11) 0.0206(11) -0.0055(8) 0.0048(8) 0.0035(9)
C5 0.0208(11) 0.0232(11) 0.0239(11) -0.0039(8) 0.0016(8) 0.0020(9)
C6 0.0195(11) 0.0191(10) 0.0285(12) 0.0032(8) 0.0058(8) 0.0082(9)
C7 0.0149(10) 0.0200(11) 0.0370(13) -0.0004(9) 0.0015(8) 0.0076(9)
C8 0.0190(10) 0.0159(10) 0.0349(12) 0.0005(8) 0.0010(9) 0.0086(8)
C9 0.0259(11) 0.0270(12) 0.0212(11) -0.0010(9) 0.0043(9) 0.0073(10)
C10 0.0264(11) 0.0278(12) 0.0194(11) -0.0072(8) 0.0029(8) 0.0061(9)
C11 0.0234(11) 0.0241(11) 0.0202(11) -0.0020(8) 0.0038(8) 0.0039(9)
C12 0.0292(12) 0.0280(12) 0.0183(11) -0.0022(9) 0.0025(9) 0.0102(10)
O1 0.0256(8) 0.0213(8) 0.0627(11) 0.0079(7) 0.0037(7) 0.0149(7)
O2 0.0195(7) 0.0262(8) 0.0244(8) -0.0065(6) -0.0001(6) 0.0055(6)
O3 0.0191(7) 0.0236(8) 0.0297(8) 0.0015(6) 0.0026(6) 0.0068(6)
O4 0.0210(8) 0.0257(8) 0.0279(8) -0.0022(6) 0.0023(6) 0.0060(6)
O5 0.0330(9) 0.0299(8) 0.0272(8) -0.0041(6) -0.0020(6) 0.0182(7)
O6 0.0252(8) 0.0285(8) 0.0216(8) -0.0015(6) 0.0076(6) 0.0066(7)
O7 0.0314(9) 0.0445(10) 0.0327(10) -0.0106(8) 0.0111(7) -0.0092(8)
O8 0.0262(8) 0.0322(9) 0.0212(8) -0.0085(6) 0.0007(6) 0.0069(7)
O9 0.0335(9) 0.0444(10) 0.0220(8) -0.0047(7) 0.0092(7) 0.0044(8)
V1P 0.01908 0.02003 0.01671 -0.00146 0.0005 0.01047
V1K 0.02003 0.01817 0.01671 0.00196 0.00146 0.00956
V1Q 0.02003 0.01817 0.01671 0.00196 0.00146 0.00956
V1J 0.01908 0.02003 0.01671 -0.00146 0.0005 0.01047
V1B 0.02003 0.01817 0.01671 0.00196 0.00146 0.00956
V1A 0.01908 0.02003 0.01671 -0.00146 0.0005 0.01047
V1E 0.02003 0.01817 0.01671 0.00196 0.00146 0.00956
V1G 0.01908 0.02003 0.01671 -0.00146 0.0005 0.01047
C1P 0.0296 0.0462 0.023 0.009 0.0018 0.0272
C1K 0.0462 0.0214 0.023 -0.0072 -0.009 0.019
C2P 0.0228 0.0356 0.015 -0.0021 0.0006 0.0168
C2K 0.0356 0.0248 0.015 0.0027 0.0021 0.0188
C3P 0.0247 0.0449 0.0234 0.008 0.0067 0.0222
C3K 0.0449 0.0252 0.0234 -0.0013 -0.008 0.0227
C4P 0.0255 0.0427 0.0206 0.0103 0.0055 0.022
C4K 0.0427 0.0242 0.0206 -0.0048 -0.0103 0.0207
C5P 0.0232 0.04 0.0239 0.0055 0.0039 0.0212
C5K 0.04 0.0208 0.0239 -0.0016 -0.0055 0.0188
C6B 0.0222 0.0195 0.0285 -0.0058 -0.0026 0.0113
C6A 0.0191 0.0222 0.0285 0.0026 -0.0032 0.0109
C7B 0.0197 0.0149 0.037 -0.0015 -0.0019 0.0073
C7A 0.02 0.0197 0.037 0.0019 0.0004 0.0124
C8B 0.0177 0.019 0.0349 -0.001 -0.0005 0.0104
C8A 0.0159 0.0177 0.0349 0.0005 -0.0005 0.0073
C9P 0.027 0.0383 0.0212 0.0053 0.001 0.0197
C9K 0.0383 0.0259 0.0212 -0.0043 -0.0053 0.0186
C10P 0.0278 0.042 0.0194 0.0101 0.0072 0.0217
C10K 0.042 0.0264 0.0194 -0.0029 -0.0101 0.0203
C11P 0.0241 0.0397 0.0202 0.0058 0.002 0.0202
C11K 0.0397 0.0234 0.0202 -0.0038 -0.0058 0.0195
C12P 0.028 0.0368 0.0183 0.0047 0.0022 0.0178
C12K 0.0368 0.0292 0.0183 -0.0025 -0.0047 0.019
O1B 0.0171 0.0256 0.0627 -0.0037 0.0042 0.0107
O1A 0.0213 0.0171 0.0627 -0.0042 -0.0079 0.0064
O2P 0.0262 0.0347 0.0244 0.0064 0.0065 0.0207
O2K 0.0347 0.0195 0.0244 0.0001 -0.0064 0.014
O3B 0.0291 0.0191 0.0297 -0.0026 -0.0011 0.0123
O3A 0.0236 0.0291 0.0297 0.0011 -0.0015 0.0168
O3P 0.0236 0.0291 0.0297 0.0011 -0.0015 0.0168
O3K 0.0291 0.0191 0.0297 -0.0026 -0.0011 0.0123
O4P 0.0257 0.0347 0.0279 0.0045 0.0022 0.0197
O4K 0.0347 0.021 0.0279 -0.0023 -0.0045 0.015
O5P 0.0299 0.0265 0.0272 0.0021 0.0041 0.0117
O5K 0.0265 0.033 0.0272 0.002 -0.0021 0.0148
O6P 0.0285 0.0405 0.0216 0.0091 0.0015 0.0219
O6K 0.0405 0.0252 0.0216 -0.0076 -0.0091 0.0186
O6B 0.0405 0.0252 0.0216 -0.0076 -0.0091 0.0186
O6F 0.0252 0.0285 0.0216 -0.0015 0.0076 0.0066
O7P 0.0445 0.0943 0.0327 0.0217 0.0106 0.0537
O7K 0.0943 0.0314 0.0327 -0.0111 -0.0217 0.0406
O8P 0.0322 0.0446 0.0212 0.0092 0.0085 0.0253
O8K 0.0446 0.0262 0.0212 -0.0007 -0.0092 0.0193
O8C 0.0262 0.0322 0.0212 -0.0085 0.0007 0.0069
O8A 0.0322 0.0446 0.0212 0.0092 0.0085 0.0253
O9P 0.0444 0.0691 0.022 0.0139 0.0047 0.04
O9K 0.0691 0.0335 0.022 -0.0092 -0.0139 0.0291
loop_
_geom_bond_atom_site_label_1
_geom_bond_atom_site_label_2
_geom_bond_site_symmetry_1
_geom_bond_site_symmetry_2
V1 O2 1_555 1_555
C1 H1 1_555 1_555
C2 C5 1_555 1_555
C3 H2 1_555 1_555
C4 C1 1_555 1_555
C5 C1 1_555 1_555
C6 C8 1_555 1_555
C7 H3 1_555 1_555
C8 C7 1_555 1_555
C9 C11 1_555 1_555
C10 C5 1_555 1_555
H4 C10 1_555 1_555
C11 C3 1_555 1_555
C12 C4 1_555 1_555
O1 C6 1_555 1_555
O2 C2 1_555 1_555
O3 V1 1_555 1_555
O4 V1 1_555 1_555
O5 V1 1_555 1_555
O6 C9 1_555 1_555
O7 C9 1_555 1_555
O8 C12 1_555 1_555
O9 C12 1_555 1_555
V1P O2P 1_555 1_555
V1K O2K 1_555 1_555
V1Q O6 1_555 1_555
V1J O8 1_555 1_555
V1B O3B 1_555 1_555
V1A O3A 1_555 1_555
V1E O8P 1_555 1_555
V1G O6K 1_555 1_555
C1P H1P 1_555 1_555
C1K H1K 1_555 1_555
C2P C5P 1_555 1_555
C2K C5K 1_555 1_555
C3P H2P 1_555 1_555
C3K H2K 1_555 1_555
C4P C1P 1_555 1_555
C4K C1K 1_555 1_555
C5P C1P 1_555 1_555
C5K C1K 1_555 1_555
C6B C8B 1_555 1_555
C6A C8A 1_555 1_555
C7B H3B 1_555 1_555
C7A C8 1_555 1_555
H3A C7A 1_555 1_555
C8B C7 1_555 1_555
C8A C7B 1_555 1_555
C9P C11P 1_555 1_555
C9K C11K 1_555 1_555
C10P C5P 1_555 1_555
C10K C5K 1_555 1_555
H4P C10P 1_555 1_555
H4K C10K 1_555 1_555
C11P C3P 1_555 1_555
C11K C3K 1_555 1_555
C12P C4P 1_555 1_555
C12K C4K 1_555 1_555
O1B C6B 1_555 1_555
O1A C6A 1_555 1_555
O2P C2P 1_555 1_555
O2K C2K 1_555 1_555
O3B C6B 1_555 1_555
O3A C6A 1_555 1_555
O3P V1P 1_555 1_555
O3K V1K 1_555 1_555
O4P V1P 1_555 1_555
O4K V1K 1_555 1_555
O5P V1P 1_555 1_555
O5K V1K 1_555 1_555
O6P V1 1_555 1_555
O6K C9K 1_555 1_555
O6B V1P 1_555 1_555
O6F V1K 1_555 1_555
O7P C9P 1_555 1_555
O7K C9K 1_555 1_555
O8P C12P 1_555 1_555
O8K V1 1_555 1_555
O8C V1P 1_555 1_555
O8A V1K 1_555 1_555
O9P C12P 1_555 1_555
O9K C12K 1_555 1_555
C2 O4 1_555 1_555
C3 C4 1_555 1_555
C6 O3 1_555 1_555
C10 C11 1_555 1_555
C2P O4P 1_555 1_555
C2K O4K 1_555 1_555
C3P C4P 1_555 1_555
C3K C4K 1_555 1_555
C7B C8B 1_555 1_555
C7A C8A 1_555 1_555
C9P O6P 1_555 1_555
C10P C11P 1_555 1_555
C10K C11K 1_555 1_555
C12K O8K 1_555 1_555

#END
