
#######################################################################
#
#                 Cambridge Crystallographic Data Centre
#                                CCDC 
#
#######################################################################
#
# If this CIF has been generated from an entry in the Cambridge 
# Structural Database, then it will include bibliographic, chemical, 
# crystal, experimental, refinement or atomic coordinate data resulting 
# from the CCDC's data processing and validation procedures.
#
#######################################################################

data_XEPBAX
_chemical_formula_moiety         
'(C18 H6 O13 V1 4-)n,3n(C4 H12 N1 1+),n(Li1 1+)'
_chemical_name_systematic        
'catena-(tris(tetramethylammonium) lithium bis(\m~2~-benzene-1,3,5-tricarboxylato)-oxo-vanadium(iv))'
_symmetry_cell_setting           orthorhombic
_symmetry_space_group_name_H-M   'P n a 21'
_symmetry_Int_Tables_number      33
_space_group_name_Hall           'P 2c -2n'
loop_
_symmetry_equiv_pos_site_id
_symmetry_equiv_pos_as_xyz
1 x,y,z
2 -x,-y,1/2+z
3 1/2-x,1/2+y,1/2+z
4 1/2+x,1/2-y,z
_cell_length_a                   18.079(4)
_cell_length_b                   16.435(3)
_cell_length_c                   11.603(2)
_cell_angle_alpha                90
_cell_angle_beta                 90
_cell_angle_gamma                90
_cell_volume                     3447.58
_exptl_crystal_colour            blue
_exptl_crystal_description       block
_cell_formula_units_Z            4
loop_
_atom_site_label
_atom_site_type_symbol
_atom_site_fract_x
_atom_site_fract_y
_atom_site_fract_z
_atom_site_U_iso_or_equiv
_atom_site_thermal_displace_type
V1 V 0.30264(3) 0.08712(4) 0.62800(6) 0.0208 Uani
O1 O 0.3038(2) 0.0859(2) 0.4209(3) 0.0398 Uani
O2 O 0.30015(17) -0.02063(17) 0.5326(2) 0.0281 Uani
O3 O 0.30007(17) 0.04415(18) 0.7516(2) 0.0293 Uani
O4 O 0.20176(19) -0.29463(19) 0.1665(2) 0.0328 Uani
O5 O 0.40865(17) 0.10413(19) 0.5985(2) 0.0327 Uani
O6 O 0.2214(2) 0.0737(2) 0.0194(3) 0.0440 Uani
O7 O 0.1912(3) -0.0443(3) -0.0598(3) 0.0595 Uani
O8 O 0.4622(2) 0.1446(3) 0.7617(3) 0.0548 Uani
O9 O 0.2247(2) -0.2901(2) 0.3566(3) 0.0411 Uani
O10 O 0.64580(19) 0.3680(2) 0.7545(3) 0.0476 Uani
O11 O 0.69638(17) 0.3993(2) 0.5856(3) 0.0366 Uani
O12 O 0.5321(3) 0.3621(3) 0.2409(4) 0.0830 Uani
O13 O 0.4681(3) 0.2486(3) 0.2315(3) 0.0648 Uani
C1 C 0.2928(2) 0.0121(3) 0.4338(4) 0.0277 Uani
C2 C 0.2672(2) -0.0401(3) 0.3340(4) 0.0230 Uani
C3 C 0.2513(3) -0.0005(3) 0.2305(4) 0.0293 Uani
H1 H 0.2589 0.0553 0.2241 0.0350 Uiso
C4 C 0.2240(2) -0.0443(3) 0.1364(4) 0.0277 Uani
C5 C 0.2131(2) -0.1273(3) 0.1477(4) 0.0303 Uani
H2 H 0.1951 -0.1568 0.0853 0.0370 Uiso
C6 C 0.2284(2) -0.1676(3) 0.2505(4) 0.0257 Uani
C7 C 0.2566(2) -0.1230(3) 0.3428(4) 0.0250 Uani
H3 H 0.2683 -0.1495 0.4112 0.0300 Uiso
C8 C 0.2114(2) -0.0019(3) 0.0218(4) 0.0327 Uani
C9 C 0.4805(2) 0.2256(3) 0.4726(4) 0.0273 Uani
H4 H 0.4447 0.1948 0.4351 0.0330 Uiso
C11 C 0.6472(2) 0.3655(3) 0.6475(4) 0.0297 Uani
C12 C 0.5481(2) 0.2594(3) 0.6451(4) 0.0289 Uani
H8 H 0.5565 0.2516 0.7234 0.0340 Uiso
C13 C 0.4518(2) 0.1506(3) 0.6578(4) 0.0300 Uani
C18 C 0.2175(2) -0.2575(3) 0.2608(4) 0.0277 Uani
C19 C 0.5196(3) 0.2853(3) 0.4122(4) 0.0290 Uani
C20 C 0.4951(2) 0.2123(3) 0.5887(4) 0.0273 Uani
C21 C 0.5051(3) 0.2996(4) 0.2836(4) 0.0407 Uani
C29 C 0.5882(2) 0.3174(3) 0.5861(4) 0.0273 Uani
C30 C 0.5741(3) 0.3299(3) 0.4687(4) 0.0320 Uani
H42 H 0.6014 0.3684 0.4281 0.0380 Uiso
V1B V 0.19736(3) -0.41288(4) 0.12800(6) 0.0208 Uani
V1C V 0.80264(3) 0.41288(4) 0.62800(6) 0.0208 Uani
O4B O 0.29824(19) 0.20537(19) 0.6665(2) 0.0328 Uani
O11C O 0.19638(17) 0.1007(2) 0.5856(3) 0.0366 Uani
Li1 Li 0.2262(5) 0.1026(5) 0.8606(7) 0.0393 Uani
C10 C 0.5399(4) 0.5579(5) 0.3227(6) 0.0783 Uani
H5 H 0.5795 0.5906 0.2928 0.1170 Uiso
H6 H 0.4966 0.5653 0.2759 0.1170 Uiso
H7 H 0.5542 0.5017 0.3216 0.1170 Uiso
C15 C 0.5856(5) 0.5662(6) 0.5203(9) 0.1077 Uani
H12 H 0.6273 0.5988 0.4979 0.1620 Uiso
H13 H 0.5985 0.5097 0.5152 0.1620 Uiso
H14 H 0.5720 0.5790 0.5982 0.1620 Uiso
C22 C 0.4992(7) 0.6654(6) 0.4511(8) 0.1187 Uani
H21 H 0.5379 0.7008 0.4251 0.1780 Uiso
H22 H 0.4870 0.6781 0.5296 0.1780 Uiso
H23 H 0.4562 0.6728 0.4035 0.1780 Uiso
C23 C 0.4630(5) 0.5342(8) 0.4853(9) 0.1323 Uani
H24 H 0.4510 0.5501 0.5627 0.1990 Uiso
H25 H 0.4772 0.4779 0.4845 0.1990 Uiso
H26 H 0.4207 0.5418 0.4366 0.1990 Uiso
N1 N 0.5233(3) 0.5831(3) 0.4436(4) 0.0467 Uani
C14 C 0.1735(4) 0.3522(5) 0.2960(8) 0.0950 Uani
H9 H 0.1349 0.3199 0.3296 0.1420 Uiso
H10 H 0.1540 0.3824 0.2320 0.1420 Uiso
H11 H 0.1925 0.3893 0.3527 0.1420 Uiso
C16 C 0.2029(5) 0.2409(7) 0.1695(9) 0.1293 Uani
H15 H 0.1649 0.2084 0.2044 0.1940 Uiso
H16 H 0.2420 0.2062 0.1425 0.1940 Uiso
H17 H 0.1826 0.2706 0.1057 0.1940 Uiso
C17 C 0.2927(4) 0.3509(4) 0.2041(6) 0.0693 Uani
H18 H 0.3327 0.3169 0.1787 0.1040 Uiso
H19 H 0.3106 0.3886 0.2608 0.1040 Uiso
H20 H 0.2730 0.3804 0.1395 0.1040 Uiso
C28 C 0.2643(6) 0.2538(6) 0.3519(7) 0.1137 Uani
H39 H 0.2266 0.2204 0.3861 0.1700 Uiso
H40 H 0.2830 0.2911 0.4084 0.1700 Uiso
H41 H 0.3038 0.2199 0.3245 0.1700 Uiso
N2 N 0.2330(3) 0.2990(3) 0.2561(4) 0.0493 Uani
C24 C 0.1037(3) 0.6345(3) 0.5320(5) 0.0497 Uani
H27 H 0.1050 0.6497 0.4522 0.0750 Uiso
H28 H 0.1508 0.6124 0.5540 0.0750 Uiso
H29 H 0.0932 0.6816 0.5781 0.0750 Uiso
C25 C -0.0274(3) 0.6071(4) 0.5205(6) 0.0630 Uani
H30 H -0.0282 0.6208 0.4400 0.0940 Uiso
H31 H -0.0359 0.6553 0.5654 0.0940 Uiso
H32 H -0.0654 0.5680 0.5365 0.0940 Uiso
C26 C 0.0450(4) 0.5498(5) 0.6760(5) 0.0627 Uani
H33 H 0.0077 0.5093 0.6897 0.0940 Uiso
H34 H 0.0345 0.5972 0.7215 0.0940 Uiso
H35 H 0.0926 0.5285 0.6969 0.0940 Uiso
C27 C 0.0624(5) 0.5010(4) 0.4788(6) 0.0807 Uani
H36 H 0.0615 0.5162 0.3989 0.1210 Uiso
H37 H 0.0262 0.4593 0.4923 0.1210 Uiso
H38 H 0.1106 0.4809 0.4984 0.1210 Uiso
N3 N 0.0451(3) 0.5724(3) 0.5503(4) 0.0413 Uani
loop_
_atom_site_aniso_label
_atom_site_aniso_U_11
_atom_site_aniso_U_22
_atom_site_aniso_U_33
_atom_site_aniso_U_23
_atom_site_aniso_U_13
_atom_site_aniso_U_12
V1 0.0252(3) 0.0148(3) 0.0223(3) -0.0014(3) -0.0007(4) 0.0010(3)
O1 0.056(2) 0.0207(16) 0.0428(18) -0.0050(15) -0.0091(18) -0.0065(16)
O2 0.0373(16) 0.0232(15) 0.0238(14) -0.0052(13) -0.0030(15) 0.0018(13)
O3 0.0365(17) 0.0225(17) 0.0290(15) 0.0019(13) -0.0005(14) 0.0010(14)
O4 0.0497(18) 0.0198(16) 0.0289(15) -0.0052(12) -0.0001(15) -0.0063(15)
O5 0.0316(16) 0.0326(19) 0.0339(18) -0.0083(13) 0.0036(14) -0.0077(13)
O6 0.061(2) 0.036(2) 0.0350(17) 0.0175(16) -0.0075(19) -0.0068(16)
O7 0.096(3) 0.051(3) 0.0316(18) -0.0052(18) -0.021(2) 0.006(2)
O8 0.065(3) 0.070(3) 0.0294(18) 0.0116(18) -0.0082(18) -0.037(2)
O9 0.073(3) 0.0214(17) 0.0290(17) 0.0037(14) -0.0019(17) -0.0013(16)
O10 0.042(2) 0.066(3) 0.0349(18) -0.0089(18) -0.0040(16) -0.0250(18)
O11 0.0279(16) 0.043(2) 0.0390(16) 0.0107(14) -0.0067(14) -0.0124(16)
O12 0.125(4) 0.083(4) 0.041(2) 0.024(2) -0.016(3) -0.050(3)
O13 0.103(4) 0.063(3) 0.0284(18) -0.0029(19) -0.021(2) -0.022(3)
C1 0.027(2) 0.022(2) 0.034(2) -0.0026(18) 0.001(2) 0.0009(18)
C2 0.025(2) 0.021(2) 0.023(2) -0.0002(18) 0.0064(18) -0.0012(17)
C3 0.040(3) 0.018(2) 0.030(2) 0.0018(18) 0.006(2) -0.004(2)
C4 0.036(2) 0.026(2) 0.021(2) 0.000(2) -0.003(2) 0.0000(16)
C5 0.041(3) 0.029(2) 0.021(2) -0.0061(19) 0.000(2) -0.0016(18)
C6 0.032(2) 0.017(2) 0.028(2) -0.0029(18) 0.006(2) 0.0008(18)
C7 0.036(2) 0.017(2) 0.022(2) -0.0006(18) 0.0032(19) -0.0019(18)
C8 0.034(3) 0.040(3) 0.024(2) 0.006(2) -0.002(2) 0.001(2)
C9 0.024(2) 0.026(2) 0.032(2) -0.0067(18) -0.0037(19) -0.0042(18)
C11 0.028(2) 0.030(2) 0.031(3) 0.0036(19) -0.009(2) -0.0065(18)
C12 0.0256(19) 0.038(2) 0.023(2) -0.0016(19) 0.000(2) -0.0046(17)
C13 0.032(2) 0.028(2) 0.030(2) -0.0010(18) -0.0041(19) -0.0018(19)
C18 0.033(3) 0.021(2) 0.029(2) -0.0001(19) 0.0036(19) 0.0015(18)
C19 0.033(2) 0.029(2) 0.025(2) -0.0015(18) -0.001(2) 0.002(2)
C20 0.023(2) 0.031(2) 0.028(2) -0.0018(18) 0.0002(18) -0.0007(18)
C21 0.045(3) 0.051(4) 0.026(2) 0.000(2) -0.007(2) 0.000(3)
C29 0.023(2) 0.031(3) 0.028(2) -0.0004(18) -0.0048(18) -0.0031(19)
C30 0.039(3) 0.029(2) 0.028(2) 0.0016(19) 0.006(2) -0.007(2)
V1B 0.0252 0.0148 0.0223 -0.0014 0.0007 -0.001
V1C 0.0252 0.0148 0.0223 0.0014 -0.0007 -0.001
O4B 0.0497 0.0198 0.0289 -0.0052 0.0001 0.0063
O11C 0.0279 0.043 0.039 -0.0107 -0.0067 0.0124
Li1 0.046(5) 0.039(5) 0.033(4) 0.012(3) 0.001(4) 0.004(4)
C10 0.089(5) 0.093(6) 0.053(4) -0.016(4) 0.008(4) -0.004(4)
C15 0.094(4) 0.129(5) 0.100(4) -0.008(4) -0.018(4) 0.018(4)
C22 0.154(5) 0.112(5) 0.090(4) -0.006(4) -0.009(4) 0.013(4)
C23 0.091(7) 0.193(12) 0.113(8) -0.004(8) 0.023(6) -0.049(7)
N1 0.044(3) 0.050(3) 0.046(2) -0.004(2) 0.004(2) 0.002(2)
C14 0.063(4) 0.059(5) 0.163(9) -0.022(5) 0.024(5) 0.007(4)
C16 0.116(8) 0.128(9) 0.144(10) -0.087(7) 0.001(7) -0.023(7)
C17 0.078(5) 0.060(5) 0.070(4) -0.004(3) 0.013(4) -0.003(4)
C28 0.177(10) 0.078(6) 0.086(6) 0.044(5) -0.018(6) 0.009(6)
N2 0.053(3) 0.035(3) 0.060(3) 0.001(2) 0.007(2) 0.005(2)
C24 0.044(3) 0.050(3) 0.055(3) -0.003(3) 0.012(3) -0.003(2)
C25 0.041(3) 0.098(5) 0.050(3) 0.003(4) 0.009(3) -0.006(3)
C26 0.079(5) 0.069(5) 0.040(3) 0.008(3) 0.004(3) 0.003(4)
C27 0.130(7) 0.044(4) 0.068(4) -0.018(3) 0.026(4) -0.014(4)
N3 0.048(3) 0.037(3) 0.039(2) 0.0010(19) 0.003(2) -0.0049(19)
loop_
_geom_bond_atom_site_label_1
_geom_bond_atom_site_label_2
_geom_bond_site_symmetry_1
_geom_bond_site_symmetry_2
V1 O1 1_555 1_555
O1 C1 1_555 1_555
O2 V1 1_555 1_555
O3 V1 1_555 1_555
O4 C18 1_555 1_555
O5 V1 1_555 1_555
O6 C8 1_555 1_555
O7 C8 1_555 1_555
O8 C13 1_555 1_555
O9 C18 1_555 1_555
O10 C11 1_555 1_555
O11 C11 1_555 1_555
O12 C21 1_555 1_555
O13 C21 1_555 1_555
C1 O2 1_555 1_555
C2 C1 1_555 1_555
C3 C2 1_555 1_555
H1 C3 1_555 1_555
C4 C3 1_555 1_555
C5 C4 1_555 1_555
H2 C5 1_555 1_555
C6 C5 1_555 1_555
C7 C2 1_555 1_555
H3 C7 1_555 1_555
C8 C4 1_555 1_555
C9 H4 1_555 1_555
C10 H5 1_555 1_555
H6 C10 1_555 1_555
H7 C10 1_555 1_555
C11 C29 1_555 1_555
C12 H8 1_555 1_555
C13 O5 1_555 1_555
C14 H9 1_555 1_555
H10 C14 1_555 1_555
H11 C14 1_555 1_555
C15 H12 1_555 1_555
H13 C15 1_555 1_555
H14 C15 1_555 1_555
C16 H15 1_555 1_555
H16 C16 1_555 1_555
H17 C16 1_555 1_555
C17 H18 1_555 1_555
H19 C17 1_555 1_555
H20 C17 1_555 1_555
C18 C6 1_555 1_555
C19 C9 1_555 1_555
C20 C9 1_555 1_555
C21 C19 1_555 1_555
C22 H21 1_555 1_555
H22 C22 1_555 1_555
H23 C22 1_555 1_555
C23 H24 1_555 1_555
H25 C23 1_555 1_555
H26 C23 1_555 1_555
C24 H27 1_555 1_555
H28 C24 1_555 1_555
H29 C24 1_555 1_555
C25 H30 1_555 1_555
H31 C25 1_555 1_555
H32 C25 1_555 1_555
C26 H33 1_555 1_555
H34 C26 1_555 1_555
H35 C26 1_555 1_555
C27 H36 1_555 1_555
H37 C27 1_555 1_555
H38 C27 1_555 1_555
C28 H39 1_555 1_555
H40 C28 1_555 1_555
H41 C28 1_555 1_555
C29 C12 1_555 1_555
C30 C19 1_555 1_555
H42 C30 1_555 1_555
N1 C10 1_555 1_555
N2 C14 1_555 1_555
N3 C24 1_555 1_555
V1B O4 1_555 1_555
V1C O11 1_555 1_555
O4B V1 1_555 1_555
O11C V1 1_555 1_555
C6 C7 1_555 1_555
C12 C20 1_555 1_555
C13 C20 1_555 1_555
C15 N1 1_555 1_555
C16 N2 1_555 1_555
C17 N2 1_555 1_555
C22 N1 1_555 1_555
C23 N1 1_555 1_555
C25 N3 1_555 1_555
C26 N3 1_555 1_555
C27 N3 1_555 1_555
C28 N2 1_555 1_555
C29 C30 1_555 1_555

#END
