
#######################################################################
#
#                 Cambridge Crystallographic Data Centre
#                                CCDC 
#
#######################################################################
#
# If this CIF has been generated from an entry in the Cambridge 
# Structural Database, then it will include bibliographic, chemical, 
# crystal, experimental, refinement or atomic coordinate data resulting 
# from the CCDC's data processing and validation procedures.
#
#######################################################################

data_ADASEF
_chemical_formula_moiety         '(C180 H132 Cu24 N48 O76)n'
_chemical_name_systematic        
catena-(dodecakis(\m~6~-4'-(1H-tetrazol-5-yl)biphenyl-3,5-dicarboxylato)-tetrakis(\m~3~-oxo)-tetracosa-aqua-tetracosa-copper)
_symmetry_cell_setting           cubic
_symmetry_space_group_name_H-M   'F m -3 m'
_symmetry_Int_Tables_number      225
_space_group_name_Hall           '-F 4 2 3'
loop_
_symmetry_equiv_pos_site_id
_symmetry_equiv_pos_as_xyz
1 x,y,z
2 x,-y,-z
3 -x,-y,z
4 -x,y,-z
5 -y,x,z
6 y,x,-z
7 y,-x,z
8 -y,-x,-z
9 y,z,x
10 -y,-z,x
11 y,-z,-x
12 -y,z,-x
13 -z,y,x
14 -z,-y,-x
15 z,-y,x
16 z,y,-x
17 z,x,y
18 -z,x,-y
19 -z,-x,y
20 z,-x,-y
21 -x,-z,-y
22 -x,z,y
23 x,-z,y
24 x,z,-y
25 x,1/2+y,1/2+z
26 x,1/2-y,1/2-z
27 -x,1/2-y,1/2+z
28 -x,1/2+y,1/2-z
29 -y,1/2+x,1/2+z
30 y,1/2+x,1/2-z
31 y,1/2-x,1/2+z
32 -y,1/2-x,1/2-z
33 y,1/2+z,1/2+x
34 -y,1/2-z,1/2+x
35 y,1/2-z,1/2-x
36 -y,1/2+z,1/2-x
37 -z,1/2+y,1/2+x
38 -z,1/2-y,1/2-x
39 z,1/2-y,1/2+x
40 z,1/2+y,1/2-x
41 z,1/2+x,1/2+y
42 -z,1/2+x,1/2-y
43 -z,1/2-x,1/2+y
44 z,1/2-x,1/2-y
45 -x,1/2-z,1/2-y
46 -x,1/2+z,1/2+y
47 x,1/2-z,1/2+y
48 x,1/2+z,1/2-y
49 1/2+x,y,1/2+z
50 1/2+x,-y,1/2-z
51 1/2-x,-y,1/2+z
52 1/2-x,y,1/2-z
53 1/2-y,x,1/2+z
54 1/2+y,x,1/2-z
55 1/2+y,-x,1/2+z
56 1/2-y,-x,1/2-z
57 1/2+y,z,1/2+x
58 1/2-y,-z,1/2+x
59 1/2+y,-z,1/2-x
60 1/2-y,z,1/2-x
61 1/2-z,y,1/2+x
62 1/2-z,-y,1/2-x
63 1/2+z,-y,1/2+x
64 1/2+z,y,1/2-x
65 1/2+z,x,1/2+y
66 1/2-z,x,1/2-y
67 1/2-z,-x,1/2+y
68 1/2+z,-x,1/2-y
69 1/2-x,-z,1/2-y
70 1/2-x,z,1/2+y
71 1/2+x,-z,1/2+y
72 1/2+x,z,1/2-y
73 1/2+x,1/2+y,z
74 1/2+x,1/2-y,-z
75 1/2-x,1/2-y,z
76 1/2-x,1/2+y,-z
77 1/2-y,1/2+x,z
78 1/2+y,1/2+x,-z
79 1/2+y,1/2-x,z
80 1/2-y,1/2-x,-z
81 1/2+y,1/2+z,x
82 1/2-y,1/2-z,x
83 1/2+y,1/2-z,-x
84 1/2-y,1/2+z,-x
85 1/2-z,1/2+y,x
86 1/2-z,1/2-y,-x
87 1/2+z,1/2-y,x
88 1/2+z,1/2+y,-x
89 1/2+z,1/2+x,y
90 1/2-z,1/2+x,-y
91 1/2-z,1/2-x,y
92 1/2+z,1/2-x,-y
93 1/2-x,1/2-z,-y
94 1/2-x,1/2+z,y
95 1/2+x,1/2-z,y
96 1/2+x,1/2+z,-y
97 -x,-y,-z
98 -x,y,z
99 x,y,-z
100 x,-y,z
101 y,-x,-z
102 -y,-x,z
103 -y,x,-z
104 y,x,z
105 -y,-z,-x
106 y,z,-x
107 -y,z,x
108 y,-z,x
109 z,-y,-x
110 z,y,x
111 -z,y,-x
112 -z,-y,x
113 -z,-x,-y
114 z,-x,y
115 z,x,-y
116 -z,x,y
117 x,z,y
118 x,-z,-y
119 -x,z,-y
120 -x,-z,y
121 -x,1/2-y,1/2-z
122 -x,1/2+y,1/2+z
123 x,1/2+y,1/2-z
124 x,1/2-y,1/2+z
125 y,1/2-x,1/2-z
126 -y,1/2-x,1/2+z
127 -y,1/2+x,1/2-z
128 y,1/2+x,1/2+z
129 -y,1/2-z,1/2-x
130 y,1/2+z,1/2-x
131 -y,1/2+z,1/2+x
132 y,1/2-z,1/2+x
133 z,1/2-y,1/2-x
134 z,1/2+y,1/2+x
135 -z,1/2+y,1/2-x
136 -z,1/2-y,1/2+x
137 -z,1/2-x,1/2-y
138 z,1/2-x,1/2+y
139 z,1/2+x,1/2-y
140 -z,1/2+x,1/2+y
141 x,1/2+z,1/2+y
142 x,1/2-z,1/2-y
143 -x,1/2+z,1/2-y
144 -x,1/2-z,1/2+y
145 1/2-x,-y,1/2-z
146 1/2-x,y,1/2+z
147 1/2+x,y,1/2-z
148 1/2+x,-y,1/2+z
149 1/2+y,-x,1/2-z
150 1/2-y,-x,1/2+z
151 1/2-y,x,1/2-z
152 1/2+y,x,1/2+z
153 1/2-y,-z,1/2-x
154 1/2+y,z,1/2-x
155 1/2-y,z,1/2+x
156 1/2+y,-z,1/2+x
157 1/2+z,-y,1/2-x
158 1/2+z,y,1/2+x
159 1/2-z,y,1/2-x
160 1/2-z,-y,1/2+x
161 1/2-z,-x,1/2-y
162 1/2+z,-x,1/2+y
163 1/2+z,x,1/2-y
164 1/2-z,x,1/2+y
165 1/2+x,z,1/2+y
166 1/2+x,-z,1/2-y
167 1/2-x,z,1/2-y
168 1/2-x,-z,1/2+y
169 1/2-x,1/2-y,-z
170 1/2-x,1/2+y,z
171 1/2+x,1/2+y,-z
172 1/2+x,1/2-y,z
173 1/2+y,1/2-x,-z
174 1/2-y,1/2-x,z
175 1/2-y,1/2+x,-z
176 1/2+y,1/2+x,z
177 1/2-y,1/2-z,-x
178 1/2+y,1/2+z,-x
179 1/2-y,1/2+z,x
180 1/2+y,1/2-z,x
181 1/2+z,1/2-y,-x
182 1/2+z,1/2+y,x
183 1/2-z,1/2+y,-x
184 1/2-z,1/2-y,x
185 1/2-z,1/2-x,-y
186 1/2+z,1/2-x,y
187 1/2+z,1/2+x,-y
188 1/2-z,1/2+x,y
189 1/2+x,1/2+z,y
190 1/2+x,1/2-z,-y
191 1/2-x,1/2+z,-y
192 1/2-x,1/2-z,y
_cell_length_a                   54.3898(16)
_cell_length_b                   54.3898(16)
_cell_length_c                   54.3898(16)
_cell_angle_alpha                90
_cell_angle_beta                 90
_cell_angle_gamma                90
_cell_volume                     160899
_exptl_crystal_colour            green
_exptl_crystal_description       polyhedra
_cell_formula_units_Z            8
loop_
_atom_site_label
_atom_site_type_symbol
_atom_site_fract_x
_atom_site_fract_y
_atom_site_fract_z
_atom_site_U_iso_or_equiv
_atom_site_thermal_displace_type
Cu1 Cu 0.13753(7) 0.0000 0.13753(7) 0.1037 Uani
Cu2 Cu 0.10274(7) 0.0000 0.10274(7) 0.0907 Uani
Cu3 Cu 0.34915(19) -0.1099(2) 0.15085(19) 0.4167 Uani
O1 O 0.15216(18) -0.02575(19) 0.1169(2) 0.0790 Uiso
O2 O 0.1222(2) -0.02405(19) 0.08729(17) 0.0800 Uiso
C1 C 0.1572(3) -0.0523(2) 0.08352(18) 0.1230 Uiso
C2 C 0.1466(3) -0.0637(2) 0.0637(2) 0.0670 Uiso
H1 H 0.1313 -0.0578 0.0578 0.0800 Uiso
C3 C 0.1792(3) -0.06083(18) 0.09226(19) 0.0820 Uiso
H2 H 0.1868 -0.0531 0.1059 0.0980 Uiso
C4 C 0.1456(3) -0.0332(3) 0.0949(3) 0.0790 Uiso
C5 C 0.2521(3) -0.0816(2) 0.1121(2) 0.1210 Uiso
H3 H 0.2603 -0.0727 0.1247 0.1450 Uiso
C6 C 0.2282(3) -0.07563(19) 0.10685(18) 0.0940 Uiso
H4 H 0.2201 -0.0629 0.1158 0.1130 Uiso
C7 C 0.2646(4) -0.0998(2) 0.0998(2) 0.1270 Uiso
C8 C 0.2156(4) -0.0883(2) 0.0883(2) 0.1120 Uiso
C9 C 0.1903(4) -0.0810(2) 0.0810(2) 0.1000 Uiso
C10 C 0.2832(6) -0.1112(4) 0.1112(4) 0.1310 Uiso
N1 N 0.2973(3) -0.1024(3) 0.1304(3) 0.1050 Uiso
N2 N 0.3159(3) -0.1152(2) 0.1326(2) 0.0970 Uiso
O3 O 0.3325(2) -0.0783(3) 0.1675(2) 0.0990 Uiso
O4 O 0.3692(3) -0.1308(3) 0.1308(3) 0.0840 Uiso
O5 O 0.1666(3) 0.0000 0.1666(3) 0.0980 Uiso
O6 O 0.0770(2) 0.0000 0.0770(2) 0.0690 Uiso
O1MD O 0.15216(18) -0.1169(2) 0.02575(19) 0.0790 Uiso
O2MD O 0.1222(2) -0.08729(17) 0.02405(19) 0.0800 Uiso
C1MD C 0.1572(3) -0.08352(18) 0.0523(2) 0.1230 Uiso
C3MD C 0.1792(3) -0.09226(19) 0.06083(18) 0.0820 Uiso
H2MD H 0.1868 -0.1059 0.0531 0.0980 Uiso
C4MD C 0.1456(3) -0.0949(3) 0.0332(3) 0.0790 Uiso
C5MD C 0.2521(3) -0.1121(2) 0.0816(2) 0.1210 Uiso
H3MD H 0.2603 -0.1247 0.0727 0.1450 Uiso
C6MD C 0.2282(3) -0.10685(18) 0.07563(19) 0.0940 Uiso
H4MD H 0.2201 -0.1158 0.0629 0.1130 Uiso
N1MD N 0.2973(3) -0.1304(3) 0.1024(3) 0.1050 Uiso
N2MD N 0.3159(3) -0.1326(2) 0.1152(2) 0.0970 Uiso
Cu1F Cu 0.0000 -0.13753(7) 0.13753(7) 0.1037 Uani
Cu2F Cu 0.0000 -0.10274(7) 0.10274(7) 0.0907 Uani
Cu3I Cu 0.1099(2) -0.15085(19) 0.34915(19) 0.4167 Uani
O1I O 0.02575(19) -0.1169(2) 0.15216(18) 0.0790 Uiso
O2I O 0.02405(19) -0.08729(17) 0.1222(2) 0.0800 Uiso
C1I C 0.0523(2) -0.08352(18) 0.1572(3) 0.1230 Uiso
C2I C 0.0637(2) -0.0637(2) 0.1466(3) 0.0670 Uiso
H1I H 0.0578 -0.0578 0.1313 0.0800 Uiso
C3I C 0.06083(18) -0.09226(19) 0.1792(3) 0.0820 Uiso
H2I H 0.0531 -0.1059 0.1868 0.0980 Uiso
C4I C 0.0332(3) -0.0949(3) 0.1456(3) 0.0790 Uiso
C5I C 0.0816(2) -0.1121(2) 0.2521(3) 0.1210 Uiso
H3I H 0.0727 -0.1247 0.2603 0.1450 Uiso
C6I C 0.07563(19) -0.10685(18) 0.2282(3) 0.0940 Uiso
H4I H 0.0629 -0.1158 0.2201 0.1130 Uiso
C7I C 0.0998(2) -0.0998(2) 0.2646(4) 0.1270 Uiso
C8I C 0.0883(2) -0.0883(2) 0.2156(4) 0.1120 Uiso
C9I C 0.0810(2) -0.0810(2) 0.1903(4) 0.1000 Uiso
C10I C 0.1112(4) -0.1112(4) 0.2832(6) 0.1310 Uiso
N1I N 0.1024(3) -0.1304(3) 0.2973(3) 0.1050 Uiso
N2I N 0.1152(2) -0.1326(2) 0.3159(3) 0.0970 Uiso
O3I O 0.0783(3) -0.1675(2) 0.3325(2) 0.0990 Uiso
O4I O 0.1308(3) -0.1308(3) 0.3692(3) 0.0840 Uiso
O5F O 0.0000 -0.1666(3) 0.1666(3) 0.0980 Uiso
O6F O 0.0000 -0.0770(2) 0.0770(2) 0.0690 Uiso
O1ED O 0.1169(2) -0.02575(19) 0.15216(18) 0.0790 Uiso
O2ED O 0.08729(17) -0.02405(19) 0.1222(2) 0.0800 Uiso
C1ED C 0.08352(18) -0.0523(2) 0.1572(3) 0.1230 Uiso
C3ED C 0.09226(19) -0.06083(18) 0.1792(3) 0.0820 Uiso
H2ED H 0.1059 -0.0531 0.1868 0.0980 Uiso
C4ED C 0.0949(3) -0.0332(3) 0.1456(3) 0.0790 Uiso
C5ED C 0.1121(2) -0.0816(2) 0.2521(3) 0.1210 Uiso
H3ED H 0.1247 -0.0727 0.2603 0.1450 Uiso
C6ED C 0.10685(18) -0.07563(19) 0.2282(3) 0.0940 Uiso
H4ED H 0.1158 -0.0629 0.2201 0.1130 Uiso
N1ED N 0.1304(3) -0.1024(3) 0.2973(3) 0.1050 Uiso
N2ED N 0.1326(2) -0.1152(2) 0.3159(3) 0.0970 Uiso
Cu3N Cu 0.15085(19) 0.1099(2) 0.34915(19) 0.4167 Uani
O1N O 0.1169(2) 0.02575(19) 0.15216(18) 0.0790 Uiso
O2N O 0.08729(17) 0.02405(19) 0.1222(2) 0.0800 Uiso
C1N C 0.08352(18) 0.0523(2) 0.1572(3) 0.1230 Uiso
C2N C 0.0637(2) 0.0637(2) 0.1466(3) 0.0670 Uiso
H1N H 0.0578 0.0578 0.1313 0.0800 Uiso
C3N C 0.09226(19) 0.06083(18) 0.1792(3) 0.0820 Uiso
H2N H 0.1059 0.0531 0.1868 0.0980 Uiso
C4N C 0.0949(3) 0.0332(3) 0.1456(3) 0.0790 Uiso
C5N C 0.1121(2) 0.0816(2) 0.2521(3) 0.1210 Uiso
H3N H 0.1247 0.0727 0.2603 0.1450 Uiso
C6N C 0.10685(18) 0.07563(19) 0.2282(3) 0.0940 Uiso
H4N H 0.1158 0.0629 0.2201 0.1130 Uiso
C7N C 0.0998(2) 0.0998(2) 0.2646(4) 0.1270 Uiso
C8N C 0.0883(2) 0.0883(2) 0.2156(4) 0.1120 Uiso
C9N C 0.0810(2) 0.0810(2) 0.1903(4) 0.1000 Uiso
C10N C 0.1112(4) 0.1112(4) 0.2832(6) 0.1310 Uiso
N1N N 0.1304(3) 0.1024(3) 0.2973(3) 0.1050 Uiso
N2N N 0.1326(2) 0.1152(2) 0.3159(3) 0.0970 Uiso
O3N O 0.1675(2) 0.0783(3) 0.3325(2) 0.0990 Uiso
O1BD O 0.02575(19) 0.1169(2) 0.15216(18) 0.0790 Uiso
O2BD O 0.02405(19) 0.08729(17) 0.1222(2) 0.0800 Uiso
C1BD C 0.0523(2) 0.08352(18) 0.1572(3) 0.1230 Uiso
C3BD C 0.06083(18) 0.09226(19) 0.1792(3) 0.0820 Uiso
H2BD H 0.0531 0.1059 0.1868 0.0980 Uiso
C4BD C 0.0332(3) 0.0949(3) 0.1456(3) 0.0790 Uiso
C5BD C 0.0816(2) 0.1121(2) 0.2521(3) 0.1210 Uiso
H3BD H 0.0727 0.1247 0.2603 0.1450 Uiso
C6BD C 0.07563(19) 0.10685(18) 0.2282(3) 0.0940 Uiso
H4BD H 0.0629 0.1158 0.2201 0.1130 Uiso
N1BD N 0.1024(3) 0.1304(3) 0.2973(3) 0.1050 Uiso
N2BD N 0.1152(2) 0.1326(2) 0.3159(3) 0.0970 Uiso
Cu1S Cu 0.13753(7) -0.13753(7) 0.0000 0.1037 Uani
Cu2S Cu 0.10274(7) -0.10274(7) 0.0000 0.0907 Uani
Cu3S Cu 0.15085(19) -0.34915(19) 0.1099(2) 0.4167 Uani
O1S O 0.1169(2) -0.15216(18) 0.02575(19) 0.0790 Uiso
O2S O 0.08729(17) -0.1222(2) 0.02405(19) 0.0800 Uiso
C1S C 0.08352(18) -0.1572(3) 0.0523(2) 0.1230 Uiso
C2S C 0.0637(2) -0.1466(3) 0.0637(2) 0.0670 Uiso
H1S H 0.0578 -0.1313 0.0578 0.0800 Uiso
C3S C 0.09226(19) -0.1792(3) 0.06083(18) 0.0820 Uiso
H2S H 0.1059 -0.1868 0.0531 0.0980 Uiso
C4S C 0.0949(3) -0.1456(3) 0.0332(3) 0.0790 Uiso
C5S C 0.1121(2) -0.2521(3) 0.0816(2) 0.1210 Uiso
H3S H 0.1247 -0.2603 0.0727 0.1450 Uiso
C6S C 0.10685(18) -0.2282(3) 0.07563(19) 0.0940 Uiso
H4S H 0.1158 -0.2201 0.0629 0.1130 Uiso
C7S C 0.0998(2) -0.2646(4) 0.0998(2) 0.1270 Uiso
C8S C 0.0883(2) -0.2156(4) 0.0883(2) 0.1120 Uiso
C9S C 0.0810(2) -0.1903(4) 0.0810(2) 0.1000 Uiso
C10S C 0.1112(4) -0.2832(6) 0.1112(4) 0.1310 Uiso
N1S N 0.1304(3) -0.2973(3) 0.1024(3) 0.1050 Uiso
N2S N 0.1326(2) -0.3159(3) 0.1152(2) 0.0970 Uiso
O3S O 0.1675(2) -0.3325(2) 0.0783(3) 0.0990 Uiso
O5S O 0.1666(3) -0.1666(3) 0.0000 0.0980 Uiso
O6S O 0.0770(2) -0.0770(2) 0.0000 0.0690 Uiso
O1WC O 0.02575(19) -0.15216(18) 0.1169(2) 0.0790 Uiso
O2WC O 0.02405(19) -0.1222(2) 0.08729(17) 0.0800 Uiso
C1WC C 0.0523(2) -0.1572(3) 0.08352(18) 0.1230 Uiso
C3WC C 0.06083(18) -0.1792(3) 0.09226(19) 0.0820 Uiso
H2WC H 0.0531 -0.1868 0.1059 0.0980 Uiso
C4WC C 0.0332(3) -0.1456(3) 0.0949(3) 0.0790 Uiso
C5WC C 0.0816(2) -0.2521(3) 0.1121(2) 0.1210 Uiso
H3WC H 0.0727 -0.2603 0.1247 0.1450 Uiso
C6WC C 0.07563(19) -0.2282(3) 0.10685(18) 0.0940 Uiso
H4WC H 0.0629 -0.2201 0.1158 0.1130 Uiso
N1WC N 0.1024(3) -0.2973(3) 0.1304(3) 0.1050 Uiso
N2WC N 0.1152(2) -0.3159(3) 0.1326(2) 0.0970 Uiso
Cu3V Cu 0.34915(19) -0.15085(19) -0.1099(2) 0.4167 Uani
O1V O 0.15216(18) -0.1169(2) -0.02575(19) 0.0790 Uiso
O2V O 0.1222(2) -0.08729(17) -0.02405(19) 0.0800 Uiso
C1V C 0.1572(3) -0.08352(18) -0.0523(2) 0.1230 Uiso
C2V C 0.1466(3) -0.0637(2) -0.0637(2) 0.0670 Uiso
H1V H 0.1313 -0.0578 -0.0578 0.0800 Uiso
C3V C 0.1792(3) -0.09226(19) -0.06083(18) 0.0820 Uiso
H2V H 0.1868 -0.1059 -0.0531 0.0980 Uiso
C4V C 0.1456(3) -0.0949(3) -0.0332(3) 0.0790 Uiso
C5V C 0.2521(3) -0.1121(2) -0.0816(2) 0.1210 Uiso
H3V H 0.2603 -0.1247 -0.0727 0.1450 Uiso
C6V C 0.2282(3) -0.10685(18) -0.07563(19) 0.0940 Uiso
H4V H 0.2201 -0.1158 -0.0629 0.1130 Uiso
C7V C 0.2646(4) -0.0998(2) -0.0998(2) 0.1270 Uiso
C8V C 0.2156(4) -0.0883(2) -0.0883(2) 0.1120 Uiso
C9V C 0.1903(4) -0.0810(2) -0.0810(2) 0.1000 Uiso
C10V C 0.2832(6) -0.1112(4) -0.1112(4) 0.1310 Uiso
N1V N 0.2973(3) -0.1304(3) -0.1024(3) 0.1050 Uiso
N2V N 0.3159(3) -0.1326(2) -0.1152(2) 0.0970 Uiso
O3V O 0.3325(2) -0.1675(2) -0.0783(3) 0.0990 Uiso
O1TC O 0.15216(18) -0.02575(19) -0.1169(2) 0.0790 Uiso
O2TC O 0.1222(2) -0.02405(19) -0.08729(17) 0.0800 Uiso
C1TC C 0.1572(3) -0.0523(2) -0.08352(18) 0.1230 Uiso
C3TC C 0.1792(3) -0.06083(18) -0.09226(19) 0.0820 Uiso
H2TC H 0.1868 -0.0531 -0.1059 0.0980 Uiso
C4TC C 0.1456(3) -0.0332(3) -0.0949(3) 0.0790 Uiso
C5TC C 0.2521(3) -0.0816(2) -0.1121(2) 0.1210 Uiso
H3TC H 0.2603 -0.0727 -0.1247 0.1450 Uiso
C6TC C 0.2282(3) -0.07563(19) -0.10685(18) 0.0940 Uiso
H4TC H 0.2201 -0.0629 -0.1158 0.1130 Uiso
N1TC N 0.2973(3) -0.1024(3) -0.1304(3) 0.1050 Uiso
N2TC N 0.3159(3) -0.1152(2) -0.1326(2) 0.0970 Uiso
Cu3W Cu 0.34915(19) 0.15085(19) 0.1099(2) 0.4167 Uani
O1W O 0.15216(18) 0.1169(2) 0.02575(19) 0.0790 Uiso
O2W O 0.1222(2) 0.08729(17) 0.02405(19) 0.0800 Uiso
C1W C 0.1572(3) 0.08352(18) 0.0523(2) 0.1230 Uiso
C2W C 0.1466(3) 0.0637(2) 0.0637(2) 0.0670 Uiso
H1W H 0.1313 0.0578 0.0578 0.0800 Uiso
C3W C 0.1792(3) 0.09226(19) 0.06083(18) 0.0820 Uiso
H2W H 0.1868 0.1059 0.0531 0.0980 Uiso
C4W C 0.1456(3) 0.0949(3) 0.0332(3) 0.0790 Uiso
C5W C 0.2521(3) 0.1121(2) 0.0816(2) 0.1210 Uiso
H3W H 0.2603 0.1247 0.0727 0.1450 Uiso
C6W C 0.2282(3) 0.10685(18) 0.07563(19) 0.0940 Uiso
H4W H 0.2201 0.1158 0.0629 0.1130 Uiso
C7W C 0.2646(4) 0.0998(2) 0.0998(2) 0.1270 Uiso
C8W C 0.2156(4) 0.0883(2) 0.0883(2) 0.1120 Uiso
C9W C 0.1903(4) 0.0810(2) 0.0810(2) 0.1000 Uiso
C10W C 0.2832(6) 0.1112(4) 0.1112(4) 0.1310 Uiso
N1W N 0.2973(3) 0.1304(3) 0.1024(3) 0.1050 Uiso
N2W N 0.3159(3) 0.1326(2) 0.1152(2) 0.0970 Uiso
O3W O 0.3325(2) 0.1675(2) 0.0783(3) 0.0990 Uiso
O1UC O 0.15216(18) 0.02575(19) 0.1169(2) 0.0790 Uiso
O2UC O 0.1222(2) 0.02405(19) 0.08729(17) 0.0800 Uiso
C1UC C 0.1572(3) 0.0523(2) 0.08352(18) 0.1230 Uiso
C3UC C 0.1792(3) 0.06083(18) 0.09226(19) 0.0820 Uiso
H2UC H 0.1868 0.0531 0.1059 0.0980 Uiso
C4UC C 0.1456(3) 0.0332(3) 0.0949(3) 0.0790 Uiso
C5UC C 0.2521(3) 0.0816(2) 0.1121(2) 0.1210 Uiso
H3UC H 0.2603 0.0727 0.1247 0.1450 Uiso
C6UC C 0.2282(3) 0.07563(19) 0.10685(18) 0.0940 Uiso
H4UC H 0.2201 0.0629 0.1158 0.1130 Uiso
N1UC N 0.2973(3) 0.1024(3) 0.1304(3) 0.1050 Uiso
N2UC N 0.3159(3) 0.1152(2) 0.1326(2) 0.0970 Uiso
Cu1A Cu 0.13753(7) 0.0000 -0.13753(7) 0.1037 Uani
Cu1D Cu 0.0000 0.13753(7) 0.13753(7) 0.1037 Uani
Cu1P Cu 0.13753(7) 0.13753(7) 0.0000 0.1037 Uani
Cu2A Cu 0.10274(7) 0.0000 -0.10274(7) 0.0907 Uani
Cu2D Cu 0.0000 0.10274(7) 0.10274(7) 0.0907 Uani
Cu2P Cu 0.10274(7) 0.10274(7) 0.0000 0.0907 Uani
Cu3EA Cu 0.1099(2) 0.15085(19) 0.34915(19) 0.4167 Uani
Cu3IA Cu 0.1099(2) -0.34915(19) 0.15085(19) 0.4167 Uani
Cu3NA Cu 0.15085(19) -0.15085(19) 0.3901(2) 0.4167 Uani
Cu3YA Cu 0.15085(19) -0.1099(2) 0.34915(19) 0.4167 Uani
Cu3FB Cu 0.3901(2) -0.15085(19) 0.15085(19) 0.4167 Uani
Cu3HB Cu 0.34915(19) -0.1099(2) -0.15085(19) 0.4167 Uani
Cu3IB Cu 0.34915(19) 0.1099(2) 0.15085(19) 0.4167 Uani
Cu3KC Cu 0.34915(19) -0.15085(19) 0.1099(2) 0.4167 Uani
O1F O -0.02575(19) -0.15216(18) 0.1169(2) 0.0790 Uiso
O1CD O -0.02575(19) -0.1169(2) 0.15216(18) 0.0790 Uiso
O1ID O 0.1169(2) -0.15216(18) -0.02575(19) 0.0790 Uiso
O2F O -0.02405(19) -0.1222(2) 0.08729(17) 0.0800 Uiso
O2CD O -0.02405(19) -0.08729(17) 0.1222(2) 0.0800 Uiso
O2ID O 0.08729(17) -0.1222(2) -0.02405(19) 0.0800 Uiso
N2VD N 0.1152(2) -0.1841(3) 0.3674(2) 0.0970 Uiso
N2NE N 0.1841(3) 0.1152(2) 0.3674(2) 0.0970 Uiso
N2BF N 0.3674(2) -0.1152(2) 0.1841(3) 0.0970 Uiso
N2BG N 0.3674(2) 0.1841(3) 0.1152(2) 0.0970 Uiso
N2EG N 0.3674(2) -0.1841(3) -0.1152(2) 0.0970 Uiso
N2HG N 0.1841(3) -0.3674(2) 0.1152(2) 0.0970 Uiso
O4N O 0.1308(3) 0.1308(3) 0.3692(3) 0.0840 Uiso
O4S O 0.1308(3) -0.3692(3) 0.1308(3) 0.0840 Uiso
O4V O 0.3692(3) -0.1308(3) -0.1308(3) 0.0840 Uiso
O4W O 0.3692(3) 0.1308(3) 0.1308(3) 0.0840 Uiso
loop_
_atom_site_aniso_label
_atom_site_aniso_U_11
_atom_site_aniso_U_22
_atom_site_aniso_U_33
_atom_site_aniso_U_23
_atom_site_aniso_U_13
_atom_site_aniso_U_12
Cu1 0.105(3) 0.101(5) 0.105(3) 0.000 -0.024(4) 0.000
Cu2 0.093(3) 0.086(4) 0.093(3) 0.000 -0.016(4) 0.000
Cu3 0.425(10) 0.400(14) 0.425(10) -0.106(10) -0.135(13) 0.106(10)
Cu1F 0.101 0.105 0.105 0.024 0 0
Cu2F 0.086 0.093 0.093 0.016 0 0
Cu3I 0.4 0.425 0.425 0.135 -0.106 -0.106
Cu3N 0.425 0.4 0.425 -0.106 -0.135 0.106
Cu1S 0.105 0.105 0.101 0 0 0.024
Cu2S 0.093 0.093 0.086 0 0 0.016
Cu3S 0.425 0.425 0.4 0.106 0.106 0.135
Cu3V 0.425 0.425 0.4 0.106 0.106 0.135
Cu3W 0.425 0.425 0.4 0.106 -0.106 -0.135
Cu1A 0.105 0.101 0.105 0 0.024 0
Cu1D 0.101 0.105 0.105 -0.024 0 0
Cu1P 0.105 0.105 0.101 0 0 -0.024
Cu2A 0.093 0.086 0.093 0 0.016 0
Cu2D 0.086 0.093 0.093 -0.016 0 0
Cu2P 0.093 0.093 0.086 0 0 -0.016
Cu3EA 0.4 0.425 0.425 -0.135 -0.106 0.106
Cu3IA 0.4 0.425 0.425 0.135 0.106 0.106
Cu3NA 0.425 0.425 0.4 0.106 -0.106 -0.135
Cu3YA 0.425 0.4 0.425 0.106 -0.135 -0.106
Cu3FB 0.4 0.425 0.425 -0.135 -0.106 0.106
Cu3HB 0.425 0.4 0.425 0.106 0.135 0.106
Cu3IB 0.425 0.4 0.425 0.106 -0.135 -0.106
Cu3KC 0.425 0.425 0.4 -0.106 -0.106 0.135
loop_
_geom_bond_atom_site_label_1
_geom_bond_atom_site_label_2
_geom_bond_site_symmetry_1
_geom_bond_site_symmetry_2
Cu1 O1 1_555 1_555
Cu2 O2 1_555 1_555
Cu3 N2 1_555 1_555
O1 C4 1_555 1_555
O2 C4 1_555 1_555
C1 C2 1_555 1_555
C2 H1 1_555 1_555
C3 C1 1_555 1_555
H2 C3 1_555 1_555
C4 C1 1_555 1_555
C5 H3 1_555 1_555
C6 C5 1_555 1_555
H4 C6 1_555 1_555
C7 C5 1_555 1_555
C8 C6 1_555 1_555
C9 C3 1_555 1_555
C10 C7 1_555 1_555
N1 C10 1_555 1_555
N2 N1 1_555 1_555
O3 Cu3 1_555 1_555
O4 Cu3 1_555 1_555
O5 Cu1 1_555 1_555
O6 Cu2 1_555 1_555
O1MD C4MD 1_555 1_555
O2MD C4MD 1_555 1_555
C1MD C2 1_555 1_555
C3MD C9 1_555 1_555
H2MD C3MD 1_555 1_555
C4MD C1MD 1_555 1_555
C5MD C7 1_555 1_555
H3MD C5MD 1_555 1_555
C6MD C8 1_555 1_555
H4MD C6MD 1_555 1_555
N1MD C10 1_555 1_555
N2MD N2 1_555 1_555
Cu1F O1I 1_555 1_555
Cu2F O2I 1_555 1_555
Cu3I N2I 1_555 1_555
O1I C4I 1_555 1_555
O2I C4I 1_555 1_555
C1I C2I 1_555 1_555
C2I H1I 1_555 1_555
C3I C1I 1_555 1_555
H2I C3I 1_555 1_555
C4I C1I 1_555 1_555
C5I H3I 1_555 1_555
C6I C5I 1_555 1_555
H4I C6I 1_555 1_555
C7I C5I 1_555 1_555
C8I C6I 1_555 1_555
C9I C3I 1_555 1_555
C10I C7I 1_555 1_555
N1I C10I 1_555 1_555
N2I N1I 1_555 1_555
O3I Cu3I 1_555 1_555
O4I Cu3I 1_555 1_555
O5F Cu1F 1_555 1_555
O6F Cu2F 1_555 1_555
O1ED Cu1 1_555 1_555
O2ED Cu2 1_555 1_555
C1ED C2I 1_555 1_555
C3ED C9I 1_555 1_555
H2ED C3ED 1_555 1_555
C4ED O1ED 1_555 1_555
C5ED C7I 1_555 1_555
H3ED C5ED 1_555 1_555
C6ED C8I 1_555 1_555
H4ED C6ED 1_555 1_555
N1ED C10I 1_555 1_555
N2ED N2I 1_555 1_555
Cu3N N2N 1_555 1_555
O1N Cu1 1_555 1_555
O2N Cu2 1_555 1_555
C1N C2N 1_555 1_555
C2N H1N 1_555 1_555
C3N C1N 1_555 1_555
H2N C3N 1_555 1_555
C4N O1N 1_555 1_555
C5N H3N 1_555 1_555
C6N C5N 1_555 1_555
H4N C6N 1_555 1_555
C7N C5N 1_555 1_555
C8N C6N 1_555 1_555
C9N C3N 1_555 1_555
C10N C7N 1_555 1_555
N1N C10N 1_555 1_555
N2N N1N 1_555 1_555
O3N Cu3N 1_555 1_555
O1BD C4BD 1_555 1_555
O2BD C4BD 1_555 1_555
C1BD C2N 1_555 1_555
C3BD C9N 1_555 1_555
H2BD C3BD 1_555 1_555
C4BD C1BD 1_555 1_555
C5BD C7N 1_555 1_555
H3BD C5BD 1_555 1_555
C6BD C8N 1_555 1_555
H4BD C6BD 1_555 1_555
N1BD C10N 1_555 1_555
N2BD N2N 1_555 1_555
Cu1S O1MD 1_555 1_555
Cu2S O2MD 1_555 1_555
Cu3S N2S 1_555 1_555
O1S Cu1S 1_555 1_555
O2S Cu2S 1_555 1_555
C1S C2S 1_555 1_555
C2S H1S 1_555 1_555
C3S C1S 1_555 1_555
H2S C3S 1_555 1_555
C4S O1S 1_555 1_555
C5S H3S 1_555 1_555
C6S C5S 1_555 1_555
H4S C6S 1_555 1_555
C7S C5S 1_555 1_555
C8S C6S 1_555 1_555
C9S C3S 1_555 1_555
C10S C7S 1_555 1_555
N1S C10S 1_555 1_555
N2S N1S 1_555 1_555
O3S Cu3S 1_555 1_555
O5S Cu1S 1_555 1_555
O6S Cu2S 1_555 1_555
O1WC Cu1F 1_555 1_555
O2WC Cu2F 1_555 1_555
C1WC C2S 1_555 1_555
C3WC C9S 1_555 1_555
H2WC C3WC 1_555 1_555
C4WC O1WC 1_555 1_555
C5WC C7S 1_555 1_555
H3WC C5WC 1_555 1_555
C6WC C8S 1_555 1_555
H4WC C6WC 1_555 1_555
N1WC C10S 1_555 1_555
N2WC N2S 1_555 1_555
Cu3V N2V 1_555 1_555
O1V Cu1S 1_555 1_555
O2V Cu2S 1_555 1_555
C1V C2V 1_555 1_555
C2V H1V 1_555 1_555
C3V C1V 1_555 1_555
H2V C3V 1_555 1_555
C4V O1V 1_555 1_555
C5V H3V 1_555 1_555
C6V C5V 1_555 1_555
H4V C6V 1_555 1_555
C7V C5V 1_555 1_555
C8V C6V 1_555 1_555
C9V C3V 1_555 1_555
C10V C7V 1_555 1_555
N1V C10V 1_555 1_555
N2V N1V 1_555 1_555
O3V Cu3V 1_555 1_555
O1TC C4TC 1_555 1_555
O2TC C4TC 1_555 1_555
C1TC C2V 1_555 1_555
C3TC C9V 1_555 1_555
H2TC C3TC 1_555 1_555
C4TC C1TC 1_555 1_555
C5TC C7V 1_555 1_555
H3TC C5TC 1_555 1_555
C6TC C8V 1_555 1_555
H4TC C6TC 1_555 1_555
N1TC C10V 1_555 1_555
N2TC N2V 1_555 1_555
Cu3W N2W 1_555 1_555
O1W C4W 1_555 1_555
O2W C4W 1_555 1_555
C1W C2W 1_555 1_555
C2W H1W 1_555 1_555
C3W C1W 1_555 1_555
H2W C3W 1_555 1_555
C4W C1W 1_555 1_555
C5W H3W 1_555 1_555
C6W C5W 1_555 1_555
H4W C6W 1_555 1_555
C7W C5W 1_555 1_555
C8W C6W 1_555 1_555
C9W C3W 1_555 1_555
C10W C7W 1_555 1_555
N1W C10W 1_555 1_555
N2W N1W 1_555 1_555
O3W Cu3W 1_555 1_555
O1UC Cu1 1_555 1_555
O2UC Cu2 1_555 1_555
C1UC C2W 1_555 1_555
C3UC C9W 1_555 1_555
H2UC C3UC 1_555 1_555
C4UC O1UC 1_555 1_555
C5UC C7W 1_555 1_555
H3UC C5UC 1_555 1_555
C6UC C8W 1_555 1_555
H4UC C6UC 1_555 1_555
N1UC C10W 1_555 1_555
N2UC N2W 1_555 1_555
Cu1A O1TC 1_555 1_555
Cu1D O1BD 1_555 1_555
Cu1P O1W 1_555 1_555
Cu2A O2TC 1_555 1_555
Cu2D O2BD 1_555 1_555
Cu2P O2W 1_555 1_555
Cu3EA N2BD 1_555 1_555
Cu3IA N2WC 1_555 1_555
Cu3NA O4I 1_555 1_555
Cu3YA O4I 1_555 1_555
Cu3FB O4 1_555 1_555
Cu3HB N2TC 1_555 1_555
Cu3IB N2UC 1_555 1_555
Cu3KC O4 1_555 1_555
O1F Cu1F 1_555 1_555
O1CD Cu1F 1_555 1_555
O1ID Cu1S 1_555 1_555
O2F Cu2F 1_555 1_555
O2CD Cu2F 1_555 1_555
O2ID Cu2S 1_555 1_555
N2VD Cu3I 1_555 1_555
N2NE Cu3N 1_555 1_555
N2BF Cu3 1_555 1_555
N2BG Cu3W 1_555 1_555
N2EG Cu3V 1_555 1_555
N2HG Cu3S 1_555 1_555
O4N Cu3N 1_555 1_555
O4S Cu3S 1_555 1_555
O4V Cu3V 1_555 1_555
O4W Cu3W 1_555 1_555
C8 C9 1_555 1_555
C1MD C3MD 1_555 1_555
C5MD C6MD 1_555 1_555
N1MD N2MD 1_555 1_555
N2MD Cu3KC 1_555 1_555
C8I C9I 1_555 1_555
O2ED C4ED 1_555 1_555
C1ED C3ED 1_555 1_555
C1ED C4ED 1_555 1_555
C5ED C6ED 1_555 1_555
N1ED N2ED 1_555 1_555
N2ED Cu3YA 1_555 1_555
O2N C4N 1_555 1_555
C1N C4N 1_555 1_555
C8N C9N 1_555 1_555
C1BD C3BD 1_555 1_555
C5BD C6BD 1_555 1_555
N1BD N2BD 1_555 1_555
O2S C4S 1_555 1_555
C1S C4S 1_555 1_555
C8S C9S 1_555 1_555
O2WC C4WC 1_555 1_555
C1WC C3WC 1_555 1_555
C1WC C4WC 1_555 1_555
C5WC C6WC 1_555 1_555
N1WC N2WC 1_555 1_555
O2V C4V 1_555 1_555
C1V C4V 1_555 1_555
C8V C9V 1_555 1_555
C1TC C3TC 1_555 1_555
C5TC C6TC 1_555 1_555
N1TC N2TC 1_555 1_555
C8W C9W 1_555 1_555
O2UC C4UC 1_555 1_555
C1UC C3UC 1_555 1_555
C1UC C4UC 1_555 1_555
C5UC C6UC 1_555 1_555
N1UC N2UC 1_555 1_555
Cu3EA O4N 1_555 1_555
Cu3IA O4S 1_555 1_555
Cu3HB O4V 1_555 1_555
Cu3IB O4W 1_555 1_555

#END
