
#######################################################################
#
#                 Cambridge Crystallographic Data Centre
#                                CCDC 
#
#######################################################################
#
# If this CIF has been generated from an entry in the Cambridge 
# Structural Database, then it will include bibliographic, chemical, 
# crystal, experimental, refinement or atomic coordinate data resulting 
# from the CCDC's data processing and validation procedures.
#
#######################################################################

data_ADASAB
_chemical_formula_moiety         
'(C196 H106 Cu22 N36 O74 1+)n,n(H2 O1),n(N1 O3 1-)'
_chemical_name_systematic        
"catena-(dodecakis(\m~6~-5'-(1H-tetrazol-5-yl)-1,1':3',1''-terphenyl-4,4''-dicarboxylato)-tetrakis(\m~3~-oxo)-hexatriaconta-aqua-tetracosa-copper nitrate monohydrate)"
_symmetry_cell_setting           cubic
_symmetry_space_group_name_H-M   'F m -3 m'
_symmetry_Int_Tables_number      225
_space_group_name_Hall           '-F 4 2 3'
loop_
_symmetry_equiv_pos_site_id
_symmetry_equiv_pos_as_xyz
1 x,y,z
2 -x,-y,z
3 -x,y,-z
4 x,-y,-z
5 z,x,y
6 z,-x,-y
7 -z,-x,y
8 -z,x,-y
9 y,z,x
10 -y,z,-x
11 y,-z,-x
12 -y,-z,x
13 y,x,-z
14 -y,-x,-z
15 y,-x,z
16 -y,x,z
17 x,z,-y
18 -x,z,y
19 -x,-z,-y
20 x,-z,y
21 z,y,-x
22 z,-y,x
23 -z,y,x
24 -z,-y,-x
25 x,1/2+y,1/2+z
26 -x,1/2-y,1/2+z
27 -x,1/2+y,1/2-z
28 x,1/2-y,1/2-z
29 z,1/2+x,1/2+y
30 z,1/2-x,1/2-y
31 -z,1/2-x,1/2+y
32 -z,1/2+x,1/2-y
33 y,1/2+z,1/2+x
34 -y,1/2+z,1/2-x
35 y,1/2-z,1/2-x
36 -y,1/2-z,1/2+x
37 y,1/2+x,1/2-z
38 -y,1/2-x,1/2-z
39 y,1/2-x,1/2+z
40 -y,1/2+x,1/2+z
41 x,1/2+z,1/2-y
42 -x,1/2+z,1/2+y
43 -x,1/2-z,1/2-y
44 x,1/2-z,1/2+y
45 z,1/2+y,1/2-x
46 z,1/2-y,1/2+x
47 -z,1/2+y,1/2+x
48 -z,1/2-y,1/2-x
49 1/2+x,y,1/2+z
50 1/2-x,-y,1/2+z
51 1/2-x,y,1/2-z
52 1/2+x,-y,1/2-z
53 1/2+z,x,1/2+y
54 1/2+z,-x,1/2-y
55 1/2-z,-x,1/2+y
56 1/2-z,x,1/2-y
57 1/2+y,z,1/2+x
58 1/2-y,z,1/2-x
59 1/2+y,-z,1/2-x
60 1/2-y,-z,1/2+x
61 1/2+y,x,1/2-z
62 1/2-y,-x,1/2-z
63 1/2+y,-x,1/2+z
64 1/2-y,x,1/2+z
65 1/2+x,z,1/2-y
66 1/2-x,z,1/2+y
67 1/2-x,-z,1/2-y
68 1/2+x,-z,1/2+y
69 1/2+z,y,1/2-x
70 1/2+z,-y,1/2+x
71 1/2-z,y,1/2+x
72 1/2-z,-y,1/2-x
73 1/2+x,1/2+y,z
74 1/2-x,1/2-y,z
75 1/2-x,1/2+y,-z
76 1/2+x,1/2-y,-z
77 1/2+z,1/2+x,y
78 1/2+z,1/2-x,-y
79 1/2-z,1/2-x,y
80 1/2-z,1/2+x,-y
81 1/2+y,1/2+z,x
82 1/2-y,1/2+z,-x
83 1/2+y,1/2-z,-x
84 1/2-y,1/2-z,x
85 1/2+y,1/2+x,-z
86 1/2-y,1/2-x,-z
87 1/2+y,1/2-x,z
88 1/2-y,1/2+x,z
89 1/2+x,1/2+z,-y
90 1/2-x,1/2+z,y
91 1/2-x,1/2-z,-y
92 1/2+x,1/2-z,y
93 1/2+z,1/2+y,-x
94 1/2+z,1/2-y,x
95 1/2-z,1/2+y,x
96 1/2-z,1/2-y,-x
97 -x,-y,-z
98 x,y,-z
99 x,-y,z
100 -x,y,z
101 -z,-x,-y
102 -z,x,y
103 z,x,-y
104 z,-x,y
105 -y,-z,-x
106 y,-z,x
107 -y,z,x
108 y,z,-x
109 -y,-x,z
110 y,x,z
111 -y,x,-z
112 y,-x,-z
113 -x,-z,y
114 x,-z,-y
115 x,z,y
116 -x,z,-y
117 -z,-y,x
118 -z,y,-x
119 z,-y,-x
120 z,y,x
121 -x,1/2-y,1/2-z
122 x,1/2+y,1/2-z
123 x,1/2-y,1/2+z
124 -x,1/2+y,1/2+z
125 -z,1/2-x,1/2-y
126 -z,1/2+x,1/2+y
127 z,1/2+x,1/2-y
128 z,1/2-x,1/2+y
129 -y,1/2-z,1/2-x
130 y,1/2-z,1/2+x
131 -y,1/2+z,1/2+x
132 y,1/2+z,1/2-x
133 -y,1/2-x,1/2+z
134 y,1/2+x,1/2+z
135 -y,1/2+x,1/2-z
136 y,1/2-x,1/2-z
137 -x,1/2-z,1/2+y
138 x,1/2-z,1/2-y
139 x,1/2+z,1/2+y
140 -x,1/2+z,1/2-y
141 -z,1/2-y,1/2+x
142 -z,1/2+y,1/2-x
143 z,1/2-y,1/2-x
144 z,1/2+y,1/2+x
145 1/2-x,-y,1/2-z
146 1/2+x,y,1/2-z
147 1/2+x,-y,1/2+z
148 1/2-x,y,1/2+z
149 1/2-z,-x,1/2-y
150 1/2-z,x,1/2+y
151 1/2+z,x,1/2-y
152 1/2+z,-x,1/2+y
153 1/2-y,-z,1/2-x
154 1/2+y,-z,1/2+x
155 1/2-y,z,1/2+x
156 1/2+y,z,1/2-x
157 1/2-y,-x,1/2+z
158 1/2+y,x,1/2+z
159 1/2-y,x,1/2-z
160 1/2+y,-x,1/2-z
161 1/2-x,-z,1/2+y
162 1/2+x,-z,1/2-y
163 1/2+x,z,1/2+y
164 1/2-x,z,1/2-y
165 1/2-z,-y,1/2+x
166 1/2-z,y,1/2-x
167 1/2+z,-y,1/2-x
168 1/2+z,y,1/2+x
169 1/2-x,1/2-y,-z
170 1/2+x,1/2+y,-z
171 1/2+x,1/2-y,z
172 1/2-x,1/2+y,z
173 1/2-z,1/2-x,-y
174 1/2-z,1/2+x,y
175 1/2+z,1/2+x,-y
176 1/2+z,1/2-x,y
177 1/2-y,1/2-z,-x
178 1/2+y,1/2-z,x
179 1/2-y,1/2+z,x
180 1/2+y,1/2+z,-x
181 1/2-y,1/2-x,z
182 1/2+y,1/2+x,z
183 1/2-y,1/2+x,-z
184 1/2+y,1/2-x,-z
185 1/2-x,1/2-z,y
186 1/2+x,1/2-z,-y
187 1/2+x,1/2+z,y
188 1/2-x,1/2+z,-y
189 1/2-z,1/2-y,x
190 1/2-z,1/2+y,-x
191 1/2+z,1/2-y,-x
192 1/2+z,1/2+y,x
_cell_length_a                   63.931(3)
_cell_length_b                   63.931(3)
_cell_length_c                   63.931(3)
_cell_angle_alpha                90
_cell_angle_beta                 90
_cell_angle_gamma                90
_cell_volume                     261297
_exptl_crystal_colour            green
_exptl_crystal_description       polyhedra
_cell_formula_units_Z            8
loop_
_atom_site_label
_atom_site_type_symbol
_atom_site_fract_x
_atom_site_fract_y
_atom_site_fract_z
_atom_site_U_iso_or_equiv
_atom_site_thermal_displace_type
O3 O 0.6657(3) 0.6371(4) -0.1657(3) 0.3580 Uiso
Cu1 Cu 0.83233(5) 0.5000 -0.16767(5) 0.0970 Uani
Cu2 Cu 0.80284(5) 0.5000 -0.19716(5) 0.0843 Uani
Cu3 Cu 0.64556(7) 0.60793(9) -0.14556(7) 0.2023 Uani
O1 O 0.6289(3) 0.6289(3) -0.1289(3) 0.1780 Uiso
O2 O 0.6600(2) 0.5862(3) -0.1600(2) 0.2240 Uiso
O4 O 0.7796(2) 0.5000 -0.2204(2) 0.1290 Uiso
O5 O 0.6290(3) 0.5867(5) -0.1290(3) 0.3110 Uiso
O6 O 0.8569(2) 0.5000 -0.1431(2) 0.1030 Uiso
O7 O 0.81458(18) 0.52287(17) -0.15367(16) 0.1120 Uiso
O8 O 0.78944(16) 0.52125(16) -0.18039(17) 0.1030 Uiso
C1 C 0.7977(2) 0.5275(2) -0.1636(2) 0.0580 Uiso
C2 C 0.7855(3) 0.5437(2) -0.1502(3) 0.1120 Uiso
C3 C 0.7929(2) 0.5478(2) -0.1306(2) 0.1090 Uiso
H1 H 0.8052 0.5410 -0.1258 0.1310 Uiso
C4 C 0.7828(3) 0.5610(2) -0.1183(3) 0.1270 Uiso
H2 H 0.7882 0.5637 -0.1047 0.1520 Uiso
C5 C 0.7650(3) 0.5711(3) -0.1245(3) 0.1470 Uiso
C6 C 0.7584(3) 0.5660(2) -0.1457(3) 0.1550 Uiso
H3 H 0.7463 0.5726 -0.1511 0.1860 Uiso
C7 C 0.7692(3) 0.5514(2) -0.1589(3) 0.1460 Uiso
H4 H 0.7647 0.5479 -0.1726 0.1750 Uiso
C8 C 0.7615(4) 0.59756(17) -0.09756(17) 0.1360 Uiso
H5 H 0.7759 0.5951 -0.0951 0.1640 Uiso
C9 C 0.7503(3) 0.5865(3) -0.1126(3) 0.1230 Uiso
C10 C 0.7293(3) 0.5897(3) -0.1167(3) 0.1620 Uiso
H6 H 0.7220 0.5818 -0.1270 0.1940 Uiso
C11 C 0.7194(4) 0.60497(19) -0.10497(19) 0.1820 Uiso
C12 C 0.6992(7) 0.6098(3) -0.1098(3) 0.2080 Uiso
N1 N 0.6860(3) 0.6004(2) -0.1247(2) 0.1830 Uiso
N2 N 0.6661(3) 0.6091(2) -0.1244(2) 0.2240 Uiso
Cu1CA Cu 0.83233(5) 0.66767(5) 0.0000 0.0970 Uani
Cu1BC Cu 1.0000 0.33233(5) -0.16767(5) 0.0970 Uani
Cu1BA Cu 0.83233(5) 0.33233(5) 0.0000 0.0970 Uani
Cu1EC Cu 1.0000 0.66767(5) -0.16767(5) 0.0970 Uani
Cu1XA Cu 0.66767(5) 0.5000 -0.33233(5) 0.0970 Uani
Cu1HA Cu 0.5000 0.66767(5) -0.33233(5) 0.0970 Uani
Cu1DC Cu 1.0000 0.66767(5) 0.16767(5) 0.0970 Uani
Cu1C Cu 0.83233(5) 0.5000 0.16767(5) 0.0970 Uani
Cu1EA Cu 1.16767(5) 0.33233(5) 0.0000 0.0970 Uani
Cu1A Cu 1.16767(5) 0.5000 -0.16767(5) 0.0970 Uani
Cu1CC Cu 1.0000 0.33233(5) 0.16767(5) 0.0970 Uani
Cu2CA Cu 0.80284(5) 0.69716(5) 0.0000 0.0843 Uani
Cu2BC Cu 1.0000 0.30284(5) -0.19716(5) 0.0843 Uani
Cu2BA Cu 0.80284(5) 0.30284(5) 0.0000 0.0843 Uani
Cu2EC Cu 1.0000 0.69716(5) -0.19716(5) 0.0843 Uani
Cu2XA Cu 0.69716(5) 0.5000 -0.30284(5) 0.0843 Uani
Cu2HA Cu 0.5000 0.69716(5) -0.30284(5) 0.0843 Uani
Cu2DC Cu 1.0000 0.69716(5) 0.19716(5) 0.0843 Uani
Cu2C Cu 0.80284(5) 0.5000 0.19716(5) 0.0843 Uani
Cu2EA Cu 1.19716(5) 0.30284(5) 0.0000 0.0843 Uani
Cu2A Cu 1.19716(5) 0.5000 -0.19716(5) 0.0843 Uani
Cu2CC Cu 1.0000 0.30284(5) 0.19716(5) 0.0843 Uani
Cu3CB Cu 0.64556(7) 0.64556(7) -0.10793(9) 0.2023 Uani
Cu3U Cu 0.85444(7) 0.39207(9) -0.35444(7) 0.2023 Uani
Cu3IB Cu 0.89207(9) 0.35444(7) -0.35444(7) 0.2023 Uani
Cu3SB Cu 0.64556(7) 0.39207(9) -0.14556(7) 0.2023 Uani
Cu3NA Cu 0.64556(7) 0.35444(7) -0.10793(9) 0.2023 Uani
Cu3XA Cu 0.85444(7) 0.60793(9) -0.35444(7) 0.2023 Uani
Cu3EC Cu 0.89207(9) 0.64556(7) -0.35444(7) 0.2023 Uani
Cu3HA Cu 0.60793(9) 0.64556(7) -0.14556(7) 0.2023 Uani
Cu3MB Cu 0.85444(7) 0.85444(7) 0.10793(9) 0.2023 Uani
Cu3GC Cu 0.89207(9) 0.85444(7) 0.14556(7) 0.2023 Uani
Cu3QA Cu 0.64556(7) 0.64556(7) 0.10793(9) 0.2023 Uani
Cu3RB Cu 0.64556(7) 0.60793(9) 0.14556(7) 0.2023 Uani
Cu3CA Cu 0.85444(7) 0.85444(7) -0.10793(9) 0.2023 Uani
Cu3EB Cu 0.89207(9) 0.85444(7) -0.14556(7) 0.2023 Uani
Cu3FB Cu 1.10793(9) 0.14556(7) -0.14556(7) 0.2023 Uani
Cu3EA Cu 1.14556(7) 0.14556(7) -0.10793(9) 0.2023 Uani
Cu3BC Cu 1.10793(9) 0.35444(7) -0.35444(7) 0.2023 Uani
Cu3YA Cu 1.14556(7) 0.39207(9) -0.35444(7) 0.2023 Uani
Cu3IC Cu 0.89207(9) 0.14556(7) -0.14556(7) 0.2023 Uani
Cu3NB Cu 0.85444(7) 0.14556(7) -0.10793(9) 0.2023 Uani
Cu3BA Cu 0.85444(7) 0.14556(7) 0.10793(9) 0.2023 Uani
Cu3GB Cu 0.89207(9) 0.14556(7) 0.14556(7) 0.2023 Uani
Cu3KC Cu 0.85444(7) 0.35444(7) -0.39207(9) 0.2023 Uani
Cu3N Cu 0.60793(9) 0.35444(7) -0.14556(7) 0.2023 Uani
Cu3D Cu 0.85444(7) 0.64556(7) -0.39207(9) 0.2023 Uani
O1U O 0.8711(3) 0.3711(3) -0.3711(3) 0.1780 Uiso
O1N O 0.6289(3) 0.3711(3) -0.1289(3) 0.1780 Uiso
O1D O 0.8711(3) 0.6289(3) -0.3711(3) 0.1780 Uiso
O1SA O 0.8711(3) 0.8711(3) 0.1289(3) 0.1780 Uiso
O1L O 0.6289(3) 0.6289(3) 0.1289(3) 0.1780 Uiso
O2CB O 0.6600(2) 0.6600(2) -0.0862(3) 0.2240 Uiso
O2U O 0.8400(2) 0.4138(3) -0.3400(2) 0.2240 Uiso
O2IB O 0.9138(3) 0.3400(2) -0.3400(2) 0.2240 Uiso
O2SB O 0.6600(2) 0.4138(3) -0.1600(2) 0.2240 Uiso
O2NA O 0.6600(2) 0.3400(2) -0.0862(3) 0.2240 Uiso
O2XA O 0.8400(2) 0.5862(3) -0.3400(2) 0.2240 Uiso
O2EC O 0.9138(3) 0.6600(2) -0.3400(2) 0.2240 Uiso
O2HA O 0.5862(3) 0.6600(2) -0.1600(2) 0.2240 Uiso
O2MB O 0.8400(2) 0.8400(2) 0.0862(3) 0.2240 Uiso
O2GC O 0.9138(3) 0.8400(2) 0.1600(2) 0.2240 Uiso
O2QA O 0.6600(2) 0.6600(2) 0.0862(3) 0.2240 Uiso
O4CA O 0.7796(2) 0.7204(2) 0.0000 0.1290 Uiso
O4BC O 1.0000 0.2796(2) -0.2204(2) 0.1290 Uiso
O4BA O 0.7796(2) 0.2796(2) 0.0000 0.1290 Uiso
O4EC O 1.0000 0.7204(2) -0.2204(2) 0.1290 Uiso
O4XA O 0.7204(2) 0.5000 -0.2796(2) 0.1290 Uiso
O5CB O 0.6290(3) 0.6290(3) -0.0867(5) 0.3110 Uiso
O5U O 0.8710(3) 0.4133(5) -0.3710(3) 0.3110 Uiso
O5IB O 0.9133(5) 0.3710(3) -0.3710(3) 0.3110 Uiso
O5SB O 0.6290(3) 0.4133(5) -0.1290(3) 0.3110 Uiso
O5NA O 0.6290(3) 0.3710(3) -0.0867(5) 0.3110 Uiso
O5XA O 0.8710(3) 0.5867(5) -0.3710(3) 0.3110 Uiso
O5EC O 0.9133(5) 0.6290(3) -0.3710(3) 0.3110 Uiso
O5HA O 0.5867(5) 0.6290(3) -0.1290(3) 0.3110 Uiso
O5MB O 0.8710(3) 0.8710(3) 0.0867(5) 0.3110 Uiso
O5GC O 0.9133(5) 0.8710(3) 0.1290(3) 0.3110 Uiso
O5QA O 0.6290(3) 0.6290(3) 0.0867(5) 0.3110 Uiso
O6CA O 0.8569(2) 0.6431(2) 0.0000 0.1030 Uiso
O6BC O 1.0000 0.3569(2) -0.1431(2) 0.1030 Uiso
O6BA O 0.8569(2) 0.3569(2) 0.0000 0.1030 Uiso
O6EC O 1.0000 0.6431(2) -0.1431(2) 0.1030 Uiso
O6XA O 0.6431(2) 0.5000 -0.3569(2) 0.1030 Uiso
O7GE O 0.81458(18) 0.65367(16) -0.02287(17) 0.1120 Uiso
O7U O 0.84633(16) 0.47713(17) -0.18542(18) 0.1120 Uiso
O7VF O 0.97713(17) 0.34633(16) -0.18542(18) 0.1120 Uiso
O7TC O 0.81458(18) 0.47713(17) -0.15367(16) 0.1120 Uiso
O7NA O 0.81458(18) 0.34633(16) -0.02287(17) 0.1120 Uiso
O7OD O 0.84633(16) 0.52287(17) -0.18542(18) 0.1120 Uiso
O7EC O 0.97713(17) 0.65367(16) -0.18542(18) 0.1120 Uiso
O7IF O 0.65367(16) 0.52287(17) -0.31458(18) 0.1120 Uiso
O7HA O 0.52287(17) 0.65367(16) -0.31458(18) 0.1120 Uiso
O7WD O 0.84633(16) 0.68542(18) 0.02287(17) 0.1120 Uiso
O7GC O 0.97713(17) 0.68542(18) 0.15367(16) 0.1120 Uiso
O7QA O 0.81458(18) 0.65367(16) 0.02287(17) 0.1120 Uiso
O7SC O 0.81458(18) 0.52287(17) 0.15367(16) 0.1120 Uiso
O7CA O 0.84633(16) 0.68542(18) -0.02287(17) 0.1120 Uiso
O7XF O 0.97713(17) 0.68542(18) -0.15367(16) 0.1120 Uiso
O7YF O 1.02287(17) 0.31458(18) -0.15367(16) 0.1120 Uiso
O7EA O 1.15367(16) 0.31458(18) -0.02287(17) 0.1120 Uiso
O7BC O 1.02287(17) 0.34633(16) -0.18542(18) 0.1120 Uiso
O7LD O 1.15367(16) 0.47713(17) -0.18542(18) 0.1120 Uiso
O7IC O 0.97713(17) 0.31458(18) -0.15367(16) 0.1120 Uiso
O7VD O 0.84633(16) 0.31458(18) -0.02287(17) 0.1120 Uiso
O7BA O 0.84633(16) 0.31458(18) 0.02287(17) 0.1120 Uiso
O7ZF O 0.97713(17) 0.31458(18) 0.15367(16) 0.1120 Uiso
O7HE O 0.81458(18) 0.34633(16) 0.02287(17) 0.1120 Uiso
O7HC O 1.02287(17) 0.68542(18) -0.15367(16) 0.1120 Uiso
O7UF O 1.02287(17) 0.65367(16) -0.18542(18) 0.1120 Uiso
O7NE O 0.68542(18) 0.47713(17) -0.34633(16) 0.1120 Uiso
O7SB O 0.65367(16) 0.47713(17) -0.31458(18) 0.1120 Uiso
O7XA O 0.68542(18) 0.52287(17) -0.34633(16) 0.1120 Uiso
O8GE O 0.78944(16) 0.68039(17) -0.02125(16) 0.1030 Uiso
O8U O 0.81961(17) 0.47875(16) -0.21056(16) 0.1030 Uiso
O8VF O 0.97875(16) 0.31961(17) -0.21056(16) 0.1030 Uiso
O8TC O 0.78944(16) 0.47875(16) -0.18039(17) 0.1030 Uiso
O8NA O 0.78944(16) 0.31961(17) -0.02125(16) 0.1030 Uiso
O8OD O 0.81961(17) 0.52125(16) -0.21056(16) 0.1030 Uiso
O8EC O 0.97875(16) 0.68039(17) -0.21056(16) 0.1030 Uiso
O8IF O 0.68039(17) 0.52125(16) -0.28944(16) 0.1030 Uiso
O8HA O 0.52125(16) 0.68039(17) -0.28944(16) 0.1030 Uiso
O8WD O 0.81961(17) 0.71056(16) 0.02125(16) 0.1030 Uiso
O8GC O 0.97875(16) 0.71056(16) 0.18039(17) 0.1030 Uiso
O8QA O 0.78944(16) 0.68039(17) 0.02125(16) 0.1030 Uiso
O8SC O 0.78944(16) 0.52125(16) 0.18039(17) 0.1030 Uiso
O8CA O 0.81961(17) 0.71056(16) -0.02125(16) 0.1030 Uiso
O8XF O 0.97875(16) 0.71056(16) -0.18039(17) 0.1030 Uiso
O8YF O 1.02125(16) 0.28944(16) -0.18039(17) 0.1030 Uiso
O8EA O 1.18039(17) 0.28944(16) -0.02125(16) 0.1030 Uiso
O8BC O 1.02125(16) 0.31961(17) -0.21056(16) 0.1030 Uiso
O8LD O 1.18039(17) 0.47875(16) -0.21056(16) 0.1030 Uiso
O8IC O 0.97875(16) 0.28944(16) -0.18039(17) 0.1030 Uiso
O8VD O 0.81961(17) 0.28944(16) -0.02125(16) 0.1030 Uiso
O8BA O 0.81961(17) 0.28944(16) 0.02125(16) 0.1030 Uiso
O8ZF O 0.97875(16) 0.28944(16) 0.18039(17) 0.1030 Uiso
O8HE O 0.78944(16) 0.31961(17) 0.02125(16) 0.1030 Uiso
O8HC O 1.02125(16) 0.71056(16) -0.18039(17) 0.1030 Uiso
O8UF O 1.02125(16) 0.68039(17) -0.21056(16) 0.1030 Uiso
O8NE O 0.71056(16) 0.47875(16) -0.31961(17) 0.1030 Uiso
O8SB O 0.68039(17) 0.47875(16) -0.28944(16) 0.1030 Uiso
O8XA O 0.71056(16) 0.52125(16) -0.31961(17) 0.1030 Uiso
C1GE C 0.7977(2) 0.6636(2) -0.0275(2) 0.0580 Uiso
C1U C 0.8364(2) 0.4725(2) -0.2023(2) 0.0580 Uiso
C1VF C 0.9725(2) 0.3364(2) -0.2023(2) 0.0580 Uiso
C1TC C 0.7977(2) 0.4725(2) -0.1636(2) 0.0580 Uiso
C1NA C 0.7977(2) 0.3364(2) -0.0275(2) 0.0580 Uiso
C1OD C 0.8364(2) 0.5275(2) -0.2023(2) 0.0580 Uiso
C1EC C 0.9725(2) 0.6636(2) -0.2023(2) 0.0580 Uiso
C1IF C 0.6636(2) 0.5275(2) -0.2977(2) 0.0580 Uiso
C1HA C 0.5275(2) 0.6636(2) -0.2977(2) 0.0580 Uiso
C1WD C 0.8364(2) 0.7023(2) 0.0275(2) 0.0580 Uiso
C1GC C 0.9725(2) 0.7023(2) 0.1636(2) 0.0580 Uiso
C1QA C 0.7977(2) 0.6636(2) 0.0275(2) 0.0580 Uiso
C1SC C 0.7977(2) 0.5275(2) 0.1636(2) 0.0580 Uiso
C1CA C 0.8364(2) 0.7023(2) -0.0275(2) 0.0580 Uiso
C1XF C 0.9725(2) 0.7023(2) -0.1636(2) 0.0580 Uiso
C1YF C 1.0275(2) 0.2977(2) -0.1636(2) 0.0580 Uiso
C1EA C 1.1636(2) 0.2977(2) -0.0275(2) 0.0580 Uiso
C1BC C 1.0275(2) 0.3364(2) -0.2023(2) 0.0580 Uiso
C1LD C 1.1636(2) 0.4725(2) -0.2023(2) 0.0580 Uiso
C1IC C 0.9725(2) 0.2977(2) -0.1636(2) 0.0580 Uiso
C1VD C 0.8364(2) 0.2977(2) -0.0275(2) 0.0580 Uiso
C1BA C 0.8364(2) 0.2977(2) 0.0275(2) 0.0580 Uiso
C1ZF C 0.9725(2) 0.2977(2) 0.1636(2) 0.0580 Uiso
C2GE C 0.7855(3) 0.6502(3) -0.0437(2) 0.1120 Uiso
C2U C 0.8498(3) 0.4563(2) -0.2145(3) 0.1120 Uiso
C2VF C 0.9563(2) 0.3498(3) -0.2145(3) 0.1120 Uiso
C2TC C 0.7855(3) 0.4563(2) -0.1502(3) 0.1120 Uiso
C2NA C 0.7855(3) 0.3498(3) -0.0437(2) 0.1120 Uiso
C2OD C 0.8498(3) 0.5437(2) -0.2145(3) 0.1120 Uiso
C2EC C 0.9563(2) 0.6502(3) -0.2145(3) 0.1120 Uiso
C2IF C 0.6502(3) 0.5437(2) -0.2855(3) 0.1120 Uiso
C2HA C 0.5437(2) 0.6502(3) -0.2855(3) 0.1120 Uiso
C2WD C 0.8498(3) 0.7145(3) 0.0437(2) 0.1120 Uiso
C2GC C 0.9563(2) 0.7145(3) 0.1502(3) 0.1120 Uiso
C2QA C 0.7855(3) 0.6502(3) 0.0437(2) 0.1120 Uiso
C2SC C 0.7855(3) 0.5437(2) 0.1502(3) 0.1120 Uiso
C2CA C 0.8498(3) 0.7145(3) -0.0437(2) 0.1120 Uiso
C2XF C 0.9563(2) 0.7145(3) -0.1502(3) 0.1120 Uiso
C2YF C 1.0437(2) 0.2855(3) -0.1502(3) 0.1120 Uiso
C2EA C 1.1502(3) 0.2855(3) -0.0437(2) 0.1120 Uiso
C2BC C 1.0437(2) 0.3498(3) -0.2145(3) 0.1120 Uiso
C2LD C 1.1502(3) 0.4563(2) -0.2145(3) 0.1120 Uiso
C2IC C 0.9563(2) 0.2855(3) -0.1502(3) 0.1120 Uiso
C2VD C 0.8498(3) 0.2855(3) -0.0437(2) 0.1120 Uiso
C2BA C 0.8498(3) 0.2855(3) 0.0437(2) 0.1120 Uiso
C2ZF C 0.9563(2) 0.2855(3) 0.1502(3) 0.1120 Uiso
C3GE C 0.7929(2) 0.6306(2) -0.0478(2) 0.1090 Uiso
C3U C 0.8694(2) 0.4522(2) -0.2071(2) 0.1090 Uiso
C3VF C 0.9522(2) 0.3694(2) -0.2071(2) 0.1090 Uiso
C3TC C 0.7929(2) 0.4522(2) -0.1306(2) 0.1090 Uiso
C3NA C 0.7929(2) 0.3694(2) -0.0478(2) 0.1090 Uiso
C3OD C 0.8694(2) 0.5478(2) -0.2071(2) 0.1090 Uiso
C3EC C 0.9522(2) 0.6306(2) -0.2071(2) 0.1090 Uiso
C3IF C 0.6306(2) 0.5478(2) -0.2929(2) 0.1090 Uiso
C3HA C 0.5478(2) 0.6306(2) -0.2929(2) 0.1090 Uiso
C3WD C 0.8694(2) 0.7071(2) 0.0478(2) 0.1090 Uiso
C3GC C 0.9522(2) 0.7071(2) 0.1306(2) 0.1090 Uiso
C3QA C 0.7929(2) 0.6306(2) 0.0478(2) 0.1090 Uiso
C3SC C 0.7929(2) 0.5478(2) 0.1306(2) 0.1090 Uiso
C3CA C 0.8694(2) 0.7071(2) -0.0478(2) 0.1090 Uiso
C3XF C 0.9522(2) 0.7071(2) -0.1306(2) 0.1090 Uiso
C3YF C 1.0478(2) 0.2929(2) -0.1306(2) 0.1090 Uiso
C3EA C 1.1306(2) 0.2929(2) -0.0478(2) 0.1090 Uiso
C3BC C 1.0478(2) 0.3694(2) -0.2071(2) 0.1090 Uiso
C3LD C 1.1306(2) 0.4522(2) -0.2071(2) 0.1090 Uiso
C3IC C 0.9522(2) 0.2929(2) -0.1306(2) 0.1090 Uiso
C3VD C 0.8694(2) 0.2929(2) -0.0478(2) 0.1090 Uiso
C3BA C 0.8694(2) 0.2929(2) 0.0478(2) 0.1090 Uiso
C3ZF C 0.9522(2) 0.2929(2) 0.1306(2) 0.1090 Uiso
H1GE H 0.8052 0.6258 -0.0410 0.1310 Uiso
H1U H 0.8742 0.4590 -0.1948 0.1310 Uiso
H1VF H 0.9590 0.3742 -0.1948 0.1310 Uiso
H1TC H 0.8052 0.4590 -0.1258 0.1310 Uiso
H1NA H 0.8052 0.3742 -0.0410 0.1310 Uiso
H1OD H 0.8742 0.5410 -0.1948 0.1310 Uiso
H1EC H 0.9590 0.6258 -0.1948 0.1310 Uiso
H1IF H 0.6258 0.5410 -0.3052 0.1310 Uiso
H1HA H 0.5410 0.6258 -0.3052 0.1310 Uiso
H1WD H 0.8742 0.6948 0.0410 0.1310 Uiso
H1GC H 0.9590 0.6948 0.1258 0.1310 Uiso
H1QA H 0.8052 0.6258 0.0410 0.1310 Uiso
H1SC H 0.8052 0.5410 0.1258 0.1310 Uiso
H1CA H 0.8742 0.6948 -0.0410 0.1310 Uiso
H1XF H 0.9590 0.6948 -0.1258 0.1310 Uiso
H1YF H 1.0410 0.3052 -0.1258 0.1310 Uiso
H1EA H 1.1258 0.3052 -0.0410 0.1310 Uiso
H1BC H 1.0410 0.3742 -0.1948 0.1310 Uiso
H1LD H 1.1258 0.4590 -0.1948 0.1310 Uiso
H1IC H 0.9590 0.3052 -0.1258 0.1310 Uiso
H1VD H 0.8742 0.3052 -0.0410 0.1310 Uiso
H1BA H 0.8742 0.3052 0.0410 0.1310 Uiso
H1ZF H 0.9590 0.3052 0.1258 0.1310 Uiso
C4GE C 0.7828(3) 0.6183(3) -0.0610(2) 0.1270 Uiso
C4U C 0.8817(3) 0.4390(2) -0.2172(3) 0.1270 Uiso
C4VF C 0.9390(2) 0.3817(3) -0.2172(3) 0.1270 Uiso
C4TC C 0.7828(3) 0.4390(2) -0.1183(3) 0.1270 Uiso
C4NA C 0.7828(3) 0.3817(3) -0.0610(2) 0.1270 Uiso
C4OD C 0.8817(3) 0.5610(2) -0.2172(3) 0.1270 Uiso
C4EC C 0.9390(2) 0.6183(3) -0.2172(3) 0.1270 Uiso
C4IF C 0.6183(3) 0.5610(2) -0.2828(3) 0.1270 Uiso
C4HA C 0.5610(2) 0.6183(3) -0.2828(3) 0.1270 Uiso
C4WD C 0.8817(3) 0.7172(3) 0.0610(2) 0.1270 Uiso
C4GC C 0.9390(2) 0.7172(3) 0.1183(3) 0.1270 Uiso
C4QA C 0.7828(3) 0.6183(3) 0.0610(2) 0.1270 Uiso
C4SC C 0.7828(3) 0.5610(2) 0.1183(3) 0.1270 Uiso
C4CA C 0.8817(3) 0.7172(3) -0.0610(2) 0.1270 Uiso
C4XF C 0.9390(2) 0.7172(3) -0.1183(3) 0.1270 Uiso
C4YF C 1.0610(2) 0.2828(3) -0.1183(3) 0.1270 Uiso
C4EA C 1.1183(3) 0.2828(3) -0.0610(2) 0.1270 Uiso
C4BC C 1.0610(2) 0.3817(3) -0.2172(3) 0.1270 Uiso
C4LD C 1.1183(3) 0.4390(2) -0.2172(3) 0.1270 Uiso
C4IC C 0.9390(2) 0.2828(3) -0.1183(3) 0.1270 Uiso
C4VD C 0.8817(3) 0.2828(3) -0.0610(2) 0.1270 Uiso
C4BA C 0.8817(3) 0.2828(3) 0.0610(2) 0.1270 Uiso
C4ZF C 0.9390(2) 0.2828(3) 0.1183(3) 0.1270 Uiso
H2GE H 0.7882 0.6047 -0.0637 0.1520 Uiso
H2U H 0.8953 0.4363 -0.2118 0.1520 Uiso
H2VF H 0.9363 0.3953 -0.2118 0.1520 Uiso
H2TC H 0.7882 0.4363 -0.1047 0.1520 Uiso
H2NA H 0.7882 0.3953 -0.0637 0.1520 Uiso
H2OD H 0.8953 0.5637 -0.2118 0.1520 Uiso
H2EC H 0.9363 0.6047 -0.2118 0.1520 Uiso
H2IF H 0.6047 0.5637 -0.2882 0.1520 Uiso
H2HA H 0.5637 0.6047 -0.2882 0.1520 Uiso
H2WD H 0.8953 0.7118 0.0637 0.1520 Uiso
H2GC H 0.9363 0.7118 0.1047 0.1520 Uiso
H2QA H 0.7882 0.6047 0.0637 0.1520 Uiso
H2SC H 0.7882 0.5637 0.1047 0.1520 Uiso
H2CA H 0.8953 0.7118 -0.0637 0.1520 Uiso
H2XF H 0.9363 0.7118 -0.1047 0.1520 Uiso
H2YF H 1.0637 0.2882 -0.1047 0.1520 Uiso
H2EA H 1.1047 0.2882 -0.0637 0.1520 Uiso
H2BC H 1.0637 0.3953 -0.2118 0.1520 Uiso
H2LD H 1.1047 0.4363 -0.2118 0.1520 Uiso
H2IC H 0.9363 0.2882 -0.1047 0.1520 Uiso
H2VD H 0.8953 0.2882 -0.0637 0.1520 Uiso
H2BA H 0.8953 0.2882 0.0637 0.1520 Uiso
H2ZF H 0.9363 0.2882 0.1047 0.1520 Uiso
C5GE C 0.7650(3) 0.6245(3) -0.0711(3) 0.1470 Uiso
C5U C 0.8755(3) 0.4289(3) -0.2350(3) 0.1470 Uiso
C5VF C 0.9289(3) 0.3755(3) -0.2350(3) 0.1470 Uiso
C5TC C 0.7650(3) 0.4289(3) -0.1245(3) 0.1470 Uiso
C5NA C 0.7650(3) 0.3755(3) -0.0711(3) 0.1470 Uiso
C5OD C 0.8755(3) 0.5711(3) -0.2350(3) 0.1470 Uiso
C5EC C 0.9289(3) 0.6245(3) -0.2350(3) 0.1470 Uiso
C5IF C 0.6245(3) 0.5711(3) -0.2650(3) 0.1470 Uiso
C5HA C 0.5711(3) 0.6245(3) -0.2650(3) 0.1470 Uiso
C5WD C 0.8755(3) 0.7350(3) 0.0711(3) 0.1470 Uiso
C5GC C 0.9289(3) 0.7350(3) 0.1245(3) 0.1470 Uiso
C5QA C 0.7650(3) 0.6245(3) 0.0711(3) 0.1470 Uiso
C5SC C 0.7650(3) 0.5711(3) 0.1245(3) 0.1470 Uiso
C5CA C 0.8755(3) 0.7350(3) -0.0711(3) 0.1470 Uiso
C5XF C 0.9289(3) 0.7350(3) -0.1245(3) 0.1470 Uiso
C5YF C 1.0711(3) 0.2650(3) -0.1245(3) 0.1470 Uiso
C5EA C 1.1245(3) 0.2650(3) -0.0711(3) 0.1470 Uiso
C5BC C 1.0711(3) 0.3755(3) -0.2350(3) 0.1470 Uiso
C5LD C 1.1245(3) 0.4289(3) -0.2350(3) 0.1470 Uiso
C5IC C 0.9289(3) 0.2650(3) -0.1245(3) 0.1470 Uiso
C5VD C 0.8755(3) 0.2650(3) -0.0711(3) 0.1470 Uiso
C5BA C 0.8755(3) 0.2650(3) 0.0711(3) 0.1470 Uiso
C5ZF C 0.9289(3) 0.2650(3) 0.1245(3) 0.1470 Uiso
C6GE C 0.7584(3) 0.6457(3) -0.0660(2) 0.1550 Uiso
C6U C 0.8543(3) 0.4340(2) -0.2416(3) 0.1550 Uiso
C6VF C 0.9340(2) 0.3543(3) -0.2416(3) 0.1550 Uiso
C6TC C 0.7584(3) 0.4340(2) -0.1457(3) 0.1550 Uiso
C6NA C 0.7584(3) 0.3543(3) -0.0660(2) 0.1550 Uiso
C6OD C 0.8543(3) 0.5660(2) -0.2416(3) 0.1550 Uiso
C6EC C 0.9340(2) 0.6457(3) -0.2416(3) 0.1550 Uiso
C6IF C 0.6457(3) 0.5660(2) -0.2584(3) 0.1550 Uiso
C6HA C 0.5660(2) 0.6457(3) -0.2584(3) 0.1550 Uiso
C6WD C 0.8543(3) 0.7416(3) 0.0660(2) 0.1550 Uiso
C6GC C 0.9340(2) 0.7416(3) 0.1457(3) 0.1550 Uiso
C6QA C 0.7584(3) 0.6457(3) 0.0660(2) 0.1550 Uiso
C6SC C 0.7584(3) 0.5660(2) 0.1457(3) 0.1550 Uiso
C6CA C 0.8543(3) 0.7416(3) -0.0660(2) 0.1550 Uiso
C6XF C 0.9340(2) 0.7416(3) -0.1457(3) 0.1550 Uiso
C6YF C 1.0660(2) 0.2584(3) -0.1457(3) 0.1550 Uiso
C6EA C 1.1457(3) 0.2584(3) -0.0660(2) 0.1550 Uiso
C6BC C 1.0660(2) 0.3543(3) -0.2416(3) 0.1550 Uiso
C6LD C 1.1457(3) 0.4340(2) -0.2416(3) 0.1550 Uiso
C6IC C 0.9340(2) 0.2584(3) -0.1457(3) 0.1550 Uiso
C6VD C 0.8543(3) 0.2584(3) -0.0660(2) 0.1550 Uiso
C6BA C 0.8543(3) 0.2584(3) 0.0660(2) 0.1550 Uiso
C6ZF C 0.9340(2) 0.2584(3) 0.1457(3) 0.1550 Uiso
H3GE H 0.7463 0.6511 -0.0726 0.1860 Uiso
H3U H 0.8489 0.4274 -0.2537 0.1860 Uiso
H3VF H 0.9274 0.3489 -0.2537 0.1860 Uiso
H3TC H 0.7463 0.4274 -0.1511 0.1860 Uiso
H3NA H 0.7463 0.3489 -0.0726 0.1860 Uiso
H3OD H 0.8489 0.5726 -0.2537 0.1860 Uiso
H3EC H 0.9274 0.6511 -0.2537 0.1860 Uiso
H3IF H 0.6511 0.5726 -0.2463 0.1860 Uiso
H3HA H 0.5726 0.6511 -0.2463 0.1860 Uiso
H3WD H 0.8489 0.7537 0.0726 0.1860 Uiso
H3GC H 0.9274 0.7537 0.1511 0.1860 Uiso
H3QA H 0.7463 0.6511 0.0726 0.1860 Uiso
H3SC H 0.7463 0.5726 0.1511 0.1860 Uiso
H3CA H 0.8489 0.7537 -0.0726 0.1860 Uiso
H3XF H 0.9274 0.7537 -0.1511 0.1860 Uiso
H3YF H 1.0726 0.2463 -0.1511 0.1860 Uiso
H3EA H 1.1511 0.2463 -0.0726 0.1860 Uiso
H3BC H 1.0726 0.3489 -0.2537 0.1860 Uiso
H3LD H 1.1511 0.4274 -0.2537 0.1860 Uiso
H3IC H 0.9274 0.2463 -0.1511 0.1860 Uiso
H3VD H 0.8489 0.2463 -0.0726 0.1860 Uiso
H3BA H 0.8489 0.2463 0.0726 0.1860 Uiso
H3ZF H 0.9274 0.2463 0.1511 0.1860 Uiso
C7GE C 0.7692(3) 0.6589(3) -0.0514(2) 0.1460 Uiso
C7U C 0.8411(3) 0.4486(2) -0.2308(3) 0.1460 Uiso
C7VF C 0.9486(2) 0.3411(3) -0.2308(3) 0.1460 Uiso
C7TC C 0.7692(3) 0.4486(2) -0.1589(3) 0.1460 Uiso
C7NA C 0.7692(3) 0.3411(3) -0.0514(2) 0.1460 Uiso
C7OD C 0.8411(3) 0.5514(2) -0.2308(3) 0.1460 Uiso
C7EC C 0.9486(2) 0.6589(3) -0.2308(3) 0.1460 Uiso
C7IF C 0.6589(3) 0.5514(2) -0.2692(3) 0.1460 Uiso
C7HA C 0.5514(2) 0.6589(3) -0.2692(3) 0.1460 Uiso
C7WD C 0.8411(3) 0.7308(3) 0.0514(2) 0.1460 Uiso
C7GC C 0.9486(2) 0.7308(3) 0.1589(3) 0.1460 Uiso
C7QA C 0.7692(3) 0.6589(3) 0.0514(2) 0.1460 Uiso
C7SC C 0.7692(3) 0.5514(2) 0.1589(3) 0.1460 Uiso
C7CA C 0.8411(3) 0.7308(3) -0.0514(2) 0.1460 Uiso
C7XF C 0.9486(2) 0.7308(3) -0.1589(3) 0.1460 Uiso
C7YF C 1.0514(2) 0.2692(3) -0.1589(3) 0.1460 Uiso
C7EA C 1.1589(3) 0.2692(3) -0.0514(2) 0.1460 Uiso
C7BC C 1.0514(2) 0.3411(3) -0.2308(3) 0.1460 Uiso
C7LD C 1.1589(3) 0.4486(2) -0.2308(3) 0.1460 Uiso
C7IC C 0.9486(2) 0.2692(3) -0.1589(3) 0.1460 Uiso
C7VD C 0.8411(3) 0.2692(3) -0.0514(2) 0.1460 Uiso
C7BA C 0.8411(3) 0.2692(3) 0.0514(2) 0.1460 Uiso
C7ZF C 0.9486(2) 0.2692(3) 0.1589(3) 0.1460 Uiso
H4GE H 0.7647 0.6726 -0.0479 0.1750 Uiso
H4U H 0.8274 0.4521 -0.2353 0.1750 Uiso
H4VF H 0.9521 0.3274 -0.2353 0.1750 Uiso
H4TC H 0.7647 0.4521 -0.1726 0.1750 Uiso
H4NA H 0.7647 0.3274 -0.0479 0.1750 Uiso
H4OD H 0.8274 0.5479 -0.2353 0.1750 Uiso
H4EC H 0.9521 0.6726 -0.2353 0.1750 Uiso
H4IF H 0.6726 0.5479 -0.2647 0.1750 Uiso
H4HA H 0.5479 0.6726 -0.2647 0.1750 Uiso
H4WD H 0.8274 0.7353 0.0479 0.1750 Uiso
H4GC H 0.9521 0.7353 0.1726 0.1750 Uiso
H4QA H 0.7647 0.6726 0.0479 0.1750 Uiso
H4SC H 0.7647 0.5479 0.1726 0.1750 Uiso
H4CA H 0.8274 0.7353 -0.0479 0.1750 Uiso
H4XF H 0.9521 0.7353 -0.1726 0.1750 Uiso
H4YF H 1.0479 0.2647 -0.1726 0.1750 Uiso
H4EA H 1.1726 0.2647 -0.0479 0.1750 Uiso
H4BC H 1.0479 0.3274 -0.2353 0.1750 Uiso
H4LD H 1.1726 0.4521 -0.2353 0.1750 Uiso
H4IC H 0.9521 0.2647 -0.1726 0.1750 Uiso
H4VD H 0.8274 0.2647 -0.0479 0.1750 Uiso
H4BA H 0.8274 0.2647 0.0479 0.1750 Uiso
H4ZF H 0.9521 0.2647 0.1726 0.1750 Uiso
C8U C 0.90244(17) 0.40244(17) -0.2385(4) 0.1360 Uiso
C8NA C 0.7615(4) 0.40244(17) -0.09756(17) 0.1360 Uiso
C8EC C 0.90244(17) 0.59756(17) -0.2385(4) 0.1360 Uiso
C8HA C 0.59756(17) 0.59756(17) -0.2615(4) 0.1360 Uiso
C8GC C 0.90244(17) 0.7385(4) 0.09756(17) 0.1360 Uiso
C8QA C 0.7615(4) 0.59756(17) 0.09756(17) 0.1360 Uiso
C8CA C 0.90244(17) 0.7385(4) -0.09756(17) 0.1360 Uiso
C8EA C 1.09756(17) 0.2615(4) -0.09756(17) 0.1360 Uiso
C8BC C 1.09756(17) 0.40244(17) -0.2385(4) 0.1360 Uiso
C8IC C 0.90244(17) 0.2615(4) -0.09756(17) 0.1360 Uiso
C8BA C 0.90244(17) 0.2615(4) 0.09756(17) 0.1360 Uiso
H5U H 0.9049 0.4049 -0.2241 0.1640 Uiso
H5NA H 0.7759 0.4049 -0.0951 0.1640 Uiso
H5EC H 0.9049 0.5951 -0.2241 0.1640 Uiso
H5HA H 0.5951 0.5951 -0.2759 0.1640 Uiso
H5GC H 0.9049 0.7241 0.0951 0.1640 Uiso
H5QA H 0.7759 0.5951 0.0951 0.1640 Uiso
H5CA H 0.9049 0.7241 -0.0951 0.1640 Uiso
H5EA H 1.0951 0.2759 -0.0951 0.1640 Uiso
H5BC H 1.0951 0.4049 -0.2241 0.1640 Uiso
H5IC H 0.9049 0.2759 -0.0951 0.1640 Uiso
H5BA H 0.9049 0.2759 0.0951 0.1640 Uiso
C9GE C 0.7503(3) 0.6126(3) -0.0865(3) 0.1230 Uiso
C9U C 0.8874(3) 0.4135(3) -0.2497(3) 0.1230 Uiso
C9VF C 0.9135(3) 0.3874(3) -0.2497(3) 0.1230 Uiso
C9TC C 0.7503(3) 0.4135(3) -0.1126(3) 0.1230 Uiso
C9NA C 0.7503(3) 0.3874(3) -0.0865(3) 0.1230 Uiso
C9OD C 0.8874(3) 0.5865(3) -0.2497(3) 0.1230 Uiso
C9EC C 0.9135(3) 0.6126(3) -0.2497(3) 0.1230 Uiso
C9IF C 0.6126(3) 0.5865(3) -0.2503(3) 0.1230 Uiso
C9HA C 0.5865(3) 0.6126(3) -0.2503(3) 0.1230 Uiso
C9WD C 0.8874(3) 0.7497(3) 0.0865(3) 0.1230 Uiso
C9GC C 0.9135(3) 0.7497(3) 0.1126(3) 0.1230 Uiso
C9QA C 0.7503(3) 0.6126(3) 0.0865(3) 0.1230 Uiso
C9SC C 0.7503(3) 0.5865(3) 0.1126(3) 0.1230 Uiso
C9CA C 0.8874(3) 0.7497(3) -0.0865(3) 0.1230 Uiso
C9XF C 0.9135(3) 0.7497(3) -0.1126(3) 0.1230 Uiso
C9YF C 1.0865(3) 0.2503(3) -0.1126(3) 0.1230 Uiso
C9EA C 1.1126(3) 0.2503(3) -0.0865(3) 0.1230 Uiso
C9BC C 1.0865(3) 0.3874(3) -0.2497(3) 0.1230 Uiso
C9LD C 1.1126(3) 0.4135(3) -0.2497(3) 0.1230 Uiso
C9IC C 0.9135(3) 0.2503(3) -0.1126(3) 0.1230 Uiso
C9VD C 0.8874(3) 0.2503(3) -0.0865(3) 0.1230 Uiso
C9BA C 0.8874(3) 0.2503(3) 0.0865(3) 0.1230 Uiso
C9ZF C 0.9135(3) 0.2503(3) 0.1126(3) 0.1230 Uiso
C10GE C 0.7293(3) 0.6167(3) -0.0897(3) 0.1620 Uiso
C10U C 0.8833(3) 0.4103(3) -0.2707(3) 0.1620 Uiso
C10VF C 0.9103(3) 0.3833(3) -0.2707(3) 0.1620 Uiso
C10TC C 0.7293(3) 0.4103(3) -0.1167(3) 0.1620 Uiso
C10NA C 0.7293(3) 0.3833(3) -0.0897(3) 0.1620 Uiso
C10OD C 0.8833(3) 0.5897(3) -0.2707(3) 0.1620 Uiso
C10EC C 0.9103(3) 0.6167(3) -0.2707(3) 0.1620 Uiso
C10IF C 0.6167(3) 0.5897(3) -0.2293(3) 0.1620 Uiso
C10HA C 0.5897(3) 0.6167(3) -0.2293(3) 0.1620 Uiso
C10WD C 0.8833(3) 0.7707(3) 0.0897(3) 0.1620 Uiso
C10GC C 0.9103(3) 0.7707(3) 0.1167(3) 0.1620 Uiso
C10QA C 0.7293(3) 0.6167(3) 0.0897(3) 0.1620 Uiso
C10SC C 0.7293(3) 0.5897(3) 0.1167(3) 0.1620 Uiso
C10CA C 0.8833(3) 0.7707(3) -0.0897(3) 0.1620 Uiso
C10XF C 0.9103(3) 0.7707(3) -0.1167(3) 0.1620 Uiso
C10YF C 1.0897(3) 0.2293(3) -0.1167(3) 0.1620 Uiso
C10EA C 1.1167(3) 0.2293(3) -0.0897(3) 0.1620 Uiso
C10BC C 1.0897(3) 0.3833(3) -0.2707(3) 0.1620 Uiso
C10LD C 1.1167(3) 0.4103(3) -0.2707(3) 0.1620 Uiso
C10IC C 0.9103(3) 0.2293(3) -0.1167(3) 0.1620 Uiso
C10VD C 0.8833(3) 0.2293(3) -0.0897(3) 0.1620 Uiso
C10BA C 0.8833(3) 0.2293(3) 0.0897(3) 0.1620 Uiso
C10ZF C 0.9103(3) 0.2293(3) 0.1167(3) 0.1620 Uiso
H6GE H 0.7220 0.6270 -0.0818 0.1940 Uiso
H6U H 0.8730 0.4182 -0.2780 0.1940 Uiso
H6VF H 0.9182 0.3730 -0.2780 0.1940 Uiso
H6TC H 0.7220 0.4182 -0.1270 0.1940 Uiso
H6NA H 0.7220 0.3730 -0.0818 0.1940 Uiso
H6OD H 0.8730 0.5818 -0.2780 0.1940 Uiso
H6EC H 0.9182 0.6270 -0.2780 0.1940 Uiso
H6IF H 0.6270 0.5818 -0.2220 0.1940 Uiso
H6HA H 0.5818 0.6270 -0.2220 0.1940 Uiso
H6WD H 0.8730 0.7780 0.0818 0.1940 Uiso
H6GC H 0.9182 0.7780 0.1270 0.1940 Uiso
H6QA H 0.7220 0.6270 0.0818 0.1940 Uiso
H6SC H 0.7220 0.5818 0.1270 0.1940 Uiso
H6CA H 0.8730 0.7780 -0.0818 0.1940 Uiso
H6XF H 0.9182 0.7780 -0.1270 0.1940 Uiso
H6YF H 1.0818 0.2220 -0.1270 0.1940 Uiso
H6EA H 1.1270 0.2220 -0.0818 0.1940 Uiso
H6BC H 1.0818 0.3730 -0.2780 0.1940 Uiso
H6LD H 1.1270 0.4182 -0.2780 0.1940 Uiso
H6IC H 0.9182 0.2220 -0.1270 0.1940 Uiso
H6VD H 0.8730 0.2220 -0.0818 0.1940 Uiso
H6BA H 0.8730 0.2220 0.0818 0.1940 Uiso
H6ZF H 0.9182 0.2220 0.1270 0.1940 Uiso
C11U C 0.89503(19) 0.39503(19) -0.2806(4) 0.1820 Uiso
C11NA C 0.7194(4) 0.39503(19) -0.10497(19) 0.1820 Uiso
C11EC C 0.89503(19) 0.60497(19) -0.2806(4) 0.1820 Uiso
C11HA C 0.60497(19) 0.60497(19) -0.2194(4) 0.1820 Uiso
C11GC C 0.89503(19) 0.7806(4) 0.10497(19) 0.1820 Uiso
C11QA C 0.7194(4) 0.60497(19) 0.10497(19) 0.1820 Uiso
C11CA C 0.89503(19) 0.7806(4) -0.10497(19) 0.1820 Uiso
C11EA C 1.10497(19) 0.2194(4) -0.10497(19) 0.1820 Uiso
C11BC C 1.10497(19) 0.39503(19) -0.2806(4) 0.1820 Uiso
C11IC C 0.89503(19) 0.2194(4) -0.10497(19) 0.1820 Uiso
C11BA C 0.89503(19) 0.2194(4) 0.10497(19) 0.1820 Uiso
C12U C 0.8902(3) 0.3902(3) -0.3008(7) 0.2080 Uiso
C12NA C 0.6992(7) 0.3902(3) -0.1098(3) 0.2080 Uiso
C12EC C 0.8902(3) 0.6098(3) -0.3008(7) 0.2080 Uiso
C12HA C 0.6098(3) 0.6098(3) -0.1992(7) 0.2080 Uiso
C12GC C 0.8902(3) 0.8008(7) 0.1098(3) 0.2080 Uiso
C12QA C 0.6992(7) 0.6098(3) 0.1098(3) 0.2080 Uiso
C12CA C 0.8902(3) 0.8008(7) -0.1098(3) 0.2080 Uiso
C12EA C 1.1098(3) 0.1992(7) -0.1098(3) 0.2080 Uiso
C12BC C 1.1098(3) 0.3902(3) -0.3008(7) 0.2080 Uiso
C12IC C 0.8902(3) 0.1992(7) -0.1098(3) 0.2080 Uiso
C12BA C 0.8902(3) 0.1992(7) 0.1098(3) 0.2080 Uiso
N1GE N 0.6860(3) 0.6247(2) -0.1004(2) 0.1830 Uiso
N1U N 0.8753(2) 0.3996(2) -0.3140(3) 0.1830 Uiso
N1VF N 0.8996(2) 0.3753(2) -0.3140(3) 0.1830 Uiso
N1TC N 0.6860(3) 0.3996(2) -0.1247(2) 0.1830 Uiso
N1NA N 0.6860(3) 0.3753(2) -0.1004(2) 0.1830 Uiso
N1OD N 0.8753(2) 0.6004(2) -0.3140(3) 0.1830 Uiso
N1EC N 0.8996(2) 0.6247(2) -0.3140(3) 0.1830 Uiso
N1IF N 0.6247(2) 0.6004(2) -0.1860(3) 0.1830 Uiso
N1HA N 0.6004(2) 0.6247(2) -0.1860(3) 0.1830 Uiso
N1WD N 0.8753(2) 0.8140(3) 0.1004(2) 0.1830 Uiso
N1GC N 0.8996(2) 0.8140(3) 0.1247(2) 0.1830 Uiso
N1QA N 0.6860(3) 0.6247(2) 0.1004(2) 0.1830 Uiso
N1SC N 0.6860(3) 0.6004(2) 0.1247(2) 0.1830 Uiso
N1CA N 0.8753(2) 0.8140(3) -0.1004(2) 0.1830 Uiso
N1XF N 0.8996(2) 0.8140(3) -0.1247(2) 0.1830 Uiso
N1YF N 1.1004(2) 0.1860(3) -0.1247(2) 0.1830 Uiso
N1EA N 1.1247(2) 0.1860(3) -0.1004(2) 0.1830 Uiso
N1BC N 1.1004(2) 0.3753(2) -0.3140(3) 0.1830 Uiso
N1LD N 1.1247(2) 0.3996(2) -0.3140(3) 0.1830 Uiso
N1IC N 0.8996(2) 0.1860(3) -0.1247(2) 0.1830 Uiso
N1VD N 0.8753(2) 0.1860(3) -0.1004(2) 0.1830 Uiso
N1BA N 0.8753(2) 0.1860(3) 0.1004(2) 0.1830 Uiso
N1ZF N 0.8996(2) 0.1860(3) 0.1247(2) 0.1830 Uiso
N2GE N 0.6661(3) 0.6244(2) -0.1091(2) 0.2240 Uiso
N2U N 0.8756(2) 0.3909(2) -0.3339(3) 0.2240 Uiso
N2VF N 0.8909(2) 0.3756(2) -0.3339(3) 0.2240 Uiso
N2TC N 0.6661(3) 0.3909(2) -0.1244(2) 0.2240 Uiso
N2NA N 0.6661(3) 0.3756(2) -0.1091(2) 0.2240 Uiso
N2OD N 0.8756(2) 0.6091(2) -0.3339(3) 0.2240 Uiso
N2EC N 0.8909(2) 0.6244(2) -0.3339(3) 0.2240 Uiso
N2IF N 0.6244(2) 0.6091(2) -0.1661(3) 0.2240 Uiso
N2HA N 0.6091(2) 0.6244(2) -0.1661(3) 0.2240 Uiso
N2WD N 0.8756(2) 0.8339(3) 0.1091(2) 0.2240 Uiso
N2GC N 0.8909(2) 0.8339(3) 0.1244(2) 0.2240 Uiso
N2QA N 0.6661(3) 0.6244(2) 0.1091(2) 0.2240 Uiso
N2SC N 0.6661(3) 0.6091(2) 0.1244(2) 0.2240 Uiso
N2CA N 0.8756(2) 0.8339(3) -0.1091(2) 0.2240 Uiso
N2XF N 0.8909(2) 0.8339(3) -0.1244(2) 0.2240 Uiso
N2YF N 1.1091(2) 0.1661(3) -0.1244(2) 0.2240 Uiso
N2EA N 1.1244(2) 0.1661(3) -0.1091(2) 0.2240 Uiso
N2BC N 1.1091(2) 0.3756(2) -0.3339(3) 0.2240 Uiso
N2LD N 1.1244(2) 0.3909(2) -0.3339(3) 0.2240 Uiso
N2IC N 0.8909(2) 0.1661(3) -0.1244(2) 0.2240 Uiso
N2VD N 0.8756(2) 0.1661(3) -0.1091(2) 0.2240 Uiso
N2BA N 0.8756(2) 0.1661(3) 0.1091(2) 0.2240 Uiso
N2ZF N 0.8909(2) 0.1661(3) 0.1244(2) 0.2240 Uiso
N2CB N 0.6244(2) 0.6661(3) -0.1091(2) 0.2240 Uiso
N2NE N 0.8339(3) 0.3909(2) -0.3756(2) 0.2240 Uiso
N2IB N 0.8909(2) 0.3339(3) -0.3756(2) 0.2240 Uiso
N2SB N 0.6244(2) 0.3909(2) -0.1661(3) 0.2240 Uiso
N2RE N 0.6244(2) 0.3339(3) -0.1091(2) 0.2240 Uiso
N2XA N 0.8339(3) 0.6091(2) -0.3756(2) 0.2240 Uiso
N2BF N 0.8909(2) 0.6661(3) -0.3756(2) 0.2240 Uiso
N2ED N 0.6091(2) 0.6661(3) -0.1244(2) 0.2240 Uiso
N2MB N 0.8339(3) 0.8756(2) 0.1091(2) 0.2240 Uiso
N2XE N 0.8909(2) 0.8756(2) 0.1661(3) 0.2240 Uiso
N2SE N 0.6244(2) 0.6661(3) 0.1091(2) 0.2240 Uiso
loop_
_atom_site_aniso_label
_atom_site_aniso_U_11
_atom_site_aniso_U_22
_atom_site_aniso_U_33
_atom_site_aniso_U_23
_atom_site_aniso_U_13
_atom_site_aniso_U_12
Cu1 0.095(3) 0.101(5) 0.095(3) 0.000 -0.031(4) 0.000
Cu2 0.081(3) 0.091(5) 0.081(3) 0.000 -0.010(4) 0.000
Cu3 0.185(4) 0.237(6) 0.185(4) -0.095(4) -0.089(5) 0.095(4)
Cu1CA 0.095 0.095 0.101 0 0 0.031
Cu1BC 0.101 0.095 0.095 -0.031 0 0
Cu1BA 0.095 0.095 0.101 0 0 -0.031
Cu1EC 0.101 0.095 0.095 0.031 0 0
Cu1XA 0.095 0.101 0.095 0 -0.031 0
Cu1HA 0.101 0.095 0.095 -0.031 0 0
Cu1DC 0.101 0.095 0.095 -0.031 0 0
Cu1C 0.095 0.101 0.095 0 0.031 0
Cu1EA 0.095 0.095 0.101 0 0 0.031
Cu1A 0.095 0.101 0.095 0 0.031 0
Cu1CC 0.101 0.095 0.095 0.031 0 0
Cu2CA 0.081 0.081 0.091 0 0 0.01
Cu2BC 0.091 0.081 0.081 -0.01 0 0
Cu2BA 0.081 0.081 0.091 0 0 -0.01
Cu2EC 0.091 0.081 0.081 0.01 0 0
Cu2XA 0.081 0.091 0.081 0 -0.01 0
Cu2HA 0.091 0.081 0.081 -0.01 0 0
Cu2DC 0.091 0.081 0.081 -0.01 0 0
Cu2C 0.081 0.091 0.081 0 0.01 0
Cu2EA 0.081 0.081 0.091 0 0 0.01
Cu2A 0.081 0.091 0.081 0 0.01 0
Cu2CC 0.091 0.081 0.081 0.01 0 0
Cu3CB 0.185 0.185 0.237 -0.095 -0.095 0.089
Cu3U 0.185 0.237 0.185 -0.095 -0.089 0.095
Cu3IB 0.237 0.185 0.185 -0.089 -0.095 0.095
Cu3SB 0.185 0.237 0.185 0.095 -0.089 -0.095
Cu3NA 0.185 0.185 0.237 0.095 -0.095 -0.089
Cu3XA 0.185 0.237 0.185 0.095 -0.089 -0.095
Cu3EC 0.237 0.185 0.185 0.089 -0.095 -0.095
Cu3HA 0.237 0.185 0.185 -0.089 -0.095 0.095
Cu3MB 0.185 0.185 0.237 -0.095 -0.095 0.089
Cu3GC 0.237 0.185 0.185 -0.089 -0.095 0.095
Cu3QA 0.185 0.185 0.237 0.095 0.095 0.089
Cu3RB 0.185 0.237 0.185 0.095 0.089 0.095
Cu3CA 0.185 0.185 0.237 0.095 0.095 0.089
Cu3EB 0.237 0.185 0.185 0.089 0.095 0.095
Cu3FB 0.237 0.185 0.185 -0.089 -0.095 0.095
Cu3EA 0.185 0.185 0.237 -0.095 -0.095 0.089
Cu3BC 0.237 0.185 0.185 -0.089 0.095 -0.095
Cu3YA 0.185 0.237 0.185 -0.095 0.089 -0.095
Cu3IC 0.237 0.185 0.185 -0.089 0.095 -0.095
Cu3NB 0.185 0.185 0.237 -0.095 0.095 -0.089
Cu3BA 0.185 0.185 0.237 0.095 -0.095 -0.089
Cu3GB 0.237 0.185 0.185 0.089 -0.095 -0.095
Cu3KC 0.185 0.185 0.237 -0.095 -0.095 0.089
Cu3N 0.237 0.185 0.185 0.089 -0.095 -0.095
Cu3D 0.185 0.185 0.237 0.095 -0.095 -0.089
loop_
_geom_bond_atom_site_label_1
_geom_bond_atom_site_label_2
_geom_bond_site_symmetry_1
_geom_bond_site_symmetry_2
Cu1 O6 1_555 1_555
Cu2 O4 1_555 1_555
Cu3 O1 1_555 1_555
O1 Cu3CB 1_555 1_555
O2 Cu3 1_555 1_555
O5 Cu3 1_555 1_555
O7 Cu1 1_555 1_555
O8 Cu2 1_555 1_555
C1 O7 1_555 1_555
C2 C1 1_555 1_555
C3 C2 1_555 1_555
H1 C3 1_555 1_555
C4 C3 1_555 1_555
H2 C4 1_555 1_555
C5 C4 1_555 1_555
C6 C5 1_555 1_555
H3 C6 1_555 1_555
C7 C2 1_555 1_555
H4 C7 1_555 1_555
C8 H5 1_555 1_555
C9 C5 1_555 1_555
C10 C9 1_555 1_555
H6 C10 1_555 1_555
C11 C10 1_555 1_555
C12 C11 1_555 1_555
N1 C12 1_555 1_555
N2 Cu3 1_555 1_555
Cu1CA O6CA 1_555 1_555
Cu1BC O6BC 1_555 1_555
Cu1BA O6BA 1_555 1_555
Cu1EC O6EC 1_555 1_555
Cu1XA O6XA 1_555 1_555
Cu1HA O7HA 1_555 1_555
Cu1DC O7GC 1_555 1_555
Cu1C O7SC 1_555 1_555
Cu1EA O7EA 1_555 1_555
Cu1A O7LD 1_555 1_555
Cu1CC O7ZF 1_555 1_555
Cu2CA O4CA 1_555 1_555
Cu2BC O4BC 1_555 1_555
Cu2BA O4BA 1_555 1_555
Cu2EC O4EC 1_555 1_555
Cu2XA O4XA 1_555 1_555
Cu2HA O8HA 1_555 1_555
Cu2DC O8GC 1_555 1_555
Cu2C O8SC 1_555 1_555
Cu2EA O8EA 1_555 1_555
Cu2A O8LD 1_555 1_555
Cu2CC O8ZF 1_555 1_555
Cu3CB O2CB 1_555 1_555
Cu3U O1U 1_555 1_555
Cu3IB O1U 1_555 1_555
Cu3SB O1N 1_555 1_555
Cu3NA O1N 1_555 1_555
Cu3XA O1D 1_555 1_555
Cu3EC O1D 1_555 1_555
Cu3HA O1 1_555 1_555
Cu3MB O1SA 1_555 1_555
Cu3GC O1SA 1_555 1_555
Cu3QA O1L 1_555 1_555
Cu3RB O1L 1_555 1_555
Cu3CA N2CA 1_555 1_555
Cu3EB N2XF 1_555 1_555
Cu3FB N2YF 1_555 1_555
Cu3EA N2EA 1_555 1_555
Cu3BC N2BC 1_555 1_555
Cu3YA N2LD 1_555 1_555
Cu3IC N2IC 1_555 1_555
Cu3NB N2VD 1_555 1_555
Cu3BA N2BA 1_555 1_555
Cu3GB N2ZF 1_555 1_555
Cu3KC O1U 1_555 1_555
Cu3N O1N 1_555 1_555
Cu3D O1D 1_555 1_555
O2U Cu3U 1_555 1_555
O2IB Cu3IB 1_555 1_555
O2SB Cu3SB 1_555 1_555
O2NA Cu3NA 1_555 1_555
O2XA Cu3XA 1_555 1_555
O2EC Cu3EC 1_555 1_555
O2HA Cu3HA 1_555 1_555
O2MB Cu3MB 1_555 1_555
O2GC Cu3GC 1_555 1_555
O2QA Cu3QA 1_555 1_555
O5CB Cu3CB 1_555 1_555
O5U Cu3U 1_555 1_555
O5IB Cu3IB 1_555 1_555
O5SB Cu3SB 1_555 1_555
O5NA Cu3NA 1_555 1_555
O5XA Cu3XA 1_555 1_555
O5EC Cu3EC 1_555 1_555
O5HA Cu3HA 1_555 1_555
O5MB Cu3MB 1_555 1_555
O5GC Cu3GC 1_555 1_555
O5QA Cu3QA 1_555 1_555
O7GE Cu1CA 1_555 1_555
O7U Cu1 1_555 1_555
O7VF Cu1BC 1_555 1_555
O7TC Cu1 1_555 1_555
O7NA Cu1BA 1_555 1_555
O7OD Cu1 1_555 1_555
O7EC Cu1EC 1_555 1_555
O7IF Cu1XA 1_555 1_555
O7HA C1HA 1_555 1_555
O7WD Cu1CA 1_555 1_555
O7GC C1GC 1_555 1_555
O7QA Cu1CA 1_555 1_555
O7SC C1SC 1_555 1_555
O7CA Cu1CA 1_555 1_555
O7XF Cu1EC 1_555 1_555
O7YF Cu1BC 1_555 1_555
O7EA C1EA 1_555 1_555
O7BC Cu1BC 1_555 1_555
O7LD C1LD 1_555 1_555
O7IC Cu1BC 1_555 1_555
O7VD Cu1BA 1_555 1_555
O7BA Cu1BA 1_555 1_555
O7ZF C1ZF 1_555 1_555
O7HE Cu1BA 1_555 1_555
O7HC Cu1EC 1_555 1_555
O7UF Cu1EC 1_555 1_555
O7NE Cu1XA 1_555 1_555
O7SB Cu1XA 1_555 1_555
O7XA Cu1XA 1_555 1_555
O8GE Cu2CA 1_555 1_555
O8U Cu2 1_555 1_555
O8VF Cu2BC 1_555 1_555
O8TC Cu2 1_555 1_555
O8NA Cu2BA 1_555 1_555
O8OD Cu2 1_555 1_555
O8EC Cu2EC 1_555 1_555
O8IF Cu2XA 1_555 1_555
O8HA C1HA 1_555 1_555
O8WD Cu2CA 1_555 1_555
O8GC C1GC 1_555 1_555
O8QA Cu2CA 1_555 1_555
O8SC C1SC 1_555 1_555
O8CA Cu2CA 1_555 1_555
O8XF Cu2EC 1_555 1_555
O8YF Cu2BC 1_555 1_555
O8EA C1EA 1_555 1_555
O8BC Cu2BC 1_555 1_555
O8LD C1LD 1_555 1_555
O8IC Cu2BC 1_555 1_555
O8VD Cu2BA 1_555 1_555
O8BA Cu2BA 1_555 1_555
O8ZF C1ZF 1_555 1_555
O8HE Cu2BA 1_555 1_555
O8HC Cu2EC 1_555 1_555
O8UF Cu2EC 1_555 1_555
O8NE Cu2XA 1_555 1_555
O8SB Cu2XA 1_555 1_555
O8XA Cu2XA 1_555 1_555
C1GE O7GE 1_555 1_555
C1U O7U 1_555 1_555
C1VF O7VF 1_555 1_555
C1TC O7TC 1_555 1_555
C1NA O7NA 1_555 1_555
C1OD O7OD 1_555 1_555
C1EC O7EC 1_555 1_555
C1IF O7IF 1_555 1_555
C1HA C2HA 1_555 1_555
C1WD O7WD 1_555 1_555
C1GC C2GC 1_555 1_555
C1QA O7QA 1_555 1_555
C1SC C2SC 1_555 1_555
C1CA O7CA 1_555 1_555
C1XF O7XF 1_555 1_555
C1YF O7YF 1_555 1_555
C1EA C2EA 1_555 1_555
C1BC O7BC 1_555 1_555
C1LD C2LD 1_555 1_555
C1IC O7IC 1_555 1_555
C1VD O7VD 1_555 1_555
C1BA O7BA 1_555 1_555
C1ZF C2ZF 1_555 1_555
C2GE C1GE 1_555 1_555
C2U C1U 1_555 1_555
C2VF C1VF 1_555 1_555
C2TC C1TC 1_555 1_555
C2NA C1NA 1_555 1_555
C2OD C1OD 1_555 1_555
C2EC C1EC 1_555 1_555
C2IF C1IF 1_555 1_555
C2HA C3HA 1_555 1_555
C2WD C1WD 1_555 1_555
C2GC C3GC 1_555 1_555
C2QA C1QA 1_555 1_555
C2SC C3SC 1_555 1_555
C2CA C1CA 1_555 1_555
C2XF C1XF 1_555 1_555
C2YF C1YF 1_555 1_555
C2EA C3EA 1_555 1_555
C2BC C1BC 1_555 1_555
C2LD C3LD 1_555 1_555
C2IC C1IC 1_555 1_555
C2VD C1VD 1_555 1_555
C2BA C1BA 1_555 1_555
C2ZF C3ZF 1_555 1_555
C3GE C2GE 1_555 1_555
C3U C2U 1_555 1_555
C3VF C2VF 1_555 1_555
C3TC C2TC 1_555 1_555
C3NA C2NA 1_555 1_555
C3OD C2OD 1_555 1_555
C3EC C2EC 1_555 1_555
C3IF C2IF 1_555 1_555
C3HA H1HA 1_555 1_555
C3WD C2WD 1_555 1_555
C3GC H1GC 1_555 1_555
C3QA C2QA 1_555 1_555
C3SC H1SC 1_555 1_555
C3CA C2CA 1_555 1_555
C3XF C2XF 1_555 1_555
C3YF C2YF 1_555 1_555
C3EA H1EA 1_555 1_555
C3BC C2BC 1_555 1_555
C3LD H1LD 1_555 1_555
C3IC C2IC 1_555 1_555
C3VD C2VD 1_555 1_555
C3BA C2BA 1_555 1_555
C3ZF H1ZF 1_555 1_555
H1GE C3GE 1_555 1_555
H1U C3U 1_555 1_555
H1VF C3VF 1_555 1_555
H1TC C3TC 1_555 1_555
H1NA C3NA 1_555 1_555
H1OD C3OD 1_555 1_555
H1EC C3EC 1_555 1_555
H1IF C3IF 1_555 1_555
H1WD C3WD 1_555 1_555
H1QA C3QA 1_555 1_555
H1CA C3CA 1_555 1_555
H1XF C3XF 1_555 1_555
H1YF C3YF 1_555 1_555
H1BC C3BC 1_555 1_555
H1IC C3IC 1_555 1_555
H1VD C3VD 1_555 1_555
H1BA C3BA 1_555 1_555
C4GE C3GE 1_555 1_555
C4U C3U 1_555 1_555
C4VF C3VF 1_555 1_555
C4TC C3TC 1_555 1_555
C4NA C3NA 1_555 1_555
C4OD C3OD 1_555 1_555
C4EC C3EC 1_555 1_555
C4IF C3IF 1_555 1_555
C4HA C3HA 1_555 1_555
C4WD C3WD 1_555 1_555
C4GC C3GC 1_555 1_555
C4QA C3QA 1_555 1_555
C4SC C3SC 1_555 1_555
C4CA C3CA 1_555 1_555
C4XF C3XF 1_555 1_555
C4YF C3YF 1_555 1_555
C4EA C3EA 1_555 1_555
C4BC C3BC 1_555 1_555
C4LD C3LD 1_555 1_555
C4IC C3IC 1_555 1_555
C4VD C3VD 1_555 1_555
C4BA C3BA 1_555 1_555
C4ZF C3ZF 1_555 1_555
H2GE C4GE 1_555 1_555
H2U C4U 1_555 1_555
H2VF C4VF 1_555 1_555
H2TC C4TC 1_555 1_555
H2NA C4NA 1_555 1_555
H2OD C4OD 1_555 1_555
H2EC C4EC 1_555 1_555
H2IF C4IF 1_555 1_555
H2HA C4HA 1_555 1_555
H2WD C4WD 1_555 1_555
H2GC C4GC 1_555 1_555
H2QA C4QA 1_555 1_555
H2SC C4SC 1_555 1_555
H2CA C4CA 1_555 1_555
H2XF C4XF 1_555 1_555
H2YF C4YF 1_555 1_555
H2EA C4EA 1_555 1_555
H2BC C4BC 1_555 1_555
H2LD C4LD 1_555 1_555
H2IC C4IC 1_555 1_555
H2VD C4VD 1_555 1_555
H2BA C4BA 1_555 1_555
H2ZF C4ZF 1_555 1_555
C5GE C4GE 1_555 1_555
C5U C4U 1_555 1_555
C5VF C4VF 1_555 1_555
C5TC C4TC 1_555 1_555
C5NA C4NA 1_555 1_555
C5OD C4OD 1_555 1_555
C5EC C4EC 1_555 1_555
C5IF C4IF 1_555 1_555
C5HA C4HA 1_555 1_555
C5WD C4WD 1_555 1_555
C5GC C4GC 1_555 1_555
C5QA C4QA 1_555 1_555
C5SC C4SC 1_555 1_555
C5CA C4CA 1_555 1_555
C5XF C4XF 1_555 1_555
C5YF C4YF 1_555 1_555
C5EA C4EA 1_555 1_555
C5BC C4BC 1_555 1_555
C5LD C4LD 1_555 1_555
C5IC C4IC 1_555 1_555
C5VD C4VD 1_555 1_555
C5BA C4BA 1_555 1_555
C5ZF C4ZF 1_555 1_555
C6GE C5GE 1_555 1_555
C6U C5U 1_555 1_555
C6VF C5VF 1_555 1_555
C6TC C5TC 1_555 1_555
C6NA C5NA 1_555 1_555
C6OD C5OD 1_555 1_555
C6EC C5EC 1_555 1_555
C6IF C5IF 1_555 1_555
C6HA C5HA 1_555 1_555
C6WD C5WD 1_555 1_555
C6GC C5GC 1_555 1_555
C6QA C5QA 1_555 1_555
C6SC C5SC 1_555 1_555
C6CA C5CA 1_555 1_555
C6XF C5XF 1_555 1_555
C6YF C5YF 1_555 1_555
C6EA C5EA 1_555 1_555
C6BC C5BC 1_555 1_555
C6LD C5LD 1_555 1_555
C6IC C5IC 1_555 1_555
C6VD C5VD 1_555 1_555
C6BA C5BA 1_555 1_555
C6ZF C5ZF 1_555 1_555
H3GE C6GE 1_555 1_555
H3U C6U 1_555 1_555
H3VF C6VF 1_555 1_555
H3TC C6TC 1_555 1_555
H3NA C6NA 1_555 1_555
H3OD C6OD 1_555 1_555
H3EC C6EC 1_555 1_555
H3IF C6IF 1_555 1_555
H3HA C6HA 1_555 1_555
H3WD C6WD 1_555 1_555
H3GC C6GC 1_555 1_555
H3QA C6QA 1_555 1_555
H3SC C6SC 1_555 1_555
H3CA C6CA 1_555 1_555
H3XF C6XF 1_555 1_555
H3YF C6YF 1_555 1_555
H3EA C6EA 1_555 1_555
H3BC C6BC 1_555 1_555
H3LD C6LD 1_555 1_555
H3IC C6IC 1_555 1_555
H3VD C6VD 1_555 1_555
H3BA C6BA 1_555 1_555
H3ZF C6ZF 1_555 1_555
C7GE C2GE 1_555 1_555
C7U C2U 1_555 1_555
C7VF C2VF 1_555 1_555
C7TC C2TC 1_555 1_555
C7NA C2NA 1_555 1_555
C7OD C2OD 1_555 1_555
C7EC C2EC 1_555 1_555
C7IF C2IF 1_555 1_555
C7HA C2HA 1_555 1_555
C7WD C2WD 1_555 1_555
C7GC C2GC 1_555 1_555
C7QA C2QA 1_555 1_555
C7SC C2SC 1_555 1_555
C7CA C2CA 1_555 1_555
C7XF C2XF 1_555 1_555
C7YF C2YF 1_555 1_555
C7EA C2EA 1_555 1_555
C7BC C2BC 1_555 1_555
C7LD C2LD 1_555 1_555
C7IC C2IC 1_555 1_555
C7VD C2VD 1_555 1_555
C7BA C2BA 1_555 1_555
C7ZF C2ZF 1_555 1_555
H4GE C7GE 1_555 1_555
H4U C7U 1_555 1_555
H4VF C7VF 1_555 1_555
H4TC C7TC 1_555 1_555
H4NA C7NA 1_555 1_555
H4OD C7OD 1_555 1_555
H4EC C7EC 1_555 1_555
H4IF C7IF 1_555 1_555
H4HA C7HA 1_555 1_555
H4WD C7WD 1_555 1_555
H4GC C7GC 1_555 1_555
H4QA C7QA 1_555 1_555
H4SC C7SC 1_555 1_555
H4CA C7CA 1_555 1_555
H4XF C7XF 1_555 1_555
H4YF C7YF 1_555 1_555
H4EA C7EA 1_555 1_555
H4BC C7BC 1_555 1_555
H4LD C7LD 1_555 1_555
H4IC C7IC 1_555 1_555
H4VD C7VD 1_555 1_555
H4BA C7BA 1_555 1_555
H4ZF C7ZF 1_555 1_555
C8U H5U 1_555 1_555
C8NA H5NA 1_555 1_555
C8EC H5EC 1_555 1_555
C8HA H5HA 1_555 1_555
C8GC H5GC 1_555 1_555
C8QA H5QA 1_555 1_555
C8CA H5CA 1_555 1_555
C8EA H5EA 1_555 1_555
C8BC H5BC 1_555 1_555
C8IC H5IC 1_555 1_555
C8BA H5BA 1_555 1_555
C9GE C8 1_555 1_555
C9U C5U 1_555 1_555
C9VF C5VF 1_555 1_555
C9TC C5TC 1_555 1_555
C9NA C5NA 1_555 1_555
C9OD C5OD 1_555 1_555
C9EC C5EC 1_555 1_555
C9IF C5IF 1_555 1_555
C9HA C5HA 1_555 1_555
C9WD C5WD 1_555 1_555
C9GC C5GC 1_555 1_555
C9QA C5QA 1_555 1_555
C9SC C5SC 1_555 1_555
C9CA C5CA 1_555 1_555
C9XF C5XF 1_555 1_555
C9YF C5YF 1_555 1_555
C9EA C5EA 1_555 1_555
C9BC C5BC 1_555 1_555
C9LD C5LD 1_555 1_555
C9IC C5IC 1_555 1_555
C9VD C5VD 1_555 1_555
C9BA C5BA 1_555 1_555
C9ZF C5ZF 1_555 1_555
C10GE C11 1_555 1_555
C10U C9U 1_555 1_555
C10VF C9VF 1_555 1_555
C10TC C9TC 1_555 1_555
C10NA C9NA 1_555 1_555
C10OD C9OD 1_555 1_555
C10EC C9EC 1_555 1_555
C10IF C9IF 1_555 1_555
C10HA C9HA 1_555 1_555
C10WD C9WD 1_555 1_555
C10GC C9GC 1_555 1_555
C10QA C9QA 1_555 1_555
C10SC C9SC 1_555 1_555
C10CA C9CA 1_555 1_555
C10XF C9XF 1_555 1_555
C10YF C9YF 1_555 1_555
C10EA C9EA 1_555 1_555
C10BC C9BC 1_555 1_555
C10LD C9LD 1_555 1_555
C10IC C9IC 1_555 1_555
C10VD C9VD 1_555 1_555
C10BA C9BA 1_555 1_555
C10ZF C9ZF 1_555 1_555
H6GE C10GE 1_555 1_555
H6U C10U 1_555 1_555
H6VF C10VF 1_555 1_555
H6TC C10TC 1_555 1_555
H6NA C10NA 1_555 1_555
H6OD C10OD 1_555 1_555
H6EC C10EC 1_555 1_555
H6IF C10IF 1_555 1_555
H6HA C10HA 1_555 1_555
H6WD C10WD 1_555 1_555
H6GC C10GC 1_555 1_555
H6QA C10QA 1_555 1_555
H6SC C10SC 1_555 1_555
H6CA C10CA 1_555 1_555
H6XF C10XF 1_555 1_555
H6YF C10YF 1_555 1_555
H6EA C10EA 1_555 1_555
H6BC C10BC 1_555 1_555
H6LD C10LD 1_555 1_555
H6IC C10IC 1_555 1_555
H6VD C10VD 1_555 1_555
H6BA C10BA 1_555 1_555
H6ZF C10ZF 1_555 1_555
C11U C10U 1_555 1_555
C11NA C10TC 1_555 1_555
C11EC C10OD 1_555 1_555
C11HA C10IF 1_555 1_555
C11GC C10WD 1_555 1_555
C11QA C10QA 1_555 1_555
C11CA C10CA 1_555 1_555
C11EA C10YF 1_555 1_555
C11BC C10BC 1_555 1_555
C11IC C10IC 1_555 1_555
C11BA C10BA 1_555 1_555
C12U C11U 1_555 1_555
C12NA C11NA 1_555 1_555
C12EC C11EC 1_555 1_555
C12HA C11HA 1_555 1_555
C12GC C11GC 1_555 1_555
C12QA C11QA 1_555 1_555
C12CA C11CA 1_555 1_555
C12EA C11EA 1_555 1_555
C12BC C11BC 1_555 1_555
C12IC C11IC 1_555 1_555
C12BA C11BA 1_555 1_555
N1GE C12 1_555 1_555
N1U C12U 1_555 1_555
N1VF C12U 1_555 1_555
N1TC C12NA 1_555 1_555
N1NA C12NA 1_555 1_555
N1OD C12EC 1_555 1_555
N1EC C12EC 1_555 1_555
N1IF C12HA 1_555 1_555
N1HA C12HA 1_555 1_555
N1WD C12GC 1_555 1_555
N1GC C12GC 1_555 1_555
N1QA C12QA 1_555 1_555
N1SC C12QA 1_555 1_555
N1CA C12CA 1_555 1_555
N1XF C12CA 1_555 1_555
N1YF C12EA 1_555 1_555
N1EA C12EA 1_555 1_555
N1BC C12BC 1_555 1_555
N1LD C12BC 1_555 1_555
N1IC C12IC 1_555 1_555
N1VD C12IC 1_555 1_555
N1BA C12BA 1_555 1_555
N1ZF C12BA 1_555 1_555
N2GE N2 1_555 1_555
N2U Cu3U 1_555 1_555
N2VF Cu3IB 1_555 1_555
N2TC Cu3SB 1_555 1_555
N2NA Cu3NA 1_555 1_555
N2OD Cu3XA 1_555 1_555
N2EC Cu3EC 1_555 1_555
N2IF Cu3 1_555 1_555
N2HA Cu3HA 1_555 1_555
N2WD Cu3MB 1_555 1_555
N2GC Cu3GC 1_555 1_555
N2QA Cu3QA 1_555 1_555
N2SC Cu3RB 1_555 1_555
N2CA N1CA 1_555 1_555
N2XF N1XF 1_555 1_555
N2YF N1YF 1_555 1_555
N2EA N1EA 1_555 1_555
N2BC N1BC 1_555 1_555
N2LD N1LD 1_555 1_555
N2IC N1IC 1_555 1_555
N2VD N1VD 1_555 1_555
N2BA N1BA 1_555 1_555
N2ZF N1ZF 1_555 1_555
N2CB Cu3CB 1_555 1_555
N2NE Cu3U 1_555 1_555
N2IB Cu3IB 1_555 1_555
N2SB Cu3SB 1_555 1_555
N2RE Cu3NA 1_555 1_555
N2XA Cu3XA 1_555 1_555
N2BF Cu3EC 1_555 1_555
N2ED Cu3HA 1_555 1_555
N2MB Cu3MB 1_555 1_555
N2XE Cu3GC 1_555 1_555
N2SE Cu3QA 1_555 1_555
O8 C1 1_555 1_555
C6 C7 1_555 1_555
C8 C9 1_555 1_555
N1 N2 1_555 1_555
Cu3CB N2GE 1_555 1_555
O8GE C1GE 1_555 1_555
O8U C1U 1_555 1_555
O8VF C1VF 1_555 1_555
O8TC C1TC 1_555 1_555
O8NA C1NA 1_555 1_555
O8OD C1OD 1_555 1_555
O8EC C1EC 1_555 1_555
O8IF C1IF 1_555 1_555
O8WD C1WD 1_555 1_555
O8QA C1QA 1_555 1_555
O8CA C1CA 1_555 1_555
O8XF C1XF 1_555 1_555
O8YF C1YF 1_555 1_555
O8BC C1BC 1_555 1_555
O8IC C1IC 1_555 1_555
O8VD C1VD 1_555 1_555
O8BA C1BA 1_555 1_555
C5GE C9GE 1_555 1_555
C6GE C7GE 1_555 1_555
C6U C7U 1_555 1_555
C6VF C7VF 1_555 1_555
C6TC C7TC 1_555 1_555
C6NA C7NA 1_555 1_555
C6OD C7OD 1_555 1_555
C6EC C7EC 1_555 1_555
C6IF C7IF 1_555 1_555
C6HA C7HA 1_555 1_555
C6WD C7WD 1_555 1_555
C6GC C7GC 1_555 1_555
C6QA C7QA 1_555 1_555
C6SC C7SC 1_555 1_555
C6CA C7CA 1_555 1_555
C6XF C7XF 1_555 1_555
C6YF C7YF 1_555 1_555
C6EA C7EA 1_555 1_555
C6BC C7BC 1_555 1_555
C6LD C7LD 1_555 1_555
C6IC C7IC 1_555 1_555
C6VD C7VD 1_555 1_555
C6BA C7BA 1_555 1_555
C6ZF C7ZF 1_555 1_555
C8U C9U 1_555 1_555
C8U C9VF 1_555 1_555
C8NA C9TC 1_555 1_555
C8NA C9NA 1_555 1_555
C8EC C9OD 1_555 1_555
C8EC C9EC 1_555 1_555
C8HA C9IF 1_555 1_555
C8HA C9HA 1_555 1_555
C8GC C9WD 1_555 1_555
C8GC C9GC 1_555 1_555
C8QA C9QA 1_555 1_555
C8QA C9SC 1_555 1_555
C8CA C9CA 1_555 1_555
C8CA C9XF 1_555 1_555
C8EA C9YF 1_555 1_555
C8EA C9EA 1_555 1_555
C8BC C9BC 1_555 1_555
C8BC C9LD 1_555 1_555
C8IC C9IC 1_555 1_555
C8IC C9VD 1_555 1_555
C8BA C9BA 1_555 1_555
C8BA C9ZF 1_555 1_555
C9GE C10GE 1_555 1_555
C10VF C11U 1_555 1_555
C10NA C11NA 1_555 1_555
C10EC C11EC 1_555 1_555
C10HA C11HA 1_555 1_555
C10GC C11GC 1_555 1_555
C10SC C11QA 1_555 1_555
C10XF C11CA 1_555 1_555
C10EA C11EA 1_555 1_555
C10LD C11BC 1_555 1_555
C10VD C11IC 1_555 1_555
C10ZF C11BA 1_555 1_555
N1GE N2GE 1_555 1_555
N1U N2U 1_555 1_555
N1VF N2VF 1_555 1_555
N1TC N2TC 1_555 1_555
N1NA N2NA 1_555 1_555
N1OD N2OD 1_555 1_555
N1EC N2EC 1_555 1_555
N1IF N2IF 1_555 1_555
N1HA N2HA 1_555 1_555
N1WD N2WD 1_555 1_555
N1GC N2GC 1_555 1_555
N1QA N2QA 1_555 1_555
N1SC N2SC 1_555 1_555
N2U N2VF 1_555 1_555
N2TC N2NA 1_555 1_555
N2OD N2EC 1_555 1_555
N2IF N2HA 1_555 1_555
N2WD N2GC 1_555 1_555
N2QA N2SC 1_555 1_555
N2CA N2XF 1_555 1_555
N2YF N2EA 1_555 1_555
N2BC N2LD 1_555 1_555
N2IC N2VD 1_555 1_555
N2BA N2ZF 1_555 1_555
N2CB N2ED 1_555 1_555

#END
