
#######################################################################
#
#                 Cambridge Crystallographic Data Centre
#                                CCDC 
#
#######################################################################
#
# If this CIF has been generated from an entry in the Cambridge 
# Structural Database, then it will include bibliographic, chemical, 
# crystal, experimental, refinement or atomic coordinate data resulting 
# from the CCDC's data processing and validation procedures.
#
#######################################################################

data_ADASOP
_chemical_formula_moiety         '(C78 H68 N4 O36 Zn6)n'
_chemical_name_systematic        
catena-(bis(\m~12~-5,5',5''-(1,3,5-benzenetriyltris(methyleneoxy))-tris(1,3-benzenedicarboxylato))-tetrakis(dimethylformamide)-diaqua-hexa-zinc)
_symmetry_cell_setting           tetragonal
_symmetry_space_group_name_H-M   'I 4/m'
_symmetry_Int_Tables_number      87
_space_group_name_Hall           '-I 4'
loop_
_symmetry_equiv_pos_site_id
_symmetry_equiv_pos_as_xyz
1 x,y,z
2 -x,-y,z
3 -y,x,z
4 y,-x,z
5 1/2+x,1/2+y,1/2+z
6 1/2-x,1/2-y,1/2+z
7 1/2-y,1/2+x,1/2+z
8 1/2+y,1/2-x,1/2+z
9 -x,-y,-z
10 x,y,-z
11 y,-x,-z
12 -y,x,-z
13 1/2-x,1/2-y,1/2-z
14 1/2+x,1/2+y,1/2-z
15 1/2+y,1/2-x,1/2-z
16 1/2-y,1/2+x,1/2-z
_cell_length_a                   29.3026(16)
_cell_length_b                   29.3026(16)
_cell_length_c                   41.672(3)
_cell_angle_alpha                90
_cell_angle_beta                 90
_cell_angle_gamma                90
_cell_volume                     35781.3
_exptl_crystal_colour            green
_exptl_crystal_description       block
_cell_formula_units_Z            8
loop_
_atom_site_label
_atom_site_type_symbol
_atom_site_fract_x
_atom_site_fract_y
_atom_site_fract_z
_atom_site_U_iso_or_equiv
_atom_site_thermal_displace_type
Zn1 Zn 0.62239(3) 0.35694(3) 0.36641(3) 0.0439 Uani
Zn2 Zn 0.47994(4) 0.23471(4) 0.5000 0.0438 Uani
Zn3 Zn 0.52545(4) -0.13265(3) 0.5000 0.0423 Uani
Zn4 Zn 0.69733(3) -0.32918(3) 0.31580(3) 0.0425 Uani
C1 C 0.6269(3) 0.2600(2) 0.3736(3) 0.0570 Uani
C2 C 0.6162(3) 0.2165(2) 0.3907(2) 0.0630 Uani
C3 C 0.5861(3) 0.2166(2) 0.4167(2) 0.0707 Uani
H1 H 0.5748 0.2448 0.4248 0.0850 Uiso
C4 C 0.5722(3) 0.1754(3) 0.4310(2) 0.0680 Uani
C5 C 0.5372(3) 0.1761(3) 0.4562(3) 0.0833 Uani
C6 C 0.5894(4) 0.1353(3) 0.4197(3) 0.1050 Uani
H2 H 0.5813 0.1071 0.4294 0.1260 Uiso
C7 C 0.6197(5) 0.1365(3) 0.3930(3) 0.1223 Uani
C8 C 0.6370(3) 0.1777(3) 0.3805(2) 0.0877 Uani
H3 H 0.6619 0.1782 0.3659 0.1050 Uiso
C9 C 0.6728(5) 0.0921(3) 0.3618(3) 0.1640 Uani
H4 H 0.7002 0.1091 0.3690 0.1970 Uiso
H5 H 0.6611 0.1069 0.3421 0.1970 Uiso
C10 C 0.5823(3) -0.1921(3) 0.4546(3) 0.0780 Uani
C11 C 0.6154(3) -0.1932(3) 0.4291(2) 0.0543 Uani
C12 C 0.6263(3) -0.2329(2) 0.4136(2) 0.0590 Uani
H6 H 0.6145 -0.2610 0.4213 0.0710 Uiso
C13 C 0.6542(3) -0.2326(3) 0.3871(2) 0.0590 Uani
C14 C 0.6640(3) -0.2755(3) 0.3700(3) 0.0603 Uani
C15 C 0.6730(3) -0.1922(3) 0.3762(2) 0.0907 Uani
H7 H 0.6928 -0.1921 0.3582 0.1090 Uiso
C16 C 0.6625(4) -0.1519(3) 0.3921(3) 0.1083 Uani
C17 C 0.6349(3) -0.1521(3) 0.4186(3) 0.0893 Uani
H8 H 0.6290 -0.1245 0.4299 0.1070 Uiso
C18 C 0.6657(5) -0.0719(3) 0.3906(3) 0.1533 Uani
H9 H 0.6740 -0.0673 0.4134 0.1840 Uiso
H10 H 0.6320 -0.0713 0.3887 0.1840 Uiso
C19 C 0.8232(3) -0.0695(3) 0.1875(3) 0.0663 Uani
C20 C 0.8149(3) -0.0257(2) 0.2037(2) 0.0537 Uani
C21 C 0.8289(3) 0.0152(2) 0.1916(2) 0.0550 Uani
H11 H 0.8463 0.0152 0.1724 0.0660 Uiso
C22 C 0.8195(3) 0.0553(3) 0.2054(2) 0.0550 Uani
C23 C 0.8340(3) 0.1003(2) 0.1916(3) 0.0520 Uani
C24 C 0.8011(3) 0.0542(3) 0.2356(3) 0.0933 Uani
H12 H 0.7981 0.0817 0.2475 0.1120 Uiso
C25 C 0.7870(4) 0.0137(3) 0.2491(3) 0.0953 Uani
C26 C 0.7936(4) -0.0266(3) 0.2334(3) 0.1017 Uani
H13 H 0.7838 -0.0547 0.2426 0.1220 Uiso
C27 C 0.7228(4) -0.0111(4) 0.3240(3) 0.1723 Uani
C28 C 0.7116(4) 0.0341(3) 0.3290(3) 0.1520 Uani
H14 H 0.7218 0.0574 0.3148 0.1820 Uiso
C29 C 0.7519(5) -0.0216(4) 0.2950(3) 0.1713 Uani
H15 H 0.7782 -0.0406 0.3017 0.2060 Uiso
H16 H 0.7336 -0.0395 0.2794 0.2060 Uiso
C30 C 0.6726(4) 0.0091(4) 0.3757(3) 0.1403 Uani
H17 H 0.6541 0.0161 0.3937 0.1680 Uiso
C31 C 0.6863(5) -0.0347(4) 0.3702(3) 0.1403 Uani
C32 C 0.7085(4) -0.0443(4) 0.3426(3) 0.1180 Uani
H18 H 0.7137 -0.0752 0.3367 0.1420 Uiso
C33 C 0.6859(4) 0.0438(4) 0.3543(3) 0.1660 Uani
O1 O 0.52468(19) 0.21333(19) 0.46725(16) 0.0847 Uani
O2 O 0.52406(18) 0.13687(18) 0.46641(15) 0.0733 Uani
O3 O 0.61071(17) 0.29568(17) 0.38569(15) 0.0687 Uani
O4 O 0.65087(19) 0.25700(17) 0.34853(16) 0.0687 Uani
O5 O 0.6389(4) 0.0940(2) 0.3861(2) 0.1647 Uani
O6 O 0.64775(18) -0.31147(17) 0.38141(15) 0.0697 Uani
O7 O 0.68521(19) -0.27317(16) 0.34261(15) 0.0597 Uani
O8 O 0.56822(18) -0.22971(18) 0.46566(15) 0.0773 Uani
O9 O 0.57078(18) -0.15388(18) 0.46715(14) 0.0713 Uani
O10 O 0.6829(3) -0.1141(2) 0.3795(2) 0.1423 Uani
O11 O 0.80658(17) -0.10449(16) 0.19878(14) 0.0617 Uani
O12 O 0.8466(2) -0.06703(17) 0.16066(15) 0.0657 Uani
O13 O 0.8541(2) 0.09771(18) 0.16534(16) 0.0727 Uani
O14 O 0.81866(16) 0.13562(17) 0.20445(13) 0.0567 Uani
O15 O 0.7680(4) 0.0183(2) 0.2800(3) 0.1773 Uani
O16 O 0.5394(2) -0.0654(2) 0.5000 0.0927 Uani
O17 O 0.73920(19) -0.30657(18) 0.28339(17) 0.0913 Uani
O18 O 0.4933(3) 0.3019(2) 0.5000 0.1110 Uani
O19 O 0.6033(2) 0.40335(18) 0.39763(15) 0.0847 Uani
N1 N 0.6399(4) 0.4724(4) 0.4168(4) 0.0870 Uiso
C34 C 0.6359(4) 0.4352(4) 0.3991(4) 0.0590 Uiso
H19 H 0.6607 0.4301 0.3848 0.0710 Uiso
C35 C 0.6734(4) 0.5030(4) 0.4175(4) 0.0480 Uiso
H20 H 0.6657 0.5273 0.4327 0.0720 Uiso
H21 H 0.6776 0.5160 0.3961 0.0720 Uiso
H22 H 0.7017 0.4881 0.4244 0.0720 Uiso
C36 C 0.5958(5) 0.4863(7) 0.4335(6) 0.1990 Uiso
H23 H 0.6008 0.5147 0.4454 0.2980 Uiso
H24 H 0.5865 0.4621 0.4483 0.2980 Uiso
H25 H 0.5719 0.4910 0.4174 0.2980 Uiso
N2 N 0.7982(3) -0.2923(3) 0.2485(3) 0.0300 Uiso
C37 C 0.7731(4) -0.2993(6) 0.2733(3) 0.0920 Uiso
H26 H 0.7930 -0.2972 0.2912 0.1100 Uiso
C38 C 0.7915(4) -0.3134(5) 0.2188(3) 0.0630 Uiso
H27 H 0.8146 -0.3026 0.2036 0.0950 Uiso
H28 H 0.7610 -0.3058 0.2107 0.0950 Uiso
H29 H 0.7941 -0.3465 0.2213 0.0950 Uiso
C39 C 0.8407(4) -0.2672(6) 0.2557(4) 0.1020 Uiso
H30 H 0.8580 -0.2626 0.2358 0.1540 Uiso
H31 H 0.8591 -0.2848 0.2709 0.1540 Uiso
H32 H 0.8331 -0.2375 0.2650 0.1540 Uiso
Zn1A Zn 0.37761(3) -0.35694(3) 0.36641(3) 0.0439 Uani
Zn1B Zn 0.64306(3) -0.37761(3) 0.36641(3) 0.0439 Uani
Zn1N Zn 0.85694(3) -0.12239(3) 0.13359(3) 0.0439 Uani
Zn1L Zn 0.87761(3) 0.14306(3) 0.13359(3) 0.0439 Uani
Zn1C Zn 0.35694(3) 0.37761(3) 0.36641(3) 0.0439 Uani
Zn1O Zn 0.14306(3) 0.12239(3) 0.13359(3) 0.0439 Uani
Zn1M Zn 0.12239(3) -0.14306(3) 0.13359(3) 0.0439 Uani
Zn2A Zn 0.52006(4) -0.23471(4) 0.5000 0.0438 Uani
Zn3A Zn 0.47455(4) 0.13265(3) 0.5000 0.0423 Uani
Zn4A Zn 0.30267(3) 0.32918(3) 0.31580(3) 0.0425 Uani
Zn4C Zn 0.67082(3) 0.30267(3) 0.31580(3) 0.0425 Uani
Zn4L Zn 0.80267(3) -0.17082(3) 0.18420(3) 0.0425 Uani
Zn4O Zn 0.82918(3) 0.19733(3) 0.18420(3) 0.0425 Uani
Zn4B Zn 0.32918(3) -0.30267(3) 0.31580(3) 0.0425 Uani
Zn4M Zn 0.19733(3) 0.17082(3) 0.18420(3) 0.0425 Uani
Zn4N Zn 0.17082(3) -0.19733(3) 0.18420(3) 0.0425 Uani
C1A C 0.3731(3) -0.2600(2) 0.3736(3) 0.0570 Uani
C2A C 0.3838(3) -0.2165(2) 0.3907(2) 0.0630 Uani
C3A C 0.4139(3) -0.2166(2) 0.4167(2) 0.0707 Uani
H1A H 0.4252 -0.2448 0.4248 0.0850 Uiso
C4A C 0.4278(3) -0.1754(3) 0.4310(2) 0.0680 Uani
C5A C 0.4628(3) -0.1761(3) 0.4562(3) 0.0833 Uani
C6A C 0.4106(4) -0.1353(3) 0.4197(3) 0.1050 Uani
H2A H 0.4187 -0.1071 0.4294 0.1260 Uiso
C7A C 0.3803(5) -0.1365(3) 0.3930(3) 0.1223 Uani
C8A C 0.3630(3) -0.1777(3) 0.3805(2) 0.0877 Uani
H3A H 0.3381 -0.1782 0.3659 0.1050 Uiso
C9A C 0.3272(5) -0.0921(3) 0.3618(3) 0.1640 Uani
H4A H 0.2998 -0.1091 0.3690 0.1970 Uiso
H5A H 0.3389 -0.1069 0.3421 0.1970 Uiso
C10A C 0.4177(3) 0.1921(3) 0.4546(3) 0.0780 Uani
C11A C 0.3846(3) 0.1932(3) 0.4291(2) 0.0543 Uani
C12A C 0.3737(3) 0.2329(2) 0.4136(2) 0.0590 Uani
H6A H 0.3855 0.2610 0.4213 0.0710 Uiso
C13A C 0.3458(3) 0.2326(3) 0.3871(2) 0.0590 Uani
C14A C 0.3360(3) 0.2755(3) 0.3700(3) 0.0603 Uani
C15A C 0.3270(3) 0.1922(3) 0.3762(2) 0.0907 Uani
H7A H 0.3072 0.1921 0.3582 0.1090 Uiso
C16A C 0.3375(4) 0.1519(3) 0.3921(3) 0.1083 Uani
C17A C 0.3651(3) 0.1521(3) 0.4186(3) 0.0893 Uani
H8A H 0.3710 0.1245 0.4299 0.1070 Uiso
C18A C 0.3343(5) 0.0719(3) 0.3906(3) 0.1533 Uani
H9A H 0.3260 0.0673 0.4134 0.1840 Uiso
H10A H 0.3680 0.0713 0.3887 0.1840 Uiso
C19A C 0.1768(3) 0.0695(3) 0.1875(3) 0.0663 Uani
C20A C 0.1851(3) 0.0257(2) 0.2037(2) 0.0537 Uani
C21A C 0.1711(3) -0.0152(2) 0.1916(2) 0.0550 Uani
H11A H 0.1537 -0.0152 0.1724 0.0660 Uiso
C22A C 0.1805(3) -0.0553(3) 0.2054(2) 0.0550 Uani
C23A C 0.1660(3) -0.1003(2) 0.1916(3) 0.0520 Uani
C24A C 0.1989(3) -0.0542(3) 0.2356(3) 0.0933 Uani
H12A H 0.2019 -0.0817 0.2475 0.1120 Uiso
C25A C 0.2130(4) -0.0137(3) 0.2491(3) 0.0953 Uani
C26A C 0.2064(4) 0.0266(3) 0.2334(3) 0.1017 Uani
H13A H 0.2162 0.0547 0.2426 0.1220 Uiso
C27A C 0.2772(4) 0.0111(4) 0.3240(3) 0.1723 Uani
C28A C 0.2884(4) -0.0341(3) 0.3290(3) 0.1520 Uani
H14A H 0.2782 -0.0574 0.3148 0.1820 Uiso
C29A C 0.2481(5) 0.0216(4) 0.2950(3) 0.1713 Uani
H15A H 0.2218 0.0406 0.3017 0.2060 Uiso
H16A H 0.2664 0.0395 0.2794 0.2060 Uiso
C30A C 0.3274(4) -0.0091(4) 0.3757(3) 0.1403 Uani
H17A H 0.3459 -0.0161 0.3937 0.1680 Uiso
C31A C 0.3137(5) 0.0347(4) 0.3702(3) 0.1403 Uani
C32A C 0.2915(4) 0.0443(4) 0.3426(3) 0.1180 Uani
H18A H 0.2863 0.0752 0.3367 0.1420 Uiso
C33A C 0.3141(4) -0.0438(4) 0.3543(3) 0.1660 Uani
O1A O 0.47532(19) -0.21333(19) 0.46725(16) 0.0847 Uani
O1I O 0.52468(19) 0.21333(19) 0.53275(16) 0.0847 Uani
O2A O 0.47594(18) -0.13687(18) 0.46641(15) 0.0733 Uani
O2H O 0.47594(18) -0.13687(18) 0.53359(15) 0.0733 Uani
O3A O 0.38929(17) -0.29568(17) 0.38569(15) 0.0687 Uani
O4A O 0.34913(19) -0.25700(17) 0.34853(16) 0.0687 Uani
O4B O 0.74300(17) -0.34913(19) 0.34853(16) 0.0687 Uani
O4C O 0.25700(17) 0.34913(19) 0.34853(16) 0.0687 Uani
O5A O 0.3611(4) -0.0940(2) 0.3861(2) 0.1647 Uani
O6A O 0.35225(18) 0.31147(17) 0.38141(15) 0.0697 Uani
O6C O 0.68853(17) 0.35225(18) 0.38141(15) 0.0697 Uani
O6B O 0.31147(17) -0.35225(18) 0.38141(15) 0.0697 Uani
O7A O 0.31479(19) 0.27317(16) 0.34261(15) 0.0597 Uani
O8A O 0.43178(18) 0.22971(18) 0.46566(15) 0.0773 Uani
O8H O 0.43178(18) 0.22971(18) 0.53434(15) 0.0773 Uani
O9A O 0.42922(18) 0.15388(18) 0.46715(14) 0.0713 Uani
O9I O 0.57078(18) -0.15388(18) 0.53285(14) 0.0713 Uani
O10A O 0.3171(3) 0.1141(2) 0.3795(2) 0.1423 Uani
O11A O 0.19342(17) 0.10449(16) 0.19878(14) 0.0617 Uani
O11L O 0.69342(17) -0.39551(16) 0.30122(14) 0.0617 Uani
O11M O 0.30658(17) 0.39551(16) 0.30122(14) 0.0617 Uani
O12A O 0.1534(2) 0.06703(17) 0.16066(15) 0.0657 Uani
O12O O 0.56703(17) 0.3466(2) 0.33934(15) 0.0657 Uani
O12N O 0.43297(17) -0.3466(2) 0.33934(15) 0.0657 Uani
O13A O 0.1459(2) -0.09771(18) 0.16534(16) 0.0727 Uani
O13L O 0.6459(2) 0.40229(18) 0.33466(16) 0.0727 Uani
O13M O 0.3541(2) -0.40229(18) 0.33466(16) 0.0727 Uani
O14A O 0.18134(16) -0.13562(17) 0.20445(13) 0.0567 Uani
O14N O 0.63562(17) -0.31866(16) 0.29555(13) 0.0567 Uani
O14O O 0.36438(17) 0.31866(16) 0.29555(13) 0.0567 Uani
O15A O 0.2320(4) -0.0183(2) 0.2800(3) 0.1773 Uani
O17A O 0.26080(19) 0.30657(18) 0.28339(17) 0.0913 Uani
O19A O 0.3967(2) -0.40335(18) 0.39763(15) 0.0847 Uani
N1A N 0.3601(4) -0.4724(4) 0.4168(4) 0.0870 Uiso
C34A C 0.3641(4) -0.4352(4) 0.3991(4) 0.0590 Uiso
H19A H 0.3393 -0.4301 0.3848 0.0710 Uiso
C35A C 0.3266(4) -0.5030(4) 0.4175(4) 0.0480 Uiso
H20A H 0.3343 -0.5273 0.4327 0.0720 Uiso
H21A H 0.3224 -0.5160 0.3961 0.0720 Uiso
H22A H 0.2983 -0.4881 0.4244 0.0720 Uiso
C36A C 0.4042(5) -0.4863(7) 0.4335(6) 0.1990 Uiso
H23A H 0.3992 -0.5147 0.4454 0.2980 Uiso
H24A H 0.4135 -0.4621 0.4483 0.2980 Uiso
H25A H 0.4281 -0.4910 0.4174 0.2980 Uiso
N2A N 0.2018(3) 0.2923(3) 0.2485(3) 0.0300 Uiso
C37A C 0.2269(4) 0.2993(6) 0.2733(3) 0.0920 Uiso
H26A H 0.2070 0.2972 0.2912 0.1100 Uiso
C38A C 0.2085(4) 0.3134(5) 0.2188(3) 0.0630 Uiso
H27A H 0.1854 0.3026 0.2036 0.0950 Uiso
H28A H 0.2390 0.3058 0.2107 0.0950 Uiso
H29A H 0.2059 0.3465 0.2213 0.0950 Uiso
C39A C 0.1593(4) 0.2672(6) 0.2557(4) 0.1020 Uiso
H30A H 0.1420 0.2626 0.2358 0.1540 Uiso
H31A H 0.1409 0.2848 0.2709 0.1540 Uiso
H32A H 0.1669 0.2375 0.2650 0.1540 Uiso
loop_
_atom_site_aniso_label
_atom_site_aniso_U_11
_atom_site_aniso_U_22
_atom_site_aniso_U_33
_atom_site_aniso_U_23
_atom_site_aniso_U_13
_atom_site_aniso_U_12
Zn1 0.0386(5) 0.0391(5) 0.0539(10) -0.0123(5) 0.0126(5) -0.0044(3)
Zn2 0.0548(7) 0.0276(6) 0.0490(13) 0.000 0.000 -0.0029(5)
Zn3 0.0556(7) 0.0234(6) 0.0479(13) 0.000 0.000 -0.0023(5)
Zn4 0.0370(5) 0.0385(5) 0.0521(10) 0.0123(5) 0.0136(5) 0.0042(3)
C1 0.082(6) 0.038(4) 0.051(9) 0.011(5) 0.002(6) 0.008(4)
C2 0.076(5) 0.053(5) 0.060(9) 0.001(5) 0.026(6) 0.004(4)
C3 0.086(6) 0.045(4) 0.081(9) 0.010(5) 0.021(6) 0.005(4)
C4 0.097(6) 0.073(6) 0.034(8) 0.008(5) 0.019(6) 0.016(5)
C5 0.070(6) 0.078(7) 0.102(11) 0.008(7) 0.032(6) 0.009(5)
C6 0.143(9) 0.049(5) 0.123(12) 0.004(6) 0.086(9) 0.012(5)
C7 0.190(12) 0.068(7) 0.109(12) -0.006(7) 0.070(10) 0.029(7)
C8 0.132(8) 0.063(6) 0.068(9) 0.011(6) 0.057(7) 0.011(5)
C9 0.193(9) 0.123(7) 0.176(10) 0.005(8) 0.066(7) 0.012(7)
C10 0.072(6) 0.060(6) 0.102(11) -0.001(6) 0.015(6) 0.010(4)
C11 0.082(6) 0.061(5) 0.020(7) 0.004(5) 0.025(5) 0.002(4)
C12 0.070(5) 0.045(4) 0.062(9) 0.001(5) 0.015(6) 0.001(4)
C13 0.089(6) 0.057(5) 0.031(8) 0.003(5) 0.019(6) 0.007(4)
C14 0.084(6) 0.060(5) 0.037(9) -0.012(6) 0.017(6) 0.013(4)
C15 0.133(8) 0.064(6) 0.075(10) 0.003(6) 0.054(7) 0.001(5)
C16 0.147(9) 0.055(6) 0.123(13) -0.008(7) 0.074(9) -0.002(6)
C17 0.129(8) 0.051(5) 0.088(11) -0.009(6) 0.052(8) 0.000(5)
C18 0.238(15) 0.107(9) 0.115(13) -0.016(9) 0.101(12) -0.010(10)
C19 0.083(6) 0.054(5) 0.062(10) -0.008(6) 0.005(6) 0.009(4)
C20 0.081(5) 0.058(5) 0.022(8) 0.007(5) 0.014(5) 0.003(4)
C21 0.075(5) 0.056(5) 0.034(8) -0.001(5) 0.016(5) 0.005(4)
C22 0.092(6) 0.063(5) 0.010(8) -0.005(5) 0.020(5) -0.006(4)
C23 0.095(6) 0.044(5) 0.017(9) 0.002(5) 0.004(6) -0.004(4)
C24 0.141(9) 0.048(5) 0.091(11) -0.005(6) 0.023(8) -0.005(5)
C25 0.133(7) 0.066(5) 0.087(7) -0.002(6) 0.026(6) 0.006(5)
C26 0.147(9) 0.058(6) 0.100(11) 0.007(6) 0.072(9) 0.010(5)
C27 0.262(17) 0.095(9) 0.160(16) 0.004(10) 0.167(14) 0.012(10)
C28 0.225(15) 0.087(8) 0.144(15) 0.018(9) 0.103(12) 0.014(9)
C29 0.218(10) 0.147(8) 0.149(9) 0.022(7) 0.056(8) -0.003(7)
C30 0.193(13) 0.115(10) 0.113(13) 0.006(10) 0.091(11) -0.008(9)
C31 0.211(14) 0.078(8) 0.132(15) 0.014(9) 0.080(12) -0.032(8)
C32 0.189(12) 0.089(8) 0.076(12) 0.000(8) 0.066(10) 0.007(8)
C33 0.202(14) 0.076(7) 0.22(2) 0.006(10) 0.112(13) 0.027(8)
O1 0.103(4) 0.069(4) 0.082(6) 0.006(4) 0.038(4) 0.017(3)
O2 0.083(4) 0.065(3) 0.072(6) 0.016(4) 0.024(4) 0.000(3)
O3 0.079(3) 0.057(3) 0.070(5) 0.016(3) 0.020(4) 0.001(3)
O4 0.091(4) 0.063(3) 0.052(6) 0.000(3) 0.037(4) -0.002(3)
O5 0.278(11) 0.096(5) 0.120(8) 0.006(5) 0.113(8) 0.037(6)
O6 0.089(4) 0.049(3) 0.071(5) -0.010(3) 0.025(4) -0.002(3)
O7 0.087(4) 0.060(3) 0.032(5) -0.010(3) 0.011(4) 0.010(3)
O8 0.086(4) 0.067(4) 0.079(6) 0.006(4) 0.030(4) 0.000(3)
O9 0.086(4) 0.065(3) 0.063(6) 0.000(4) 0.014(4) 0.005(3)
O10 0.205(8) 0.072(5) 0.150(9) -0.006(5) 0.091(7) -0.001(5)
O11 0.091(4) 0.044(3) 0.050(5) -0.004(3) 0.009(3) 0.002(3)
O12 0.101(4) 0.072(4) 0.024(5) -0.008(3) 0.008(4) 0.004(3)
O13 0.122(5) 0.065(3) 0.031(5) -0.006(4) 0.020(4) -0.018(3)
O14 0.075(3) 0.057(3) 0.038(5) 0.002(3) 0.016(3) -0.013(3)
O15 0.260(11) 0.087(5) 0.185(10) 0.015(6) 0.140(9) 0.001(6)
O16 0.064(5) 0.049(4) 0.165(10) 0.000 0.000 0.003(3)
O17 0.083(4) 0.073(4) 0.118(6) 0.049(4) 0.015(4) 0.011(3)
O18 0.089(6) 0.045(4) 0.199(12) 0.000 0.000 -0.010(4)
O19 0.114(4) 0.072(4) 0.068(5) -0.015(4) 0.020(4) 0.019(3)
Zn1A 0.0386 0.0391 0.0539 0.0123 -0.0126 -0.0044
Zn1B 0.0391 0.0386 0.0539 0.0126 0.0123 0.0044
Zn1N 0.0391 0.0386 0.0539 0.0126 0.0123 0.0044
Zn1L 0.0386 0.0391 0.0539 -0.0123 0.0126 -0.0044
Zn1C 0.0391 0.0386 0.0539 -0.0126 -0.0123 0.0044
Zn1O 0.0391 0.0386 0.0539 -0.0126 -0.0123 0.0044
Zn1M 0.0386 0.0391 0.0539 0.0123 -0.0126 -0.0044
Zn2A 0.0548 0.0276 0.049 0 0 -0.0029
Zn3A 0.0556 0.0234 0.0479 0 0 -0.0023
Zn4A 0.037 0.0385 0.0521 -0.0123 -0.0136 0.0042
Zn4C 0.0385 0.037 0.0521 -0.0136 0.0123 -0.0042
Zn4L 0.037 0.0385 0.0521 0.0123 0.0136 0.0042
Zn4O 0.0385 0.037 0.0521 -0.0136 0.0123 -0.0042
Zn4B 0.0385 0.037 0.0521 0.0136 -0.0123 -0.0042
Zn4M 0.037 0.0385 0.0521 -0.0123 -0.0136 0.0042
Zn4N 0.0385 0.037 0.0521 0.0136 -0.0123 -0.0042
C1A 0.082 0.038 0.051 -0.011 -0.002 0.008
C2A 0.076 0.053 0.06 -0.001 -0.026 0.004
C3A 0.086 0.045 0.081 -0.01 -0.021 0.005
C4A 0.097 0.073 0.034 -0.008 -0.019 0.016
C5A 0.07 0.078 0.102 -0.008 -0.032 0.009
C6A 0.143 0.049 0.123 -0.004 -0.086 0.012
C7A 0.19 0.068 0.109 0.006 -0.07 0.029
C8A 0.132 0.063 0.068 -0.011 -0.057 0.011
C9A 0.193 0.123 0.176 -0.005 -0.066 0.012
C10A 0.072 0.06 0.102 0.001 -0.015 0.01
C11A 0.082 0.061 0.02 -0.004 -0.025 0.002
C12A 0.07 0.045 0.062 -0.001 -0.015 0.001
C13A 0.089 0.057 0.031 -0.003 -0.019 0.007
C14A 0.084 0.06 0.037 0.012 -0.017 0.013
C15A 0.133 0.064 0.075 -0.003 -0.054 0.001
C16A 0.147 0.055 0.123 0.008 -0.074 -0.002
C17A 0.129 0.051 0.088 0.009 -0.052 0
C18A 0.238 0.107 0.115 0.016 -0.101 -0.01
C19A 0.083 0.054 0.062 0.008 -0.005 0.009
C20A 0.081 0.058 0.022 -0.007 -0.014 0.003
C21A 0.075 0.056 0.034 0.001 -0.016 0.005
C22A 0.092 0.063 0.01 0.005 -0.02 -0.006
C23A 0.095 0.044 0.017 -0.002 -0.004 -0.004
C24A 0.141 0.048 0.091 0.005 -0.023 -0.005
C25A 0.133 0.066 0.087 0.002 -0.026 0.006
C26A 0.147 0.058 0.1 -0.007 -0.072 0.01
C27A 0.262 0.095 0.16 -0.004 -0.167 0.012
C28A 0.225 0.087 0.144 -0.018 -0.103 0.014
C29A 0.218 0.147 0.149 -0.022 -0.056 -0.003
C30A 0.193 0.115 0.113 -0.006 -0.091 -0.008
C31A 0.211 0.078 0.132 -0.014 -0.08 -0.032
C32A 0.189 0.089 0.076 0 -0.066 0.007
C33A 0.202 0.076 0.22 -0.006 -0.112 0.027
O1A 0.103 0.069 0.082 -0.006 -0.038 0.017
O1I 0.103 0.069 0.082 -0.006 -0.038 0.017
O2A 0.083 0.065 0.072 -0.016 -0.024 0
O2H 0.083 0.065 0.072 0.016 0.024 0
O3A 0.079 0.057 0.07 -0.016 -0.02 0.001
O4A 0.091 0.063 0.052 0 -0.037 -0.002
O4B 0.063 0.091 0.052 0.037 0 0.002
O4C 0.063 0.091 0.052 -0.037 0 0.002
O5A 0.278 0.096 0.12 -0.006 -0.113 0.037
O6A 0.089 0.049 0.071 0.01 -0.025 -0.002
O6C 0.049 0.089 0.071 -0.025 -0.01 0.002
O6B 0.049 0.089 0.071 0.025 0.01 0.002
O7A 0.087 0.06 0.032 0.01 -0.011 0.01
O8A 0.086 0.067 0.079 -0.006 -0.03 0
O8H 0.086 0.067 0.079 0.006 0.03 0
O9A 0.086 0.065 0.063 0 -0.014 0.005
O9I 0.086 0.065 0.063 0 -0.014 0.005
O10A 0.205 0.072 0.15 0.006 -0.091 -0.001
O11A 0.091 0.044 0.05 0.004 -0.009 0.002
O11L 0.091 0.044 0.05 -0.004 0.009 0.002
O11M 0.091 0.044 0.05 0.004 -0.009 0.002
O12A 0.101 0.072 0.024 0.008 -0.008 0.004
O12O 0.072 0.101 0.024 -0.008 -0.008 -0.004
O12N 0.072 0.101 0.024 0.008 0.008 -0.004
O13A 0.122 0.065 0.031 0.006 -0.02 -0.018
O13L 0.122 0.065 0.031 -0.006 0.02 -0.018
O13M 0.122 0.065 0.031 0.006 -0.02 -0.018
O14A 0.075 0.057 0.038 -0.002 -0.016 -0.013
O14N 0.057 0.075 0.038 0.016 -0.002 0.013
O14O 0.057 0.075 0.038 -0.016 0.002 0.013
O15A 0.26 0.087 0.185 -0.015 -0.14 0.001
O17A 0.083 0.073 0.118 -0.049 -0.015 0.011
O19A 0.114 0.072 0.068 0.015 -0.02 0.019
loop_
_geom_bond_atom_site_label_1
_geom_bond_atom_site_label_2
_geom_bond_site_symmetry_1
_geom_bond_site_symmetry_2
Zn1 O3 1_555 1_555
Zn2 O1 1_555 1_555
Zn3 O9 1_555 1_555
Zn4 O7 1_555 1_555
C1 C2 1_555 1_555
C2 C3 1_555 1_555
C3 H1 1_555 1_555
C4 C3 1_555 1_555
C5 C4 1_555 1_555
C6 C4 1_555 1_555
H2 C6 1_555 1_555
C7 C6 1_555 1_555
C8 C2 1_555 1_555
H3 C8 1_555 1_555
C9 H4 1_555 1_555
H5 C9 1_555 1_555
C10 C11 1_555 1_555
C11 C12 1_555 1_555
C12 H6 1_555 1_555
C13 C12 1_555 1_555
C14 C13 1_555 1_555
C15 C13 1_555 1_555
H7 C15 1_555 1_555
C16 C15 1_555 1_555
C17 C11 1_555 1_555
H8 C17 1_555 1_555
C18 H9 1_555 1_555
H10 C18 1_555 1_555
C19 C20 1_555 1_555
C20 C21 1_555 1_555
C21 H11 1_555 1_555
C22 C21 1_555 1_555
C23 C22 1_555 1_555
C24 C22 1_555 1_555
H12 C24 1_555 1_555
C25 C24 1_555 1_555
C26 C20 1_555 1_555
H13 C26 1_555 1_555
C27 C28 1_555 1_555
C28 H14 1_555 1_555
C29 C27 1_555 1_555
H15 C29 1_555 1_555
H16 C29 1_555 1_555
C30 H17 1_555 1_555
C31 C18 1_555 1_555
C32 C27 1_555 1_555
H18 C32 1_555 1_555
C33 C9 1_555 1_555
O1 C5 1_555 1_555
O2 C5 1_555 1_555
O3 C1 1_555 1_555
O4 C1 1_555 1_555
O5 C7 1_555 1_555
O6 C14 1_555 1_555
O7 C14 1_555 1_555
O8 C10 1_555 1_555
O9 C10 1_555 1_555
O10 C16 1_555 1_555
O11 C19 1_555 1_555
O12 C19 1_555 1_555
O13 C23 1_555 1_555
O14 C23 1_555 1_555
O15 C25 1_555 1_555
O16 Zn3 1_555 1_555
O17 Zn4 1_555 1_555
O18 Zn2 1_555 1_555
O19 Zn1 1_555 1_555
N1 C34 1_555 1_555
C34 O19 1_555 1_555
H19 C34 1_555 1_555
C35 N1 1_555 1_555
H20 C35 1_555 1_555
H21 C35 1_555 1_555
H22 C35 1_555 1_555
C36 N1 1_555 1_555
H23 C36 1_555 1_555
H24 C36 1_555 1_555
H25 C36 1_555 1_555
N2 C37 1_555 1_555
C37 O17 1_555 1_555
H26 C37 1_555 1_555
C38 N2 1_555 1_555
H27 C38 1_555 1_555
H28 C38 1_555 1_555
H29 C38 1_555 1_555
C39 N2 1_555 1_555
H30 C39 1_555 1_555
H31 C39 1_555 1_555
H32 C39 1_555 1_555
Zn1A O3A 1_555 1_555
Zn1B O6 1_555 1_555
Zn1N O12 1_555 1_555
Zn1L O13 1_555 1_555
Zn1C O6A 1_555 1_555
Zn1O O12A 1_555 1_555
Zn1M O13A 1_555 1_555
Zn2A O8 1_555 1_555
Zn3A O2 1_555 1_555
Zn4A O4C 1_555 1_555
Zn4C O4 1_555 1_555
Zn4L O11 1_555 1_555
Zn4O O14 1_555 1_555
Zn4B O4A 1_555 1_555
Zn4M O11A 1_555 1_555
Zn4N O14A 1_555 1_555
C1A C2A 1_555 1_555
C2A C3A 1_555 1_555
C3A H1A 1_555 1_555
C4A C3A 1_555 1_555
C5A C4A 1_555 1_555
C6A C4A 1_555 1_555
H2A C6A 1_555 1_555
C7A C6A 1_555 1_555
C8A C2A 1_555 1_555
H3A C8A 1_555 1_555
C9A H4A 1_555 1_555
H5A C9A 1_555 1_555
C10A C11A 1_555 1_555
C11A C12A 1_555 1_555
C12A H6A 1_555 1_555
C13A C12A 1_555 1_555
C14A C13A 1_555 1_555
C15A C13A 1_555 1_555
H7A C15A 1_555 1_555
C16A C15A 1_555 1_555
C17A C11A 1_555 1_555
H8A C17A 1_555 1_555
C18A H9A 1_555 1_555
H10A C18A 1_555 1_555
C19A C20A 1_555 1_555
C20A C21A 1_555 1_555
C21A H11A 1_555 1_555
C22A C21A 1_555 1_555
C23A C22A 1_555 1_555
C24A C22A 1_555 1_555
H12A C24A 1_555 1_555
C25A C24A 1_555 1_555
C26A C20A 1_555 1_555
H13A C26A 1_555 1_555
C27A C28A 1_555 1_555
C28A H14A 1_555 1_555
C29A C27A 1_555 1_555
H15A C29A 1_555 1_555
H16A C29A 1_555 1_555
C30A H17A 1_555 1_555
C31A C18A 1_555 1_555
C32A C27A 1_555 1_555
H18A C32A 1_555 1_555
C33A C9A 1_555 1_555
O1A Zn2A 1_555 1_555
O1I Zn2 1_555 1_555
O2A Zn3 1_555 1_555
O2H Zn3 1_555 1_555
O3A C1A 1_555 1_555
O4A C1A 1_555 1_555
O4B Zn4 1_555 1_555
O5A C7A 1_555 1_555
O6A C14A 1_555 1_555
O6C Zn1 1_555 1_555
O6B Zn1A 1_555 1_555
O7A Zn4A 1_555 1_555
O8A Zn2 1_555 1_555
O8H Zn2 1_555 1_555
O9A Zn3A 1_555 1_555
O9I Zn3 1_555 1_555
O10A C16A 1_555 1_555
O11A C19A 1_555 1_555
O11L Zn4 1_555 1_555
O11M Zn4A 1_555 1_555
O12A C19A 1_555 1_555
O12O Zn1 1_555 1_555
O12N Zn1A 1_555 1_555
O13A C23A 1_555 1_555
O13L Zn1 1_555 1_555
O13M Zn1A 1_555 1_555
O14A C23A 1_555 1_555
O14N Zn4 1_555 1_555
O14O Zn4A 1_555 1_555
O15A C25A 1_555 1_555
O17A Zn4A 1_555 1_555
O19A Zn1A 1_555 1_555
N1A C34A 1_555 1_555
C34A O19A 1_555 1_555
H19A C34A 1_555 1_555
C35A N1A 1_555 1_555
H20A C35A 1_555 1_555
H21A C35A 1_555 1_555
H22A C35A 1_555 1_555
C36A N1A 1_555 1_555
H23A C36A 1_555 1_555
H24A C36A 1_555 1_555
H25A C36A 1_555 1_555
N2A C37A 1_555 1_555
C37A O17A 1_555 1_555
H26A C37A 1_555 1_555
C38A N2A 1_555 1_555
H27A C38A 1_555 1_555
H28A C38A 1_555 1_555
H29A C38A 1_555 1_555
C39A N2A 1_555 1_555
H30A C39A 1_555 1_555
H31A C39A 1_555 1_555
H32A C39A 1_555 1_555
C7 C8 1_555 1_555
C9 O5 1_555 1_555
C16 C17 1_555 1_555
C18 O10 1_555 1_555
C25 C26 1_555 1_555
C28 C33 1_555 1_555
C29 O15 1_555 1_555
C30 C31 1_555 1_555
C30 C33 1_555 1_555
C31 C32 1_555 1_555
C5A O1A 1_555 1_555
C5A O2A 1_555 1_555
C7A C8A 1_555 1_555
C9A O5A 1_555 1_555
C10A O8A 1_555 1_555
C10A O9A 1_555 1_555
C14A O7A 1_555 1_555
C16A C17A 1_555 1_555
C18A O10A 1_555 1_555
C25A C26A 1_555 1_555
C28A C33A 1_555 1_555
C29A O15A 1_555 1_555
C30A C31A 1_555 1_555
C30A C33A 1_555 1_555
C31A C32A 1_555 1_555

#END
