
#######################################################################
#
#                 Cambridge Crystallographic Data Centre
#                                CCDC 
#
#######################################################################
#
# If this CIF has been generated from an entry in the Cambridge 
# Structural Database, then it will include bibliographic, chemical, 
# crystal, experimental, refinement or atomic coordinate data resulting 
# from the CCDC's data processing and validation procedures.
#
#######################################################################

data_ADATEG
_chemical_formula_moiety         '(C84 H51 Cu3 N1 O15)n'
_chemical_name_systematic        
"catena-((\m~12~-tris(4-(5'-ethynyl-1,1':3''.1''-terphenyl-4,4''-dicarboxylic acid)phenyl)amine)-tri-aqua-tri-copper unknown solvate)"
_symmetry_cell_setting           cubic
_symmetry_space_group_name_H-M   'F m -3 m'
_symmetry_Int_Tables_number      225
_space_group_name_Hall           '-F 4 2 3'
loop_
_symmetry_equiv_pos_site_id
_symmetry_equiv_pos_as_xyz
1 x,y,z
2 -x,-y,z
3 -x,y,-z
4 x,-y,-z
5 z,x,y
6 z,-x,-y
7 -z,-x,y
8 -z,x,-y
9 y,z,x
10 -y,z,-x
11 y,-z,-x
12 -y,-z,x
13 y,x,-z
14 -y,-x,-z
15 y,-x,z
16 -y,x,z
17 x,z,-y
18 -x,z,y
19 -x,-z,-y
20 x,-z,y
21 z,y,-x
22 z,-y,x
23 -z,y,x
24 -z,-y,-x
25 x,1/2+y,1/2+z
26 -x,1/2-y,1/2+z
27 -x,1/2+y,1/2-z
28 x,1/2-y,1/2-z
29 z,1/2+x,1/2+y
30 z,1/2-x,1/2-y
31 -z,1/2-x,1/2+y
32 -z,1/2+x,1/2-y
33 y,1/2+z,1/2+x
34 -y,1/2+z,1/2-x
35 y,1/2-z,1/2-x
36 -y,1/2-z,1/2+x
37 y,1/2+x,1/2-z
38 -y,1/2-x,1/2-z
39 y,1/2-x,1/2+z
40 -y,1/2+x,1/2+z
41 x,1/2+z,1/2-y
42 -x,1/2+z,1/2+y
43 -x,1/2-z,1/2-y
44 x,1/2-z,1/2+y
45 z,1/2+y,1/2-x
46 z,1/2-y,1/2+x
47 -z,1/2+y,1/2+x
48 -z,1/2-y,1/2-x
49 1/2+x,y,1/2+z
50 1/2-x,-y,1/2+z
51 1/2-x,y,1/2-z
52 1/2+x,-y,1/2-z
53 1/2+z,x,1/2+y
54 1/2+z,-x,1/2-y
55 1/2-z,-x,1/2+y
56 1/2-z,x,1/2-y
57 1/2+y,z,1/2+x
58 1/2-y,z,1/2-x
59 1/2+y,-z,1/2-x
60 1/2-y,-z,1/2+x
61 1/2+y,x,1/2-z
62 1/2-y,-x,1/2-z
63 1/2+y,-x,1/2+z
64 1/2-y,x,1/2+z
65 1/2+x,z,1/2-y
66 1/2-x,z,1/2+y
67 1/2-x,-z,1/2-y
68 1/2+x,-z,1/2+y
69 1/2+z,y,1/2-x
70 1/2+z,-y,1/2+x
71 1/2-z,y,1/2+x
72 1/2-z,-y,1/2-x
73 1/2+x,1/2+y,z
74 1/2-x,1/2-y,z
75 1/2-x,1/2+y,-z
76 1/2+x,1/2-y,-z
77 1/2+z,1/2+x,y
78 1/2+z,1/2-x,-y
79 1/2-z,1/2-x,y
80 1/2-z,1/2+x,-y
81 1/2+y,1/2+z,x
82 1/2-y,1/2+z,-x
83 1/2+y,1/2-z,-x
84 1/2-y,1/2-z,x
85 1/2+y,1/2+x,-z
86 1/2-y,1/2-x,-z
87 1/2+y,1/2-x,z
88 1/2-y,1/2+x,z
89 1/2+x,1/2+z,-y
90 1/2-x,1/2+z,y
91 1/2-x,1/2-z,-y
92 1/2+x,1/2-z,y
93 1/2+z,1/2+y,-x
94 1/2+z,1/2-y,x
95 1/2-z,1/2+y,x
96 1/2-z,1/2-y,-x
97 -x,-y,-z
98 x,y,-z
99 x,-y,z
100 -x,y,z
101 -z,-x,-y
102 -z,x,y
103 z,x,-y
104 z,-x,y
105 -y,-z,-x
106 y,-z,x
107 -y,z,x
108 y,z,-x
109 -y,-x,z
110 y,x,z
111 -y,x,-z
112 y,-x,-z
113 -x,-z,y
114 x,-z,-y
115 x,z,y
116 -x,z,-y
117 -z,-y,x
118 -z,y,-x
119 z,-y,-x
120 z,y,x
121 -x,1/2-y,1/2-z
122 x,1/2+y,1/2-z
123 x,1/2-y,1/2+z
124 -x,1/2+y,1/2+z
125 -z,1/2-x,1/2-y
126 -z,1/2+x,1/2+y
127 z,1/2+x,1/2-y
128 z,1/2-x,1/2+y
129 -y,1/2-z,1/2-x
130 y,1/2-z,1/2+x
131 -y,1/2+z,1/2+x
132 y,1/2+z,1/2-x
133 -y,1/2-x,1/2+z
134 y,1/2+x,1/2+z
135 -y,1/2+x,1/2-z
136 y,1/2-x,1/2-z
137 -x,1/2-z,1/2+y
138 x,1/2-z,1/2-y
139 x,1/2+z,1/2+y
140 -x,1/2+z,1/2-y
141 -z,1/2-y,1/2+x
142 -z,1/2+y,1/2-x
143 z,1/2-y,1/2-x
144 z,1/2+y,1/2+x
145 1/2-x,-y,1/2-z
146 1/2+x,y,1/2-z
147 1/2+x,-y,1/2+z
148 1/2-x,y,1/2+z
149 1/2-z,-x,1/2-y
150 1/2-z,x,1/2+y
151 1/2+z,x,1/2-y
152 1/2+z,-x,1/2+y
153 1/2-y,-z,1/2-x
154 1/2+y,-z,1/2+x
155 1/2-y,z,1/2+x
156 1/2+y,z,1/2-x
157 1/2-y,-x,1/2+z
158 1/2+y,x,1/2+z
159 1/2-y,x,1/2-z
160 1/2+y,-x,1/2-z
161 1/2-x,-z,1/2+y
162 1/2+x,-z,1/2-y
163 1/2+x,z,1/2+y
164 1/2-x,z,1/2-y
165 1/2-z,-y,1/2+x
166 1/2-z,y,1/2-x
167 1/2+z,-y,1/2-x
168 1/2+z,y,1/2+x
169 1/2-x,1/2-y,-z
170 1/2+x,1/2+y,-z
171 1/2+x,1/2-y,z
172 1/2-x,1/2+y,z
173 1/2-z,1/2-x,-y
174 1/2-z,1/2+x,y
175 1/2+z,1/2+x,-y
176 1/2+z,1/2-x,y
177 1/2-y,1/2-z,-x
178 1/2+y,1/2-z,x
179 1/2-y,1/2+z,x
180 1/2+y,1/2+z,-x
181 1/2-y,1/2-x,z
182 1/2+y,1/2+x,z
183 1/2-y,1/2+x,-z
184 1/2+y,1/2-x,-z
185 1/2-x,1/2-z,y
186 1/2+x,1/2-z,-y
187 1/2+x,1/2+z,y
188 1/2-x,1/2+z,-y
189 1/2-z,1/2-y,x
190 1/2-z,1/2+y,-x
191 1/2+z,1/2-y,-x
192 1/2+z,1/2+y,x
_cell_length_a                   68.604(5)
_cell_length_b                   68.604(5)
_cell_length_c                   68.604(5)
_cell_angle_alpha                90
_cell_angle_beta                 90
_cell_angle_gamma                90
_cell_volume                     322885
_exptl_crystal_colour            green
_exptl_crystal_description       polyhedral
_cell_formula_units_Z            32
loop_
_atom_site_label
_atom_site_type_symbol
_atom_site_fract_x
_atom_site_fract_y
_atom_site_fract_z
_atom_site_U_iso_or_equiv
_atom_site_thermal_displace_type
Cu1 Cu 0.5000 0.31617(6) 0.18383(6) 0.2030 Uani
Cu2 Cu 0.5000 0.34282(8) 0.15718(8) 0.2493 Uani
O1 O 0.48260(15) 0.32810(15) 0.14484(13) 0.1383 Uani
O2 O 0.48325(15) 0.30434(14) 0.16655(18) 0.1803 Uani
O3 O 0.5000 0.3669(2) 0.1331(2) 0.2607 Uani
C1 C 0.47668(15) 0.3116(2) 0.1509(2) 0.1840 Uiso
C2 C 0.46170(16) 0.3002(2) 0.1397(2) 0.2830 Uiso
C3 C 0.4549(2) 0.2828(2) 0.14659(18) 0.2640 Uiso
H1 H 0.4593 0.2780 0.1588 0.3170 Uiso
C4 C 0.4416(2) 0.27210(19) 0.1357(3) 0.2950 Uiso
H2 H 0.4370 0.2600 0.1406 0.3550 Uiso
C5 C 0.43483(16) 0.2791(3) 0.1174(2) 0.3010 Uiso
C6 C 0.4419(2) 0.2966(3) 0.11075(18) 0.2880 Uiso
H3 H 0.4377 0.3014 0.0985 0.3460 Uiso
C7 C 0.4549(2) 0.30698(19) 0.1215(2) 0.3120 Uiso
H4 H 0.4596 0.3191 0.1166 0.3750 Uiso
C8 C 0.40849(11) 0.2781(2) 0.09151(11) 0.2670 Uiso
H5 H 0.4104 0.2917 0.0896 0.3200 Uiso
C9 C 0.41937(11) 0.2686(2) 0.10507(12) 0.2870 Uiso
C10 C 0.41663(17) 0.2489(2) 0.10790(15) 0.2710 Uiso
H6 H 0.4242 0.2423 0.1174 0.3250 Uiso
C11 C 0.40291(12) 0.2387(2) 0.09709(12) 0.2940 Uiso
C12 C 0.39996(18) 0.2182(3) 0.10004(18) 0.2910 Uiso
C13 C 0.3953(3) 0.2019(2) 0.1047(3) 0.2910 Uiso
N1 N 0.3735(4) 0.1265(4) 0.1265(4) 0.3600 Uiso
C14 C 0.3942(4) 0.1813(2) 0.1083(3) 0.2680 Uiso
C15 C 0.3789(5) 0.14609(18) 0.1210(3) 0.1550 Uiso
C16 C 0.3667(3) 0.1609(4) 0.1149(3) 0.2800 Uiso
H7 H 0.3530 0.1590 0.1150 0.3310 Uiso
C17 C 0.3742(4) 0.1785(3) 0.1086(2) 0.1280 Uiso
H8 H 0.3657 0.1886 0.1044 0.1540 Uiso
C18 C 0.4065(3) 0.1666(4) 0.1144(3) 0.2700 Uiso
H9 H 0.4202 0.1686 0.1144 0.3240 Uiso
C19 C 0.3793(4) 0.1490(3) 0.1011(2) 0.1610 Uiso
H10 H 0.3752 0.1388 0.0926 0.1930 Uiso
O1PA O 0.51740(15) 0.35516(13) 0.17190(15) 0.1383 Uani
O1UC O 0.51740(15) 0.32810(15) 0.14484(13) 0.1383 Uani
O1GE O 0.48260(15) 0.35516(13) 0.17190(15) 0.1383 Uani
O2PA O 0.51675(15) 0.33345(18) 0.19566(14) 0.1803 Uani
O2UC O 0.51675(15) 0.30434(14) 0.16655(18) 0.1803 Uani
O2GE O 0.48325(15) 0.33345(18) 0.19566(14) 0.1803 Uani
C1PA C 0.52332(15) 0.3491(2) 0.1884(2) 0.1840 Uiso
C1UC C 0.52332(15) 0.3116(2) 0.1509(2) 0.1840 Uiso
C1GE C 0.47668(15) 0.3491(2) 0.1884(2) 0.1840 Uiso
C2PA C 0.53830(16) 0.3603(2) 0.1998(2) 0.2830 Uiso
C2UC C 0.53830(16) 0.3002(2) 0.1397(2) 0.2830 Uiso
C2GE C 0.46170(16) 0.3603(2) 0.1998(2) 0.2830 Uiso
C3PA C 0.5451(2) 0.35341(18) 0.2172(2) 0.2640 Uiso
C3UC C 0.5451(2) 0.2828(2) 0.14659(18) 0.2640 Uiso
C3GE C 0.4549(2) 0.35341(18) 0.2172(2) 0.2640 Uiso
H1PA H 0.5407 0.3412 0.2220 0.3170 Uiso
H1UC H 0.5407 0.2780 0.1588 0.3170 Uiso
H1GE H 0.4593 0.3412 0.2220 0.3170 Uiso
C4PA C 0.5584(2) 0.3643(3) 0.22790(19) 0.2950 Uiso
C4UC C 0.5584(2) 0.27210(19) 0.1357(3) 0.2950 Uiso
C4GE C 0.4416(2) 0.3643(3) 0.22790(19) 0.2950 Uiso
H2PA H 0.5630 0.3594 0.2400 0.3550 Uiso
H2UC H 0.5630 0.2600 0.1406 0.3550 Uiso
H2GE H 0.4370 0.3594 0.2400 0.3550 Uiso
C5PA C 0.56517(16) 0.3826(2) 0.2209(3) 0.3010 Uiso
C5UC C 0.56517(16) 0.2791(3) 0.1174(2) 0.3010 Uiso
C5GE C 0.43483(16) 0.3826(2) 0.2209(3) 0.3010 Uiso
C5IF C 0.3826(2) 0.2791(3) 0.06517(16) 0.3010 Uiso
C5TE C 0.6174(2) 0.43483(16) 0.2209(3) 0.3010 Uiso
C5PB C 0.6174(2) 0.2791(3) 0.06517(16) 0.3010 Uiso
C5CB C 0.3826(2) 0.43483(16) 0.2209(3) 0.3010 Uiso
C6PA C 0.5581(2) 0.38925(18) 0.2034(3) 0.2880 Uiso
C6UC C 0.5581(2) 0.2966(3) 0.11075(18) 0.2880 Uiso
C6GE C 0.4419(2) 0.38925(18) 0.2034(3) 0.2880 Uiso
H3PA H 0.5623 0.4015 0.1986 0.3460 Uiso
H3UC H 0.5623 0.3014 0.0985 0.3460 Uiso
H3GE H 0.4377 0.4015 0.1986 0.3460 Uiso
C7PA C 0.5451(2) 0.3785(2) 0.19302(19) 0.3120 Uiso
C7UC C 0.5451(2) 0.30698(19) 0.1215(2) 0.3120 Uiso
C7GE C 0.4549(2) 0.3785(2) 0.19302(19) 0.3120 Uiso
H4PA H 0.5404 0.3834 0.1809 0.3750 Uiso
H4UC H 0.5404 0.3191 0.1166 0.3750 Uiso
H4GE H 0.4596 0.3834 0.1809 0.3750 Uiso
C8PA C 0.59151(11) 0.40849(11) 0.2219(2) 0.2670 Uiso
C8PB C 0.59151(11) 0.2781(2) 0.09151(11) 0.2670 Uiso
C8CB C 0.40849(11) 0.40849(11) 0.2219(2) 0.2670 Uiso
H5PA H 0.5896 0.4104 0.2083 0.3200 Uiso
H5PB H 0.5896 0.2917 0.0896 0.3200 Uiso
H5CB H 0.4104 0.4104 0.2083 0.3200 Uiso
C9IF C 0.39493(12) 0.2686(2) 0.08063(11) 0.2870 Uiso
C9PA C 0.58063(11) 0.39493(12) 0.2314(2) 0.2870 Uiso
C9TE C 0.60507(12) 0.41937(11) 0.2314(2) 0.2870 Uiso
C9UC C 0.58063(11) 0.2686(2) 0.10507(12) 0.2870 Uiso
C9PB C 0.60507(12) 0.2686(2) 0.08063(11) 0.2870 Uiso
C9GE C 0.41937(11) 0.39493(12) 0.2314(2) 0.2870 Uiso
C9CB C 0.39493(12) 0.41937(11) 0.2314(2) 0.2870 Uiso
C10IF C 0.39210(15) 0.2489(2) 0.08337(17) 0.2710 Uiso
C10PA C 0.58337(17) 0.39210(15) 0.2511(2) 0.2710 Uiso
C10TE C 0.60790(15) 0.41663(17) 0.2511(2) 0.2710 Uiso
C10UC C 0.58337(17) 0.2489(2) 0.10790(15) 0.2710 Uiso
C10PB C 0.60790(15) 0.2489(2) 0.08337(17) 0.2710 Uiso
C10GE C 0.41663(17) 0.39210(15) 0.2511(2) 0.2710 Uiso
C10CB C 0.39210(15) 0.41663(17) 0.2511(2) 0.2710 Uiso
H6PA H 0.5758 0.3826 0.2577 0.3250 Uiso
H6UC H 0.5758 0.2423 0.1174 0.3250 Uiso
H6GE H 0.4242 0.3826 0.2577 0.3250 Uiso
H6IF H 0.3826 0.2423 0.0758 0.3250 Uiso
H6TE H 0.6174 0.4242 0.2577 0.3250 Uiso
H6PB H 0.6174 0.2423 0.0758 0.3250 Uiso
H6CB H 0.3826 0.4242 0.2577 0.3250 Uiso
C11PA C 0.59709(12) 0.40291(12) 0.2613(2) 0.2940 Uiso
C11PB C 0.59709(12) 0.2387(2) 0.09709(12) 0.2940 Uiso
C11CB C 0.40291(12) 0.40291(12) 0.2613(2) 0.2940 Uiso
C12PA C 0.60004(18) 0.39996(18) 0.2818(3) 0.2910 Uiso
C12PB C 0.60004(18) 0.2182(3) 0.10004(18) 0.2910 Uiso
C12CB C 0.39996(18) 0.39996(18) 0.2818(3) 0.2910 Uiso
C13PA C 0.6047(3) 0.3953(3) 0.2981(2) 0.2910 Uiso
C13PB C 0.6047(3) 0.2019(2) 0.1047(3) 0.2910 Uiso
C13CB C 0.3953(3) 0.3953(3) 0.2981(2) 0.2910 Uiso
N1PA N 0.6265(4) 0.3735(4) 0.3735(4) 0.3600 Uiso
N1Q N 0.6265(4) 0.1265(4) 0.1265(4) 0.3600 Uiso
N1AA N 0.3735(4) 0.3735(4) 0.3735(4) 0.3600 Uiso
C14PA C 0.6058(4) 0.3917(3) 0.3187(2) 0.2680 Uiso
C14UC C 0.6058(4) 0.1813(2) 0.1083(3) 0.2680 Uiso
C14GE C 0.3942(4) 0.3917(3) 0.3187(2) 0.2680 Uiso
C15EB C 0.35391(18) 0.1210(3) 0.1211(5) 0.1550 Uiso
C15ZB C 0.3790(3) 0.1211(5) 0.14609(18) 0.1550 Uiso
C15PA C 0.6211(5) 0.3790(3) 0.35391(18) 0.1550 Uiso
C15HB C 0.64609(18) 0.3789(5) 0.3790(3) 0.1550 Uiso
C15OC C 0.6210(3) 0.35391(18) 0.3789(5) 0.1550 Uiso
C15UC C 0.6211(5) 0.14609(18) 0.1210(3) 0.1550 Uiso
C15YE C 0.64609(18) 0.1210(3) 0.1211(5) 0.1550 Uiso
C15SF C 0.6210(3) 0.1211(5) 0.14609(18) 0.1550 Uiso
C15GE C 0.3789(5) 0.3790(3) 0.35391(18) 0.1550 Uiso
C15BF C 0.35391(18) 0.3789(5) 0.3790(3) 0.1550 Uiso
C15FG C 0.3790(3) 0.35391(18) 0.3789(5) 0.1550 Uiso
C16IF C 0.3851(3) 0.1609(4) 0.1333(3) 0.2800 Uiso
C16PA C 0.6333(3) 0.3851(3) 0.3391(4) 0.2800 Uiso
C16TE C 0.6149(3) 0.3667(3) 0.3391(4) 0.2800 Uiso
C16UC C 0.6333(3) 0.1609(4) 0.1149(3) 0.2800 Uiso
C16PB C 0.6149(3) 0.1609(4) 0.1333(3) 0.2800 Uiso
C16GE C 0.3667(3) 0.3851(3) 0.3391(4) 0.2800 Uiso
C16CB C 0.3851(3) 0.3667(3) 0.3391(4) 0.2800 Uiso
C16EB C 0.3391(4) 0.1149(3) 0.1333(3) 0.2800 Uiso
C16XF C 0.3391(4) 0.1333(3) 0.1149(3) 0.2800 Uiso
C16ZB C 0.3851(3) 0.1333(3) 0.1609(4) 0.2800 Uiso
C16JD C 0.3667(3) 0.1149(3) 0.1609(4) 0.2800 Uiso
C16HB C 0.6609(4) 0.3667(3) 0.3851(3) 0.2800 Uiso
C16UF C 0.6609(4) 0.3851(3) 0.3667(3) 0.2800 Uiso
C16OC C 0.6149(3) 0.3391(4) 0.3667(3) 0.2800 Uiso
C16PD C 0.6333(3) 0.3391(4) 0.3851(3) 0.2800 Uiso
C16YE C 0.6609(4) 0.1149(3) 0.1333(3) 0.2800 Uiso
C16HC C 0.6609(4) 0.1333(3) 0.1149(3) 0.2800 Uiso
C16SF C 0.6149(3) 0.1333(3) 0.1609(4) 0.2800 Uiso
C16Q C 0.6333(3) 0.1149(3) 0.1609(4) 0.2800 Uiso
C16BF C 0.3391(4) 0.3667(3) 0.3851(3) 0.2800 Uiso
C16EC C 0.3391(4) 0.3851(3) 0.3667(3) 0.2800 Uiso
C16FG C 0.3851(3) 0.3391(4) 0.3667(3) 0.2800 Uiso
C16AA C 0.3667(3) 0.3391(4) 0.3851(3) 0.2800 Uiso
H7PA H 0.6470 0.3850 0.3410 0.3310 Uiso
H7UC H 0.6470 0.1590 0.1150 0.3310 Uiso
H7GE H 0.3530 0.3850 0.3410 0.3310 Uiso
H7IF H 0.3850 0.1590 0.1470 0.3310 Uiso
H7TE H 0.6150 0.3530 0.3410 0.3310 Uiso
H7PB H 0.6150 0.1590 0.1470 0.3310 Uiso
H7CB H 0.3850 0.3530 0.3410 0.3310 Uiso
H7EB H 0.3410 0.1150 0.1470 0.3310 Uiso
H7XF H 0.3410 0.1470 0.1150 0.3310 Uiso
H7ZB H 0.3850 0.1470 0.1590 0.3310 Uiso
H7JD H 0.3530 0.1150 0.1590 0.3310 Uiso
H7HB H 0.6590 0.3530 0.3850 0.3310 Uiso
H7UF H 0.6590 0.3850 0.3530 0.3310 Uiso
H7OC H 0.6150 0.3410 0.3530 0.3310 Uiso
H7PD H 0.6470 0.3410 0.3850 0.3310 Uiso
H7YE H 0.6590 0.1150 0.1470 0.3310 Uiso
H7HC H 0.6590 0.1470 0.1150 0.3310 Uiso
H7SF H 0.6150 0.1470 0.1590 0.3310 Uiso
H7Q H 0.6470 0.1150 0.1590 0.3310 Uiso
H7BF H 0.3410 0.3530 0.3850 0.3310 Uiso
H7EC H 0.3410 0.3850 0.3530 0.3310 Uiso
H7FG H 0.3850 0.3410 0.3530 0.3310 Uiso
H7AA H 0.3530 0.3410 0.3850 0.3310 Uiso
C17IF C 0.3914(2) 0.1785(3) 0.1258(4) 0.1280 Uiso
C17PA C 0.6258(4) 0.3914(2) 0.3215(3) 0.1280 Uiso
C17TE C 0.6086(2) 0.3742(4) 0.3215(3) 0.1280 Uiso
C17UC C 0.6258(4) 0.1785(3) 0.1086(2) 0.1280 Uiso
C17PB C 0.6086(2) 0.1785(3) 0.1258(4) 0.1280 Uiso
C17GE C 0.3742(4) 0.3914(2) 0.3215(3) 0.1280 Uiso
C17CB C 0.3914(2) 0.3742(4) 0.3215(3) 0.1280 Uiso
H8PA H 0.6343 0.3956 0.3114 0.1540 Uiso
H8UC H 0.6343 0.1886 0.1044 0.1540 Uiso
H8GE H 0.3657 0.3956 0.3114 0.1540 Uiso
H8IF H 0.3956 0.1886 0.1343 0.1540 Uiso
H8TE H 0.6044 0.3657 0.3114 0.1540 Uiso
H8PB H 0.6044 0.1886 0.1343 0.1540 Uiso
H8CB H 0.3956 0.3657 0.3114 0.1540 Uiso
C18IF C 0.3856(3) 0.1666(4) 0.0935(3) 0.2700 Uiso
C18PA C 0.5935(3) 0.3856(3) 0.3334(4) 0.2700 Uiso
C18TE C 0.6144(3) 0.4065(3) 0.3334(4) 0.2700 Uiso
C18UC C 0.5935(3) 0.1666(4) 0.1144(3) 0.2700 Uiso
C18PB C 0.6144(3) 0.1666(4) 0.0935(3) 0.2700 Uiso
C18GE C 0.4065(3) 0.3856(3) 0.3334(4) 0.2700 Uiso
C18CB C 0.3856(3) 0.4065(3) 0.3334(4) 0.2700 Uiso
H9PA H 0.5798 0.3856 0.3314 0.3240 Uiso
H9UC H 0.5798 0.1686 0.1144 0.3240 Uiso
H9GE H 0.4202 0.3856 0.3314 0.3240 Uiso
H9IF H 0.3856 0.1686 0.0798 0.3240 Uiso
H9TE H 0.6144 0.4202 0.3314 0.3240 Uiso
H9PB H 0.6144 0.1686 0.0798 0.3240 Uiso
H9CB H 0.3856 0.4202 0.3314 0.3240 Uiso
C19IF C 0.3989(2) 0.1490(3) 0.1207(4) 0.1610 Uiso
C19PA C 0.6207(4) 0.3989(2) 0.3510(3) 0.1610 Uiso
C19TE C 0.6011(2) 0.3793(4) 0.3510(3) 0.1610 Uiso
C19UC C 0.6207(4) 0.1490(3) 0.1011(2) 0.1610 Uiso
C19PB C 0.6011(2) 0.1490(3) 0.1207(4) 0.1610 Uiso
C19GE C 0.3793(4) 0.3989(2) 0.3510(3) 0.1610 Uiso
C19CB C 0.3989(2) 0.3793(4) 0.3510(3) 0.1610 Uiso
C19EB C 0.3510(3) 0.1011(2) 0.1207(4) 0.1610 Uiso
C19XF C 0.3510(3) 0.1207(4) 0.1011(2) 0.1610 Uiso
C19ZB C 0.3989(2) 0.1207(4) 0.1490(3) 0.1610 Uiso
C19JD C 0.3793(4) 0.1011(2) 0.1490(3) 0.1610 Uiso
C19HB C 0.6490(3) 0.3793(4) 0.3989(2) 0.1610 Uiso
C19UF C 0.6490(3) 0.3989(2) 0.3793(4) 0.1610 Uiso
C19OC C 0.6011(2) 0.3510(3) 0.3793(4) 0.1610 Uiso
C19PD C 0.6207(4) 0.3510(3) 0.3989(2) 0.1610 Uiso
C19YE C 0.6490(3) 0.1011(2) 0.1207(4) 0.1610 Uiso
C19HC C 0.6490(3) 0.1207(4) 0.1011(2) 0.1610 Uiso
C19SF C 0.6011(2) 0.1207(4) 0.1490(3) 0.1610 Uiso
C19Q C 0.6207(4) 0.1011(2) 0.1490(3) 0.1610 Uiso
C19BF C 0.3510(3) 0.3793(4) 0.3989(2) 0.1610 Uiso
C19EC C 0.3510(3) 0.3989(2) 0.3793(4) 0.1610 Uiso
C19FG C 0.3989(2) 0.3510(3) 0.3793(4) 0.1610 Uiso
C19AA C 0.3793(4) 0.3510(3) 0.3989(2) 0.1610 Uiso
H10PA H 0.6248 0.4074 0.3612 0.1930 Uiso
H10UC H 0.6248 0.1388 0.0926 0.1930 Uiso
H10GE H 0.3752 0.4074 0.3612 0.1930 Uiso
H10IF H 0.4074 0.1388 0.1248 0.1930 Uiso
H10TE H 0.5926 0.3752 0.3612 0.1930 Uiso
H10PB H 0.5926 0.1388 0.1248 0.1930 Uiso
H10CB H 0.4074 0.3752 0.3612 0.1930 Uiso
H10EB H 0.3612 0.0926 0.1248 0.1930 Uiso
H10XF H 0.3612 0.1248 0.0926 0.1930 Uiso
H10ZB H 0.4074 0.1248 0.1388 0.1930 Uiso
H10JD H 0.3752 0.0926 0.1388 0.1930 Uiso
H10HB H 0.6388 0.3752 0.4074 0.1930 Uiso
H10UF H 0.6388 0.4074 0.3752 0.1930 Uiso
H10OC H 0.5926 0.3612 0.3752 0.1930 Uiso
H10PD H 0.6248 0.3612 0.4074 0.1930 Uiso
H10YE H 0.6388 0.0926 0.1248 0.1930 Uiso
H10HC H 0.6388 0.1248 0.0926 0.1930 Uiso
H10SF H 0.5926 0.1248 0.1388 0.1930 Uiso
H10Q H 0.6248 0.0926 0.1388 0.1930 Uiso
H10BF H 0.3612 0.3752 0.4074 0.1930 Uiso
H10EC H 0.3612 0.4074 0.3752 0.1930 Uiso
H10FG H 0.4074 0.3612 0.3752 0.1930 Uiso
H10AA H 0.3752 0.3612 0.4074 0.1930 Uiso
O4 O 0.5000 0.2900(2) 0.2100(2) 0.2407 Uani
loop_
_atom_site_aniso_label
_atom_site_aniso_U_11
_atom_site_aniso_U_22
_atom_site_aniso_U_33
_atom_site_aniso_U_23
_atom_site_aniso_U_13
_atom_site_aniso_U_12
Cu1 0.171(8) 0.219(5) 0.219(5) -0.003(6) 0.000 0.000
Cu2 0.226(12) 0.261(7) 0.261(7) 0.009(8) 0.000 0.000
O1 0.149(11) 0.134(11) 0.132(10) 0.031(8) 0.025(7) 0.015(7)
O2 0.158(10) 0.173(11) 0.210(13) -0.017(10) -0.002(9) 0.041(8)
O3 0.25(3) 0.266(18) 0.266(18) 0.05(2) 0.000 0.000
O1PA 0.149 0.132 0.134 0.031 0.015 0.025
O1UC 0.149 0.134 0.132 0.031 -0.025 -0.015
O1GE 0.149 0.132 0.134 0.031 -0.015 -0.025
O2PA 0.158 0.21 0.173 -0.017 0.041 -0.002
O2UC 0.158 0.173 0.21 -0.017 0.002 -0.041
O2GE 0.158 0.21 0.173 -0.017 -0.041 0.002
O4 0.17(2) 0.276(17) 0.276(17) 0.08(2) 0.000 0.000
loop_
_geom_bond_atom_site_label_1
_geom_bond_atom_site_label_2
_geom_bond_site_symmetry_1
_geom_bond_site_symmetry_2
Cu1 O2 1_555 1_555
Cu2 O1 1_555 1_555
O1 C1 1_555 1_555
O2 C1 1_555 1_555
O3 Cu2 1_555 1_555
C1 C2 1_555 1_555
C2 C3 1_555 1_555
C3 H1 1_555 1_555
C4 C3 1_555 1_555
H2 C4 1_555 1_555
C5 C4 1_555 1_555
C6 C5 1_555 1_555
H3 C6 1_555 1_555
C7 C2 1_555 1_555
H4 C7 1_555 1_555
C8 H5 1_555 1_555
C9 C5 1_555 1_555
C10 C9 1_555 1_555
H6 C10 1_555 1_555
C11 C10 1_555 1_555
C12 C11 1_555 1_555
C13 C12 1_555 1_555
N1 C15 1_555 1_555
C14 C13 1_555 1_555
C15 C16 1_555 1_555
C16 H7 1_555 1_555
C17 C14 1_555 1_555
H8 C17 1_555 1_555
C18 C14 1_555 1_555
H9 C18 1_555 1_555
C19 C15 1_555 1_555
H10 C19 1_555 1_555
O1PA Cu2 1_555 1_555
O1UC Cu2 1_555 1_555
O1GE Cu2 1_555 1_555
O2PA Cu1 1_555 1_555
O2UC Cu1 1_555 1_555
O2GE Cu1 1_555 1_555
C1PA O1PA 1_555 1_555
C1UC O1UC 1_555 1_555
C1GE O1GE 1_555 1_555
C2PA C1PA 1_555 1_555
C2UC C1UC 1_555 1_555
C2GE C1GE 1_555 1_555
C3PA C2PA 1_555 1_555
C3UC C2UC 1_555 1_555
C3GE C2GE 1_555 1_555
H1PA C3PA 1_555 1_555
H1UC C3UC 1_555 1_555
H1GE C3GE 1_555 1_555
C4PA C3PA 1_555 1_555
C4UC C3UC 1_555 1_555
C4GE C3GE 1_555 1_555
H2PA C4PA 1_555 1_555
H2UC C4UC 1_555 1_555
H2GE C4GE 1_555 1_555
C5PA C4PA 1_555 1_555
C5UC C4UC 1_555 1_555
C5GE C4GE 1_555 1_555
C5IF C9IF 1_555 1_555
C5TE C9TE 1_555 1_555
C5PB C9PB 1_555 1_555
C5CB C9CB 1_555 1_555
C6PA C5PA 1_555 1_555
C6UC C5UC 1_555 1_555
C6GE C5GE 1_555 1_555
H3PA C6PA 1_555 1_555
H3UC C6UC 1_555 1_555
H3GE C6GE 1_555 1_555
C7PA C2PA 1_555 1_555
C7UC C2UC 1_555 1_555
C7GE C2GE 1_555 1_555
H4PA C7PA 1_555 1_555
H4UC C7UC 1_555 1_555
H4GE C7GE 1_555 1_555
C8PA H5PA 1_555 1_555
C8PB H5PB 1_555 1_555
C8CB H5CB 1_555 1_555
C9IF C8 1_555 1_555
C9PA C5PA 1_555 1_555
C9TE C8PA 1_555 1_555
C9UC C5UC 1_555 1_555
C9PB C8PB 1_555 1_555
C9GE C5GE 1_555 1_555
C9CB C8CB 1_555 1_555
C10IF C11 1_555 1_555
C10PA C9PA 1_555 1_555
C10TE C9TE 1_555 1_555
C10UC C9UC 1_555 1_555
C10PB C9PB 1_555 1_555
C10GE C9GE 1_555 1_555
C10CB C9CB 1_555 1_555
H6PA C10PA 1_555 1_555
H6UC C10UC 1_555 1_555
H6GE C10GE 1_555 1_555
H6IF C10IF 1_555 1_555
H6TE C10TE 1_555 1_555
H6PB C10PB 1_555 1_555
H6CB C10CB 1_555 1_555
C11PA C10PA 1_555 1_555
C11PB C10UC 1_555 1_555
C11CB C10GE 1_555 1_555
C12PA C11PA 1_555 1_555
C12PB C11PB 1_555 1_555
C12CB C11CB 1_555 1_555
C13PA C12PA 1_555 1_555
C13PB C12PB 1_555 1_555
C13CB C12CB 1_555 1_555
N1PA C15PA 1_555 1_555
N1Q C15UC 1_555 1_555
N1AA C15GE 1_555 1_555
C14PA C13PA 1_555 1_555
C14UC C13PB 1_555 1_555
C14GE C13CB 1_555 1_555
C15EB N1 1_555 1_555
C15ZB N1 1_555 1_555
C15PA C16PA 1_555 1_555
C15HB N1PA 1_555 1_555
C15OC N1PA 1_555 1_555
C15UC C16UC 1_555 1_555
C15YE N1Q 1_555 1_555
C15SF N1Q 1_555 1_555
C15GE C16GE 1_555 1_555
C15BF N1AA 1_555 1_555
C15FG N1AA 1_555 1_555
C16IF C15 1_555 1_555
C16PA C16TE 1_555 1_555
C16TE C15PA 1_555 1_555
C16UC C16PB 1_555 1_555
C16PB C15UC 1_555 1_555
C16GE C16CB 1_555 1_555
C16CB C15GE 1_555 1_555
C16EB C15EB 1_555 1_555
C16XF C15EB 1_555 1_555
C16ZB C15ZB 1_555 1_555
C16JD C15ZB 1_555 1_555
C16HB C15HB 1_555 1_555
C16UF C15HB 1_555 1_555
C16OC C15OC 1_555 1_555
C16PD C15OC 1_555 1_555
C16YE C15YE 1_555 1_555
C16HC C15YE 1_555 1_555
C16SF C15SF 1_555 1_555
C16Q C15SF 1_555 1_555
C16BF C15BF 1_555 1_555
C16EC C15BF 1_555 1_555
C16FG C15FG 1_555 1_555
C16AA C15FG 1_555 1_555
H7PA C16PA 1_555 1_555
H7UC C16UC 1_555 1_555
H7GE C16GE 1_555 1_555
H7IF C16IF 1_555 1_555
H7TE C16TE 1_555 1_555
H7PB C16PB 1_555 1_555
H7CB C16CB 1_555 1_555
H7EB C16EB 1_555 1_555
H7XF C16XF 1_555 1_555
H7ZB C16ZB 1_555 1_555
H7JD C16JD 1_555 1_555
H7HB C16HB 1_555 1_555
H7UF C16UF 1_555 1_555
H7OC C16OC 1_555 1_555
H7PD C16PD 1_555 1_555
H7YE C16YE 1_555 1_555
H7HC C16HC 1_555 1_555
H7SF C16SF 1_555 1_555
H7Q C16Q 1_555 1_555
H7BF C16BF 1_555 1_555
H7EC C16EC 1_555 1_555
H7FG C16FG 1_555 1_555
H7AA C16AA 1_555 1_555
C17IF C14 1_555 1_555
C17PA C14PA 1_555 1_555
C17TE C14PA 1_555 1_555
C17UC C14UC 1_555 1_555
C17PB C14UC 1_555 1_555
C17GE C14GE 1_555 1_555
C17CB C14GE 1_555 1_555
H8PA C17PA 1_555 1_555
H8UC C17UC 1_555 1_555
H8GE C17GE 1_555 1_555
H8IF C17IF 1_555 1_555
H8TE C17TE 1_555 1_555
H8PB C17PB 1_555 1_555
H8CB C17CB 1_555 1_555
C18IF C14 1_555 1_555
C18PA C14PA 1_555 1_555
C18TE C14PA 1_555 1_555
C18UC C14UC 1_555 1_555
C18PB C14UC 1_555 1_555
C18GE C14GE 1_555 1_555
C18CB C14GE 1_555 1_555
H9PA C18PA 1_555 1_555
H9UC C18UC 1_555 1_555
H9GE C18GE 1_555 1_555
H9IF C18IF 1_555 1_555
H9TE C18TE 1_555 1_555
H9PB C18PB 1_555 1_555
H9CB C18CB 1_555 1_555
C19IF C15 1_555 1_555
C19PA C15PA 1_555 1_555
C19TE C15PA 1_555 1_555
C19UC C15UC 1_555 1_555
C19PB C15UC 1_555 1_555
C19GE C15GE 1_555 1_555
C19CB C15GE 1_555 1_555
C19EB C15EB 1_555 1_555
C19XF C15EB 1_555 1_555
C19ZB C15ZB 1_555 1_555
C19JD C15ZB 1_555 1_555
C19HB C15HB 1_555 1_555
C19UF C15HB 1_555 1_555
C19OC C15OC 1_555 1_555
C19PD C15OC 1_555 1_555
C19YE C15YE 1_555 1_555
C19HC C15YE 1_555 1_555
C19SF C15SF 1_555 1_555
C19Q C15SF 1_555 1_555
C19BF C15BF 1_555 1_555
C19EC C15BF 1_555 1_555
C19FG C15FG 1_555 1_555
C19AA C15FG 1_555 1_555
H10PA C19PA 1_555 1_555
H10UC C19UC 1_555 1_555
H10GE C19GE 1_555 1_555
H10IF C19IF 1_555 1_555
H10TE C19TE 1_555 1_555
H10PB C19PB 1_555 1_555
H10CB C19CB 1_555 1_555
H10EB C19EB 1_555 1_555
H10XF C19XF 1_555 1_555
H10ZB C19ZB 1_555 1_555
H10JD C19JD 1_555 1_555
H10HB C19HB 1_555 1_555
H10UF C19UF 1_555 1_555
H10OC C19OC 1_555 1_555
H10PD C19PD 1_555 1_555
H10YE C19YE 1_555 1_555
H10HC C19HC 1_555 1_555
H10SF C19SF 1_555 1_555
H10Q C19Q 1_555 1_555
H10BF C19BF 1_555 1_555
H10EC C19EC 1_555 1_555
H10FG C19FG 1_555 1_555
H10AA C19AA 1_555 1_555
C6 C7 1_555 1_555
C8 C9 1_555 1_555
C16 C17 1_555 1_555
C16 C19 1_555 1_555
C16 C16IF 1_555 1_555
C17 C17IF 1_555 1_555
C17 C18IF 1_555 1_555
C18 C17IF 1_555 1_555
C18 C19IF 1_555 1_555
C19 C18IF 1_555 1_555
O2PA C1PA 1_555 1_555
O2UC C1UC 1_555 1_555
O2GE C1GE 1_555 1_555
C6PA C7PA 1_555 1_555
C6UC C7UC 1_555 1_555
C6GE C7GE 1_555 1_555
C8PA C9PA 1_555 1_555
C8PB C9UC 1_555 1_555
C8CB C9GE 1_555 1_555
C9IF C10IF 1_555 1_555
C10TE C11PA 1_555 1_555
C10PB C11PB 1_555 1_555
C10CB C11CB 1_555 1_555
C16IF C17IF 1_555 1_555
C16IF C19IF 1_555 1_555
C16PA C17PA 1_555 1_555
C16PA C19PA 1_555 1_555
C16TE C17TE 1_555 1_555
C16TE C19TE 1_555 1_555
C16UC C17UC 1_555 1_555
C16UC C19UC 1_555 1_555
C16PB C17PB 1_555 1_555
C16PB C19PB 1_555 1_555
C16GE C17GE 1_555 1_555
C16GE C19GE 1_555 1_555
C16CB C17CB 1_555 1_555
C16CB C19CB 1_555 1_555
C16EB C16XF 1_555 1_555
C16EB C19EB 1_555 1_555
C16XF C19XF 1_555 1_555
C16ZB C16JD 1_555 1_555
C16ZB C19ZB 1_555 1_555
C16JD C19JD 1_555 1_555
C16HB C16UF 1_555 1_555
C16HB C19HB 1_555 1_555
C16UF C19UF 1_555 1_555
C16OC C16PD 1_555 1_555
C16OC C19OC 1_555 1_555
C16PD C19PD 1_555 1_555
C16YE C16HC 1_555 1_555
C16YE C19YE 1_555 1_555
C16HC C19HC 1_555 1_555
C16SF C16Q 1_555 1_555
C16SF C19SF 1_555 1_555
C16Q C19Q 1_555 1_555
C16BF C16EC 1_555 1_555
C16BF C19BF 1_555 1_555
C16EC C19EC 1_555 1_555
C16FG C16AA 1_555 1_555
C16FG C19FG 1_555 1_555
C16AA C19AA 1_555 1_555
C17PA C17TE 1_555 1_555
C17PA C18TE 1_555 1_555
C17TE C18PA 1_555 1_555
C17UC C17PB 1_555 1_555
C17UC C18PB 1_555 1_555
C17PB C18UC 1_555 1_555
C17GE C17CB 1_555 1_555
C17GE C18CB 1_555 1_555
C17CB C18GE 1_555 1_555
C18PA C19TE 1_555 1_555
C18TE C19PA 1_555 1_555
C18UC C19PB 1_555 1_555
C18PB C19UC 1_555 1_555
C18GE C19CB 1_555 1_555
C18CB C19GE 1_555 1_555

#END
