
#######################################################################
#
#                 Cambridge Crystallographic Data Centre
#                                CCDC 
#
#######################################################################
#
# If this CIF has been generated from an entry in the Cambridge 
# Structural Database, then it will include bibliographic, chemical, 
# crystal, experimental, refinement or atomic coordinate data resulting 
# from the CCDC's data processing and validation procedures.
#
#######################################################################

data_ZAFXAI
_chemical_formula_moiety         
'(C24 H32 O38 Y6 1-)n,n(C2 H8 N1 1+),5n(C3 H7 N1 O1)'
_chemical_name_systematic        
'catena-[dimethylammonium hexakis(\m-fumarato)-octakis(\m-hydroxo)-hexaaqua-hexa-yttrium N,N-dimethylformamide solvate]'
_symmetry_cell_setting           cubic
_symmetry_space_group_name_H-M   'P n -3'
_symmetry_Int_Tables_number      201
_space_group_name_Hall           '-P 2ab 2bc 3'
loop_
_symmetry_equiv_pos_site_id
_symmetry_equiv_pos_as_xyz
1 x,y,z
2 1/2-x,1/2-y,z
3 1/2-x,y,1/2-z
4 x,1/2-y,1/2-z
5 z,x,y
6 z,1/2-x,1/2-y
7 1/2-z,1/2-x,y
8 1/2-z,x,1/2-y
9 y,z,x
10 1/2-y,z,1/2-x
11 y,1/2-z,1/2-x
12 1/2-y,1/2-z,x
13 -x,-y,-z
14 1/2+x,1/2+y,-z
15 1/2+x,-y,1/2+z
16 -x,1/2+y,1/2+z
17 -z,-x,-y
18 -z,1/2+x,1/2+y
19 1/2+z,1/2+x,-y
20 1/2+z,-x,1/2+y
21 -y,-z,-x
22 1/2+y,-z,1/2+x
23 -y,1/2+z,1/2+x
24 1/2+y,1/2+z,-x
_cell_length_a                   18.5353(9)
_cell_length_b                   18.5353(9)
_cell_length_c                   18.5353(9)
_cell_angle_alpha                90
_cell_angle_beta                 90
_cell_angle_gamma                90
_cell_volume                     6367.94
_exptl_crystal_colour            colorless
_exptl_crystal_description       cubic
_cell_formula_units_Z            4
loop_
_atom_site_label
_atom_site_type_symbol
_atom_site_fract_x
_atom_site_fract_y
_atom_site_fract_z
Y1 Y 0.98683(3) 0.48770(3) 0.85358(3)
O1 O 0.9329(2) 0.5671(2) 0.9329(2)
O2 O 1.0674(2) 0.5555(2) 0.92040(19)
O3 O 0.9761(3) 0.2911(4) 0.9056(4)
O4 O 0.7897(4) 0.5100(3) 0.9044(3)
O5 O 0.8691(4) 0.4932(3) 0.8114(3)
O6 O 0.9758(3) 0.3700(3) 0.8112(3)
C1 C 0.9766(5) 0.3090(6) 0.8380(6)
C2 C 0.7446(7) 0.5014(8) 0.7855(7)
H1 H 0.6976 0.5014 0.8029
C3 C 0.9750(7) 0.2457(8) 0.7853(7)
H2 H 0.9739 0.1991 0.8038
C4 C 0.8062(6) 0.5013(6) 0.8387(6)
O7 O 0.9759(17) 0.4782(17) 0.7199(17)
O5B O 0.6309(4) 0.4932(3) 0.6886(3)
C2B C 0.7554(7) 0.5014(8) 0.7145(7)
H1B H 0.8024 0.5014 0.6971
C4B C 0.6938(6) 0.5013(6) 0.6613(6)
O4B O 0.7103(4) 0.5100(3) 0.5956(3)
O6C O 0.9758(3) 0.1300(3) 0.6888(3)
C1C C 0.9766(5) 0.1910(6) 0.6620(6)
C3C C 0.9750(7) 0.2543(8) 0.7147(7)
H2C H 0.9739 0.3009 0.6962
O3C O 0.9761(3) 0.2089(4) 0.5944(4)
Y1B Y 0.51317(3) 0.48770(3) 0.64642(3)
O1B O 0.5671(2) 0.5671(2) 0.5671(2)
O2B O 0.4326(2) 0.5555(2) 0.57960(19)
O3B O 0.5239(3) 0.2911(4) 0.5944(4)
O6B O 0.5242(3) 0.3700(3) 0.6888(3)
C1B C 0.5234(5) 0.3090(6) 0.6620(6)
C3B C 0.5250(7) 0.2457(8) 0.7147(7)
H2B H 0.5261 0.1991 0.6962
O7B O 0.5241(17) 0.4782(17) 0.7801(17)
O6A O 0.5242(3) 0.1300(3) 0.8112(3)
C1A C 0.5234(5) 0.1910(6) 0.8380(6)
C3A C 0.5250(7) 0.2543(8) 0.7853(7)
H2A H 0.5261 0.3009 0.8038
O3A O 0.5239(3) 0.2089(4) 0.9056(4)
Y1C Y 0.98683(3) 0.01230(3) 0.64642(3)
O2C O 1.0674(2) -0.0555(2) 0.57960(19)
O4C O 0.7897(4) -0.0100(3) 0.5956(3)
O5C O 0.8691(4) 0.0068(3) 0.6886(3)
C2C C 0.7446(7) -0.0014(8) 0.7145(7)
H1C H 0.6976 -0.0014 0.6971
C4C C 0.8062(6) -0.0013(6) 0.6613(6)
O7C O 0.9759(17) 0.0218(17) 0.7801(17)
O5A O 0.6309(4) 0.0068(3) 0.8114(3)
C2A C 0.7554(7) -0.0014(8) 0.7855(7)
H1A H 0.8024 -0.0014 0.8029
C4A C 0.6938(6) -0.0013(6) 0.8387(6)
O4A O 0.7103(4) -0.0100(3) 0.9044(3)
Y1P Y 1.14642(3) 0.01317(3) 0.51230(3)
O2P O 1.07960(19) -0.0674(2) 0.4445(2)
O3P O 1.0944(4) 0.0239(3) 0.7089(4)
O4P O 1.0956(3) 0.2103(4) 0.4900(3)
O5P O 1.1886(3) 0.1309(4) 0.5068(3)
O6P O 1.1888(3) 0.0242(3) 0.6300(3)
C1P C 1.1620(6) 0.0234(5) 0.6910(6)
C2P C 1.2145(7) 0.2554(7) 0.4986(8)
H1P H 1.1971 0.3024 0.4986
C3P C 1.2147(7) 0.0250(7) 0.7543(8)
H2P H 1.1962 0.0261 0.8009
C4P C 1.1613(6) 0.1938(6) 0.4987(6)
O7P O 1.2801(17) 0.0241(17) 0.5218(17)
O5R O 1.3114(3) 0.3691(4) 0.5068(3)
C2R C 1.2855(7) 0.2446(7) 0.4986(8)
H1R H 1.3029 0.1976 0.4986
C4R C 1.3387(6) 0.3062(6) 0.4987(6)
O4R O 1.4044(3) 0.2897(4) 0.4900(3)
O6S O 1.3112(3) 0.0242(3) 0.8700(3)
C1S C 1.3380(6) 0.0234(5) 0.8090(6)
C3S C 1.2853(7) 0.0250(7) 0.7457(8)
H2S H 1.3038 0.0261 0.6991
O3S O 1.4056(4) 0.0239(3) 0.7911(4)
Y1Q Y 1.14642(3) 0.48683(3) 0.98770(3)
O2Q O 1.07960(19) 0.5674(2) 1.0555(2)
O7Q O 1.2801(17) 0.4759(17) 0.9782(17)
Y1R Y 1.35358(3) 0.48683(3) 0.51230(3)
O2R O 1.42040(19) 0.5674(2) 0.4445(2)
O7R O 1.2199(17) 0.4759(17) 0.5218(17)
Y1A Y 0.51317(3) 0.01230(3) 0.85358(3)
Y1A_2 Y 1.51317(3) 0.01230(3) 0.85358(3)
Y1D Y 0.85358(3) -0.01317(3) 0.48770(3)
Y1E Y 0.85358(3) 0.51317(3) 1.01230(3)
Y1F Y 0.64642(3) 0.51317(3) 0.48770(3)
Y1G Y 0.64642(3) -0.01317(3) 1.01230(3)
Y1I Y 1.01230(3) -0.14642(3) 0.51317(3)
Y1J Y 0.48770(3) 0.64642(3) 0.51317(3)
Y1J_2 Y 1.48770(3) 0.64642(3) 0.51317(3)
Y1K Y 1.01230(3) 0.64642(3) 0.98683(3)
Y1L Y 1.01317(3) 0.51230(3) 1.14642(3)
Y1N Y 1.48683(3) 0.51230(3) 0.35358(3)
Y1O Y 1.01317(3) -0.01230(3) 0.35358(3)
Y1R_2 Y 0.35358(3) 0.48683(3) 0.51230(3)
Y1S Y 1.35358(3) 0.01317(3) 0.98770(3)
Y1T Y 0.51230(3) 0.14642(3) 1.01317(3)
Y1U Y 0.98770(3) 0.14642(3) 0.48683(3)
Y1V Y 0.51230(3) 0.35358(3) 0.48683(3)
Y1V_2 Y 1.51230(3) 0.35358(3) 0.48683(3)
Y1W Y 0.98770(3) 0.35358(3) 1.01317(3)
O1C O 0.9329(2) -0.0671(2) 0.5671(2)
O1L O 1.0671(2) 0.4329(2) 1.0671(2)
O1N O 1.4329(2) 0.4329(2) 0.4329(2)
O1O O 1.0671(2) 0.0671(2) 0.4329(2)
O2B_2 O 1.4326(2) 0.5555(2) 0.57960(19)
O2D O 0.92040(19) 0.0674(2) 0.5555(2)
O2E O 0.92040(19) 0.4326(2) 0.9445(2)
O2F O 0.57960(19) 0.4326(2) 0.5555(2)
O2U O 1.0555(2) 0.07960(19) 0.5674(2)
O2V O 0.4445(2) 0.42040(19) 0.5674(2)
O2V_2 O 1.4445(2) 0.42040(19) 0.5674(2)
O2W O 1.0555(2) 0.42040(19) 0.9326(2)
O3I O 1.2089(4) -0.0944(4) 0.5239(3)
O3J O 1.2911(4) 0.5944(4) 0.5239(3)
O3K O 1.2089(4) 0.5944(4) 0.9761(3)
O3Q O 1.0944(4) 0.4761(3) 0.7911(4)
O3R O 0.4056(4) 0.4761(3) 0.7089(4)
O4I O 0.9900(3) -0.0956(3) 0.7103(4)
O4J O 0.5100(3) 0.5956(3) 0.7103(4)
O4K O 0.9900(3) 0.5956(3) 0.7897(4)
O4L O 1.2103(4) 0.4900(3) 1.0956(3)
O4N O 1.2897(4) 0.4900(3) 0.4044(3)
O4O O 1.2103(4) 0.0100(3) 0.4044(3)
O5Q O 1.1886(3) 0.3691(4) 0.9932(3)
O6Q O 1.1888(3) 0.4758(3) 0.8700(3)
O6R O 1.3112(3) 0.4758(3) 0.6300(3)
loop_
_geom_bond_atom_site_label_1
_geom_bond_atom_site_label_2
_geom_bond_site_symmetry_1
_geom_bond_site_symmetry_2
Y1 O1 1_555 1_555
O1 Y1E 1_555 1_555
O2 Y1 1_555 1_555
O3 C1 1_555 1_555
O4 C4 1_555 1_555
O5 Y1 1_555 1_555
O6 Y1 1_555 1_555
C1 O6 1_555 1_555
C2 H1 1_555 1_555
C3 C1 1_555 1_555
H2 C3 1_555 1_555
C4 O5 1_555 1_555
O7 Y1 1_555 1_555
O5B C4B 1_555 1_555
C2B C2 1_555 1_555
H1B C2B 1_555 1_555
C4B C2B 1_555 1_555
O4B C4B 1_555 1_555
O6C C1C 1_555 1_555
C1C C3C 1_555 1_555
C3C C3 1_555 1_555
H2C C3C 1_555 1_555
O3C C1C 1_555 1_555
Y1B O5B 1_555 1_555
O1B Y1B 1_555 1_555
O2B Y1B 1_555 1_555
O3B C1B 1_555 1_555
O6B Y1B 1_555 1_555
C1B O6B 1_555 1_555
C3B C1B 1_555 1_555
H2B C3B 1_555 1_555
O7B Y1B 1_555 1_555
O6A C1A 1_555 1_555
C1A C3A 1_555 1_555
C3A C3B 1_555 1_555
H2A C3A 1_555 1_555
O3A C1A 1_555 1_555
Y1C O6C 1_555 1_555
O2C Y1C 1_555 1_555
O4C C4C 1_555 1_555
O5C Y1C 1_555 1_555
C2C H1C 1_555 1_555
C4C O5C 1_555 1_555
O7C Y1C 1_555 1_555
O5A C4A 1_555 1_555
C2A C2C 1_555 1_555
H1A C2A 1_555 1_555
C4A C2A 1_555 1_555
O4A C4A 1_555 1_555
Y1P O2C 1_555 1_555
O2P Y1P 1_555 1_555
O3P Y1C 1_555 1_555
O4P C4P 1_555 1_555
O5P Y1P 1_555 1_555
O6P Y1P 1_555 1_555
C1P O3P 1_555 1_555
C2P H1P 1_555 1_555
C3P C1P 1_555 1_555
H2P C3P 1_555 1_555
C4P O5P 1_555 1_555
O7P Y1P 1_555 1_555
O5R C4R 1_555 1_555
C2R C2P 1_555 1_555
H1R C2R 1_555 1_555
C4R C2R 1_555 1_555
O4R C4R 1_555 1_555
O6S C1S 1_555 1_555
C1S C3S 1_555 1_555
C3S C3P 1_555 1_555
H2S C3S 1_555 1_555
O3S C1S 1_555 1_555
Y1Q O2 1_555 1_555
O2Q Y1Q 1_555 1_555
O7Q Y1Q 1_555 1_555
Y1R O5R 1_555 1_555
O2R Y1R 1_555 1_555
O7R Y1R 1_555 1_555
Y1A O6A 1_555 1_555
Y1A_2 O3S 1_555 1_555
Y1D O4C 1_555 1_555
Y1E O4 1_555 1_555
Y1F O4B 1_555 1_555
Y1G O4A 1_555 1_555
Y1I O2C 1_555 1_555
Y1J O1B 1_555 1_555
Y1J_2 O2R 1_555 1_555
Y1K O1 1_555 1_555
Y1L O2Q 1_555 1_555
Y1N O2R 1_555 1_555
Y1O O2P 1_555 1_555
Y1R_2 O2B 1_555 1_555
Y1S O6S 1_555 1_555
Y1T O3A 1_555 1_555
Y1U O3C 1_555 1_555
Y1V O3B 1_555 1_555
Y1V_2 O4R 1_555 1_555
Y1W O3 1_555 1_555
O1C Y1C 1_555 1_555
O1L Y1Q 1_555 1_555
O1N Y1R 1_555 1_555
O1O Y1P 1_555 1_555
O2B_2 Y1R 1_555 1_555
O2D Y1C 1_555 1_555
O2E Y1 1_555 1_555
O2F Y1B 1_555 1_555
O2U Y1C 1_555 1_555
O2V Y1B 1_555 1_555
O2V_2 Y1R 1_555 1_555
O2W Y1 1_555 1_555
O3I Y1P 1_555 1_555
O3J Y1R 1_555 1_555
O3K Y1Q 1_555 1_555
O3Q Y1 1_555 1_555
O3R Y1B 1_555 1_555
O4I Y1C 1_555 1_555
O4J Y1B 1_555 1_555
O4K Y1 1_555 1_555
O4L Y1Q 1_555 1_555
O4N Y1R 1_555 1_555
O4O Y1P 1_555 1_555
O5Q Y1Q 1_555 1_555
O6Q Y1Q 1_555 1_555
O6R Y1R 1_555 1_555
O2 Y1K 1_555 1_555
C2 C4 1_555 1_555
O1B Y1F 1_555 1_555
O2B Y1J 1_555 1_555
C2C C4C 1_555 1_555
O5A Y1A 1_555 1_555
Y1P O2U 1_555 1_555
O2P Y1I 1_555 1_555
O4P Y1U 1_555 1_555
O6P C1P 1_555 1_555
C2P C4P 1_555 1_555
Y1Q O2W 1_555 1_555
O2Q Y1K 1_555 1_555
Y1D O1C 1_555 1_555
Y1D O2D 1_555 1_555
Y1E O2E 1_555 1_555
Y1F O2F 1_555 1_555
Y1I O1C 1_555 1_555
Y1J_2 O2B_2 1_555 1_555
Y1L O1L 1_555 1_555
Y1N O1N 1_555 1_555
Y1O O1O 1_555 1_555
Y1R_2 O2V 1_555 1_555
Y1U O1O 1_555 1_555
Y1U O2D 1_555 1_555
Y1U O2U 1_555 1_555
Y1V O2F 1_555 1_555
Y1V O2V 1_555 1_555
Y1V_2 O1N 1_555 1_555
Y1V_2 O2V_2 1_555 1_555
Y1W O1L 1_555 1_555
Y1W O2E 1_555 1_555
Y1W O2W 1_555 1_555

#END
