
#######################################################################
#
#                 Cambridge Crystallographic Data Centre
#                                CCDC 
#
#######################################################################
#
# If this CIF has been generated from an entry in the Cambridge 
# Structural Database, then it will include bibliographic, chemical, 
# crystal, experimental, refinement or atomic coordinate data resulting 
# from the CCDC's data processing and validation procedures.
#
#######################################################################

data_XAPNIN
_chemical_formula_moiety         
'(C9 H3 O6 Zn1 1-)n,n(C4 H12 N1 1+),0.5n(H2 O1)'
_chemical_name_systematic        
'catena-((\m~4~-benzene-1,3,5-tricarboxylato)-zinc diethylammonium hemihydrate)'
_symmetry_cell_setting           monoclinic
_symmetry_space_group_name_H-M   'P 21/n'
_symmetry_Int_Tables_number      14
_space_group_name_Hall           '-P 2yn'
loop_
_symmetry_equiv_pos_site_id
_symmetry_equiv_pos_as_xyz
1 x,y,z
2 1/2-x,1/2+y,1/2-z
3 -x,-y,-z
4 1/2+x,1/2-y,1/2+z
_cell_length_a                   9.506(3)
_cell_length_b                   15.482(5)
_cell_length_c                   12.498(4)
_cell_angle_alpha                90
_cell_angle_beta                 94.954(3)
_cell_angle_gamma                90
_cell_volume                     1832.48
_cell_formula_units_Z            4
loop_
_atom_site_label
_atom_site_type_symbol
_atom_site_fract_x
_atom_site_fract_y
_atom_site_fract_z
C10 C 0.1588(18) 0.2636(13) 0.0447(14)
H4 H 0.1950 0.2142 0.0847
H5 H 0.2177 0.2756 -0.0121
H6 H 0.0644 0.2518 0.0146
C11 C 0.1575(12) 0.3451(9) 0.1227(12)
H7 H 0.2530 0.3592 0.1508
H8 H 0.1179 0.3948 0.0835
C12 C 0.063(2) 0.3903(11) 0.2894(17)
H9 H 0.1040 0.4445 0.2839
C13 C -0.019(3) 0.3624(15) 0.3802(16)
H10 H -0.1106 0.3894 0.3734
H11 H 0.0303 0.3790 0.4472
H12 H -0.0306 0.3007 0.3784
N1 N 0.0697(9) 0.3231(6) 0.2129(8)
H13 H -0.0185 0.3104 0.1853
H14 H 0.1058 0.2756 0.2465
Zn1 Zn 1.14014(6) 0.08367(4) 0.45719(5)
C1 C 1.2718(6) -0.1102(4) 0.6854(5)
C2 C 1.4102(6) -0.0979(4) 0.6616(5)
H1 H 1.4311 -0.0557 0.6124
C3 C 1.5183(6) -0.1486(4) 0.7116(5)
C4 C 1.4870(7) -0.2091(5) 0.7879(6)
H2 H 1.5591 -0.2422 0.8220
C5 C 1.3484(7) -0.2209(5) 0.8141(6)
C6 C 1.2417(6) -0.1716(4) 0.7618(5)
H3 H 1.1488 -0.1796 0.7779
C7 C 1.1525(6) -0.0640(4) 0.6206(5)
C8 C 1.6660(6) -0.1415(5) 0.6756(5)
C9 C 1.3127(7) -0.2897(5) 0.8928(6)
O1 O 1.1869(5) -0.0204(3) 0.5433(4)
O2 O 1.0292(4) -0.0762(3) 0.6453(3)
O3 O 1.1895(6) -0.3106(5) 0.8991(6)
O4 O 1.4163(5) -0.3242(3) 0.9483(4)
O5 O 1.7519(5) -0.2004(4) 0.6983(6)
O6 O 1.6904(5) -0.0771(3) 0.6192(4)
Zn1B Zn 0.85986(6) -0.08367(4) 0.54281(5)
Zn1A Zn 1.35986(6) -0.41633(4) 1.04281(5)
Zn1B_2 Zn 1.85986(6) -0.08367(4) 0.54281(5)
O2B O 0.9708(4) 0.0762(3) 0.3547(3)
O4A O 1.0837(5) 0.1758(3) 0.5517(4)
O6B O 1.3096(5) 0.0771(3) 0.3808(4)
O7? O 0.969(12) 0.994(3) 0.935(4)
H15? H 1.0402 1.0219 0.9996
H16? H 1.0420 0.9694 0.9150
loop_
_geom_bond_atom_site_label_1
_geom_bond_atom_site_label_2
_geom_bond_site_symmetry_1
_geom_bond_site_symmetry_2
Zn1 O1 1_555 1_555
C1 C2 1_555 1_555
C2 H1 1_555 1_555
C3 C2 1_555 1_555
C4 C3 1_555 1_555
H2 C4 1_555 1_555
C5 C4 1_555 1_555
C6 C1 1_555 1_555
H3 C6 1_555 1_555
C7 C1 1_555 1_555
C8 C3 1_555 1_555
C9 C5 1_555 1_555
C10 H4 1_555 1_555
H5 C10 1_555 1_555
H6 C10 1_555 1_555
C11 C10 1_555 1_555
H7 C11 1_555 1_555
H8 C11 1_555 1_555
C12 H9 1_555 1_555
C13 C12 1_555 1_555
H10 C13 1_555 1_555
H11 C13 1_555 1_555
H12 C13 1_555 1_555
N1 C11 1_555 1_555
H13 N1 1_555 1_555
H14 N1 1_555 1_555
O1 C7 1_555 1_555
O2 C7 1_555 1_555
O3 C9 1_555 1_555
O4 C9 1_555 1_555
O5 C8 1_555 1_555
O6 C8 1_555 1_555
Zn1B O2 1_555 1_555
Zn1A O4 1_555 1_555
Zn1B_2 O6 1_555 1_555
O2B Zn1 1_555 1_555
O4A Zn1 1_555 1_555
O6B Zn1 1_555 1_555
C5 C6 1_555 1_555
C12 N1 1_555 1_555

#END
