
#######################################################################
#
#                 Cambridge Crystallographic Data Centre
#                                CCDC 
#
#######################################################################
#
# If this CIF has been generated from an entry in the Cambridge 
# Structural Database, then it will include bibliographic, chemical, 
# crystal, experimental, refinement or atomic coordinate data resulting 
# from the CCDC's data processing and validation procedures.
#
#######################################################################

data_CUGDIT
_chemical_formula_moiety         
'(C62 H94 N14 Ni2 O12)n,1.25(C2 H3 N1),11(H2 O1)'
_chemical_name_systematic        
"catena-[(\m~4~-4,4',4'',4'''-(cyclohexane-1,2-diylbis(nitrilobis(methylene)))tetrabenzoato)-bis(2,2'-(1,3,5,8,10,12-hexaazacyclotetradecane-3,10-diyl)diethanol)-di-nickel  acetonitrile solvate undecahydrate]"
_symmetry_cell_setting           orthorhombic
_symmetry_space_group_name_H-M   'P 21 21 2'
_symmetry_Int_Tables_number      18
_space_group_name_Hall           'P 2 2ab'
loop_
_symmetry_equiv_pos_site_id
_symmetry_equiv_pos_as_xyz
1 x,y,z
2 -x,-y,z
3 1/2-x,1/2+y,-z
4 1/2+x,1/2-y,-z
_cell_length_a                   29.042(3)
_cell_length_b                   30.750(5)
_cell_length_c                   9.4483(17)
_cell_angle_alpha                90
_cell_angle_beta                 90
_cell_angle_gamma                90
_cell_volume                     8437.72
_exptl_crystal_colour            pink
_exptl_crystal_description       prism
_cell_formula_units_Z            4
loop_
_atom_site_label
_atom_site_type_symbol
_atom_site_fract_x
_atom_site_fract_y
_atom_site_fract_z
_atom_site_U_iso_or_equiv
_atom_site_thermal_displace_type
O1 O 0.5174(5) 0.2517(5) -0.0669(15) 0.0740 Uani
C1 C 0.5514(7) 0.2455(6) 0.011(2) 0.0730 Uani
C2 C 0.6267(5) 0.2721(3) 0.0933(16) 0.0733 Uani
H1 H 0.6370 0.2431 0.1068 0.0880 Uiso
C3 C 0.5817(4) 0.2800(4) 0.0501(16) 0.0720 Uani
C4 C 0.5666(3) 0.3225(4) 0.0302(15) 0.0743 Uani
H2 H 0.5359 0.3279 0.0007 0.0890 Uiso
C5 C 0.5966(5) 0.3570(3) 0.0535(16) 0.0757 Uani
H3 H 0.5862 0.3861 0.0399 0.0900 Uiso
C6 C 0.6415(4) 0.3491(4) 0.0967(16) 0.0763 Uani
C7 C 0.6566(3) 0.3067(4) 0.1165(15) 0.0747 Uani
H4 H 0.6874 0.3013 0.1460 0.0900 Uiso
C8 C 0.6751(6) 0.3851(6) 0.1305(19) 0.0777 Uani
H5 H 0.7065 0.3747 0.1081 0.0930 Uiso
H6 H 0.6685 0.4100 0.0674 0.0930 Uiso
C9 C 0.7159(3) 0.1803(3) 1.0778(14) 0.0217 Uani
H7 H 0.7267 0.1954 1.1640 0.0260 Uiso
H8 H 0.7113 0.2025 1.0035 0.0260 Uiso
C10 C 0.7963(5) 0.1707(4) 0.986(2) 0.0630 Uani
H9 H 0.8141 0.1805 1.0698 0.0760 Uiso
H10 H 0.7903 0.1961 0.9245 0.0760 Uiso
C11 C 0.8226(4) 0.1358(4) 0.9058(12) 0.0220 Uani
H11 H 0.8513 0.1484 0.8666 0.0270 Uiso
H12 H 0.8312 0.1121 0.9716 0.0270 Uiso
C12 C 0.8148(5) 0.0790(4) 0.7214(14) 0.0453 Uani
H13 H 0.8461 0.0867 0.6882 0.0550 Uiso
H14 H 0.8181 0.0561 0.7943 0.0550 Uiso
C13 C 0.7447(3) 0.0415(4) 0.6292(19) 0.0497 Uani
H15 H 0.7483 0.0161 0.6926 0.0600 Uiso
H16 H 0.7314 0.0312 0.5387 0.0600 Uiso
C14 C 0.6698(4) 0.0508(5) 0.7266(19) 0.0547 Uani
H17 H 0.6753 0.0240 0.7826 0.0650 Uiso
H18 H 0.6531 0.0432 0.6387 0.0650 Uiso
C15 C 0.6438(6) 0.0846(6) 0.8122(18) 0.0707 Uani
H19 H 0.6330 0.1076 0.7468 0.0850 Uiso
H20 H 0.6161 0.0706 0.8531 0.0850 Uiso
C16 C 0.6448(5) 0.1427(5) 0.9927(15) 0.0493 Uani
H21 H 0.6396 0.1655 0.9205 0.0590 Uiso
H22 H 0.6145 0.1329 1.0282 0.0590 Uiso
C17 C 0.6710(5) 0.1399(4) 1.2539(11) 0.0440 Uani
H23 H 0.7028 0.1371 1.2910 0.0530 Uiso
H24 H 0.6571 0.1105 1.2494 0.0530 Uiso
C18 C 0.6427(3) 0.1692(4) 1.3496(15) 0.0363 Uani
H25 H 0.6453 0.1585 1.4481 0.0440 Uiso
H26 H 0.6560 0.1988 1.3468 0.0440 Uiso
C19 C 0.7836(5) 0.0895(5) 0.4742(14) 0.0527 Uani
H27 H 0.7714 0.1184 0.5016 0.0630 Uiso
H28 H 0.7620 0.0759 0.4062 0.0630 Uiso
C20 C 0.8312(5) 0.0940(8) 0.4089(17) 0.0830 Uani
H29 H 0.8509 0.1135 0.4661 0.1000 Uiso
H30 H 0.8464 0.0654 0.3999 0.1000 Uiso
C21 C 1.0160(7) 0.3669(5) 0.1844(18) 0.0770 Uani
H31 H 0.9946 0.3858 0.2380 0.0920 Uiso
H32 H 1.0401 0.3854 0.1413 0.0920 Uiso
C22 C 1.0377(6) 0.3335(5) 0.282(2) 0.0780 Uani
H33 H 1.0650 0.3207 0.2355 0.0940 Uiso
H34 H 1.0483 0.3482 0.3698 0.0940 Uiso
C23 C 1.0328(5) 0.2632(5) 0.386(2) 0.0797 Uani
H35 H 1.0561 0.2528 0.3176 0.0960 Uiso
H36 H 1.0493 0.2749 0.4696 0.0960 Uiso
C24 C 0.9808(6) 0.2049(5) 0.315(2) 0.0807 Uani
H37 H 0.9699 0.1762 0.3486 0.0970 Uiso
H38 H 1.0029 0.1998 0.2369 0.0970 Uiso
C25 C 0.9202(6) 0.2097(5) 0.1339(15) 0.0637 Uani
H39 H 0.9013 0.1845 0.1638 0.0760 Uiso
H40 H 0.9449 0.1988 0.0712 0.0760 Uiso
C26 C 0.8901(5) 0.2413(5) 0.052(2) 0.0640 Uani
H41 H 0.8737 0.2266 -0.0271 0.0770 Uiso
H42 H 0.8674 0.2559 0.1137 0.0770 Uiso
C27 C 0.9000(5) 0.3093(5) -0.062(2) 0.0797 Uani
H43 H 0.8820 0.2992 -0.1452 0.0950 Uiso
H44 H 0.8781 0.3208 0.0086 0.0950 Uiso
C28 C 0.9594(5) 0.3623(7) -0.370(2) 0.0830 Uani
H45 H 0.9375 0.3514 -0.4423 0.1000 Uiso
H46 H 0.9519 0.3929 -0.3478 0.1000 Uiso
C29 C 0.9714(7) 0.2416(6) 0.544(2) 0.0830 Uani
H47 H 0.9445 0.2563 0.5011 0.0990 Uiso
H48 H 0.9869 0.2625 0.6078 0.0990 Uiso
C30 C 0.9553(7) 0.2023(6) 0.6288(17) 0.0843 Uani
H49 H 0.9342 0.1850 0.5688 0.1010 Uiso
H50 H 0.9825 0.1839 0.6497 0.1010 Uiso
C31 C 0.6280(5) 0.4269(5) 0.4812(14) 0.0710 Uani
H51 H 0.6506 0.4502 0.5067 0.0850 Uiso
C32 C 0.6313(5) 0.4220(5) 0.3215(15) 0.0703 Uani
H52 H 0.6058 0.4020 0.2928 0.0840 Uiso
C33 C 0.6226(5) 0.4656(5) 0.2435(19) 0.0707 Uani
H53 H 0.6455 0.4875 0.2735 0.0850 Uiso
H54 H 0.6254 0.4614 0.1400 0.0850 Uiso
C34 C 0.5737(5) 0.4810(7) 0.2812(14) 0.0710 Uani
H55 H 0.5672 0.5087 0.2318 0.0850 Uiso
H56 H 0.5510 0.4592 0.2484 0.0850 Uiso
C35 C 0.5683(7) 0.4877(5) 0.4419(15) 0.0730 Uani
H57 H 0.5362 0.4964 0.4636 0.0870 Uiso
H58 H 0.5891 0.5112 0.4738 0.0870 Uiso
C36 C 0.5800(5) 0.4453(6) 0.5212(19) 0.0733 Uani
H59 H 0.5562 0.4232 0.4996 0.0880 Uiso
H60 H 0.5792 0.4510 0.6243 0.0880 Uiso
C37 C 0.7288(5) 0.1988(4) 0.661(2) 0.0543 Uani
C38 C 0.6994(4) 0.2345(3) 0.6297(12) 0.0543 Uani
C39 C 0.6654(4) 0.2493(3) 0.7212(10) 0.0540 Uani
H61 H 0.6594 0.2341 0.8068 0.0650 Uiso
C40 C 0.6401(3) 0.2862(4) 0.6875(11) 0.0550 Uani
H62 H 0.6169 0.2963 0.7500 0.0660 Uiso
C41 C 0.6489(4) 0.3084(3) 0.5622(12) 0.0527 Uani
C42 C 0.6830(4) 0.2936(3) 0.4706(10) 0.0517 Uani
H63 H 0.6890 0.3088 0.3850 0.0620 Uiso
C43 C 0.7082(3) 0.2566(4) 0.5044(11) 0.0540 Uani
H64 H 0.7315 0.2465 0.4418 0.0650 Uiso
C44 C 0.6176(5) 0.3463(4) 0.532(2) 0.0550 Uani
H65 H 0.6077 0.3455 0.4318 0.0660 Uiso
H66 H 0.5898 0.3443 0.5924 0.0660 Uiso
C45 C 0.7614(6) 0.5314(5) 0.917(2) 0.0587 Uani
C46 C 0.7291(4) 0.5006(3) 0.8650(13) 0.0587 Uani
C47 C 0.7475(3) 0.4672(4) 0.7834(13) 0.0583 Uani
H67 H 0.7796 0.4667 0.7633 0.0700 Uiso
C48 C 0.7191(4) 0.4347(3) 0.7311(12) 0.0600 Uani
H68 H 0.7316 0.4119 0.6753 0.0720 Uiso
C49 C 0.6722(4) 0.4354(3) 0.7605(13) 0.0590 Uani
C50 C 0.6538(3) 0.4687(4) 0.8422(14) 0.0600 Uani
H69 H 0.6217 0.4693 0.8622 0.0720 Uiso
C51 C 0.6822(4) 0.5013(3) 0.8944(12) 0.0583 Uani
H70 H 0.6697 0.5241 0.9502 0.0700 Uiso
C52 C 0.6428(6) 0.3989(5) 0.7117(17) 0.0593 Uani
H71 H 0.6523 0.3725 0.7645 0.0710 Uiso
H72 H 0.6107 0.4054 0.7399 0.0710 Uiso
C53 C 0.8750(5) 0.3164(6) 0.325(2) 0.0630 Uani
C54 C 0.8363(3) 0.3449(3) 0.3328(13) 0.0590 Uani
C55 C 0.8350(3) 0.3771(4) 0.2298(12) 0.0563 Uani
H73 H 0.8600 0.3803 0.1656 0.0680 Uiso
C56 C 0.7972(4) 0.4047(3) 0.2207(11) 0.0557 Uani
H74 H 0.7963 0.4267 0.1503 0.0670 Uiso
C57 C 0.7607(3) 0.3999(3) 0.3145(13) 0.0540 Uani
C58 C 0.7620(3) 0.3677(4) 0.4175(12) 0.0567 Uani
H75 H 0.7370 0.3645 0.4817 0.0680 Uiso
C59 C 0.7998(4) 0.3401(3) 0.4266(12) 0.0577 Uani
H76 H 0.8007 0.3181 0.4970 0.0690 Uiso
C60 C 0.7173(4) 0.4253(5) 0.300(2) 0.0553 Uani
H77 H 0.7135 0.4431 0.3863 0.0660 Uiso
H78 H 0.7211 0.4456 0.2194 0.0660 Uiso
N1 N 0.6718(4) 0.1602(4) 1.1084(11) 0.0570 Uani
N2 N 0.7526(4) 0.1502(4) 1.0304(16) 0.0543 Uani
H79 H 0.7592 0.1317 1.1056 0.0650 Uiso
N3 N 0.7943(5) 0.1179(4) 0.7893(14) 0.0637 Uani
H80 H 0.7932 0.1393 0.7199 0.0770 Uiso
N4 N 0.7894(3) 0.0610(3) 0.6032(10) 0.0267 Uani
N5 N 0.7135(4) 0.0736(4) 0.6952(13) 0.0423 Uani
H81 H 0.7062 0.0930 0.6230 0.0510 Uiso
N6 N 0.6697(5) 0.1056(5) 0.9285(16) 0.0687 Uani
H82 H 0.6713 0.0847 0.9996 0.0820 Uiso
N7 N 0.9908(5) 0.3428(5) 0.0731(17) 0.0767 Uani
H83 H 1.0128 0.3341 0.0076 0.0920 Uiso
N8 N 1.0052(5) 0.2983(4) 0.3204(19) 0.0787 Uani
H84 H 0.9865 0.3094 0.3916 0.0950 Uiso
N9 N 0.9411(5) 0.2300(5) 0.2605(14) 0.0603 Uani
H85 H 0.9195 0.2359 0.3305 0.0720 Uiso
N10 N 0.9254(5) 0.2720(5) -0.001(2) 0.0807 Uani
H86 H 0.9428 0.2586 -0.0713 0.0970 Uiso
N11 N 0.6425(5) 0.3879(4) 0.5614(14) 0.0620 Uani
N12 N 0.6747(4) 0.4007(4) 0.2778(14) 0.0467 Uani
Ni1 Ni 0.73130(14) 0.11138(8) 0.8604(4) 0.0691 Uani
Ni2 Ni 0.96634(12) 0.28698(11) 0.1645(4) 0.0687 Uani
O2 O 0.5936(3) 0.1719(5) 1.3124(15) 0.0707 Uani
H87 H 0.5908 0.1731 1.2240 0.1060 Uiso
O3 O 0.8217(5) 0.1130(6) 0.2690(16) 0.0927 Uani
H88 H 0.8467 0.1171 0.2260 0.1390 Uiso
O4 O 1.0072(5) 0.3580(5) -0.4194(16) 0.0857 Uani
H89 H 1.0328 0.3567 -0.3831 0.1290 Uiso
O5 O 0.9318(5) 0.2120(5) 0.7628(15) 0.0883 Uani
H90 H 0.9058 0.2214 0.7483 0.1330 Uiso
O6 O 0.7068(4) 0.1663(4) 0.7452(13) 0.0547 Uani
O7 O 0.7681(4) 0.1918(4) 0.6148(13) 0.0557 Uani
O8 O 0.7413(4) 0.5562(4) 1.0146(13) 0.0573 Uani
O9 O 0.7985(4) 0.5350(4) 0.8873(15) 0.0663 Uani
O10 O 0.5579(5) 0.2078(5) 0.0907(15) 0.0753 Uani
O11 O 0.8712(4) 0.2802(5) 0.3972(15) 0.0703 Uani
O12 O 0.9119(5) 0.3229(4) 0.2618(15) 0.0680 Uani
N13 N 0.9309(5) 0.3439(5) -0.1063(15) 0.0793 Uani
N14 N 1.0042(5) 0.2270(5) 0.4299(15) 0.0807 Uani
C61 C 0.9572(6) 0.3696(5) -0.006(2) 0.0783 Uani
H91 H 0.9359 0.3837 0.0613 0.0940 Uiso
H92 H 0.9738 0.3928 -0.0579 0.0940 Uiso
C62 C 0.9585(7) 0.3342(7) -0.2380(17) 0.0807 Uani
H93 H 0.9488 0.3049 -0.2695 0.0970 Uiso
H94 H 0.9909 0.3314 -0.2069 0.0970 Uiso
O1C O 1.0174(5) 0.2483(5) 0.0669(15) 0.0740 Uani
Ni1B Ni 0.76870(14) 0.61138(8) 1.1396(4) 0.0691 Uani
Ni2C Ni 0.46634(12) 0.21302(11) -0.1645(4) 0.0687 Uani
O8B O 0.7587(4) 0.0562(4) 0.9854(13) 0.0573 Uani
loop_
_atom_site_aniso_label
_atom_site_aniso_U_11
_atom_site_aniso_U_22
_atom_site_aniso_U_33
_atom_site_aniso_U_23
_atom_site_aniso_U_13
_atom_site_aniso_U_12
O1 0.073(4) 0.072(4) 0.077(4) 0.001(3) -0.007(3) -0.002(3)
C1 0.072(3) 0.072(3) 0.075(4) 0.001(3) -0.005(3) -0.002(3)
C2 0.072(3) 0.073(3) 0.075(4) 0.001(3) -0.001(3) -0.003(3)
C3 0.072(3) 0.071(3) 0.073(3) 0.001(3) -0.001(3) -0.003(2)
C4 0.075(3) 0.072(3) 0.076(4) 0.000(3) -0.003(3) -0.002(3)
C5 0.076(3) 0.073(3) 0.078(4) 0.000(3) -0.003(3) -0.002(3)
C6 0.076(3) 0.075(3) 0.078(4) 0.000(3) -0.004(3) -0.003(3)
C7 0.074(3) 0.074(3) 0.076(4) 0.000(3) -0.002(3) -0.003(3)
C8 0.078(4) 0.076(4) 0.079(5) 0.001(4) -0.004(4) -0.005(3)
C9 0.021(5) 0.024(4) 0.020(5) -0.004(4) -0.006(4) -0.005(4)
C10 0.060(7) 0.063(7) 0.066(7) 0.003(5) 0.009(5) -0.002(4)
C11 0.022(5) 0.023(4) 0.021(5) 0.002(4) 0.006(4) -0.001(4)
C12 0.046(6) 0.045(6) 0.045(6) -0.002(4) 0.003(4) -0.004(4)
C13 0.048(6) 0.050(6) 0.051(6) -0.006(4) 0.004(4) 0.002(4)
C14 0.056(6) 0.053(6) 0.055(6) -0.001(4) -0.005(4) -0.002(4)
C15 0.072(7) 0.071(7) 0.069(7) 0.001(5) -0.003(5) -0.002(5)
C16 0.049(6) 0.048(6) 0.051(6) 0.002(4) -0.001(4) 0.000(4)
C17 0.042(5) 0.044(5) 0.046(6) -0.001(4) 0.008(4) -0.004(4)
C18 0.036(5) 0.036(5) 0.037(5) -0.001(4) 0.000(4) -0.010(4)
C19 0.054(6) 0.049(6) 0.055(6) 0.001(4) 0.001(4) -0.002(4)
C20 0.082(8) 0.082(8) 0.085(8) 0.000(5) -0.001(5) 0.002(5)
C21 0.077(3) 0.077(3) 0.077(3) -0.0007(17) 0.0009(18) 0.0000(19)
C22 0.078(3) 0.078(2) 0.078(3) -0.0006(18) 0.0003(18) 0.0000(18)
C23 0.080(3) 0.079(2) 0.080(3) -0.0006(18) -0.0002(18) 0.0005(17)
C24 0.081(3) 0.080(3) 0.081(3) 0.000(2) -0.002(2) 0.000(2)
C25 0.063(4) 0.064(4) 0.064(4) 0.000(2) 0.001(2) -0.002(2)
C26 0.063(4) 0.064(4) 0.065(4) 0.000(2) 0.001(2) -0.002(2)
C27 0.079(3) 0.079(3) 0.081(3) 0.000(2) -0.001(2) 0.000(2)
C28 0.083(3) 0.083(3) 0.083(3) 0.000(2) 0.001(2) -0.001(2)
C29 0.083(3) 0.083(3) 0.083(3) -0.0004(17) 0.0005(18) 0.0004(19)
C30 0.085(3) 0.084(3) 0.084(3) 0.001(2) 0.001(2) 0.000(2)
C31 0.071(4) 0.072(4) 0.070(4) 0.001(3) -0.001(3) 0.000(3)
C32 0.070(4) 0.071(4) 0.070(4) 0.002(3) -0.002(3) -0.001(3)
C33 0.070(4) 0.071(4) 0.071(4) 0.003(3) -0.001(3) -0.003(3)
C34 0.070(4) 0.071(4) 0.072(4) 0.003(3) -0.001(3) -0.002(3)
C35 0.072(4) 0.073(4) 0.074(4) 0.002(3) 0.000(3) 0.000(3)
C36 0.072(4) 0.074(4) 0.074(4) 0.001(3) -0.001(3) 0.000(3)
C37 0.054(3) 0.054(3) 0.055(3) 0.000(3) 0.003(3) 0.000(3)
C38 0.055(3) 0.054(3) 0.054(3) 0.001(2) 0.000(3) 0.000(2)
C39 0.054(3) 0.053(3) 0.055(3) 0.001(3) -0.001(3) 0.000(3)
C40 0.055(3) 0.055(3) 0.055(3) 0.001(3) 0.001(3) 0.000(3)
C41 0.053(3) 0.052(3) 0.053(3) 0.000(3) -0.002(3) -0.002(3)
C42 0.052(3) 0.053(3) 0.050(3) -0.001(3) -0.003(3) -0.001(3)
C43 0.054(3) 0.055(3) 0.053(3) -0.001(3) -0.002(3) 0.000(3)
C44 0.055(4) 0.053(4) 0.057(4) 0.000(3) -0.002(3) -0.002(3)
C45 0.060(3) 0.056(3) 0.060(3) 0.001(3) 0.004(3) -0.001(3)
C46 0.060(3) 0.057(3) 0.059(3) 0.001(2) 0.001(3) -0.001(2)
C47 0.060(3) 0.056(3) 0.059(4) 0.002(3) 0.002(3) -0.002(3)
C48 0.062(3) 0.058(3) 0.060(4) 0.001(3) 0.001(3) -0.002(3)
C49 0.060(3) 0.057(3) 0.060(3) 0.002(3) -0.001(3) -0.001(3)
C50 0.061(3) 0.059(3) 0.060(4) 0.001(3) -0.001(3) -0.001(3)
C51 0.060(3) 0.057(3) 0.058(4) 0.001(3) -0.002(3) 0.000(3)
C52 0.060(3) 0.058(3) 0.060(4) 0.001(3) -0.002(3) 0.000(3)
C53 0.062(3) 0.061(3) 0.066(3) -0.002(3) 0.004(3) 0.002(3)
C54 0.059(3) 0.059(3) 0.059(3) -0.001(3) 0.001(3) -0.001(2)
C55 0.056(3) 0.056(3) 0.057(3) -0.002(3) 0.002(3) -0.001(3)
C56 0.055(3) 0.056(3) 0.056(3) -0.001(3) 0.002(3) -0.002(3)
C57 0.054(3) 0.054(3) 0.054(3) -0.001(3) 0.001(3) -0.003(3)
C58 0.057(3) 0.057(3) 0.056(3) 0.000(3) 0.000(3) -0.003(3)
C59 0.057(3) 0.057(3) 0.059(3) -0.001(3) 0.001(3) -0.002(3)
C60 0.054(4) 0.057(4) 0.055(4) -0.001(3) -0.001(3) -0.003(3)
N1 0.056(4) 0.058(4) 0.057(5) 0.000(2) 0.001(2) -0.001(2)
N2 0.052(5) 0.052(5) 0.059(6) 0.003(4) 0.006(4) 0.002(4)
N3 0.066(6) 0.058(6) 0.067(6) 0.002(4) 0.000(4) 0.000(4)
N4 0.022(4) 0.030(4) 0.028(4) 0.000(4) 0.005(4) 0.004(4)
N5 0.041(5) 0.048(5) 0.038(5) 0.011(4) 0.009(4) 0.001(4)
N6 0.072(6) 0.064(6) 0.070(6) -0.005(4) -0.001(4) 0.002(4)
N7 0.076(3) 0.077(3) 0.077(3) 0.0002(18) 0.0011(17) -0.0004(18)
N8 0.079(3) 0.078(2) 0.079(3) -0.0005(18) 0.0010(19) -0.0001(18)
N9 0.058(5) 0.063(6) 0.060(6) -0.001(4) 0.010(4) -0.007(4)
N10 0.081(7) 0.077(7) 0.084(7) 0.005(5) 0.007(5) 0.001(4)
N11 0.063(4) 0.061(4) 0.062(4) 0.000(3) -0.005(3) 0.000(3)
N12 0.045(5) 0.044(5) 0.051(5) 0.002(4) 0.002(4) -0.006(4)
Ni1 0.119(3) 0.0162(11) 0.072(2) -0.0077(16) 0.009(2) -0.0016(16)
Ni2 0.082(2) 0.0612(19) 0.063(2) -0.0041(18) 0.0313(19) 0.0124(18)
O2 0.067(5) 0.071(5) 0.074(6) 0.000(4) 0.000(4) 0.002(4)
O3 0.096(6) 0.090(6) 0.092(6) -0.008(5) -0.005(4) 0.000(5)
O4 0.085(3) 0.086(4) 0.086(3) 0.002(3) 0.002(2) 0.000(3)
O5 0.089(4) 0.088(4) 0.088(3) 0.001(2) 0.003(2) -0.001(3)
O6 0.055(4) 0.052(3) 0.057(4) -0.001(3) 0.001(3) 0.000(3)
O7 0.054(3) 0.055(4) 0.058(4) 0.001(4) 0.003(3) 0.004(3)
O8 0.061(4) 0.053(4) 0.058(4) 0.002(3) 0.000(3) 0.000(3)
O9 0.060(3) 0.068(4) 0.071(5) 0.000(4) 0.000(3) -0.003(3)
O10 0.074(5) 0.070(4) 0.082(5) 0.003(4) -0.007(4) -0.003(4)
O11 0.072(4) 0.067(4) 0.072(5) 0.002(3) 0.005(4) 0.006(3)
O12 0.067(3) 0.064(4) 0.073(4) -0.003(3) 0.007(3) -0.001(3)
N13 0.079(2) 0.079(3) 0.080(2) 0.0000(17) -0.0005(15) 0.0003(17)
N14 0.081(3) 0.080(2) 0.081(3) -0.0001(16) -0.0008(16) 0.0004(17)
C61 0.078(3) 0.078(3) 0.079(2) 0.0004(18) 0.0001(17) 0.0006(18)
C62 0.081(3) 0.080(3) 0.081(3) -0.0009(17) 0.0003(17) 0.0000(19)
O1C 0.073 0.072 0.077 0.001 0.007 0.002
Ni1B 0.119 0.0162 0.072 0.0077 0.009 0.0016
Ni2C 0.082 0.0612 0.063 -0.0041 -0.0313 -0.0124
O8B 0.061 0.053 0.058 -0.002 0 0
loop_
_geom_bond_atom_site_label_1
_geom_bond_atom_site_label_2
_geom_bond_site_symmetry_1
_geom_bond_site_symmetry_2
O1 C1 1_555 1_555
C1 C3 1_555 1_555
C2 H1 1_555 1_555
C3 C2 1_555 1_555
C4 C3 1_555 1_555
H2 C4 1_555 1_555
C5 C4 1_555 1_555
H3 C5 1_555 1_555
C6 C5 1_555 1_555
C7 C2 1_555 1_555
H4 C7 1_555 1_555
C8 C6 1_555 1_555
H5 C8 1_555 1_555
H6 C8 1_555 1_555
C9 H7 1_555 1_555
H8 C9 1_555 1_555
C10 H9 1_555 1_555
H10 C10 1_555 1_555
C11 C10 1_555 1_555
H11 C11 1_555 1_555
H12 C11 1_555 1_555
C12 H13 1_555 1_555
H14 C12 1_555 1_555
C13 H15 1_555 1_555
H16 C13 1_555 1_555
C14 H17 1_555 1_555
H18 C14 1_555 1_555
C15 C14 1_555 1_555
H19 C15 1_555 1_555
H20 C15 1_555 1_555
C16 H21 1_555 1_555
H22 C16 1_555 1_555
C17 H23 1_555 1_555
H24 C17 1_555 1_555
C18 C17 1_555 1_555
H25 C18 1_555 1_555
H26 C18 1_555 1_555
C19 H27 1_555 1_555
H28 C19 1_555 1_555
C20 C19 1_555 1_555
H29 C20 1_555 1_555
H30 C20 1_555 1_555
C21 H31 1_555 1_555
H32 C21 1_555 1_555
C22 C21 1_555 1_555
H33 C22 1_555 1_555
H34 C22 1_555 1_555
C23 H35 1_555 1_555
H36 C23 1_555 1_555
C24 H37 1_555 1_555
H38 C24 1_555 1_555
C25 H39 1_555 1_555
H40 C25 1_555 1_555
C26 C25 1_555 1_555
H41 C26 1_555 1_555
H42 C26 1_555 1_555
C27 H43 1_555 1_555
H44 C27 1_555 1_555
C28 H45 1_555 1_555
H46 C28 1_555 1_555
C29 H47 1_555 1_555
H48 C29 1_555 1_555
C30 C29 1_555 1_555
H49 C30 1_555 1_555
H50 C30 1_555 1_555
C31 H51 1_555 1_555
C32 C31 1_555 1_555
H52 C32 1_555 1_555
C33 C32 1_555 1_555
H53 C33 1_555 1_555
H54 C33 1_555 1_555
C34 C33 1_555 1_555
H55 C34 1_555 1_555
H56 C34 1_555 1_555
C35 C34 1_555 1_555
H57 C35 1_555 1_555
H58 C35 1_555 1_555
C36 C31 1_555 1_555
H59 C36 1_555 1_555
H60 C36 1_555 1_555
C37 C38 1_555 1_555
C38 C39 1_555 1_555
C39 H61 1_555 1_555
C40 C39 1_555 1_555
H62 C40 1_555 1_555
C41 C40 1_555 1_555
C42 C41 1_555 1_555
H63 C42 1_555 1_555
C43 C38 1_555 1_555
H64 C43 1_555 1_555
C44 C41 1_555 1_555
H65 C44 1_555 1_555
H66 C44 1_555 1_555
C45 C46 1_555 1_555
C46 C47 1_555 1_555
C47 H67 1_555 1_555
C48 C47 1_555 1_555
H68 C48 1_555 1_555
C49 C48 1_555 1_555
C50 C49 1_555 1_555
H69 C50 1_555 1_555
C51 C46 1_555 1_555
H70 C51 1_555 1_555
C52 C49 1_555 1_555
H71 C52 1_555 1_555
H72 C52 1_555 1_555
C53 C54 1_555 1_555
C54 C55 1_555 1_555
C55 H73 1_555 1_555
C56 C55 1_555 1_555
H74 C56 1_555 1_555
C57 C56 1_555 1_555
C58 C57 1_555 1_555
H75 C58 1_555 1_555
C59 C54 1_555 1_555
H76 C59 1_555 1_555
C60 C57 1_555 1_555
H77 C60 1_555 1_555
H78 C60 1_555 1_555
N1 C9 1_555 1_555
N2 C9 1_555 1_555
H79 N2 1_555 1_555
N3 C11 1_555 1_555
H80 N3 1_555 1_555
N4 C12 1_555 1_555
N5 C13 1_555 1_555
H81 N5 1_555 1_555
N6 C15 1_555 1_555
H82 N6 1_555 1_555
N7 C21 1_555 1_555
H83 N7 1_555 1_555
N8 C22 1_555 1_555
H84 N8 1_555 1_555
N9 C24 1_555 1_555
H85 N9 1_555 1_555
N10 C26 1_555 1_555
H86 N10 1_555 1_555
N11 C31 1_555 1_555
N12 C8 1_555 1_555
Ni1 N2 1_555 1_555
Ni2 N7 1_555 1_555
O2 C18 1_555 1_555
H87 O2 1_555 1_555
O3 C20 1_555 1_555
H88 O3 1_555 1_555
O4 C28 1_555 1_555
H89 O4 1_555 1_555
O5 C30 1_555 1_555
H90 O5 1_555 1_555
O6 C37 1_555 1_555
O7 C37 1_555 1_555
O8 C45 1_555 1_555
O9 C45 1_555 1_555
O10 C1 1_555 1_555
O11 C53 1_555 1_555
O12 C53 1_555 1_555
N13 C27 1_555 1_555
N14 C23 1_555 1_555
C61 N7 1_555 1_555
H91 C61 1_555 1_555
H92 C61 1_555 1_555
C62 C28 1_555 1_555
H93 C62 1_555 1_555
H94 C62 1_555 1_555
O1C Ni2 1_555 1_555
Ni1B O8 1_555 1_555
Ni2C O1 1_555 1_555
O8B Ni1 1_555 1_555
C6 C7 1_555 1_555
C10 N2 1_555 1_555
C12 N3 1_555 1_555
C13 N4 1_555 1_555
C14 N5 1_555 1_555
C16 N1 1_555 1_555
C16 N6 1_555 1_555
C17 N1 1_555 1_555
C19 N4 1_555 1_555
C23 N8 1_555 1_555
C24 N14 1_555 1_555
C25 N9 1_555 1_555
C27 N10 1_555 1_555
C29 N14 1_555 1_555
C32 N12 1_555 1_555
C35 C36 1_555 1_555
C42 C43 1_555 1_555
C44 N11 1_555 1_555
C50 C51 1_555 1_555
C52 N11 1_555 1_555
C58 C59 1_555 1_555
C60 N12 1_555 1_555
N3 Ni1 1_555 1_555
N5 Ni1 1_555 1_555
N6 Ni1 1_555 1_555
N8 Ni2 1_555 1_555
N9 Ni2 1_555 1_555
N10 Ni2 1_555 1_555
Ni1 O6 1_555 1_555
Ni2 O12 1_555 1_555
N13 C61 1_555 1_555
N13 C62 1_555 1_555

#END
