
#######################################################################
#
#                 Cambridge Crystallographic Data Centre
#                                CCDC 
#
#######################################################################
#
# If this CIF has been generated from an entry in the Cambridge 
# Structural Database, then it will include bibliographic, chemical, 
# crystal, experimental, refinement or atomic coordinate data resulting 
# from the CCDC's data processing and validation procedures.
#
#######################################################################

data_LUFQUZ02
_chemical_formula_moiety         '(C8 H4 Fe1 N6 Ni1)n,2n(H2 O1)'
_chemical_name_systematic        
'catena-((\m~2~-Pyrazine)-tetrakis(\m~2~-cyano)-iron-nickel dihydrate)'
_symmetry_cell_setting           orthorhombic
_symmetry_space_group_name_H-M   'P m m m'
_symmetry_Int_Tables_number      47
_space_group_name_Hall           '-P 2 2'
loop_
_symmetry_equiv_pos_site_id
_symmetry_equiv_pos_as_xyz
1 x,y,z
2 -x,-y,z
3 x,-y,-z
4 -x,y,-z
5 -x,-y,-z
6 x,y,-z
7 -x,y,z
8 x,-y,z
_cell_length_a                   7.2666(3)
_cell_length_b                   7.2696(3)
_cell_length_c                   7.2421(3)
_cell_angle_alpha                90
_cell_angle_beta                 90
_cell_angle_gamma                90
_cell_volume                     382.566
_exptl_crystal_colour            red-yellow
_exptl_crystal_description       'rectangular block'
_cell_formula_units_Z            1
loop_
_atom_site_label
_atom_site_type_symbol
_atom_site_fract_x
_atom_site_fract_y
_atom_site_fract_z
Ni1 Ni 0.5000 0.5000 0.0000
Fe1 Fe 0.0000 0.0000 0.0000
N1 N 0.2051(14) 0.2088(11) 0.0000
N2 N 0.0000 0.0000 0.3073(8)
C1 C 0.3243(15) 0.3120(16) 0.0000
C2 C 0.0000 0.1544(11) 0.4031(12)
H1 H 0.0000 0.2661 0.3406
Fe1_2 Fe 0.0000 0.0000 1.0000
Fe1_3 Fe 1.0000 1.0000 0.0000
Fe1_4 Fe 0.0000 1.0000 0.0000
Fe1_5 Fe 1.0000 0.0000 0.0000
N1A N 0.7949(14) 0.7912(11) 0.0000
N1B N 0.2051(14) 0.7912(11) 0.0000
N1C N 0.7949(14) 0.2088(11) 0.0000
N1A_2 N -0.2051(14) -0.2088(11) 0.0000
N1B_2 N 0.2051(14) -0.2088(11) 0.0000
N1C_2 N -0.2051(14) 0.2088(11) 0.0000
N2B N 0.0000 0.0000 0.6927(8)
N2B_2 N 0.0000 0.0000 -0.3073(8)
C1A C 0.6757(15) 0.6880(16) 0.0000
C1B C 0.3243(15) 0.6880(16) 0.0000
C1C C 0.6757(15) 0.3120(16) 0.0000
C2C C 0.0000 0.1544(11) 0.5969(12)
C2B C 0.0000 -0.1544(11) 0.5969(12)
C2A C 0.0000 -0.1544(11) 0.4031(12)
H1A H 0.0000 -0.2661 0.3406
H1B H 0.0000 -0.2661 0.6594
H1C H 0.0000 0.2661 0.6594
O1 O 0.5000 0.5000 0.323(13)
O2? O 0.5000 0.0000 0.399(11)
O3? O 0.5000 0.401(5) 0.5000
loop_
_geom_bond_atom_site_label_1
_geom_bond_atom_site_label_2
_geom_bond_site_symmetry_1
_geom_bond_site_symmetry_2
Ni1 C1 1_555 1_555
Fe1 N1 1_555 1_555
N1 C1 1_555 1_555
N2 Fe1 1_555 1_555
C2 N2 1_555 1_555
H1 C2 1_555 1_555
Fe1_2 N2B 1_555 1_555
Fe1_3 N1A 1_555 1_555
Fe1_4 N1B 1_555 1_555
Fe1_5 N1C 1_555 1_555
N1A C1A 1_555 1_555
N1B C1B 1_555 1_555
N1C C1C 1_555 1_555
N1A_2 Fe1 1_555 1_555
N1B_2 Fe1 1_555 1_555
N1C_2 Fe1 1_555 1_555
N2B C2C 1_555 1_555
N2B_2 Fe1 1_555 1_555
C1A Ni1 1_555 1_555
C1B Ni1 1_555 1_555
C1C Ni1 1_555 1_555
C2C C2 1_555 1_555
C2B N2B 1_555 1_555
C2A N2 1_555 1_555
H1A C2A 1_555 1_555
H1B C2B 1_555 1_555
H1C C2C 1_555 1_555
C2B C2A 1_555 1_555

#END
