
#######################################################################
#
#                 Cambridge Crystallographic Data Centre
#                                CCDC 
#
#######################################################################
#
# If this CIF has been generated from an entry in the Cambridge 
# Structural Database, then it will include bibliographic, chemical, 
# crystal, experimental, refinement or atomic coordinate data resulting 
# from the CCDC's data processing and validation procedures.
#
#######################################################################

data_AGOVUP
_chemical_formula_moiety         '(C96 H63 In6 N9 O26 2+)n,2n(N1 O3 1-)'
_chemical_name_systematic        
'catena-(tris(\m~4~-2-Aminoterephthalato)-bis(\m~3~-oxo)-hexakis(\m~3~-4-(4-pyridyl)benzoato)-hexa-indium dinitrate)'
_symmetry_cell_setting           cubic
_symmetry_space_group_name_H-M   'I -4 3 m'
_symmetry_Int_Tables_number      217
_space_group_name_Hall           'I -4 2 3'
loop_
_symmetry_equiv_pos_site_id
_symmetry_equiv_pos_as_xyz
1 x,y,z
2 -x,-y,z
3 -x,y,-z
4 x,-y,-z
5 z,x,y
6 z,-x,-y
7 -z,-x,y
8 -z,x,-y
9 y,z,x
10 -y,z,-x
11 y,-z,-x
12 -y,-z,x
13 y,x,z
14 -y,-x,z
15 y,-x,-z
16 -y,x,-z
17 x,z,y
18 -x,z,-y
19 -x,-z,y
20 x,-z,-y
21 z,y,x
22 z,-y,-x
23 -z,y,-x
24 -z,-y,x
25 1/2+x,1/2+y,1/2+z
26 1/2-x,1/2-y,1/2+z
27 1/2-x,1/2+y,1/2-z
28 1/2+x,1/2-y,1/2-z
29 1/2+z,1/2+x,1/2+y
30 1/2+z,1/2-x,1/2-y
31 1/2-z,1/2-x,1/2+y
32 1/2-z,1/2+x,1/2-y
33 1/2+y,1/2+z,1/2+x
34 1/2-y,1/2+z,1/2-x
35 1/2+y,1/2-z,1/2-x
36 1/2-y,1/2-z,1/2+x
37 1/2+y,1/2+x,1/2+z
38 1/2-y,1/2-x,1/2+z
39 1/2+y,1/2-x,1/2-z
40 1/2-y,1/2+x,1/2-z
41 1/2+x,1/2+z,1/2+y
42 1/2-x,1/2+z,1/2-y
43 1/2-x,1/2-z,1/2+y
44 1/2+x,1/2-z,1/2-y
45 1/2+z,1/2+y,1/2+x
46 1/2+z,1/2-y,1/2-x
47 1/2-z,1/2+y,1/2-x
48 1/2-z,1/2-y,1/2+x
_cell_length_a                   27.7889(6)
_cell_length_b                   27.7889(6)
_cell_length_c                   27.7889(6)
_cell_angle_alpha                90
_cell_angle_beta                 90
_cell_angle_gamma                90
_cell_volume                     21459.2
_exptl_crystal_colour            yellow
_exptl_crystal_description       Cubic
_cell_formula_units_Z            4
loop_
_atom_site_label
_atom_site_type_symbol
_atom_site_fract_x
_atom_site_fract_y
_atom_site_fract_z
_atom_site_U_iso_or_equiv
_atom_site_thermal_displace_type
N1 N 0.464(3) 0.409(3) 0.696(6) 0.8567 Uani
H1 H 0.4798 0.3827 0.6950 1.0260 Uiso
H2 H 0.4333 0.4093 0.6969 1.0260 Uiso
In1 In 0.59545(4) 0.31508(3) 0.68492(3) 0.0192 Uani
O1 O 0.6553(4) 0.3447(4) 0.6553(4) 0.0160 Uani
O2 O 0.6259(3) 0.3180(4) 0.7578(3) 0.0433 Uani
O3 O 0.5599(3) 0.3836(3) 0.6944(3) 0.0417 Uani
C1 C 0.6823(6) 0.3177(6) 0.8200(6) 0.0497 Uani
C2 C 0.5347(4) 0.4653(4) 0.6947(7) 0.0357 Uani
C3 C 0.4892(5) 0.4533(5) 0.6959(8) 0.0773 Uani
C4 C 0.6621(5) 0.3379(5) 0.7743(7) 0.0350 Uani
C5 C 0.5728(4) 0.4272(4) 0.6930(7) 0.0307 Uani
C6 C 0.6827(11) 0.2635(8) 0.8858(7) 0.1500 Uani
H3 H 0.6665 0.2393 0.9022 0.0700 Uiso
C7 C 0.6631(10) 0.2808(10) 0.8424(8) 0.1700 Uani
H4 H 0.6361 0.2658 0.8294 0.2000 Uiso
C8 C 0.7207(6) 0.2793(6) 0.9031(8) 0.0483 Uani
N2 N 0.7827(4) 0.2173(4) 1.0308(6) 0.0260 Uani
C9 C 0.7990(12) 0.2567(12) 1.0116(12) 0.0593 Uani
H5 H 0.8263 0.2711 1.0245 2.0000 Uiso
C10 C 0.7778(14) 0.2767(15) 0.9742(13) 0.0767 Uani
H6 H 0.7896 0.3066 0.9649 0.0200 Uiso
C11 C 0.7408(7) 0.2592(7) 0.9477(8) 0.0643 Uani
N1L N 0.409(3) 0.464(3) 0.696(6) 0.8567 Uani
H1L H 0.3827 0.4798 0.6950 1.0260 Uiso
H2L H 0.4093 0.4333 0.6969 1.0260 Uiso
O3L O 0.3836(3) 0.5599(3) 0.6944(3) 0.0417 Uani
C2A C 0.4653(4) 0.5347(4) 0.6947(7) 0.0357 Uani
C3L C 0.4533(5) 0.4892(5) 0.6959(8) 0.0773 Uani
C5A C 0.4272(4) 0.5728(4) 0.6930(7) 0.0307 Uani
N1M N 0.591(3) 0.536(3) 0.696(6) 0.8567 Uani
H1M H 0.6173 0.5202 0.6950 1.0260 Uiso
H2M H 0.5907 0.5667 0.6969 1.0260 Uiso
O3M O 0.6164(3) 0.4401(3) 0.6944(3) 0.0417 Uani
C3M C 0.5467(5) 0.5108(5) 0.6959(8) 0.0773 Uani
N1A N 0.536(3) 0.591(3) 0.696(6) 0.8567 Uani
H1A H 0.5202 0.6173 0.6950 1.0260 Uiso
H2A H 0.5667 0.5907 0.6969 1.0260 Uiso
O3A O 0.4401(3) 0.6164(3) 0.6944(3) 0.0417 Uani
C3A C 0.5108(5) 0.5467(5) 0.6959(8) 0.0773 Uani
O2M O 0.6820(4) 0.3741(3) 0.7578(3) 0.0433 Uani
C6M C 0.7365(8) 0.3173(11) 0.8858(7) 0.1500 Uani
H3M H 0.7607 0.3335 0.9022 0.0700 Uiso
C7M C 0.7192(10) 0.3369(10) 0.8424(8) 0.1700 Uani
H4M H 0.7342 0.3639 0.8294 0.2000 Uiso
C9M C 0.7433(12) 0.2010(12) 1.0116(12) 0.0593 Uani
H5M H 0.7289 0.1737 1.0245 2.0000 Uiso
C10M C 0.7233(15) 0.2222(14) 0.9742(13) 0.0767 Uani
H6M H 0.6934 0.2104 0.9649 0.0200 Uiso
In1A In 0.40455(4) 0.68492(3) 0.68492(3) 0.0192 Uani
O1A O 0.3447(4) 0.6553(4) 0.6553(4) 0.0160 Uani
O2A O 0.3741(3) 0.6820(4) 0.7578(3) 0.0433 Uani
C1A C 0.3177(6) 0.6823(6) 0.8200(6) 0.0497 Uani
C4A C 0.3379(5) 0.6621(5) 0.7743(7) 0.0350 Uani
C6A C 0.3173(11) 0.7365(8) 0.8858(7) 0.1500 Uani
H3A H 0.3335 0.7607 0.9022 0.0700 Uiso
C7A C 0.3369(10) 0.7192(10) 0.8424(8) 0.1700 Uani
H4A H 0.3639 0.7342 0.8294 0.2000 Uiso
C8A C 0.2793(6) 0.7207(6) 0.9031(8) 0.0483 Uani
N2A N 0.2173(4) 0.7827(4) 1.0308(6) 0.0260 Uani
C9A C 0.2010(12) 0.7433(12) 1.0116(12) 0.0593 Uani
H5A H 0.1737 0.7289 1.0245 2.0000 Uiso
C10A C 0.2222(14) 0.7233(15) 0.9742(13) 0.0767 Uani
H6A H 0.2104 0.6934 0.9649 0.0200 Uiso
C11A C 0.2592(7) 0.7408(7) 0.9477(8) 0.0643 Uani
O2L O 0.3180(4) 0.6259(3) 0.7578(3) 0.0433 Uani
C6L C 0.2635(8) 0.6827(11) 0.8858(7) 0.1500 Uani
H3L H 0.2393 0.6665 0.9022 0.0700 Uiso
C7L C 0.2808(10) 0.6631(10) 0.8424(8) 0.1700 Uani
H4L H 0.2658 0.6361 0.8294 0.2000 Uiso
C9L C 0.2567(12) 0.7990(12) 1.0116(12) 0.0593 Uani
H5L H 0.2711 0.8263 1.0245 2.0000 Uiso
C10L C 0.2767(15) 0.7778(14) 0.9742(13) 0.0767 Uani
H6L H 0.3066 0.7896 0.9649 0.0200 Uiso
N1E N 0.696(6) 0.536(3) 0.591(3) 0.8567 Uani
H1E H 0.6950 0.5202 0.6173 1.0260 Uiso
H2E H 0.6969 0.5667 0.5907 1.0260 Uiso
In1E In 0.68492(3) 0.40455(4) 0.68492(3) 0.0192 Uani
O2E O 0.7578(3) 0.3741(3) 0.6820(4) 0.0433 Uani
O3E O 0.6944(3) 0.4401(3) 0.6164(3) 0.0417 Uani
C1E C 0.8200(6) 0.3177(6) 0.6823(6) 0.0497 Uani
C2E C 0.6947(7) 0.4653(4) 0.5347(4) 0.0357 Uani
C3E C 0.6959(8) 0.5108(5) 0.5467(5) 0.0773 Uani
C4E C 0.7743(7) 0.3379(5) 0.6621(5) 0.0350 Uani
C5E C 0.6930(7) 0.4272(4) 0.5728(4) 0.0307 Uani
C6E C 0.8858(7) 0.3173(11) 0.7365(8) 0.1500 Uani
H3E H 0.9022 0.3335 0.7607 0.0700 Uiso
C7E C 0.8424(8) 0.3369(10) 0.7192(10) 0.1700 Uani
H4E H 0.8294 0.3639 0.7342 0.2000 Uiso
C8E C 0.9031(8) 0.2793(6) 0.7207(6) 0.0483 Uani
N2E N 1.0308(6) 0.2173(4) 0.7827(4) 0.0260 Uani
C9E C 1.0116(12) 0.2010(12) 0.7433(12) 0.0593 Uani
H5E H 1.0245 0.1737 0.7289 2.0000 Uiso
C10E C 0.9742(13) 0.2222(14) 0.7233(15) 0.0767 Uani
H6E H 0.9649 0.2104 0.6934 0.0200 Uiso
C11E C 0.9477(8) 0.2592(7) 0.7408(7) 0.0643 Uani
N1U N 0.696(6) 0.591(3) 0.536(3) 0.8567 Uani
H1U H 0.6950 0.6173 0.5202 1.0260 Uiso
H2U H 0.6969 0.5907 0.5667 1.0260 Uiso
O3U O 0.6944(3) 0.6164(3) 0.4401(3) 0.0417 Uani
C2D C 0.6947(7) 0.5347(4) 0.4653(4) 0.0357 Uani
C3U C 0.6959(8) 0.5467(5) 0.5108(5) 0.0773 Uani
C5D C 0.6930(7) 0.5728(4) 0.4272(4) 0.0307 Uani
N1T N 0.696(6) 0.409(3) 0.464(3) 0.8567 Uani
H1T H 0.6950 0.3827 0.4798 1.0260 Uiso
H2T H 0.6969 0.4093 0.4333 1.0260 Uiso
O3T O 0.6944(3) 0.3836(3) 0.5599(3) 0.0417 Uani
C3T C 0.6959(8) 0.4533(5) 0.4892(5) 0.0773 Uani
N1D N 0.696(6) 0.464(3) 0.409(3) 0.8567 Uani
H1D H 0.6950 0.4798 0.3827 1.0260 Uiso
H2D H 0.6969 0.4333 0.4093 1.0260 Uiso
O3D O 0.6944(3) 0.5599(3) 0.3836(3) 0.0417 Uani
C3D C 0.6959(8) 0.4892(5) 0.4533(5) 0.0773 Uani
O2T O 0.7578(3) 0.3180(4) 0.6259(3) 0.0433 Uani
C6T C 0.8858(7) 0.2635(8) 0.6827(11) 0.1500 Uani
H3T H 0.9022 0.2393 0.6665 0.0700 Uiso
C7T C 0.8424(8) 0.2808(10) 0.6631(10) 0.1700 Uani
H4T H 0.8294 0.2658 0.6361 0.2000 Uiso
C9T C 1.0116(12) 0.2567(12) 0.7990(12) 0.0593 Uani
H5T H 1.0245 0.2711 0.8263 2.0000 Uiso
C10T C 0.9742(13) 0.2767(15) 0.7778(14) 0.0767 Uani
H6T H 0.9649 0.3066 0.7896 0.0200 Uiso
N1G N 0.304(6) 0.464(3) 0.591(3) 0.8567 Uani
H1G H 0.3050 0.4798 0.6173 1.0260 Uiso
H2G H 0.3031 0.4333 0.5907 1.0260 Uiso
In1G In 0.31508(3) 0.59545(4) 0.68492(3) 0.0192 Uani
O2G O 0.2422(3) 0.6259(3) 0.6820(4) 0.0433 Uani
O3G O 0.3056(3) 0.5599(3) 0.6164(3) 0.0417 Uani
C1G C 0.1800(6) 0.6823(6) 0.6823(6) 0.0497 Uani
C2G C 0.3053(7) 0.5347(4) 0.5347(4) 0.0357 Uani
C3G C 0.3041(8) 0.4892(5) 0.5467(5) 0.0773 Uani
C4G C 0.2257(7) 0.6621(5) 0.6621(5) 0.0350 Uani
C5G C 0.3070(7) 0.5728(4) 0.5728(4) 0.0307 Uani
C6G C 0.1142(7) 0.6827(11) 0.7365(8) 0.1500 Uani
H3G H 0.0978 0.6665 0.7607 0.0700 Uiso
C7G C 0.1576(8) 0.6631(10) 0.7192(10) 0.1700 Uani
H4G H 0.1706 0.6361 0.7342 0.2000 Uiso
C8G C 0.0969(8) 0.7207(6) 0.7207(6) 0.0483 Uani
N2G N -0.0308(6) 0.7827(4) 0.7827(4) 0.0260 Uani
C9G C -0.0116(12) 0.7990(12) 0.7433(12) 0.0593 Uani
H5G H -0.0245 0.8263 0.7289 2.0000 Uiso
C10G C 0.0258(13) 0.7778(14) 0.7233(15) 0.0767 Uani
H6G H 0.0351 0.7896 0.6934 0.0200 Uiso
C11G C 0.0523(8) 0.7408(7) 0.7408(7) 0.0643 Uani
N1V N 0.304(6) 0.409(3) 0.536(3) 0.8567 Uani
H1V H 0.3050 0.3827 0.5202 1.0260 Uiso
H2V H 0.3031 0.4093 0.5667 1.0260 Uiso
O3V O 0.3056(3) 0.3836(3) 0.4401(3) 0.0417 Uani
C2F C 0.3053(7) 0.4653(4) 0.4653(4) 0.0357 Uani
C3V C 0.3041(8) 0.4533(5) 0.5108(5) 0.0773 Uani
C5F C 0.3070(7) 0.4272(4) 0.4272(4) 0.0307 Uani
N1W N 0.304(6) 0.591(3) 0.464(3) 0.8567 Uani
H1W H 0.3050 0.6173 0.4798 1.0260 Uiso
H2W H 0.3031 0.5907 0.4333 1.0260 Uiso
O3W O 0.3056(3) 0.6164(3) 0.5599(3) 0.0417 Uani
C3W C 0.3041(8) 0.5467(5) 0.4892(5) 0.0773 Uani
N1F N 0.304(6) 0.536(3) 0.409(3) 0.8567 Uani
H1F H 0.3050 0.5202 0.3827 1.0260 Uiso
H2F H 0.3031 0.5667 0.4093 1.0260 Uiso
O3F O 0.3056(3) 0.4401(3) 0.3836(3) 0.0417 Uani
C3F C 0.3041(8) 0.5108(5) 0.4533(5) 0.0773 Uani
O2W O 0.2422(3) 0.6820(4) 0.6259(3) 0.0433 Uani
C6W C 0.1142(7) 0.7365(8) 0.6827(11) 0.1500 Uani
H3W H 0.0978 0.7607 0.6665 0.0700 Uiso
C7W C 0.1576(8) 0.7192(10) 0.6631(10) 0.1700 Uani
H4W H 0.1706 0.7342 0.6361 0.2000 Uiso
C9W C -0.0116(12) 0.7433(12) 0.7990(12) 0.0593 Uani
H5W H -0.0245 0.7289 0.8263 2.0000 Uiso
C10W C 0.0258(13) 0.7233(15) 0.7778(14) 0.0767 Uani
H6W H 0.0351 0.6934 0.7896 0.0200 Uiso
In1H In 0.31508(3) 0.68492(3) 0.59545(4) 0.0192 Uani
O2H O 0.3180(4) 0.7578(3) 0.6259(3) 0.0433 Uani
C1H C 0.3177(6) 0.8200(6) 0.6823(6) 0.0497 Uani
C4H C 0.3379(5) 0.7743(7) 0.6621(5) 0.0350 Uani
C6H C 0.2635(8) 0.8858(7) 0.6827(11) 0.1500 Uani
H3H H 0.2393 0.9022 0.6665 0.0700 Uiso
C7H C 0.2808(10) 0.8424(8) 0.6631(10) 0.1700 Uani
H4H H 0.2658 0.8294 0.6361 0.2000 Uiso
C8H C 0.2793(6) 0.9031(8) 0.7207(6) 0.0483 Uani
N2H N 0.2173(4) 1.0308(6) 0.7827(4) 0.0260 Uani
C9H C 0.2567(12) 1.0116(12) 0.7990(12) 0.0593 Uani
H5H H 0.2711 1.0245 0.8263 2.0000 Uiso
C10H C 0.2767(15) 0.9742(13) 0.7778(14) 0.0767 Uani
H6H H 0.3066 0.9649 0.7896 0.0200 Uiso
C11H C 0.2592(7) 0.9477(8) 0.7408(7) 0.0643 Uani
O2Q O 0.3741(3) 0.7578(3) 0.6820(4) 0.0433 Uani
C6Q C 0.3173(11) 0.8858(7) 0.7365(8) 0.1500 Uani
H3Q H 0.3335 0.9022 0.7607 0.0700 Uiso
C7Q C 0.3369(10) 0.8424(8) 0.7192(10) 0.1700 Uani
H4Q H 0.3639 0.8294 0.7342 0.2000 Uiso
C9Q C 0.2010(12) 1.0116(12) 0.7433(12) 0.0593 Uani
H5Q H 0.1737 1.0245 0.7289 2.0000 Uiso
C10Q C 0.2222(14) 0.9742(13) 0.7233(15) 0.0767 Uani
H6Q H 0.2104 0.9649 0.6934 0.0200 Uiso
In1I In 0.68492(3) 0.68492(3) 0.40455(4) 0.0192 Uani
O2I O 0.6820(4) 0.7578(3) 0.3741(3) 0.0433 Uani
C1I C 0.6823(6) 0.8200(6) 0.3177(6) 0.0497 Uani
C4I C 0.6621(5) 0.7743(7) 0.3379(5) 0.0350 Uani
C6I C 0.7365(8) 0.8858(7) 0.3173(11) 0.1500 Uani
H3I H 0.7607 0.9022 0.3335 0.0700 Uiso
C7I C 0.7192(10) 0.8424(8) 0.3369(10) 0.1700 Uani
H4I H 0.7342 0.8294 0.3639 0.2000 Uiso
C8I C 0.7207(6) 0.9031(8) 0.2793(6) 0.0483 Uani
N2I N 0.7827(4) 1.0308(6) 0.2173(4) 0.0260 Uani
C9I C 0.7433(12) 1.0116(12) 0.2010(12) 0.0593 Uani
H5I H 0.7289 1.0245 0.1737 2.0000 Uiso
C10I C 0.7233(15) 0.9742(13) 0.2222(14) 0.0767 Uani
H6I H 0.6934 0.9649 0.2104 0.0200 Uiso
C11I C 0.7408(7) 0.9477(8) 0.2592(7) 0.0643 Uani
O2P O 0.6259(3) 0.7578(3) 0.3180(4) 0.0433 Uani
C6P C 0.6827(11) 0.8858(7) 0.2635(8) 0.1500 Uani
H3P H 0.6665 0.9022 0.2393 0.0700 Uiso
C7P C 0.6631(10) 0.8424(8) 0.2808(10) 0.1700 Uani
H4P H 0.6361 0.8294 0.2658 0.2000 Uiso
C9P C 0.7990(12) 1.0116(12) 0.2567(12) 0.0593 Uani
H5P H 0.8263 1.0245 0.2711 2.0000 Uiso
C10P C 0.7778(14) 0.9742(13) 0.2767(15) 0.0767 Uani
H6P H 0.7896 0.9649 0.3066 0.0200 Uiso
In1C In 0.59545(4) 0.68492(3) 0.31508(3) 0.0192 Uani
In1D In 0.68492(3) 0.59545(4) 0.31508(3) 0.0192 Uani
In1F In 0.31508(3) 0.40455(4) 0.31508(3) 0.0192 Uani
In1J In 0.31508(3) 0.31508(3) 0.40455(4) 0.0192 Uani
In1K In 0.68492(3) 0.31508(3) 0.59545(4) 0.0192 Uani
In1Z In -0.09545(4) 0.81508(3) 0.81508(3) 0.0192 Uani
In1AA In 1.09545(4) 0.18492(3) 0.81508(3) 0.0192 Uani
In1BA In 0.18492(3) 1.09545(4) 0.81508(3) 0.0192 Uani
In1EA In 0.81508(3) 1.09545(4) 0.18492(3) 0.0192 Uani
In1FA In 0.81508(3) 0.18492(3) 1.09545(4) 0.0192 Uani
In1IA In 0.18492(3) 0.81508(3) 1.09545(4) 0.0192 Uani
O1C O 0.6553(4) 0.6553(4) 0.3447(4) 0.0160 Uani
O2S O 0.6259(3) 0.2422(3) 0.6820(4) 0.0433 Uani
O2U O 0.7578(3) 0.6820(4) 0.3741(3) 0.0433 Uani
O3H O 0.3836(3) 0.6944(3) 0.5599(3) 0.0417 Uani
O3I O 0.6164(3) 0.6944(3) 0.4401(3) 0.0417 Uani
O3Q O 0.4401(3) 0.6944(3) 0.6164(3) 0.0417 Uani
O3S O 0.5599(3) 0.3056(3) 0.6164(3) 0.0417 Uani
N2X N 0.2827(4) 0.7173(4) 0.5308(6) 0.0260 Uani
N2Z N 0.7173(4) 0.7173(4) 0.4692(6) 0.0260 Uani
N2BA N 0.5308(6) 0.2827(4) 0.7173(4) 0.0260 Uani
N2DA N 0.4692(6) 0.7173(4) 0.7173(4) 0.0260 Uani
N2GA N 0.2827(4) 0.5308(6) 0.7173(4) 0.0260 Uani
N2HA N 0.7173(4) 0.4692(6) 0.7173(4) 0.0260 Uani
C12? C 0.451(2) 0.2757(18) 0.7243(18) 0.1433 Uani
H7? H 0.4222 0.2874 0.7126 0.0000 Uiso
C13? C 0.4919(16) 0.2316(11) 0.7684(11) 0.1000 Uani
H8? H 0.4988 0.2085 0.7915 0.0300 Uiso
C14? C 0.5326(17) 0.2560(19) 0.7440(19) 0.0967 Uani
H9? H 0.5633 0.2466 0.7534 0.1000 Uiso
C15? C 0.4926(19) 0.2960(14) 0.7040(14) 0.0933 Uani
H10? H 0.4901 0.3196 0.6804 0.0000 Uiso
loop_
_atom_site_aniso_label
_atom_site_aniso_U_11
_atom_site_aniso_U_22
_atom_site_aniso_U_33
_atom_site_aniso_U_23
_atom_site_aniso_U_13
_atom_site_aniso_U_12
N1 0.25(8) 0.32(10) 2.0(5) 0.8(2) -0.76(19) -0.23(8)
In1 0.0170(7) 0.0203(5) 0.0203(5) 0.0029(6) 0.0003(4) -0.0003(4)
O1 0.016(4) 0.016(4) 0.016(4) -0.004(5) 0.004(5) -0.004(5)
O2 0.048(6) 0.055(6) 0.027(5) 0.016(5) -0.013(5) -0.013(5)
O3 0.032(5) 0.029(5) 0.064(7) 0.006(5) 0.012(5) 0.016(4)
C1 0.059(8) 0.059(8) 0.031(11) 0.015(9) -0.015(9) -0.030(13)
C2 0.026(7) 0.026(7) 0.055(14) -0.004(7) 0.004(7) 0.002(9)
C3 0.035(9) 0.032(9) 0.165(19) 0.007(11) 0.010(11) 0.007(7)
C4 0.038(7) 0.038(7) 0.029(11) 0.010(7) -0.010(7) -0.014(10)
C5 0.024(6) 0.024(6) 0.044(13) -0.005(6) 0.005(6) 0.009(8)
C6 0.19(3) 0.14(2) 0.12(2) 0.109(18) -0.08(2) -0.10(2)
C7 0.16(2) 0.22(3) 0.13(2) 0.13(2) -0.093(19) -0.13(2)
C8 0.049(8) 0.049(8) 0.047(13) 0.026(9) -0.026(9) -0.025(11)
N2 0.031 0.031 0.016 0.007 -0.007 0.02
C9 0.08 0.06 0.038 0.042 -0.055 -0.02
C10 0.09 0.07 0.07 0.03 -0.01 -0.05
C11 0.080(12) 0.080(12) 0.033(15) 0.001(10) -0.001(10) -0.008(16)
N1L 0.32 0.25 2 -0.76 0.8 -0.23
O3L 0.029 0.032 0.064 0.012 0.006 0.016
C2A 0.026 0.026 0.055 0.004 -0.004 0.002
C3L 0.032 0.035 0.165 0.01 0.007 0.007
C5A 0.024 0.024 0.044 0.005 -0.005 0.009
N1M 0.32 0.25 2 0.76 -0.8 -0.23
O3M 0.029 0.032 0.064 -0.012 -0.006 0.016
C3M 0.032 0.035 0.165 -0.01 -0.007 0.007
N1A 0.25 0.32 2 -0.8 0.76 -0.23
O3A 0.032 0.029 0.064 -0.006 -0.012 0.016
C3A 0.035 0.032 0.165 -0.007 -0.01 0.007
O2M 0.055 0.048 0.027 0.013 -0.016 -0.013
C6M 0.14 0.19 0.12 0.08 -0.109 -0.1
C7M 0.22 0.16 0.13 0.093 -0.13 -0.13
C9M 0.06 0.08 0.038 0.055 -0.042 -0.02
C10M 0.07 0.09 0.07 0.01 -0.03 -0.05
In1A 0.017 0.0203 0.0203 -0.0029 -0.0003 -0.0003
O1A 0.016 0.016 0.016 0.004 -0.004 -0.004
O2A 0.048 0.055 0.027 -0.016 0.013 -0.013
C1A 0.059 0.059 0.031 -0.015 0.015 -0.03
C4A 0.038 0.038 0.029 -0.01 0.01 -0.014
C6A 0.19 0.14 0.12 -0.109 0.08 -0.1
C7A 0.16 0.22 0.13 -0.13 0.093 -0.13
C8A 0.049 0.049 0.047 -0.026 0.026 -0.025
N2A 0.031 0.031 0.016 -0.007 0.007 0.02
C9A 0.08 0.06 0.038 -0.042 0.055 -0.02
C10A 0.09 0.07 0.07 -0.03 0.01 -0.05
C11A 0.08 0.08 0.033 -0.001 0.001 -0.008
O2L 0.055 0.048 0.027 -0.013 0.016 -0.013
C6L 0.14 0.19 0.12 -0.08 0.109 -0.1
C7L 0.22 0.16 0.13 -0.093 0.13 -0.13
C9L 0.06 0.08 0.038 -0.055 0.042 -0.02
C10L 0.07 0.09 0.07 -0.01 0.03 -0.05
N1E 2 0.25 0.32 -0.23 -0.8 0.76
In1E 0.0203 0.017 0.0203 -0.0003 -0.0029 -0.0003
O2E 0.027 0.048 0.055 -0.013 -0.016 0.013
O3E 0.064 0.032 0.029 0.016 -0.006 -0.012
C1E 0.031 0.059 0.059 -0.03 -0.015 0.015
C2E 0.055 0.026 0.026 0.002 0.004 -0.004
C3E 0.165 0.035 0.032 0.007 -0.007 -0.01
C4E 0.029 0.038 0.038 -0.014 -0.01 0.01
C5E 0.044 0.024 0.024 0.009 0.005 -0.005
C6E 0.12 0.19 0.14 -0.1 -0.109 0.08
C7E 0.13 0.16 0.22 -0.13 -0.13 0.093
C8E 0.047 0.049 0.049 -0.025 -0.026 0.026
N2E 0.016 0.031 0.031 0.02 -0.007 0.007
C9E 0.038 0.08 0.06 -0.02 -0.042 0.055
C10E 0.07 0.09 0.07 -0.05 -0.03 0.01
C11E 0.033 0.08 0.08 -0.008 -0.001 0.001
N1U 2 0.32 0.25 -0.23 0.76 -0.8
O3U 0.064 0.029 0.032 0.016 -0.012 -0.006
C2D 0.055 0.026 0.026 0.002 -0.004 0.004
C3U 0.165 0.032 0.035 0.007 -0.01 -0.007
C5D 0.044 0.024 0.024 0.009 -0.005 0.005
N1T 2 0.32 0.25 -0.23 -0.76 0.8
O3T 0.064 0.029 0.032 0.016 0.012 0.006
C3T 0.165 0.032 0.035 0.007 0.01 0.007
N1D 2 0.25 0.32 -0.23 0.8 -0.76
O3D 0.064 0.032 0.029 0.016 0.006 0.012
C3D 0.165 0.035 0.032 0.007 0.007 0.01
O2T 0.027 0.055 0.048 -0.013 -0.013 0.016
C6T 0.12 0.14 0.19 -0.1 -0.08 0.109
C7T 0.13 0.22 0.16 -0.13 -0.093 0.13
C9T 0.038 0.06 0.08 -0.02 -0.055 0.042
C10T 0.07 0.07 0.09 -0.05 -0.01 0.03
N1G 2 0.25 0.32 0.23 0.8 0.76
In1G 0.0203 0.017 0.0203 0.0003 0.0029 -0.0003
O2G 0.027 0.048 0.055 0.013 0.016 0.013
O3G 0.064 0.032 0.029 -0.016 0.006 -0.012
C1G 0.031 0.059 0.059 0.03 0.015 0.015
C2G 0.055 0.026 0.026 -0.002 -0.004 -0.004
C3G 0.165 0.035 0.032 -0.007 0.007 -0.01
C4G 0.029 0.038 0.038 0.014 0.01 0.01
C5G 0.044 0.024 0.024 -0.009 -0.005 -0.005
C6G 0.12 0.19 0.14 0.1 0.109 0.08
C7G 0.13 0.16 0.22 0.13 0.13 0.093
C8G 0.047 0.049 0.049 0.025 0.026 0.026
N2G 0.016 0.031 0.031 -0.02 0.007 0.007
C9G 0.038 0.08 0.06 0.02 0.042 0.055
C10G 0.07 0.09 0.07 0.05 0.03 0.01
C11G 0.033 0.08 0.08 0.008 0.001 0.001
N1V 2 0.32 0.25 0.23 -0.76 -0.8
O3V 0.064 0.029 0.032 -0.016 0.012 -0.006
C2F 0.055 0.026 0.026 -0.002 0.004 0.004
C3V 0.165 0.032 0.035 -0.007 0.01 -0.007
C5F 0.044 0.024 0.024 -0.009 0.005 0.005
N1W 2 0.32 0.25 0.23 0.76 0.8
O3W 0.064 0.029 0.032 -0.016 -0.012 0.006
C3W 0.165 0.032 0.035 -0.007 -0.01 0.007
N1F 2 0.25 0.32 0.23 -0.8 -0.76
O3F 0.064 0.032 0.029 -0.016 -0.006 0.012
C3F 0.165 0.035 0.032 -0.007 -0.007 0.01
O2W 0.027 0.055 0.048 0.013 0.013 0.016
C6W 0.12 0.14 0.19 0.1 0.08 0.109
C7W 0.13 0.22 0.16 0.13 0.093 0.13
C9W 0.038 0.06 0.08 0.02 0.055 0.042
C10W 0.07 0.07 0.09 0.05 0.01 0.03
In1H 0.0203 0.0203 0.017 0.0003 -0.0003 0.0029
O2H 0.055 0.027 0.048 -0.013 -0.013 0.016
C1H 0.059 0.031 0.059 -0.015 -0.03 0.015
C4H 0.038 0.029 0.038 -0.01 -0.014 0.01
C6H 0.14 0.12 0.19 -0.08 -0.1 0.109
C7H 0.22 0.13 0.16 -0.093 -0.13 0.13
C8H 0.049 0.047 0.049 -0.026 -0.025 0.026
N2H 0.031 0.016 0.031 -0.007 0.02 0.007
C9H 0.06 0.038 0.08 -0.055 -0.02 0.042
C10H 0.07 0.07 0.09 -0.01 -0.05 0.03
C11H 0.08 0.033 0.08 -0.001 -0.008 0.001
O2Q 0.048 0.027 0.055 -0.016 -0.013 0.013
C6Q 0.19 0.12 0.14 -0.109 -0.1 0.08
C7Q 0.16 0.13 0.22 -0.13 -0.13 0.093
C9Q 0.08 0.038 0.06 -0.042 -0.02 0.055
C10Q 0.09 0.07 0.07 -0.03 -0.05 0.01
In1I 0.0203 0.0203 0.017 -0.0003 -0.0003 -0.0029
O2I 0.055 0.027 0.048 0.013 -0.013 -0.016
C1I 0.059 0.031 0.059 0.015 -0.03 -0.015
C4I 0.038 0.029 0.038 0.01 -0.014 -0.01
C6I 0.14 0.12 0.19 0.08 -0.1 -0.109
C7I 0.22 0.13 0.16 0.093 -0.13 -0.13
C8I 0.049 0.047 0.049 0.026 -0.025 -0.026
N2I 0.031 0.016 0.031 0.007 0.02 -0.007
C9I 0.06 0.038 0.08 0.055 -0.02 -0.042
C10I 0.07 0.07 0.09 0.01 -0.05 -0.03
C11I 0.08 0.033 0.08 0.001 -0.008 -0.001
O2P 0.048 0.027 0.055 0.016 -0.013 -0.013
C6P 0.19 0.12 0.14 0.109 -0.1 -0.08
C7P 0.16 0.13 0.22 0.13 -0.13 -0.093
C9P 0.08 0.038 0.06 0.042 -0.02 -0.055
C10P 0.09 0.07 0.07 0.03 -0.05 -0.01
In1C 0.017 0.0203 0.0203 0.0029 -0.0003 0.0003
In1D 0.0203 0.017 0.0203 -0.0003 0.0029 0.0003
In1F 0.0203 0.017 0.0203 0.0003 -0.0029 0.0003
In1J 0.0203 0.0203 0.017 0.0003 0.0003 -0.0029
In1K 0.0203 0.0203 0.017 -0.0003 0.0003 0.0029
In1Z 0.017 0.0203 0.0203 -0.0029 0.0003 0.0003
In1AA 0.017 0.0203 0.0203 0.0029 -0.0003 0.0003
In1BA 0.0203 0.017 0.0203 -0.0003 0.0029 0.0003
In1EA 0.0203 0.017 0.0203 0.0003 0.0029 -0.0003
In1FA 0.0203 0.0203 0.017 0.0003 -0.0003 0.0029
In1IA 0.0203 0.0203 0.017 -0.0003 0.0003 0.0029
O1C 0.016 0.016 0.016 -0.004 -0.004 0.004
O2S 0.048 0.027 0.055 0.016 0.013 0.013
O2U 0.027 0.055 0.048 -0.013 0.013 -0.016
O3H 0.029 0.064 0.032 0.012 0.016 0.006
O3I 0.029 0.064 0.032 -0.012 0.016 -0.006
O3Q 0.032 0.064 0.029 -0.006 0.016 -0.012
O3S 0.032 0.064 0.029 0.006 -0.016 -0.012
N2X 0.031 0.031 0.016 0.007 -0.007 0.02
N2Z 0.031 0.031 0.016 -0.007 -0.007 -0.02
N2BA 0.016 0.031 0.031 0.02 0.007 -0.007
N2DA 0.016 0.031 0.031 -0.02 -0.007 -0.007
N2GA 0.031 0.016 0.031 0.007 0.02 -0.007
N2HA 0.031 0.016 0.031 -0.007 -0.02 -0.007
C12? 0.03(4) 0.20(6) 0.20(6) 0.11(7) -0.02(3) 0.02(3)
C13? 0.02(3) 0.14(5) 0.14(5) 0.13(5) -0.012(15) 0.012(15)
C14? 0.01(3) 0.14(4) 0.14(4) 0.06(7) -0.02(2) 0.02(2)
C15? 0.02(3) 0.13(4) 0.13(4) 0.08(5) 0.03(2) -0.03(2)
loop_
_geom_bond_atom_site_label_1
_geom_bond_atom_site_label_2
_geom_bond_site_symmetry_1
_geom_bond_site_symmetry_2
N1 H1 1_555 1_555
H2 N1 1_555 1_555
In1 O1 1_555 1_555
O1 In1E 1_555 1_555
O2 In1 1_555 1_555
O3 In1 1_555 1_555
C1 C4 1_555 1_555
C2 C3 1_555 1_555
C3 N1 1_555 1_555
C4 O2 1_555 1_555
C5 O3 1_555 1_555
C6 H3 1_555 1_555
C7 C1 1_555 1_555
H4 C7 1_555 1_555
C8 C6 1_555 1_555
N2 C9 1_555 1_555
C9 H5 1_555 1_555
C10 C9 1_555 1_555
H6 C10 1_555 1_555
C11 C8 1_555 1_555
N1L H1L 1_555 1_555
H2L N1L 1_555 1_555
O3L C5A 1_555 1_555
C2A C3L 1_555 1_555
C3L C3 1_555 1_555
C5A C2A 1_555 1_555
N1M H1M 1_555 1_555
H2M N1M 1_555 1_555
O3M C5 1_555 1_555
C3M C2 1_555 1_555
N1A H1A 1_555 1_555
H2A N1A 1_555 1_555
O3A C5A 1_555 1_555
C3A C2A 1_555 1_555
O2M C4 1_555 1_555
C6M C8 1_555 1_555
H3M C6M 1_555 1_555
C7M C1 1_555 1_555
H4M C7M 1_555 1_555
C9M N2 1_555 1_555
H5M C9M 1_555 1_555
C10M C11 1_555 1_555
H6M C10M 1_555 1_555
In1A O3A 1_555 1_555
O1A In1A 1_555 1_555
O2A In1A 1_555 1_555
C1A C4A 1_555 1_555
C4A O2A 1_555 1_555
C6A H3A 1_555 1_555
C7A C1A 1_555 1_555
H4A C7A 1_555 1_555
C8A C6A 1_555 1_555
N2A C9A 1_555 1_555
C9A H5A 1_555 1_555
C10A C9A 1_555 1_555
H6A C10A 1_555 1_555
C11A C8A 1_555 1_555
O2L C4A 1_555 1_555
C6L C8A 1_555 1_555
H3L C6L 1_555 1_555
C7L C1A 1_555 1_555
H4L C7L 1_555 1_555
C9L N2A 1_555 1_555
H5L C9L 1_555 1_555
C10L C11A 1_555 1_555
H6L C10L 1_555 1_555
N1E H1E 1_555 1_555
H2E N1E 1_555 1_555
In1E O3M 1_555 1_555
O2E In1E 1_555 1_555
O3E In1E 1_555 1_555
C1E C4E 1_555 1_555
C2E C3E 1_555 1_555
C3E N1E 1_555 1_555
C4E O2E 1_555 1_555
C5E O3E 1_555 1_555
C6E H3E 1_555 1_555
C7E C1E 1_555 1_555
H4E C7E 1_555 1_555
C8E C6E 1_555 1_555
N2E C9E 1_555 1_555
C9E H5E 1_555 1_555
C10E C9E 1_555 1_555
H6E C10E 1_555 1_555
C11E C8E 1_555 1_555
N1U H1U 1_555 1_555
H2U N1U 1_555 1_555
O3U C5D 1_555 1_555
C2D C3U 1_555 1_555
C3U C3E 1_555 1_555
C5D C2D 1_555 1_555
N1T H1T 1_555 1_555
H2T N1T 1_555 1_555
O3T C5E 1_555 1_555
C3T C2E 1_555 1_555
N1D H1D 1_555 1_555
H2D N1D 1_555 1_555
O3D C5D 1_555 1_555
C3D C2D 1_555 1_555
O2T C4E 1_555 1_555
C6T C8E 1_555 1_555
H3T C6T 1_555 1_555
C7T C1E 1_555 1_555
H4T C7T 1_555 1_555
C9T N2E 1_555 1_555
H5T C9T 1_555 1_555
C10T C11E 1_555 1_555
H6T C10T 1_555 1_555
N1G H1G 1_555 1_555
H2G N1G 1_555 1_555
In1G O3L 1_555 1_555
O2G In1G 1_555 1_555
O3G In1G 1_555 1_555
C1G C4G 1_555 1_555
C2G C3G 1_555 1_555
C3G N1G 1_555 1_555
C4G O2G 1_555 1_555
C5G O3G 1_555 1_555
C6G H3G 1_555 1_555
C7G C1G 1_555 1_555
H4G C7G 1_555 1_555
C8G C6G 1_555 1_555
N2G C9G 1_555 1_555
C9G H5G 1_555 1_555
C10G C9G 1_555 1_555
H6G C10G 1_555 1_555
C11G C8G 1_555 1_555
N1V H1V 1_555 1_555
H2V N1V 1_555 1_555
O3V C5F 1_555 1_555
C2F C3V 1_555 1_555
C3V C3G 1_555 1_555
C5F C2F 1_555 1_555
N1W H1W 1_555 1_555
H2W N1W 1_555 1_555
O3W C5G 1_555 1_555
C3W C2G 1_555 1_555
N1F H1F 1_555 1_555
H2F N1F 1_555 1_555
O3F C5F 1_555 1_555
C3F C2F 1_555 1_555
O2W C4G 1_555 1_555
C6W C8G 1_555 1_555
H3W C6W 1_555 1_555
C7W C1G 1_555 1_555
H4W C7W 1_555 1_555
C9W N2G 1_555 1_555
H5W C9W 1_555 1_555
C10W C11G 1_555 1_555
H6W C10W 1_555 1_555
In1H O1A 1_555 1_555
O2H In1H 1_555 1_555
C1H C4H 1_555 1_555
C4H O2H 1_555 1_555
C6H H3H 1_555 1_555
C7H C1H 1_555 1_555
H4H C7H 1_555 1_555
C8H C6H 1_555 1_555
N2H C9H 1_555 1_555
C9H H5H 1_555 1_555
C10H C9H 1_555 1_555
H6H C10H 1_555 1_555
C11H C8H 1_555 1_555
O2Q In1A 1_555 1_555
C6Q C8H 1_555 1_555
H3Q C6Q 1_555 1_555
C7Q C1H 1_555 1_555
H4Q C7Q 1_555 1_555
C9Q N2H 1_555 1_555
H5Q C9Q 1_555 1_555
C10Q C11H 1_555 1_555
H6Q C10Q 1_555 1_555
In1I O3U 1_555 1_555
O2I In1I 1_555 1_555
C1I C4I 1_555 1_555
C4I O2I 1_555 1_555
C6I H3I 1_555 1_555
C7I C1I 1_555 1_555
H4I C7I 1_555 1_555
C8I C6I 1_555 1_555
N2I C9I 1_555 1_555
C9I H5I 1_555 1_555
C10I C9I 1_555 1_555
H6I C10I 1_555 1_555
C11I C8I 1_555 1_555
O2P C4I 1_555 1_555
C6P C8I 1_555 1_555
H3P C6P 1_555 1_555
C7P C1I 1_555 1_555
H4P C7P 1_555 1_555
C9P N2I 1_555 1_555
H5P C9P 1_555 1_555
C10P C11I 1_555 1_555
H6P C10P 1_555 1_555
In1C O2P 1_555 1_555
In1D O3D 1_555 1_555
In1F O3F 1_555 1_555
In1J O3V 1_555 1_555
In1K O1 1_555 1_555
In1Z N2G 1_555 1_555
In1AA N2E 1_555 1_555
In1BA N2H 1_555 1_555
In1EA N2I 1_555 1_555
In1FA N2 1_555 1_555
In1IA N2A 1_555 1_555
O1C In1I 1_555 1_555
O2S In1 1_555 1_555
O2U In1I 1_555 1_555
O3H In1H 1_555 1_555
O3I In1I 1_555 1_555
O3Q In1A 1_555 1_555
O3S In1 1_555 1_555
N2X In1H 1_555 1_555
N2Z In1I 1_555 1_555
N2BA In1 1_555 1_555
N2DA In1A 1_555 1_555
N2GA In1G 1_555 1_555
N2HA In1E 1_555 1_555
C2 C5 1_555 1_555
C6 C7 1_555 1_555
C10 C11 1_555 1_555
N1L C3L 1_555 1_555
N1M C3M 1_555 1_555
C3M C3A 1_555 1_555
N1A C3A 1_555 1_555
O2M In1E 1_555 1_555
C6M C7M 1_555 1_555
C9M C10M 1_555 1_555
O1A In1G 1_555 1_555
C6A C7A 1_555 1_555
C10A C11A 1_555 1_555
O2L In1G 1_555 1_555
C6L C7L 1_555 1_555
C9L C10L 1_555 1_555
C2E C5E 1_555 1_555
C6E C7E 1_555 1_555
C10E C11E 1_555 1_555
N1U C3U 1_555 1_555
N1T C3T 1_555 1_555
O3T In1K 1_555 1_555
C3T C3D 1_555 1_555
N1D C3D 1_555 1_555
O2T In1K 1_555 1_555
C6T C7T 1_555 1_555
C9T C10T 1_555 1_555
C2G C5G 1_555 1_555
C6G C7G 1_555 1_555
C10G C11G 1_555 1_555
N1V C3V 1_555 1_555
N1W C3W 1_555 1_555
O3W In1H 1_555 1_555
C3W C3F 1_555 1_555
N1F C3F 1_555 1_555
O2W In1H 1_555 1_555
C6W C7W 1_555 1_555
C9W C10W 1_555 1_555
C4H O2Q 1_555 1_555
C6H C7H 1_555 1_555
C10H C11H 1_555 1_555
C6Q C7Q 1_555 1_555
C9Q C10Q 1_555 1_555
C6I C7I 1_555 1_555
C10I C11I 1_555 1_555
C6P C7P 1_555 1_555
C9P C10P 1_555 1_555
In1C O1C 1_555 1_555
In1D O1C 1_555 1_555

#END
