
#######################################################################
#
#                 Cambridge Crystallographic Data Centre
#                                CCDC 
#
#######################################################################
#
# If this CIF has been generated from an entry in the Cambridge 
# Structural Database, then it will include bibliographic, chemical, 
# crystal, experimental, refinement or atomic coordinate data resulting 
# from the CCDC's data processing and validation procedures.
#
#######################################################################

data_AGOVOJ
_chemical_formula_moiety         '(C48 H35 In3 N3 O13)n,C6 H14'
_chemical_name_systematic        
'catena-[tris(\m-4-(pyridin-4-yl)benzoato)-(\m-naphthalene-2,6-dicarboxylato)-(\m-hydroxo)-diaqua-tri-indium n-hexane solvate]'
_symmetry_cell_setting           tetragonal
_symmetry_space_group_name_H-M   'I -4'
_symmetry_Int_Tables_number      82
_space_group_name_Hall           'I -4'
loop_
_symmetry_equiv_pos_site_id
_symmetry_equiv_pos_as_xyz
1 x,y,z
2 -x,-y,z
3 y,-x,-z
4 -y,x,-z
5 1/2+x,1/2+y,1/2+z
6 1/2-x,1/2-y,1/2+z
7 1/2+y,1/2-x,1/2-z
8 1/2-y,1/2+x,1/2-z
_cell_length_a                   29.0505(6)
_cell_length_b                   29.0505(6)
_cell_length_c                   28.7967(13)
_cell_angle_alpha                90
_cell_angle_beta                 90
_cell_angle_gamma                90
_cell_volume                     24302.4
_exptl_crystal_colour            colorless
_exptl_crystal_description       cubic
_cell_formula_units_Z            16
loop_
_atom_site_label
_atom_site_type_symbol
_atom_site_fract_x
_atom_site_fract_y
_atom_site_fract_z
_atom_site_U_iso_or_equiv
_atom_site_thermal_displace_type
In1 In 0.20910(4) 0.79089(4) 0.38455(4) 0.0294 Uani
In2 In 0.20388(5) 0.88138(4) 0.30323(5) 0.0445 Uani
In3 In 0.11873(4) 0.79609(5) 0.30321(5) 0.0442 Uani
O1 O 0.1772(4) 0.8222(4) 0.3302(4) 0.0363 Uani
O2 O 0.2007(4) 0.7236(4) 0.3551(5) 0.0440 Uani
O3 O 0.1470(4) 0.7276(4) 0.2981(6) 0.0547 Uani
O4 O 0.2728(5) 0.8524(4) 0.2985(6) 0.0567 Uani
O5 O 0.2183(6) 0.8535(4) 0.4228(4) 0.0583 Uani
O6 O 0.2186(5) 1.1479(4) 0.5780(5) 0.0597 Uani
O7 O 0.2760(4) 0.7999(5) 0.3549(5) 0.0503 Uani
O8 O 0.3589(5) 0.6951(4) 0.7326(5) 0.0510 Uani
N1 N 0.2426(5) 0.7576(5) 0.4425(5) 0.0400 Uani
O9 O 0.3051(5) 0.6400(4) 0.7318(5) 0.0553 Uani
O10 O 0.2190(6) 0.9090(5) 0.3706(5) 0.0703 Uani
O11 O 0.2203(7) 1.0907(5) 0.6292(6) 0.0913 Uani
O12 O 0.1309(9) 0.9154(5) 0.3034(6) 0.1130 Uani
O13 O 0.0851(5) 0.8695(9) 0.3043(6) 0.1227 Uani
C1 C 0.2218(7) 0.8954(6) 0.4115(7) 0.0420 Uani
N2 N 0.2663(8) 0.4460(6) 0.2248(7) 0.0637 Uani
C2 C 0.1902(6) 0.6617(6) 0.3067(7) 0.0440 Uani
C3 C 0.1790(5) 0.7080(7) 0.3213(6) 0.0417 Uani
C4 C 0.3389(7) 0.8102(8) 0.3076(9) 0.0593 Uani
C5 C 0.2934(7) 0.8232(7) 0.3216(7) 0.0503 Uani
C6 C 0.4267(7) 0.7822(8) 0.2768(9) 0.0603 Uani
N3 N 0.5541(7) 0.7332(11) 0.2226(7) 0.0893 Uani
C7 C 0.2261(8) 1.0706(6) 0.5520(7) 0.0560 Uani
C8 C 0.2255(8) 0.9285(7) 0.4480(7) 0.0620 Uani
C9 C 0.2458(9) 0.7000(9) 0.5018(9) 0.0810 Uani
C10 C 0.2978(9) 0.7573(9) 0.5054(9) 0.0863 Uani
C11 C 0.2807(7) 0.7762(9) 0.4631(7) 0.0603 Uani
C12 C 0.3658(12) 0.7821(13) 0.3343(12) 0.1233 Uani
C13 C 0.3276(6) 0.6735(8) 0.7126(7) 0.0520 Uani
C14 C 0.2134(10) 0.6301(11) 0.3353(8) 0.0910 Uani
C15 C 0.4108(9) 0.7718(15) 0.3202(10) 0.1240 Uani
C16 C 0.2234(8) 0.7189(7) 0.4644(9) 0.0617 Uani
C17 C 0.2229(7) 1.1061(7) 0.5890(6) 0.0417 Uani
C18 C 0.2948(8) 0.7051(9) 0.5747(6) 0.0663 Uani
C19 C 0.2160(8) 0.5732(7) 0.2786(8) 0.0543 Uani
C20 C 0.2828(10) 0.6614(11) 0.6415(8) 0.0877 Uani
C21 C 0.3176(7) 0.6817(7) 0.6660(6) 0.0523 Uani
C22 C 0.2280(11) 1.0054(8) 0.4785(9) 0.0767 Uani
C23 C 0.2746(9) 0.7230(7) 0.5283(7) 0.0713 Uani
C24 C 0.3375(12) 0.7166(10) 0.6406(8) 0.1010 Uani
C25 C 0.2292(11) 1.0262(9) 0.5572(7) 0.0853 Uani
C26 C 0.2297(13) 0.9932(9) 0.5222(10) 0.1013 Uani
C27 C 0.2273(11) 0.9741(8) 0.4427(9) 0.0853 Uani
C28 C 0.2294(14) 0.5893(8) 0.3188(9) 0.1230 Uani
C29 C 0.3581(11) 0.8251(9) 0.2681(12) 0.1150 Uani
C30 C 0.1784(12) 0.6465(10) 0.2647(11) 0.1120 Uani
C31 C 0.3321(10) 0.7269(12) 0.5961(10) 0.1133 Uani
C32 C 0.2701(11) 0.6721(11) 0.5983(10) 0.1133 Uani
C33 C 0.2419(15) 0.5272(8) 0.2609(10) 0.1300 Uani
C34 C 0.1879(13) 0.5995(11) 0.2516(11) 0.1233 Uani
C35 C 0.225(4) 1.0870(15) 0.5087(13) 0.3933 Uani
C36 C 0.4008(13) 0.8109(15) 0.2512(12) 0.1433 Uani
C37 C 0.242(2) 1.045(2) 0.4681(14) 0.2467 Uani
C38 C 0.227(2) 0.9109(10) 0.4915(12) 0.2337 Uani
C39 C 0.230(2) 0.9496(13) 0.5311(10) 0.2323 Uani
C40 C 0.4691(7) 0.7618(14) 0.2568(13) 0.1133 Uani
C41 C 0.5210(13) 0.7156(17) 0.2083(14) 0.1633 Uani
C42 C 0.5106(13) 0.7662(16) 0.2748(14) 0.1867 Uani
C43 C 0.2309(18) 0.4886(12) 0.2789(14) 0.1767 Uani
C44 C 0.5507(14) 0.757(2) 0.253(2) 0.2200 Uani
C45 C 0.273(2) 0.496(3) 0.212(2) 0.4867 Uani
C46 C 0.2503(16) 0.4466(11) 0.2592(15) 0.1567 Uani
C47 C 0.4708(11) 0.731(3) 0.2147(17) 0.3133 Uani
In1C In 0.20911(4) 1.20910(4) 0.61545(4) 0.0294 Uani
In2E In 0.29612(5) 0.61862(4) 0.80323(5) 0.0445 Uani
In2G In 0.61862(4) 0.70388(5) 0.19677(5) 0.0445 Uani
In3C In 0.20391(5) 1.11873(4) 0.69679(5) 0.0442 Uani
In3E In 0.38127(4) 0.70391(5) 0.80321(5) 0.0442 Uani
In3F In 0.29609(5) 0.38127(4) 0.19679(5) 0.0442 Uani
O6B O 0.1479(4) 0.7814(5) 0.4220(5) 0.0597 Uani
O8E O 0.1411(5) 0.8049(4) 0.2326(5) 0.0510 Uani
O9E O 0.1949(5) 0.8600(4) 0.2318(5) 0.0553 Uani
O11B O 0.0907(5) 0.7797(7) 0.3708(6) 0.0913 Uani
N2G N 0.0540(6) 0.7663(8) 0.2752(7) 0.0637 Uani
N3F N 0.2332(11) 0.9459(7) 0.2774(7) 0.0893 Uani
C48? C 0.0177(10) 1.0180(11) 0.3091(10) 0.0993 Uani
C49? C 0.0635(12) 0.951(2) 0.3076(12) 0.1507 Uani
C50? C 0.090(3) 0.9974(14) 0.305(2) 0.3333 Uani
C51? C 0.0498(14) 1.0382(15) 0.3113(15) 0.1867 Uani
C52? C 0.014(2) 0.9270(16) 0.3062(17) 0.2033 Uani
loop_
_atom_site_aniso_label
_atom_site_aniso_U_11
_atom_site_aniso_U_22
_atom_site_aniso_U_33
_atom_site_aniso_U_23
_atom_site_aniso_U_13
_atom_site_aniso_U_12
In1 0.0298(7) 0.0304(7) 0.0280(5) -0.0023(5) 0.0016(5) 0.0054(6)
In2 0.0760(10) 0.0242(6) 0.0332(7) -0.0021(6) -0.0012(7) 0.0240(6)
In3 0.0254(7) 0.0729(9) 0.0342(7) 0.0004(7) 0.0021(6) 0.0201(6)
O1 0.020(6) 0.047(7) 0.042(7) -0.001(6) -0.015(5) 0.017(5)
O2 0.063(9) 0.024(6) 0.045(8) 0.003(6) -0.020(7) 0.010(6)
O3 0.027(7) 0.042(7) 0.095(11) -0.015(8) -0.005(7) 0.006(6)
O4 0.066(9) 0.031(7) 0.073(10) 0.011(7) 0.005(8) 0.023(7)
O5 0.113(12) 0.035(8) 0.027(7) -0.004(6) -0.018(7) 0.014(8)
O6 0.089 0.032 0.058 0.002 -0.011 -0.002
O7 0.029(7) 0.072(10) 0.050(9) 0.011(7) 0.008(6) 0.002(6)
O8 0.061 0.048 0.044 0.014 -0.009 0.004
N1 0.034(8) 0.053(10) 0.033(8) 0.007(7) -0.030(7) 0.004(7)
O9 0.079 0.043 0.044 0.009 -0.001 0.013
O10 0.133(15) 0.045(9) 0.033(8) -0.014(7) 0.013(8) 0.008(9)
O11 0.176 0.051 0.047 -0.028 -0.027 0.012
O12 0.25(2) 0.030(8) 0.059(10) 0.008(8) 0.017(14) 0.077(12)
O13 0.048(9) 0.28(3) 0.040(9) -0.019(14) -0.010(8) 0.099(14)
C1 0.052(12) 0.037(11) 0.037(11) -0.006(9) -0.004(9) 0.017(9)
N2 0.118 0.036 0.037 0.012 0.005 0.008
C2 0.060(12) 0.025(9) 0.047(11) 0.001(9) -0.033(10) -0.006(8)
C3 0.005(8) 0.079(15) 0.041(11) -0.002(10) -0.015(7) 0.005(8)
C4 0.037(12) 0.079(16) 0.062(15) 0.013(13) -0.005(11) -0.005(10)
C5 0.055(13) 0.051(13) 0.045(12) -0.014(10) -0.006(10) -0.017(10)
C6 0.035(12) 0.078(16) 0.068(16) 0.027(13) 0.007(11) -0.023(11)
N3 0.035 0.18 0.053 0.014 -0.006 -0.061
C7 0.105 0.024 0.039 -0.012 0.011 0.011
C8 0.108(18) 0.029(11) 0.049(13) -0.020(10) -0.026(12) -0.008(11)
C9 0.094(19) 0.084(18) 0.065(16) 0.033(14) -0.038(15) -0.041(15)
C10 0.10(2) 0.085(18) 0.074(17) 0.032(15) -0.056(16) -0.064(16)
C11 0.034(11) 0.109(19) 0.038(12) 0.013(12) -0.007(9) -0.029(12)
C12 0.11(3) 0.16(3) 0.10(2) 0.08(2) -0.06(2) -0.04(2)
C13 0.026 0.09 0.04 0.018 -0.007 -0.003
C14 0.11(2) 0.13(3) 0.033(13) 0.021(15) -0.019(14) 0.036(19)
C15 0.044(16) 0.26(4) 0.068(19) 0.03(2) 0.002(14) 0.05(2)
C16 0.068(15) 0.042(12) 0.075(17) 0.030(11) -0.010(13) -0.006(11)
C17 0.068 0.038 0.019 -0.002 0.007 -0.017
C18 0.075(18) 0.089(19) 0.035(10) 0.011(12) -0.018(11) 0.008(16)
C19 0.069(14) 0.030(11) 0.064(14) -0.016(10) -0.030(11) -0.018(10)
C20 0.092 0.14 0.031 0.043 -0.015 -0.032
C21 0.061 0.065 0.031 0.013 -0.019 -0.021
C22 0.13(2) 0.042(14) 0.058(17) -0.016(12) 0.016(16) 0.004(14)
C23 0.12(2) 0.048(14) 0.046(12) -0.017(10) -0.003(13) -0.033(12)
C24 0.16 0.1 0.043 0.035 -0.042 -0.05
C25 0.16 0.07 0.026 0.015 0.022 0.007
C26 0.19 0.049 0.065 -0.006 -0.01 -0.038
C27 0.13(2) 0.057(16) 0.069(18) 0.026(13) 0.024(17) 0.008(15)
C28 0.27(4) 0.023(12) 0.076(19) -0.027(12) -0.04(2) 0.053(18)
C29 0.12(3) 0.075(18) 0.15(3) 0.064(19) 0.09(2) 0.050(18)
C30 0.15(3) 0.076(19) 0.11(2) -0.044(18) -0.04(2) 0.049(19)
C31 0.10(2) 0.16(3) 0.08(2) 0.05(2) -0.060(17) -0.06(2)
C32 0.13(2) 0.13(3) 0.08(2) 0.070(18) -0.068(18) -0.08(2)
C33 0.29(5) 0.020(13) 0.08(2) -0.041(13) 0.06(2) -0.040(18)
C34 0.17(3) 0.11(2) 0.09(2) -0.049(19) -0.07(2) 0.04(2)
C35 1 0.12 0.06 -0.03 -0.09 0.26
C36 0.12(3) 0.21(4) 0.10(3) 0.07(3) 0.07(2) 0.02(3)
C37 0.38(8) 0.29(6) 0.07(3) 0.01(3) 0.01(4) -0.22(6)
C38 0.57(10) 0.051(19) 0.08(2) 0.032(17) -0.11(4) -0.12(4)
C39 0.57 0.1 0.027 0.005 0.03 -0.08
C40 0.000(12) 0.22(4) 0.12(3) -0.02(3) 0.038(15) -0.011(16)
C41 0.1 0.28 0.11 -0.02 0.07 0.04
C42 0.14(3) 0.28(4) 0.14(3) -0.12(3) -0.07(2) 0.16(3)
C43 0.36(6) 0.06(2) 0.11(3) 0.00(2) -0.03(3) 0.06(3)
C44 0.11 0.34 0.21 -0.14 0.06 0.08
C45 0.21 0.99 0.26 0.41 -0.14 -0.2
C46 0.24 0.08 0.15 -0.02 0.11 0.04
C47 0.06(2) 0.72(10) 0.16(4) 0.16(5) 0.07(2) 0.14(4)
In1C 0.0304 0.0298 0.028 -0.0016 -0.0023 -0.0054
In2E 0.076 0.0242 0.0332 0.0021 0.0012 0.024
In2G 0.0242 0.076 0.0332 0.0012 -0.0021 -0.024
In3C 0.0729 0.0254 0.0342 -0.0021 0.0004 -0.0201
In3E 0.0254 0.0729 0.0342 -0.0004 -0.0021 0.0201
In3F 0.0729 0.0254 0.0342 0.0021 -0.0004 -0.0201
O6B 0.032 0.089 0.058 -0.011 -0.002 0.002
O8E 0.061 0.048 0.044 -0.014 0.009 0.004
O9E 0.079 0.043 0.044 -0.009 0.001 0.013
O11B 0.051 0.176 0.047 -0.027 0.028 -0.012
N2G 0.036 0.118 0.037 -0.005 0.012 -0.008
N3F 0.18 0.035 0.053 -0.006 -0.014 0.061
C48? 0.1 0.12 0.078 0.016 0.016 -0.047
C49? 0.08(2) 0.32(7) 0.052(19) 0.00(3) -0.016(19) 0.07(3)
C50? 0.55(9) 0.11(3) 0.34(8) 0.01(4) -0.11(7) 0.23(4)
C51? 0.20(3) 0.24(4) 0.12(4) -0.01(3) -0.01(3) -0.20(3)
C52? 0.23(7) 0.21(4) 0.17(4) 0.02(3) -0.06(5) 0.15(4)
loop_
_geom_bond_atom_site_label_1
_geom_bond_atom_site_label_2
_geom_bond_site_symmetry_1
_geom_bond_site_symmetry_2
In1 O1 1_555 1_555
In2 O1 1_555 1_555
In3 O1 1_555 1_555
O2 In1 1_555 1_555
O3 In3 1_555 1_555
O4 In2 1_555 1_555
O5 In1 1_555 1_555
O6 C17 1_555 1_555
O7 In1 1_555 1_555
O8 C13 1_555 1_555
N1 In1 1_555 1_555
O9 C13 1_555 1_555
O10 In2 1_555 1_555
O11 C17 1_555 1_555
O12 In2 1_555 1_555
O13 In3 1_555 1_555
C1 O5 1_555 1_555
N2 C45 1_555 1_555
C2 C3 1_555 1_555
C3 O2 1_555 1_555
C4 C5 1_555 1_555
C5 O4 1_555 1_555
C6 C15 1_555 1_555
N3 C41 1_555 1_555
C7 C17 1_555 1_555
C8 C1 1_555 1_555
C9 C16 1_555 1_555
C10 C11 1_555 1_555
C11 N1 1_555 1_555
C12 C4 1_555 1_555
C13 C21 1_555 1_555
C14 C2 1_555 1_555
C15 C12 1_555 1_555
C16 N1 1_555 1_555
C18 C23 1_555 1_555
C19 C28 1_555 1_555
C20 C21 1_555 1_555
C21 C24 1_555 1_555
C22 C26 1_555 1_555
C23 C9 1_555 1_555
C24 C31 1_555 1_555
C25 C7 1_555 1_555
C26 C25 1_555 1_555
C27 C8 1_555 1_555
C28 C14 1_555 1_555
C29 C4 1_555 1_555
C30 C2 1_555 1_555
C31 C18 1_555 1_555
C32 C18 1_555 1_555
C33 C19 1_555 1_555
C34 C19 1_555 1_555
C35 C7 1_555 1_555
C36 C6 1_555 1_555
C37 C22 1_555 1_555
C38 C8 1_555 1_555
C39 C26 1_555 1_555
C40 C6 1_555 1_555
C41 C47 1_555 1_555
C42 C40 1_555 1_555
C43 C33 1_555 1_555
C44 N3 1_555 1_555
C46 N2 1_555 1_555
C47 C40 1_555 1_555
In1C O6 1_555 1_555
In2E O9 1_555 1_555
In2G N3 1_555 1_555
In3C O11 1_555 1_555
In3E O8 1_555 1_555
In3F N2 1_555 1_555
O6B In1 1_555 1_555
O8E In3 1_555 1_555
O9E In2 1_555 1_555
O11B In3 1_555 1_555
N2G In3 1_555 1_555
N3F In2 1_555 1_555
O3 C3 1_555 1_555
O7 C5 1_555 1_555
O10 C1 1_555 1_555
C10 C23 1_555 1_555
C20 C32 1_555 1_555
C22 C27 1_555 1_555
C29 C36 1_555 1_555
C30 C34 1_555 1_555
C35 C37 1_555 1_555
C38 C39 1_555 1_555
C42 C44 1_555 1_555
C43 C46 1_555 1_555

#END
