
#######################################################################
#
#                 Cambridge Crystallographic Data Centre
#                                CCDC 
#
#######################################################################
#
# If this CIF has been generated from an entry in the Cambridge 
# Structural Database, then it will include bibliographic, chemical, 
# crystal, experimental, refinement or atomic coordinate data resulting 
# from the CCDC's data processing and validation procedures.
#
#######################################################################

data_AGOWEA
_chemical_formula_moiety         '(C60 H36 In6 N6 O26 2+)n,2n(N1 O3 1-)'
_chemical_name_systematic        
'catena-(tris(\m~4~-Terephthalato)-hexakis(\m~3~-isonicotinato)-bis(\m~3~-oxo)-hexa-indium dinitrate)'
_symmetry_cell_setting           cubic
_symmetry_space_group_name_H-M   'I -4 3 m'
_symmetry_Int_Tables_number      217
_space_group_name_Hall           'I -4 2 3'
loop_
_symmetry_equiv_pos_site_id
_symmetry_equiv_pos_as_xyz
1 x,y,z
2 -x,-y,z
3 -x,y,-z
4 x,-y,-z
5 z,x,y
6 z,-x,-y
7 -z,-x,y
8 -z,x,-y
9 y,z,x
10 -y,z,-x
11 y,-z,-x
12 -y,-z,x
13 y,x,z
14 -y,-x,z
15 y,-x,-z
16 -y,x,-z
17 x,z,y
18 -x,z,-y
19 -x,-z,y
20 x,-z,-y
21 z,y,x
22 z,-y,-x
23 -z,y,-x
24 -z,-y,x
25 1/2+x,1/2+y,1/2+z
26 1/2-x,1/2-y,1/2+z
27 1/2-x,1/2+y,1/2-z
28 1/2+x,1/2-y,1/2-z
29 1/2+z,1/2+x,1/2+y
30 1/2+z,1/2-x,1/2-y
31 1/2-z,1/2-x,1/2+y
32 1/2-z,1/2+x,1/2-y
33 1/2+y,1/2+z,1/2+x
34 1/2-y,1/2+z,1/2-x
35 1/2+y,1/2-z,1/2-x
36 1/2-y,1/2-z,1/2+x
37 1/2+y,1/2+x,1/2+z
38 1/2-y,1/2-x,1/2+z
39 1/2+y,1/2-x,1/2-z
40 1/2-y,1/2+x,1/2-z
41 1/2+x,1/2+z,1/2+y
42 1/2-x,1/2+z,1/2-y
43 1/2-x,1/2-z,1/2+y
44 1/2+x,1/2-z,1/2-y
45 1/2+z,1/2+y,1/2+x
46 1/2+z,1/2-y,1/2-x
47 1/2-z,1/2+y,1/2-x
48 1/2-z,1/2-y,1/2+x
_cell_length_a                   22.1436(5)
_cell_length_b                   22.1436(5)
_cell_length_c                   22.1436(5)
_cell_angle_alpha                90
_cell_angle_beta                 90
_cell_angle_gamma                90
_cell_volume                     10857.9
_exptl_crystal_colour            colorless
_exptl_crystal_description       cubic
_cell_formula_units_Z            4
loop_
_atom_site_label
_atom_site_type_symbol
_atom_site_fract_x
_atom_site_fract_y
_atom_site_fract_z
_atom_site_U_iso_or_equiv
_atom_site_thermal_displace_type
In1 In 0.11942(3) 0.76801(2) 0.23199(2) 0.0145 Uani
O1 O 0.1979(3) 0.8021(3) 0.1979(3) 0.0170 Uani
O2 O 0.0744(2) 0.8541(2) 0.2412(3) 0.0397 Uani
O3 O -0.1752(2) 0.7234(3) 0.3483(3) 0.0327 Uani
C1 C 0.0922(4) 0.9078(4) 0.2423(6) 0.0323 Uani
C2 C 0.0444(3) 0.9556(3) 0.2435(6) 0.0350 Uani
C3 C 0.0592(4) 1.0146(5) 0.2428(11) 0.1327 Uani
H1 H 0.0997 1.0258 0.2422 0.1590 Uiso
C4 C -0.1510(5) 0.6905(4) 0.3095(4) 0.0273 Uani
C5 C -0.0847(5) 0.7023(4) 0.2977(4) 0.0260 Uani
C6 C -0.0539(4) 0.7455(4) 0.3294(4) 0.0410 Uani
H2 H -0.0720 0.7658 0.3614 0.0490 Uiso
C7 C 0.0058(4) 0.7585(4) 0.3124(4) 0.0407 Uani
H3 H 0.0266 0.7879 0.3339 0.0490 Uiso
N1 N 0.0337(3) 0.7317(3) 0.2683(3) 0.0233 Uani
O2L O -0.1459(2) 1.0744(2) 0.2412(3) 0.0397 Uani
C1A C -0.0922(4) 1.0922(4) 0.2423(6) 0.0323 Uani
C2A C -0.0444(3) 1.0444(3) 0.2435(6) 0.0350 Uani
C3L C 0.0146(5) 1.0592(4) 0.2428(11) 0.1327 Uani
H1L H 0.0258 1.0997 0.2422 0.1590 Uiso
O2M O 0.1459(2) 0.9256(2) 0.2412(3) 0.0397 Uani
C3M C -0.0146(5) 0.9408(4) 0.2428(11) 0.1327 Uani
H1M H -0.0258 0.9003 0.2422 0.1590 Uiso
O2A O -0.0744(2) 1.1459(2) 0.2412(3) 0.0397 Uani
C3A C -0.0592(4) 0.9854(5) 0.2428(11) 0.1327 Uani
H1A H -0.0997 0.9742 0.2422 0.1590 Uiso
C6S C -0.0539(4) 0.6706(4) 0.2545(4) 0.0410 Uani
H2S H -0.0720 0.6386 0.2342 0.0490 Uiso
C7S C 0.0058(4) 0.6876(4) 0.2415(4) 0.0407 Uani
H3S H 0.0266 0.6661 0.2121 0.0490 Uiso
O3S O -0.1752(2) 0.6517(3) 0.2766(3) 0.0327 Uani
In1A In -0.11942(3) 1.23199(2) 0.23199(2) 0.0145 Uani
O1A O -0.1979(3) 1.1979(3) 0.1979(3) 0.0170 Uani
O3A O 0.1752(2) 1.2766(3) 0.3483(3) 0.0327 Uani
C4A C 0.1510(5) 1.3095(4) 0.3095(4) 0.0273 Uani
C5A C 0.0847(5) 1.2977(4) 0.2977(4) 0.0260 Uani
C6A C 0.0539(4) 1.2545(4) 0.3294(4) 0.0410 Uani
H2A H 0.0720 1.2342 0.3614 0.0490 Uiso
C7A C -0.0058(4) 1.2415(4) 0.3124(4) 0.0407 Uani
H3A H -0.0266 1.2121 0.3339 0.0490 Uiso
N1A N -0.0337(3) 1.2683(3) 0.2683(3) 0.0233 Uani
C6Q C 0.0539(4) 1.3294(4) 0.2545(4) 0.0410 Uani
H2Q H 0.0720 1.3614 0.2342 0.0490 Uiso
C7Q C -0.0058(4) 1.3124(4) 0.2415(4) 0.0407 Uani
H3Q H -0.0266 1.3339 0.2121 0.0490 Uiso
O3Q O 0.1752(2) 1.3483(3) 0.2766(3) 0.0327 Uani
In1E In 0.23199(2) 0.88058(3) 0.23199(2) 0.0145 Uani
O2E O 0.2412(3) 0.9256(2) 0.1459(2) 0.0397 Uani
O3E O 0.3483(3) 1.1752(2) 0.2766(3) 0.0327 Uani
C1E C 0.2423(6) 0.9078(4) 0.0922(4) 0.0323 Uani
C2E C 0.2435(6) 0.9556(3) 0.0444(3) 0.0350 Uani
C3E C 0.2428(11) 0.9408(4) -0.0146(5) 0.1327 Uani
H1E H 0.2422 0.9003 -0.0258 0.1590 Uiso
C4E C 0.3095(4) 1.1510(5) 0.3095(4) 0.0273 Uani
C5E C 0.2977(4) 1.0847(5) 0.2977(4) 0.0260 Uani
C6E C 0.3294(4) 1.0539(4) 0.2545(4) 0.0410 Uani
H2E H 0.3614 1.0720 0.2342 0.0490 Uiso
C7E C 0.3124(4) 0.9942(4) 0.2415(4) 0.0407 Uani
H3E H 0.3339 0.9734 0.2121 0.0490 Uiso
N1E N 0.2683(3) 0.9663(3) 0.2683(3) 0.0233 Uani
O2U O 0.2412(3) 1.1459(2) -0.0744(2) 0.0397 Uani
C1D C 0.2423(6) 1.0922(4) -0.0922(4) 0.0323 Uani
C2D C 0.2435(6) 1.0444(3) -0.0444(3) 0.0350 Uani
C3U C 0.2428(11) 0.9854(5) -0.0592(4) 0.1327 Uani
H1U H 0.2422 0.9742 -0.0997 0.1590 Uiso
O2T O 0.2412(3) 0.8541(2) 0.0744(2) 0.0397 Uani
C3T C 0.2428(11) 1.0146(5) 0.0592(4) 0.1327 Uani
H1T H 0.2422 1.0258 0.0997 0.1590 Uiso
O2D O 0.2412(3) 1.0744(2) -0.1459(2) 0.0397 Uani
C3D C 0.2428(11) 1.0592(4) 0.0146(5) 0.1327 Uani
H1D H 0.2422 1.0997 0.0258 0.1590 Uiso
C6M C 0.2545(4) 1.0539(4) 0.3294(4) 0.0410 Uani
H2M H 0.2342 1.0720 0.3614 0.0490 Uiso
C7M C 0.2415(4) 0.9942(4) 0.3124(4) 0.0407 Uani
H3M H 0.2121 0.9734 0.3339 0.0490 Uiso
O3M O 0.2766(3) 1.1752(2) 0.3483(3) 0.0327 Uani
In1G In -0.23199(2) 1.11942(3) 0.23199(2) 0.0145 Uani
O2G O -0.2412(3) 1.0744(2) 0.1459(2) 0.0397 Uani
O3G O -0.3483(3) 0.8248(2) 0.2766(3) 0.0327 Uani
C1G C -0.2423(6) 1.0922(4) 0.0922(4) 0.0323 Uani
C2G C -0.2435(6) 1.0444(3) 0.0444(3) 0.0350 Uani
C3G C -0.2428(11) 1.0592(4) -0.0146(5) 0.1327 Uani
H1G H -0.2422 1.0997 -0.0258 0.1590 Uiso
C4G C -0.3095(4) 0.8490(5) 0.3095(4) 0.0273 Uani
C5G C -0.2977(4) 0.9153(5) 0.2977(4) 0.0260 Uani
C6G C -0.3294(4) 0.9461(4) 0.2545(4) 0.0410 Uani
H2G H -0.3614 0.9280 0.2342 0.0490 Uiso
C7G C -0.3124(4) 1.0058(4) 0.2415(4) 0.0407 Uani
H3G H -0.3339 1.0266 0.2121 0.0490 Uiso
N1G N -0.2683(3) 1.0337(3) 0.2683(3) 0.0233 Uani
O2V O -0.2412(3) 0.8541(2) -0.0744(2) 0.0397 Uani
C1F C -0.2423(6) 0.9078(4) -0.0922(4) 0.0323 Uani
C2F C -0.2435(6) 0.9556(3) -0.0444(3) 0.0350 Uani
C3V C -0.2428(11) 1.0146(5) -0.0592(4) 0.1327 Uani
H1V H -0.2422 1.0258 -0.0997 0.1590 Uiso
O2W O -0.2412(3) 1.1459(2) 0.0744(2) 0.0397 Uani
C3W C -0.2428(11) 0.9854(5) 0.0592(4) 0.1327 Uani
H1W H -0.2422 0.9742 0.0997 0.1590 Uiso
O2F O -0.2412(3) 0.9256(2) -0.1459(2) 0.0397 Uani
C3F C -0.2428(11) 0.9408(4) 0.0146(5) 0.1327 Uani
H1F H -0.2422 0.9003 0.0258 0.1590 Uiso
C6L C -0.2545(4) 0.9461(4) 0.3294(4) 0.0410 Uani
H2L H -0.2342 0.9280 0.3614 0.0490 Uiso
C7L C -0.2415(4) 1.0058(4) 0.3124(4) 0.0407 Uani
H3L H -0.2121 1.0266 0.3339 0.0490 Uiso
O3L O -0.2766(3) 0.8248(2) 0.3483(3) 0.0327 Uani
In1H In -0.23199(2) 1.23199(2) 0.11942(3) 0.0145 Uani
O3H O -0.2766(3) 1.3483(3) -0.1752(2) 0.0327 Uani
C4H C -0.3095(4) 1.3095(4) -0.1510(5) 0.0273 Uani
C5H C -0.2977(4) 1.2977(4) -0.0847(5) 0.0260 Uani
C6H C -0.2545(4) 1.3294(4) -0.0539(4) 0.0410 Uani
H2H H -0.2342 1.3614 -0.0720 0.0490 Uiso
C7H C -0.2415(4) 1.3124(4) 0.0058(4) 0.0407 Uani
H3H H -0.2121 1.3339 0.0266 0.0490 Uiso
N1H N -0.2683(3) 1.2683(3) 0.0337(3) 0.0233 Uani
C6W C -0.3294(4) 1.2545(4) -0.0539(4) 0.0410 Uani
H2W H -0.3614 1.2342 -0.0720 0.0490 Uiso
C7W C -0.3124(4) 1.2415(4) 0.0058(4) 0.0407 Uani
H3W H -0.3339 1.2121 0.0266 0.0490 Uiso
O3W O -0.3483(3) 1.2766(3) -0.1752(2) 0.0327 Uani
In1I In 0.23199(2) 1.23199(2) -0.11942(3) 0.0145 Uani
O3I O 0.2766(3) 1.3483(3) 0.1752(2) 0.0327 Uani
C4I C 0.3095(4) 1.3095(4) 0.1510(5) 0.0273 Uani
C5I C 0.2977(4) 1.2977(4) 0.0847(5) 0.0260 Uani
C6I C 0.2545(4) 1.3294(4) 0.0539(4) 0.0410 Uani
H2I H 0.2342 1.3614 0.0720 0.0490 Uiso
C7I C 0.2415(4) 1.3124(4) -0.0058(4) 0.0407 Uani
H3I H 0.2121 1.3339 -0.0266 0.0490 Uiso
N1I N 0.2683(3) 1.2683(3) -0.0337(3) 0.0233 Uani
C6U C 0.3294(4) 1.2545(4) 0.0539(4) 0.0410 Uani
H2U H 0.3614 1.2342 0.0720 0.0490 Uiso
C7U C 0.3124(4) 1.2415(4) -0.0058(4) 0.0407 Uani
H3U H 0.3339 1.2121 -0.0266 0.0490 Uiso
O3U O 0.3483(3) 1.2766(3) 0.1752(2) 0.0327 Uani
In1D In 0.23199(2) 1.11942(3) -0.23199(2) 0.0145 Uani
In1F In -0.23199(2) 0.88058(3) -0.23199(2) 0.0145 Uani
In1J In -0.23199(2) 0.76801(2) -0.11942(3) 0.0145 Uani
In1K In 0.23199(2) 0.76801(2) 0.11942(3) 0.0145 Uani
In1X In -0.38058(3) 1.26801(2) -0.26801(2) 0.0145 Uani
In1Z In 0.38058(3) 1.26801(2) 0.26801(2) 0.0145 Uani
In1AA In -0.38058(3) 0.73199(2) 0.26801(2) 0.0145 Uani
In1BA In -0.26801(2) 0.61942(3) 0.26801(2) 0.0145 Uani
In1CA In -0.26801(2) 1.38058(3) -0.26801(2) 0.0145 Uani
In1DA In 0.26801(2) 1.38058(3) 0.26801(2) 0.0145 Uani
In1GA In -0.26801(2) 0.73199(2) 0.38058(3) 0.0145 Uani
In1HA In 0.26801(2) 1.26801(2) 0.38058(3) 0.0145 Uani
O1C O 0.1979(3) 1.1979(3) -0.1979(3) 0.0170 Uani
O2H O -0.1459(2) 1.2412(3) 0.0744(2) 0.0397 Uani
O2I O 0.1459(2) 1.2412(3) -0.0744(2) 0.0397 Uani
O2Q O -0.0744(2) 1.2412(3) 0.1459(2) 0.0397 Uani
O2S O 0.0744(2) 0.7588(3) 0.1459(2) 0.0397 Uani
O3X O 0.3248(2) 1.2234(3) -0.1517(3) 0.0327 Uani
O3Z O -0.3248(2) 1.2234(3) 0.1517(3) 0.0327 Uani
O3BA O -0.1517(3) 1.3248(2) 0.2234(3) 0.0327 Uani
O3DA O 0.1517(3) 0.6752(2) 0.2234(3) 0.0327 Uani
O3FA O 0.2234(3) 0.8483(3) 0.3248(2) 0.0327 Uani
O3IA O -0.2234(3) 1.1517(3) 0.3248(2) 0.0327 Uani
O3JA O 0.2234(3) 1.3248(2) -0.1517(3) 0.0327 Uani
O3MA O -0.2234(3) 1.3248(2) 0.1517(3) 0.0327 Uani
O3NA O 0.3248(2) 0.8483(3) 0.2234(3) 0.0327 Uani
O3PA O -0.3248(2) 1.1517(3) 0.2234(3) 0.0327 Uani
O3RA O -0.1517(3) 1.2234(3) 0.3248(2) 0.0327 Uani
O3UA O 0.1517(3) 0.7766(3) 0.3248(2) 0.0327 Uani
loop_
_atom_site_aniso_label
_atom_site_aniso_U_11
_atom_site_aniso_U_22
_atom_site_aniso_U_33
_atom_site_aniso_U_23
_atom_site_aniso_U_13
_atom_site_aniso_U_12
In1 0.0122(3) 0.0156(3) 0.0156(3) 0.0004(3) -0.00028(19) 0.00028(19)
O1 0.017(3) 0.017(3) 0.017(3) -0.002(3) 0.002(3) -0.002(3)
O2 0.027(3) 0.020(3) 0.072(5) 0.003(3) 0.002(3) 0.007(2)
O3 0.017 0.047 0.034 -0.009 0.008 -0.008
C1 0.029(4) 0.029(4) 0.039(7) 0.001(4) -0.001(4) 0.005(5)
C2 0.021(3) 0.021(3) 0.063(9) -0.002(4) 0.002(4) 0.007(4)
C3 0.019(5) 0.029(6) 0.35(3) -0.016(11) -0.016(10) 0.011(5)
C4 0.024 0.029 0.029 -0.004 -0.001 0.001
C5 0.022 0.028 0.028 -0.003 0.002 -0.002
C6 0.028(4) 0.053(6) 0.042(5) -0.020(4) 0.013(4) -0.010(4)
C7 0.029(4) 0.048(6) 0.045(5) -0.018(4) 0.006(4) -0.015(4)
N1 0.016(4) 0.027(3) 0.027(3) -0.007(5) 0.007(3) -0.007(3)
O2L 0.02 0.027 0.072 0.002 0.003 0.007
C1A 0.029 0.029 0.039 -0.001 0.001 0.005
C2A 0.021 0.021 0.063 0.002 -0.002 0.007
C3L 0.029 0.019 0.35 -0.016 -0.016 0.011
O2M 0.02 0.027 0.072 -0.002 -0.003 0.007
C3M 0.029 0.019 0.35 0.016 0.016 0.011
O2A 0.027 0.02 0.072 -0.003 -0.002 0.007
C3A 0.019 0.029 0.35 0.016 0.016 0.011
C6S 0.028 0.042 0.053 -0.02 0.01 -0.013
C7S 0.029 0.045 0.048 -0.018 0.015 -0.006
O3S 0.017 0.034 0.047 -0.009 0.008 -0.008
In1A 0.0122 0.0156 0.0156 -0.0004 0.00028 0.00028
O1A 0.017 0.017 0.017 0.002 -0.002 -0.002
O3A 0.017 0.047 0.034 0.009 -0.008 -0.008
C4A 0.024 0.029 0.029 0.004 0.001 0.001
C5A 0.022 0.028 0.028 0.003 -0.002 -0.002
C6A 0.028 0.053 0.042 0.02 -0.013 -0.01
C7A 0.029 0.048 0.045 0.018 -0.006 -0.015
N1A 0.016 0.027 0.027 0.007 -0.007 -0.007
C6Q 0.028 0.042 0.053 0.02 -0.01 -0.013
C7Q 0.029 0.045 0.048 0.018 -0.015 -0.006
O3Q 0.017 0.034 0.047 0.009 -0.008 -0.008
In1E 0.0156 0.0122 0.0156 0.00028 -0.0004 0.00028
O2E 0.072 0.027 0.02 0.007 -0.003 -0.002
O3E 0.034 0.017 0.047 -0.008 0.009 -0.008
C1E 0.039 0.029 0.029 0.005 -0.001 0.001
C2E 0.063 0.021 0.021 0.007 0.002 -0.002
C3E 0.35 0.019 0.029 0.011 0.016 0.016
C4E 0.029 0.024 0.029 0.001 0.004 0.001
C5E 0.028 0.022 0.028 -0.002 0.003 -0.002
C6E 0.042 0.028 0.053 -0.01 0.02 -0.013
C7E 0.045 0.029 0.048 -0.015 0.018 -0.006
N1E 0.027 0.016 0.027 -0.007 0.007 -0.007
O2U 0.072 0.02 0.027 0.007 -0.002 -0.003
C1D 0.039 0.029 0.029 0.005 0.001 -0.001
C2D 0.063 0.021 0.021 0.007 -0.002 0.002
C3U 0.35 0.029 0.019 0.011 0.016 0.016
O2T 0.072 0.02 0.027 0.007 0.002 0.003
C3T 0.35 0.029 0.019 0.011 -0.016 -0.016
O2D 0.072 0.027 0.02 0.007 0.003 0.002
C3D 0.35 0.019 0.029 0.011 -0.016 -0.016
C6M 0.053 0.028 0.042 -0.013 0.02 -0.01
C7M 0.048 0.029 0.045 -0.006 0.018 -0.015
O3M 0.047 0.017 0.034 -0.008 0.009 -0.008
In1G 0.0156 0.0122 0.0156 -0.00028 0.0004 0.00028
O2G 0.072 0.027 0.02 -0.007 0.003 -0.002
O3G 0.034 0.017 0.047 0.008 -0.009 -0.008
C1G 0.039 0.029 0.029 -0.005 0.001 0.001
C2G 0.063 0.021 0.021 -0.007 -0.002 -0.002
C3G 0.35 0.019 0.029 -0.011 -0.016 0.016
C4G 0.029 0.024 0.029 -0.001 -0.004 0.001
C5G 0.028 0.022 0.028 0.002 -0.003 -0.002
C6G 0.042 0.028 0.053 0.01 -0.02 -0.013
C7G 0.045 0.029 0.048 0.015 -0.018 -0.006
N1G 0.027 0.016 0.027 0.007 -0.007 -0.007
O2V 0.072 0.02 0.027 -0.007 0.002 -0.003
C1F 0.039 0.029 0.029 -0.005 -0.001 -0.001
C2F 0.063 0.021 0.021 -0.007 0.002 0.002
C3V 0.35 0.029 0.019 -0.011 -0.016 0.016
O2W 0.072 0.02 0.027 -0.007 -0.002 0.003
C3W 0.35 0.029 0.019 -0.011 0.016 -0.016
O2F 0.072 0.027 0.02 -0.007 -0.003 0.002
C3F 0.35 0.019 0.029 -0.011 0.016 -0.016
C6L 0.053 0.028 0.042 0.013 -0.02 -0.01
C7L 0.048 0.029 0.045 0.006 -0.018 -0.015
O3L 0.047 0.017 0.034 0.008 -0.009 -0.008
In1H 0.0156 0.0156 0.0122 -0.00028 0.00028 0.0004
O3H 0.047 0.034 0.017 0.008 -0.008 -0.009
C4H 0.029 0.029 0.024 -0.001 0.001 -0.004
C5H 0.028 0.028 0.022 0.002 -0.002 -0.003
C6H 0.053 0.042 0.028 0.013 -0.01 -0.02
C7H 0.048 0.045 0.029 0.006 -0.015 -0.018
N1H 0.027 0.027 0.016 0.007 -0.007 -0.007
C6W 0.042 0.053 0.028 0.01 -0.013 -0.02
C7W 0.045 0.048 0.029 0.015 -0.006 -0.018
O3W 0.034 0.047 0.017 0.008 -0.008 -0.009
In1I 0.0156 0.0156 0.0122 0.00028 0.00028 -0.0004
O3I 0.047 0.034 0.017 -0.008 -0.008 0.009
C4I 0.029 0.029 0.024 0.001 0.001 0.004
C5I 0.028 0.028 0.022 -0.002 -0.002 0.003
C6I 0.053 0.042 0.028 -0.013 -0.01 0.02
C7I 0.048 0.045 0.029 -0.006 -0.015 0.018
N1I 0.027 0.027 0.016 -0.007 -0.007 0.007
C6U 0.042 0.053 0.028 -0.01 -0.013 0.02
C7U 0.045 0.048 0.029 -0.015 -0.006 0.018
O3U 0.034 0.047 0.017 -0.008 -0.008 0.009
In1D 0.0156 0.0122 0.0156 0.00028 0.0004 -0.00028
In1F 0.0156 0.0122 0.0156 -0.00028 -0.0004 -0.00028
In1J 0.0156 0.0156 0.0122 -0.00028 -0.00028 -0.0004
In1K 0.0156 0.0156 0.0122 0.00028 -0.00028 0.0004
In1X 0.0122 0.0156 0.0156 0.0004 -0.00028 0.00028
In1Z 0.0122 0.0156 0.0156 -0.0004 -0.00028 -0.00028
In1AA 0.0122 0.0156 0.0156 0.0004 0.00028 -0.00028
In1BA 0.0156 0.0122 0.0156 0.00028 0.0004 -0.00028
In1CA 0.0156 0.0122 0.0156 0.00028 -0.0004 0.00028
In1DA 0.0156 0.0122 0.0156 -0.00028 -0.0004 -0.00028
In1GA 0.0156 0.0156 0.0122 0.00028 0.00028 -0.0004
In1HA 0.0156 0.0156 0.0122 -0.00028 -0.00028 -0.0004
O1C 0.017 0.017 0.017 -0.002 -0.002 0.002
O2H 0.02 0.072 0.027 0.002 0.007 0.003
O2I 0.02 0.072 0.027 -0.002 0.007 -0.003
O2Q 0.027 0.072 0.02 -0.003 0.007 -0.002
O2S 0.027 0.072 0.02 0.003 -0.007 -0.002
O3X 0.017 0.047 0.034 -0.009 0.008 -0.008
O3Z 0.017 0.047 0.034 0.009 0.008 0.008
O3BA 0.034 0.017 0.047 -0.008 -0.009 0.008
O3DA 0.034 0.017 0.047 0.008 0.009 0.008
O3FA 0.047 0.034 0.017 0.008 -0.008 -0.009
O3IA 0.047 0.034 0.017 -0.008 0.008 -0.009
O3JA 0.047 0.017 0.034 0.008 -0.009 -0.008
O3MA 0.047 0.017 0.034 -0.008 -0.009 0.008
O3NA 0.017 0.034 0.047 -0.009 -0.008 0.008
O3PA 0.017 0.034 0.047 0.009 0.008 0.008
O3RA 0.034 0.047 0.017 -0.008 0.008 -0.009
O3UA 0.034 0.047 0.017 0.008 -0.008 -0.009
loop_
_geom_bond_atom_site_label_1
_geom_bond_atom_site_label_2
_geom_bond_site_symmetry_1
_geom_bond_site_symmetry_2
In1 O1 1_555 1_555
O1 In1E 1_555 1_555
O2 In1 1_555 1_555
O3 C4 1_555 1_555
C1 O2 1_555 1_555
C2 C1 1_555 1_555
C3 C2 1_555 1_555
H1 C3 1_555 1_555
C4 C5 1_555 1_555
C5 C6 1_555 1_555
C6 H2 1_555 1_555
C7 C6 1_555 1_555
H3 C7 1_555 1_555
N1 In1 1_555 1_555
O2L C1A 1_555 1_555
C1A C2A 1_555 1_555
C2A C3L 1_555 1_555
C3L C3 1_555 1_555
H1L C3L 1_555 1_555
O2M C1 1_555 1_555
C3M C2 1_555 1_555
H1M C3M 1_555 1_555
O2A C1A 1_555 1_555
C3A C2A 1_555 1_555
H1A C3A 1_555 1_555
C6S C5 1_555 1_555
H2S C6S 1_555 1_555
C7S N1 1_555 1_555
H3S C7S 1_555 1_555
O3S C4 1_555 1_555
In1A O2A 1_555 1_555
O1A In1A 1_555 1_555
O3A C4A 1_555 1_555
C4A C5A 1_555 1_555
C5A C6A 1_555 1_555
C6A H2A 1_555 1_555
C7A C6A 1_555 1_555
H3A C7A 1_555 1_555
N1A In1A 1_555 1_555
C6Q C5A 1_555 1_555
H2Q C6Q 1_555 1_555
C7Q N1A 1_555 1_555
H3Q C7Q 1_555 1_555
O3Q C4A 1_555 1_555
In1E O2M 1_555 1_555
O2E In1E 1_555 1_555
O3E C4E 1_555 1_555
C1E O2E 1_555 1_555
C2E C1E 1_555 1_555
C3E C2E 1_555 1_555
H1E C3E 1_555 1_555
C4E C5E 1_555 1_555
C5E C6E 1_555 1_555
C6E H2E 1_555 1_555
C7E C6E 1_555 1_555
H3E C7E 1_555 1_555
N1E In1E 1_555 1_555
O2U C1D 1_555 1_555
C1D C2D 1_555 1_555
C2D C3U 1_555 1_555
C3U C3E 1_555 1_555
H1U C3U 1_555 1_555
O2T C1E 1_555 1_555
C3T C2E 1_555 1_555
H1T C3T 1_555 1_555
O2D C1D 1_555 1_555
C3D C2D 1_555 1_555
H1D C3D 1_555 1_555
C6M C5E 1_555 1_555
H2M C6M 1_555 1_555
C7M N1E 1_555 1_555
H3M C7M 1_555 1_555
O3M C4E 1_555 1_555
In1G O2L 1_555 1_555
O2G In1G 1_555 1_555
O3G C4G 1_555 1_555
C1G O2G 1_555 1_555
C2G C1G 1_555 1_555
C3G C2G 1_555 1_555
H1G C3G 1_555 1_555
C4G C5G 1_555 1_555
C5G C6G 1_555 1_555
C6G H2G 1_555 1_555
C7G C6G 1_555 1_555
H3G C7G 1_555 1_555
N1G In1G 1_555 1_555
O2V C1F 1_555 1_555
C1F C2F 1_555 1_555
C2F C3V 1_555 1_555
C3V C3G 1_555 1_555
H1V C3V 1_555 1_555
O2W C1G 1_555 1_555
C3W C2G 1_555 1_555
H1W C3W 1_555 1_555
O2F C1F 1_555 1_555
C3F C2F 1_555 1_555
H1F C3F 1_555 1_555
C6L C5G 1_555 1_555
H2L C6L 1_555 1_555
C7L N1G 1_555 1_555
H3L C7L 1_555 1_555
O3L C4G 1_555 1_555
In1H O1A 1_555 1_555
O3H C4H 1_555 1_555
C4H C5H 1_555 1_555
C5H C6H 1_555 1_555
C6H H2H 1_555 1_555
C7H C6H 1_555 1_555
H3H C7H 1_555 1_555
N1H In1H 1_555 1_555
C6W C5H 1_555 1_555
H2W C6W 1_555 1_555
C7W N1H 1_555 1_555
H3W C7W 1_555 1_555
O3W C4H 1_555 1_555
In1I O2U 1_555 1_555
O3I C4I 1_555 1_555
C4I C5I 1_555 1_555
C5I C6I 1_555 1_555
C6I H2I 1_555 1_555
C7I C6I 1_555 1_555
H3I C7I 1_555 1_555
N1I In1I 1_555 1_555
C6U C5I 1_555 1_555
H2U C6U 1_555 1_555
C7U N1I 1_555 1_555
H3U C7U 1_555 1_555
O3U C4I 1_555 1_555
In1D O2D 1_555 1_555
In1F O2F 1_555 1_555
In1J O2V 1_555 1_555
In1K O1 1_555 1_555
In1X O3W 1_555 1_555
In1Z O3E 1_555 1_555
In1AA O3G 1_555 1_555
In1BA O3S 1_555 1_555
In1CA O3H 1_555 1_555
In1DA O3Q 1_555 1_555
In1GA O3 1_555 1_555
In1HA O3A 1_555 1_555
O1C In1I 1_555 1_555
O2H In1H 1_555 1_555
O2I In1I 1_555 1_555
O2Q In1A 1_555 1_555
O2S In1 1_555 1_555
O3X In1I 1_555 1_555
O3Z In1H 1_555 1_555
O3BA In1A 1_555 1_555
O3DA In1 1_555 1_555
O3FA In1E 1_555 1_555
O3IA In1G 1_555 1_555
O3JA In1I 1_555 1_555
O3MA In1H 1_555 1_555
O3NA In1E 1_555 1_555
O3PA In1G 1_555 1_555
O3RA In1A 1_555 1_555
O3UA In1 1_555 1_555
C7 N1 1_555 1_555
C3M C3A 1_555 1_555
C6S C7S 1_555 1_555
O1A In1G 1_555 1_555
C7A N1A 1_555 1_555
C6Q C7Q 1_555 1_555
C7E N1E 1_555 1_555
O2T In1K 1_555 1_555
C3T C3D 1_555 1_555
C6M C7M 1_555 1_555
O3M In1HA 1_555 1_555
C7G N1G 1_555 1_555
O2W In1H 1_555 1_555
C3W C3F 1_555 1_555
C6L C7L 1_555 1_555
O3L In1GA 1_555 1_555
C7H N1H 1_555 1_555
C6W C7W 1_555 1_555
O3I In1DA 1_555 1_555
C7I N1I 1_555 1_555
C6U C7U 1_555 1_555
O3U In1Z 1_555 1_555
In1D O1C 1_555 1_555

#END
