
#######################################################################
#
#                 Cambridge Crystallographic Data Centre
#                                CCDC 
#
#######################################################################
#
# If this CIF has been generated from an entry in the Cambridge 
# Structural Database, then it will include bibliographic, chemical, 
# crystal, experimental, refinement or atomic coordinate data resulting 
# from the CCDC's data processing and validation procedures.
#
#######################################################################

data_AGOWAW
_chemical_formula_moiety         '(C96 H60 In6 N6 O26 2+)n,2n(N1 O3 1-)'
_chemical_name_systematic        
'catena-(tris(\m~4~-Terephthalato)-bis(\m~3~-oxo)-hexakis(\m~3~-4-(4-pyridyl)benzoato)-hexa-indium dinitrate)'
_symmetry_cell_setting           cubic
_symmetry_space_group_name_H-M   'I 2 3'
_symmetry_Int_Tables_number      197
_space_group_name_Hall           'I 2 2 3'
loop_
_symmetry_equiv_pos_site_id
_symmetry_equiv_pos_as_xyz
1 x,y,z
2 -x,-y,z
3 -x,y,-z
4 x,-y,-z
5 z,x,y
6 z,-x,-y
7 -z,-x,y
8 -z,x,-y
9 y,z,x
10 -y,z,-x
11 y,-z,-x
12 -y,-z,x
13 1/2+x,1/2+y,1/2+z
14 1/2-x,1/2-y,1/2+z
15 1/2-x,1/2+y,1/2-z
16 1/2+x,1/2-y,1/2-z
17 1/2+z,1/2+x,1/2+y
18 1/2+z,1/2-x,1/2-y
19 1/2-z,1/2-x,1/2+y
20 1/2-z,1/2+x,1/2-y
21 1/2+y,1/2+z,1/2+x
22 1/2-y,1/2+z,1/2-x
23 1/2+y,1/2-z,1/2-x
24 1/2-y,1/2-z,1/2+x
_cell_length_a                   27.7580(16)
_cell_length_b                   27.7580(16)
_cell_length_c                   27.7580(16)
_cell_angle_alpha                90
_cell_angle_beta                 90
_cell_angle_gamma                90
_cell_volume                     21387.7
_cell_formula_units_Z            4
loop_
_atom_site_label
_atom_site_type_symbol
_atom_site_fract_x
_atom_site_fract_y
_atom_site_fract_z
_atom_site_U_iso_or_equiv
_atom_site_thermal_displace_type
In1 In 0.68500(7) 0.31507(7) 0.40470(6) 0.0138 Uani
O1 O 0.6545(6) 0.3455(6) 0.3455(6) 0.0130 Uani
O2 O 0.6256(6) 0.2418(6) 0.3177(8) 0.0320 Uani
O3 O 0.6818(7) 0.2430(7) 0.3765(6) 0.0293 Uani
O4 O 0.6957(7) 0.4407(6) 0.3835(7) 0.0310 Uani
O5 O 0.6942(8) 0.3827(7) 0.4408(7) 0.0380 Uani
C1 C 0.6938(10) 0.4252(12) 0.4276(10) 0.0260 Uani
C2 C 0.6608(12) 0.2260(10) 0.3406(13) 0.0323 Uani
C3 C 0.6984(9) 0.4635(10) 0.4635(9) 0.0180 Uani
C4 C 0.6961(13) 0.5110(10) 0.4521(12) 0.0520 Uani
H1 H 0.6938 0.5210 0.4202 0.0610 Uiso
C5 C 0.6972(14) 0.4554(11) 0.5102(13) 0.0633 Uani
H2 H 0.6969 0.4232 0.5194 0.0740 Uiso
C6 C 0.6790(8) 0.1762(7) 0.3197(8) 0.0330 Uani
C7 C 0.7197(9) 0.1556(9) 0.3404(9) 0.1433 Uani
H3 H 0.7337 0.1698 0.3674 0.1700 Uiso
C8 C 0.7394(9) 0.1139(9) 0.3210(10) 0.1300 Uani
H4 H 0.7666 0.1001 0.3349 0.1550 Uiso
C9 C 0.7184(9) 0.0927(7) 0.2808(9) 0.0467 Uani
C10 C 0.6777(10) 0.1132(9) 0.2600(9) 0.1333 Uani
H5 H 0.6636 0.0990 0.2331 0.1590 Uiso
C11 C 0.6580(9) 0.1550(9) 0.2795(9) 0.1533 Uani
H6 H 0.6308 0.1687 0.2656 0.1810 Uiso
C12 C 0.7202(9) 0.0305(13) 0.2187(10) 2.0000 Uani
H7 H 0.6921 0.0436 0.2060 2.4000 Uiso
C13 C 0.7416(13) 0.0511(12) 0.2590(13) -0.0000 Uani
C14 C 0.7836(15) 0.0315(13) 0.2779(13) 1.3400 Uani
H8 H 0.7979 0.0453 0.3049 1.6090 Uiso
C15 C 0.8042(14) -0.0088(13) 0.2565(14) 0.7933 Uani
H9 H 0.8323 -0.0219 0.2692 0.9520 Uiso
N1 N 0.7829(10) -0.0295(9) 0.2162(11) -0.0000 Uani
C16 C 0.7409(7) -0.0098(11) 0.1973(6) 1.8933 Uani
H10 H 0.7266 -0.0237 0.1703 2.2720 Uiso
O4C O 0.6957(7) 0.5593(6) 0.6165(7) 0.0310 Uani
O5C O 0.6942(8) 0.6173(7) 0.5592(7) 0.0380 Uani
C1C C 0.6938(10) 0.5748(12) 0.5724(10) 0.0260 Uani
C3C C 0.6984(9) 0.5365(10) 0.5365(9) 0.0180 Uani
C4C C 0.6961(13) 0.4890(10) 0.5479(12) 0.0520 Uani
H1C H 0.6938 0.4790 0.5798 0.0610 Uiso
C5C C 0.6972(14) 0.5446(11) 0.4898(13) 0.0633 Uani
H2C H 0.6969 0.5768 0.4806 0.0740 Uiso
In1C In 0.68500(7) 0.68493(7) 0.59530(6) 0.0138 Uani
O1C O 0.6545(6) 0.6545(6) 0.6545(6) 0.0130 Uani
O2C O 0.6256(6) 0.7582(6) 0.6823(8) 0.0320 Uani
O3C O 0.6818(7) 0.7570(7) 0.6235(6) 0.0293 Uani
C2C C 0.6608(12) 0.7740(10) 0.6594(13) 0.0323 Uani
C6C C 0.6790(8) 0.8238(7) 0.6803(8) 0.0330 Uani
C7C C 0.7197(9) 0.8444(9) 0.6596(9) 0.1433 Uani
H3C H 0.7337 0.8302 0.6326 0.1700 Uiso
C8C C 0.7394(9) 0.8861(9) 0.6790(10) 0.1300 Uani
H4C H 0.7666 0.8999 0.6651 0.1550 Uiso
C9C C 0.7184(9) 0.9073(7) 0.7192(9) 0.0467 Uani
C10C C 0.6777(10) 0.8868(9) 0.7400(9) 0.1333 Uani
H5C H 0.6636 0.9010 0.7669 0.1590 Uiso
C11C C 0.6580(9) 0.8450(9) 0.7205(9) 0.1533 Uani
H6C H 0.6308 0.8313 0.7344 0.1810 Uiso
C12C C 0.7202(9) 0.9695(13) 0.7813(10) 2.0000 Uani
H7C H 0.6921 0.9564 0.7940 2.4000 Uiso
C13C C 0.7416(13) 0.9489(12) 0.7410(13) -0.0000 Uani
C14C C 0.7836(15) 0.9685(13) 0.7221(13) 1.3400 Uani
H8C H 0.7979 0.9547 0.6951 1.6090 Uiso
C15C C 0.8042(14) 1.0088(13) 0.7435(14) 0.7933 Uani
H9C H 0.8323 1.0219 0.7308 0.9520 Uiso
N1C N 0.7829(10) 1.0295(9) 0.7838(11) -0.0000 Uani
C16C C 0.7409(7) 1.0098(11) 0.8027(6) 1.8933 Uani
H10C H 0.7266 1.0237 0.8297 2.2720 Uiso
In1D In 0.40470(6) 0.68500(7) 0.31507(7) 0.0138 Uani
O2D O 0.3177(8) 0.6256(6) 0.2418(6) 0.0320 Uani
O3D O 0.3765(6) 0.6818(7) 0.2430(7) 0.0293 Uani
O4D O 0.3835(7) 0.6957(7) 0.4407(6) 0.0310 Uani
O5D O 0.4408(7) 0.6942(8) 0.3827(7) 0.0380 Uani
C1D C 0.4276(10) 0.6938(10) 0.4252(12) 0.0260 Uani
C2D C 0.3406(13) 0.6608(12) 0.2260(10) 0.0323 Uani
C3D C 0.4635(9) 0.6984(9) 0.4635(10) 0.0180 Uani
C4D C 0.4521(12) 0.6961(13) 0.5110(10) 0.0520 Uani
H1D H 0.4202 0.6938 0.5210 0.0610 Uiso
C5D C 0.5102(13) 0.6972(14) 0.4554(11) 0.0633 Uani
H2D H 0.5194 0.6969 0.4232 0.0740 Uiso
C6D C 0.3197(8) 0.6790(8) 0.1762(7) 0.0330 Uani
C7D C 0.3404(9) 0.7197(9) 0.1556(9) 0.1433 Uani
H3D H 0.3674 0.7337 0.1698 0.1700 Uiso
C8D C 0.3210(10) 0.7394(9) 0.1139(9) 0.1300 Uani
H4D H 0.3349 0.7666 0.1001 0.1550 Uiso
C9D C 0.2808(9) 0.7184(9) 0.0927(7) 0.0467 Uani
C10D C 0.2600(9) 0.6777(10) 0.1132(9) 0.1333 Uani
H5D H 0.2331 0.6636 0.0990 0.1590 Uiso
C11D C 0.2795(9) 0.6580(9) 0.1550(9) 0.1533 Uani
H6D H 0.2656 0.6308 0.1687 0.1810 Uiso
C12D C 0.2187(10) 0.7202(9) 0.0305(13) 2.0000 Uani
H7D H 0.2060 0.6921 0.0436 2.4000 Uiso
C13D C 0.2590(13) 0.7416(13) 0.0511(12) -0.0000 Uani
C14D C 0.2779(13) 0.7836(15) 0.0315(13) 1.3400 Uani
H8D H 0.3049 0.7979 0.0453 1.6090 Uiso
C15D C 0.2565(14) 0.8042(14) -0.0088(13) 0.7933 Uani
H9D H 0.2692 0.8323 -0.0219 0.9520 Uiso
N1D N 0.2162(11) 0.7829(10) -0.0295(9) -0.0000 Uani
C16D C 0.1973(6) 0.7409(7) -0.0098(11) 1.8933 Uani
H10D H 0.1703 0.7266 -0.0237 2.2720 Uiso
O4G O 0.6165(7) 0.6957(7) 0.5593(6) 0.0310 Uani
O5G O 0.5592(7) 0.6942(8) 0.6173(7) 0.0380 Uani
C1G C 0.5724(10) 0.6938(10) 0.5748(12) 0.0260 Uani
C3G C 0.5365(9) 0.6984(9) 0.5365(10) 0.0180 Uani
C4G C 0.5479(12) 0.6961(13) 0.4890(10) 0.0520 Uani
H1G H 0.5798 0.6938 0.4790 0.0610 Uiso
C5G C 0.4898(13) 0.6972(14) 0.5446(11) 0.0633 Uani
H2G H 0.4806 0.6969 0.5768 0.0740 Uiso
In1E In 0.40470(6) 0.31500(7) 0.68493(7) 0.0138 Uani
O2E O 0.3177(8) 0.3744(6) 0.7582(6) 0.0320 Uani
O3E O 0.3765(6) 0.3182(7) 0.7570(7) 0.0293 Uani
O4E O 0.3835(7) 0.3043(7) 0.5593(6) 0.0310 Uani
O5E O 0.4408(7) 0.3058(8) 0.6173(7) 0.0380 Uani
C1E C 0.4276(10) 0.3062(10) 0.5748(12) 0.0260 Uani
C2E C 0.3406(13) 0.3392(12) 0.7740(10) 0.0323 Uani
C3E C 0.4635(9) 0.3016(9) 0.5365(10) 0.0180 Uani
C4E C 0.4521(12) 0.3039(13) 0.4890(10) 0.0520 Uani
H1E H 0.4202 0.3062 0.4790 0.0610 Uiso
C5E C 0.5102(13) 0.3028(14) 0.5446(11) 0.0633 Uani
H2E H 0.5194 0.3031 0.5768 0.0740 Uiso
C6E C 0.3197(8) 0.3210(8) 0.8238(7) 0.0330 Uani
C7E C 0.3404(9) 0.2803(9) 0.8444(9) 0.1433 Uani
H3E H 0.3674 0.2663 0.8302 0.1700 Uiso
C8E C 0.3210(10) 0.2606(9) 0.8861(9) 0.1300 Uani
H4E H 0.3349 0.2334 0.8999 0.1550 Uiso
C9E C 0.2808(9) 0.2816(9) 0.9073(7) 0.0467 Uani
C10E C 0.2600(9) 0.3223(10) 0.8868(9) 0.1333 Uani
H5E H 0.2331 0.3364 0.9010 0.1590 Uiso
C11E C 0.2795(9) 0.3420(9) 0.8450(9) 0.1533 Uani
H6E H 0.2656 0.3692 0.8313 0.1810 Uiso
C12E C 0.2187(10) 0.2798(9) 0.9695(13) 2.0000 Uani
H7E H 0.2060 0.3079 0.9564 2.4000 Uiso
C13E C 0.2590(13) 0.2584(13) 0.9489(12) -0.0000 Uani
C14E C 0.2779(13) 0.2164(15) 0.9685(13) 1.3400 Uani
H8E H 0.3049 0.2021 0.9547 1.6090 Uiso
C15E C 0.2565(14) 0.1958(14) 1.0088(13) 0.7933 Uani
H9E H 0.2692 0.1677 1.0219 0.9520 Uiso
N1E N 0.2162(11) 0.2171(10) 1.0295(9) -0.0000 Uani
C16E C 0.1973(6) 0.2591(7) 1.0098(11) 1.8933 Uani
H10E H 0.1703 0.2734 1.0237 2.2720 Uiso
O4F O 0.6165(7) 0.3043(7) 0.4407(6) 0.0310 Uani
O5F O 0.5592(7) 0.3058(8) 0.3827(7) 0.0380 Uani
C1F C 0.5724(10) 0.3062(10) 0.4252(12) 0.0260 Uani
C3F C 0.5365(9) 0.3016(9) 0.4635(10) 0.0180 Uani
C4F C 0.5479(12) 0.3039(13) 0.5110(10) 0.0520 Uani
H1F H 0.5798 0.3062 0.5210 0.0610 Uiso
C5F C 0.4898(13) 0.3028(14) 0.4554(11) 0.0633 Uani
H2F H 0.4806 0.3031 0.4232 0.0740 Uiso
In1F In 0.59530(6) 0.31500(7) 0.31507(7) 0.0138 Uani
O2F O 0.6823(8) 0.3744(6) 0.2418(6) 0.0320 Uani
O3F O 0.6235(6) 0.3182(7) 0.2430(7) 0.0293 Uani
C2F C 0.6594(13) 0.3392(12) 0.2260(10) 0.0323 Uani
C6F C 0.6803(8) 0.3210(8) 0.1762(7) 0.0330 Uani
C7F C 0.6596(9) 0.2803(9) 0.1556(9) 0.1433 Uani
H3F H 0.6326 0.2663 0.1698 0.1700 Uiso
C8F C 0.6790(10) 0.2606(9) 0.1139(9) 0.1300 Uani
H4F H 0.6651 0.2334 0.1001 0.1550 Uiso
C9F C 0.7192(9) 0.2816(9) 0.0927(7) 0.0467 Uani
C10F C 0.7400(9) 0.3223(10) 0.1132(9) 0.1333 Uani
H5F H 0.7669 0.3364 0.0990 0.1590 Uiso
C11F C 0.7205(9) 0.3420(9) 0.1550(9) 0.1533 Uani
H6F H 0.7344 0.3692 0.1687 0.1810 Uiso
C12F C 0.7813(10) 0.2798(9) 0.0305(13) 2.0000 Uani
H7F H 0.7940 0.3079 0.0436 2.4000 Uiso
C13F C 0.7410(13) 0.2584(13) 0.0511(12) -0.0000 Uani
C14F C 0.7221(13) 0.2164(15) 0.0315(13) 1.3400 Uani
H8F H 0.6951 0.2021 0.0453 1.6090 Uiso
C15F C 0.7435(14) 0.1958(14) -0.0088(13) 0.7933 Uani
H9F H 0.7308 0.1677 -0.0219 0.9520 Uiso
N1F N 0.7838(11) 0.2171(10) -0.0295(9) -0.0000 Uani
C16F C 0.8027(6) 0.2591(7) -0.0098(11) 1.8933 Uani
H10F H 0.8297 0.2734 -0.0237 2.2720 Uiso
In1G In 0.59530(6) 0.68500(7) 0.68493(7) 0.0138 Uani
O2G O 0.6823(8) 0.6256(6) 0.7582(6) 0.0320 Uani
O3G O 0.6235(6) 0.6818(7) 0.7570(7) 0.0293 Uani
C2G C 0.6594(13) 0.6608(12) 0.7740(10) 0.0323 Uani
C6G C 0.6803(8) 0.6790(8) 0.8238(7) 0.0330 Uani
C7G C 0.6596(9) 0.7197(9) 0.8444(9) 0.1433 Uani
H3G H 0.6326 0.7337 0.8302 0.1700 Uiso
C8G C 0.6790(10) 0.7394(9) 0.8861(9) 0.1300 Uani
H4G H 0.6651 0.7666 0.8999 0.1550 Uiso
C9G C 0.7192(9) 0.7184(9) 0.9073(7) 0.0467 Uani
C10G C 0.7400(9) 0.6777(10) 0.8868(9) 0.1333 Uani
H5G H 0.7669 0.6636 0.9010 0.1590 Uiso
C11G C 0.7205(9) 0.6580(9) 0.8450(9) 0.1533 Uani
H6G H 0.7344 0.6308 0.8313 0.1810 Uiso
C12G C 0.7813(10) 0.7202(9) 0.9695(13) 2.0000 Uani
H7G H 0.7940 0.6921 0.9564 2.4000 Uiso
C13G C 0.7410(13) 0.7416(13) 0.9489(12) -0.0000 Uani
C14G C 0.7221(13) 0.7836(15) 0.9685(13) 1.3400 Uani
H8G H 0.6951 0.7979 0.9547 1.6090 Uiso
C15G C 0.7435(14) 0.8042(14) 1.0088(13) 0.7933 Uani
H9G H 0.7308 0.8323 1.0219 0.9520 Uiso
N1G N 0.7838(11) 0.7829(10) 1.0295(9) -0.0000 Uani
C16G C 0.8027(6) 0.7409(7) 1.0098(11) 1.8933 Uani
H10G H 0.8297 0.7266 1.0237 2.2720 Uiso
In1A In 0.31500(7) 0.68493(7) 0.40470(6) 0.0138 Uani
In1B In 0.31500(7) 0.31507(7) 0.59530(6) 0.0138 Uani
In1H In 0.31507(7) 0.40470(6) 0.68500(7) 0.0138 Uani
In1I In 0.68493(7) 0.40470(6) 0.31500(7) 0.0138 Uani
In1J In 0.31507(7) 0.59530(6) 0.31500(7) 0.0138 Uani
In1K In 0.68493(7) 0.59530(6) 0.68500(7) 0.0138 Uani
In1L In 0.18500(7) 0.81507(7) -0.09530(6) 0.0138 Uani
In1M In 0.81500(7) 0.18493(7) -0.09530(6) 0.0138 Uani
In1N In 0.81500(7) 0.81507(7) 1.09530(6) 0.0138 Uani
In1O In 0.18500(7) 0.18493(7) 1.09530(6) 0.0138 Uani
In1T In 0.81507(7) -0.09530(6) 0.18500(7) 0.0138 Uani
In1V In 0.81507(7) 1.09530(6) 0.81500(7) 0.0138 Uani
O1A O 0.3455(6) 0.6545(6) 0.3455(6) 0.0130 Uani
O1B O 0.3455(6) 0.3455(6) 0.6545(6) 0.0130 Uani
O2A O 0.3744(6) 0.7582(6) 0.3177(8) 0.0320 Uani
O2B O 0.3744(6) 0.2418(6) 0.6823(8) 0.0320 Uani
O2I O 0.7582(6) 0.3177(8) 0.3744(6) 0.0320 Uani
O2K O 0.7582(6) 0.6823(8) 0.6256(6) 0.0320 Uani
O4H O 0.4407(6) 0.3835(7) 0.6957(7) 0.0310 Uani
O4I O 0.5593(6) 0.3835(7) 0.3043(7) 0.0310 Uani
O4J O 0.4407(6) 0.6165(7) 0.3043(7) 0.0310 Uani
O4K O 0.5593(6) 0.6165(7) 0.6957(7) 0.0310 Uani
N1P N 0.7162(11) 0.2829(10) 0.4705(9) -0.0000 Uani
N1Q N 0.7162(11) 0.7171(10) 0.5295(9) -0.0000 Uani
N1T N 0.4705(9) 0.7162(11) 0.2829(10) -0.0000 Uani
N1U N 0.5295(9) 0.7162(11) 0.7171(10) -0.0000 Uani
N1V N 0.4705(9) 0.2838(11) 0.7171(10) -0.0000 Uani
N1W N 0.5295(9) 0.2838(11) 0.2829(10) -0.0000 Uani
loop_
_atom_site_aniso_label
_atom_site_aniso_U_11
_atom_site_aniso_U_22
_atom_site_aniso_U_33
_atom_site_aniso_U_23
_atom_site_aniso_U_13
_atom_site_aniso_U_12
In1 0.0161(11) 0.0141(11) 0.0112(11) 0.0008(9) 0.0016(10) 0.0030(11)
O1 0.013(7) 0.013(7) 0.013(7) 0.008(8) -0.008(8) -0.008(8)
O2 0.016 0.022 0.058 -0.01 -0.01 0.021
O3 0.043(13) 0.041(14) 0.004(10) -0.026(10) -0.015(10) 0.001(12)
O4 0.053 0.021 0.019 -0.017 0.019 0.004
O5 0.08(2) 0.013(11) 0.021(12) 0.001(10) -0.011(12) -0.005(12)
C1 0.017(18) 0.05(2) 0.011(17) -0.009(17) 0.019(14) 0.008(16)
C2 0.04(2) 0.007(16) 0.05(2) 0.014(16) 0.02(2) 0.006(16)
C3 0.013(17) 0.04(2) 0.001(16) -0.022(16) -0.012(12) 0.012(14)
C4 0.12(4) 0.006(18) 0.03(2) 0.007(16) 0.01(2) 0.03(2)
C5 0.13(4) 0.02(2) 0.04(3) -0.018(19) 0.01(3) 0.00(2)
C6 0.039(19) 0.032(18) 0.028(18) -0.020(17) -0.005(17) 0.029(16)
C7 0.19(6) 0.08(4) 0.16(5) -0.10(3) -0.13(4) 0.09(4)
C8 0.11(4) 0.10(4) 0.18(5) -0.10(4) -0.08(4) 0.09(3)
C9 0.06(3) 0.04(2) 0.04(2) 0.03(2) 0.00(2) 0.00(2)
C10 0.22(6) 0.09(3) 0.09(3) -0.10(3) -0.11(4) 0.09(4)
C11 0.15(5) 0.14(5) 0.17(5) -0.13(4) -0.09(4) 0.15(4)
C12 2 2 2 -1 -1 2
C13 0 0 0 -0.07 0.01 0.02
C14 2 0.02 2 -0.2 2 -0.1
C15 2 0.29 0.09 0.17 0.3 0.9
N1 0 0 0 -0.02 -0.015 0.004
C16 2 2 1.68 -0.22 2 -0.49
O4C 0.053 0.021 0.019 -0.017 -0.019 -0.004
O5C 0.08 0.013 0.021 0.001 0.011 0.005
C1C 0.017 0.05 0.011 -0.009 -0.019 -0.008
C3C 0.013 0.04 0.001 -0.022 0.012 -0.012
C4C 0.12 0.006 0.03 0.007 -0.01 -0.03
C5C 0.13 0.02 0.04 -0.018 -0.01 0
In1C 0.0161 0.0141 0.0112 0.0008 -0.0016 -0.003
O1C 0.013 0.013 0.013 0.008 0.008 0.008
O2C 0.016 0.022 0.058 -0.01 0.01 -0.021
O3C 0.043 0.041 0.004 -0.026 0.015 -0.001
C2C 0.04 0.007 0.05 0.014 -0.02 -0.006
C6C 0.039 0.032 0.028 -0.02 0.005 -0.029
C7C 0.19 0.08 0.16 -0.1 0.13 -0.09
C8C 0.11 0.1 0.18 -0.1 0.08 -0.09
C9C 0.06 0.04 0.04 0.03 0 0
C10C 0.22 0.09 0.09 -0.1 0.11 -0.09
C11C 0.15 0.14 0.17 -0.13 0.09 -0.15
C12C 2 2 2 -1 1 -2
C13C 0 0 0 -0.07 -0.01 -0.02
C14C 2 0.02 2 -0.2 -2 0.1
C15C 2 0.29 0.09 0.17 -0.3 -0.9
N1C 0 0 0 -0.02 0.015 -0.004
C16C 2 2 1.68 -0.22 -2 0.49
In1D 0.0112 0.0161 0.0141 0.003 0.0008 0.0016
O2D 0.058 0.016 0.022 0.021 -0.01 -0.01
O3D 0.004 0.043 0.041 0.001 -0.026 -0.015
O4D 0.019 0.053 0.021 0.004 -0.017 0.019
O5D 0.021 0.08 0.013 -0.005 0.001 -0.011
C1D 0.011 0.017 0.05 0.008 -0.009 0.019
C2D 0.05 0.04 0.007 0.006 0.014 0.02
C3D 0.001 0.013 0.04 0.012 -0.022 -0.012
C4D 0.03 0.12 0.006 0.03 0.007 0.01
C5D 0.04 0.13 0.02 0 -0.018 0.01
C6D 0.028 0.039 0.032 0.029 -0.02 -0.005
C7D 0.16 0.19 0.08 0.09 -0.1 -0.13
C8D 0.18 0.11 0.1 0.09 -0.1 -0.08
C9D 0.04 0.06 0.04 0 0.03 0
C10D 0.09 0.22 0.09 0.09 -0.1 -0.11
C11D 0.17 0.15 0.14 0.15 -0.13 -0.09
C12D 2 2 2 2 -1 -1
C13D 0 0 0 0.02 -0.07 0.01
C14D 2 2 0.02 -0.1 -0.2 2
C15D 0.09 2 0.29 0.9 0.17 0.3
N1D 0 0 0 0.004 -0.02 -0.015
C16D 1.68 2 2 -0.49 -0.22 2
O4G 0.019 0.053 0.021 -0.004 -0.017 -0.019
O5G 0.021 0.08 0.013 0.005 0.001 0.011
C1G 0.011 0.017 0.05 -0.008 -0.009 -0.019
C3G 0.001 0.013 0.04 -0.012 -0.022 0.012
C4G 0.03 0.12 0.006 -0.03 0.007 -0.01
C5G 0.04 0.13 0.02 0 -0.018 -0.01
In1E 0.0112 0.0161 0.0141 0.003 -0.0008 -0.0016
O2E 0.058 0.016 0.022 0.021 0.01 0.01
O3E 0.004 0.043 0.041 0.001 0.026 0.015
O4E 0.019 0.053 0.021 0.004 0.017 -0.019
O5E 0.021 0.08 0.013 -0.005 -0.001 0.011
C1E 0.011 0.017 0.05 0.008 0.009 -0.019
C2E 0.05 0.04 0.007 0.006 -0.014 -0.02
C3E 0.001 0.013 0.04 0.012 0.022 0.012
C4E 0.03 0.12 0.006 0.03 -0.007 -0.01
C5E 0.04 0.13 0.02 0 0.018 -0.01
C6E 0.028 0.039 0.032 0.029 0.02 0.005
C7E 0.16 0.19 0.08 0.09 0.1 0.13
C8E 0.18 0.11 0.1 0.09 0.1 0.08
C9E 0.04 0.06 0.04 0 -0.03 0
C10E 0.09 0.22 0.09 0.09 0.1 0.11
C11E 0.17 0.15 0.14 0.15 0.13 0.09
C12E 2 2 2 2 1 1
C13E 0 0 0 0.02 0.07 -0.01
C14E 2 2 0.02 -0.1 0.2 -2
C15E 0.09 2 0.29 0.9 -0.17 -0.3
N1E 0 0 0 0.004 0.02 0.015
C16E 1.68 2 2 -0.49 0.22 -2
O4F 0.019 0.053 0.021 -0.004 0.017 0.019
O5F 0.021 0.08 0.013 0.005 -0.001 -0.011
C1F 0.011 0.017 0.05 -0.008 0.009 0.019
C3F 0.001 0.013 0.04 -0.012 0.022 -0.012
C4F 0.03 0.12 0.006 -0.03 -0.007 0.01
C5F 0.04 0.13 0.02 0 0.018 0.01
In1F 0.0112 0.0161 0.0141 -0.003 -0.0008 0.0016
O2F 0.058 0.016 0.022 -0.021 0.01 -0.01
O3F 0.004 0.043 0.041 -0.001 0.026 -0.015
C2F 0.05 0.04 0.007 -0.006 -0.014 0.02
C6F 0.028 0.039 0.032 -0.029 0.02 -0.005
C7F 0.16 0.19 0.08 -0.09 0.1 -0.13
C8F 0.18 0.11 0.1 -0.09 0.1 -0.08
C9F 0.04 0.06 0.04 0 -0.03 0
C10F 0.09 0.22 0.09 -0.09 0.1 -0.11
C11F 0.17 0.15 0.14 -0.15 0.13 -0.09
C12F 2 2 2 -2 1 -1
C13F 0 0 0 -0.02 0.07 0.01
C14F 2 2 0.02 0.1 0.2 2
C15F 0.09 2 0.29 -0.9 -0.17 0.3
N1F 0 0 0 -0.004 0.02 -0.015
C16F 1.68 2 2 0.49 0.22 2
In1G 0.0112 0.0161 0.0141 -0.003 0.0008 -0.0016
O2G 0.058 0.016 0.022 -0.021 -0.01 0.01
O3G 0.004 0.043 0.041 -0.001 -0.026 0.015
C2G 0.05 0.04 0.007 -0.006 0.014 -0.02
C6G 0.028 0.039 0.032 -0.029 -0.02 0.005
C7G 0.16 0.19 0.08 -0.09 -0.1 0.13
C8G 0.18 0.11 0.1 -0.09 -0.1 0.08
C9G 0.04 0.06 0.04 0 0.03 0
C10G 0.09 0.22 0.09 -0.09 -0.1 0.11
C11G 0.17 0.15 0.14 -0.15 -0.13 0.09
C12G 2 2 2 -2 -1 1
C13G 0 0 0 -0.02 -0.07 -0.01
C14G 2 2 0.02 0.1 -0.2 -2
C15G 0.09 2 0.29 -0.9 0.17 -0.3
N1G 0 0 0 -0.004 -0.02 0.015
C16G 1.68 2 2 0.49 -0.22 -2
In1A 0.0161 0.0141 0.0112 -0.0008 -0.0016 0.003
In1B 0.0161 0.0141 0.0112 -0.0008 0.0016 -0.003
In1H 0.0141 0.0112 0.0161 0.0016 0.003 0.0008
In1I 0.0141 0.0112 0.0161 -0.0016 0.003 -0.0008
In1J 0.0141 0.0112 0.0161 0.0016 -0.003 -0.0008
In1K 0.0141 0.0112 0.0161 -0.0016 -0.003 0.0008
In1L 0.0161 0.0141 0.0112 0.0008 0.0016 0.003
In1M 0.0161 0.0141 0.0112 -0.0008 -0.0016 0.003
In1N 0.0161 0.0141 0.0112 -0.0008 0.0016 -0.003
In1O 0.0161 0.0141 0.0112 0.0008 -0.0016 -0.003
In1T 0.0141 0.0112 0.0161 0.0016 0.003 0.0008
In1V 0.0141 0.0112 0.0161 0.0016 -0.003 -0.0008
O1A 0.013 0.013 0.013 -0.008 0.008 -0.008
O1B 0.013 0.013 0.013 -0.008 -0.008 0.008
O2A 0.016 0.022 0.058 0.01 0.01 0.021
O2B 0.016 0.022 0.058 0.01 -0.01 -0.021
O2I 0.022 0.058 0.016 0.01 0.021 0.01
O2K 0.022 0.058 0.016 0.01 -0.021 -0.01
O4H 0.021 0.019 0.053 0.019 0.004 -0.017
O4I 0.021 0.019 0.053 -0.019 0.004 0.017
O4J 0.021 0.019 0.053 0.019 -0.004 0.017
O4K 0.021 0.019 0.053 -0.019 -0.004 -0.017
N1P 0 0 0 0.004 -0.02 -0.015
N1Q 0 0 0 0.004 0.02 0.015
N1T 0 0 0 -0.015 0.004 -0.02
N1U 0 0 0 0.015 0.004 0.02
N1V 0 0 0 -0.015 -0.004 0.02
N1W 0 0 0 0.015 -0.004 -0.02
loop_
_geom_bond_atom_site_label_1
_geom_bond_atom_site_label_2
_geom_bond_site_symmetry_1
_geom_bond_site_symmetry_2
In1 O1 1_555 1_555
O1 In1F 1_555 1_555
O2 C2 1_555 1_555
O3 In1 1_555 1_555
O4 C1 1_555 1_555
O5 In1 1_555 1_555
C1 O5 1_555 1_555
C2 O3 1_555 1_555
C3 C1 1_555 1_555
C4 C3 1_555 1_555
H1 C4 1_555 1_555
C5 C3 1_555 1_555
H2 C5 1_555 1_555
C6 C2 1_555 1_555
C7 C6 1_555 1_555
H3 C7 1_555 1_555
C8 C7 1_555 1_555
H4 C8 1_555 1_555
C9 C8 1_555 1_555
C10 C9 1_555 1_555
H5 C10 1_555 1_555
C11 C6 1_555 1_555
H6 C11 1_555 1_555
C12 H7 1_555 1_555
C13 C9 1_555 1_555
C14 C13 1_555 1_555
H8 C14 1_555 1_555
C15 C14 1_555 1_555
H9 C15 1_555 1_555
N1 C15 1_555 1_555
C16 C12 1_555 1_555
H10 C16 1_555 1_555
O4C C1C 1_555 1_555
O5C C1C 1_555 1_555
C1C C3C 1_555 1_555
C3C C4C 1_555 1_555
C4C C5 1_555 1_555
H1C C4C 1_555 1_555
C5C C4 1_555 1_555
H2C C5C 1_555 1_555
In1C O5C 1_555 1_555
O1C In1C 1_555 1_555
O2C C2C 1_555 1_555
O3C In1C 1_555 1_555
C2C O3C 1_555 1_555
C6C C2C 1_555 1_555
C7C C6C 1_555 1_555
H3C C7C 1_555 1_555
C8C C7C 1_555 1_555
H4C C8C 1_555 1_555
C9C C8C 1_555 1_555
C10C C9C 1_555 1_555
H5C C10C 1_555 1_555
C11C C6C 1_555 1_555
H6C C11C 1_555 1_555
C12C H7C 1_555 1_555
C13C C9C 1_555 1_555
C14C C13C 1_555 1_555
H8C C14C 1_555 1_555
C15C C14C 1_555 1_555
H9C C15C 1_555 1_555
N1C C15C 1_555 1_555
C16C C12C 1_555 1_555
H10C C16C 1_555 1_555
In1D O3D 1_555 1_555
O2D C2D 1_555 1_555
O3D C2D 1_555 1_555
O4D C1D 1_555 1_555
O5D In1D 1_555 1_555
C1D O5D 1_555 1_555
C2D C6D 1_555 1_555
C3D C1D 1_555 1_555
C4D C3D 1_555 1_555
H1D C4D 1_555 1_555
C5D C3D 1_555 1_555
H2D C5D 1_555 1_555
C6D C7D 1_555 1_555
C7D H3D 1_555 1_555
C8D C7D 1_555 1_555
H4D C8D 1_555 1_555
C9D C8D 1_555 1_555
C10D C9D 1_555 1_555
H5D C10D 1_555 1_555
C11D C6D 1_555 1_555
H6D C11D 1_555 1_555
C12D H7D 1_555 1_555
C13D C9D 1_555 1_555
C14D C13D 1_555 1_555
H8D C14D 1_555 1_555
C15D C14D 1_555 1_555
H9D C15D 1_555 1_555
N1D C15D 1_555 1_555
C16D C12D 1_555 1_555
H10D C16D 1_555 1_555
O4G In1C 1_555 1_555
O5G C1G 1_555 1_555
C1G O4G 1_555 1_555
C3G C1G 1_555 1_555
C4G C5D 1_555 1_555
H1G C4G 1_555 1_555
C5G C4D 1_555 1_555
H2G C5G 1_555 1_555
In1E O3E 1_555 1_555
O2E C2E 1_555 1_555
O3E C2E 1_555 1_555
O4E C1E 1_555 1_555
O5E In1E 1_555 1_555
C1E O5E 1_555 1_555
C2E C6E 1_555 1_555
C3E C1E 1_555 1_555
C4E C3E 1_555 1_555
H1E C4E 1_555 1_555
C5E C3E 1_555 1_555
H2E C5E 1_555 1_555
C6E C7E 1_555 1_555
C7E H3E 1_555 1_555
C8E C7E 1_555 1_555
H4E C8E 1_555 1_555
C9E C8E 1_555 1_555
C10E C9E 1_555 1_555
H5E C10E 1_555 1_555
C11E C6E 1_555 1_555
H6E C11E 1_555 1_555
C12E H7E 1_555 1_555
C13E C9E 1_555 1_555
C14E C13E 1_555 1_555
H8E C14E 1_555 1_555
C15E C14E 1_555 1_555
H9E C15E 1_555 1_555
N1E C15E 1_555 1_555
C16E C12E 1_555 1_555
H10E C16E 1_555 1_555
O4F In1 1_555 1_555
O5F C1F 1_555 1_555
C1F O4F 1_555 1_555
C3F C1F 1_555 1_555
C4F C5E 1_555 1_555
H1F C4F 1_555 1_555
C5F C4E 1_555 1_555
H2F C5F 1_555 1_555
In1F O2 1_555 1_555
O2F C2F 1_555 1_555
O3F In1F 1_555 1_555
C2F O3F 1_555 1_555
C6F C2F 1_555 1_555
C7F C6F 1_555 1_555
H3F C7F 1_555 1_555
C8F C7F 1_555 1_555
H4F C8F 1_555 1_555
C9F C8F 1_555 1_555
C10F C9F 1_555 1_555
H5F C10F 1_555 1_555
C11F C6F 1_555 1_555
H6F C11F 1_555 1_555
C12F H7F 1_555 1_555
C13F C9F 1_555 1_555
C14F C13F 1_555 1_555
H8F C14F 1_555 1_555
C15F C14F 1_555 1_555
H9F C15F 1_555 1_555
N1F C15F 1_555 1_555
C16F C12F 1_555 1_555
H10F C16F 1_555 1_555
In1G O1C 1_555 1_555
O2G C2G 1_555 1_555
O3G In1G 1_555 1_555
C2G O3G 1_555 1_555
C6G C2G 1_555 1_555
C7G C6G 1_555 1_555
H3G C7G 1_555 1_555
C8G C7G 1_555 1_555
H4G C8G 1_555 1_555
C9G C8G 1_555 1_555
C10G C9G 1_555 1_555
H5G C10G 1_555 1_555
C11G C6G 1_555 1_555
H6G C11G 1_555 1_555
C12G H7G 1_555 1_555
C13G C9G 1_555 1_555
C14G C13G 1_555 1_555
H8G C14G 1_555 1_555
C15G C14G 1_555 1_555
H9G C15G 1_555 1_555
N1G C15G 1_555 1_555
C16G C12G 1_555 1_555
H10G C16G 1_555 1_555
In1A O4D 1_555 1_555
In1B O4E 1_555 1_555
In1H O2E 1_555 1_555
In1I O1 1_555 1_555
In1J O2D 1_555 1_555
In1K O4C 1_555 1_555
In1L N1D 1_555 1_555
In1M N1F 1_555 1_555
In1N N1G 1_555 1_555
In1O N1E 1_555 1_555
In1T N1 1_555 1_555
In1V N1C 1_555 1_555
O1A In1D 1_555 1_555
O1B In1E 1_555 1_555
O2A In1D 1_555 1_555
O2B In1E 1_555 1_555
O2I In1 1_555 1_555
O2K In1C 1_555 1_555
O4H In1E 1_555 1_555
O4I In1F 1_555 1_555
O4J In1D 1_555 1_555
O4K In1G 1_555 1_555
N1P In1 1_555 1_555
N1Q In1C 1_555 1_555
N1T In1D 1_555 1_555
N1U In1G 1_555 1_555
N1V In1E 1_555 1_555
N1W In1F 1_555 1_555
O4 In1I 1_555 1_555
C10 C11 1_555 1_555
C12 C13 1_555 1_555
N1 C16 1_555 1_555
C3C C5C 1_555 1_555
O1C In1K 1_555 1_555
O2C In1G 1_555 1_555
C10C C11C 1_555 1_555
C12C C13C 1_555 1_555
N1C C16C 1_555 1_555
C10D C11D 1_555 1_555
C12D C13D 1_555 1_555
N1D C16D 1_555 1_555
O5G In1G 1_555 1_555
C3G C4G 1_555 1_555
C3G C5G 1_555 1_555
C10E C11E 1_555 1_555
C12E C13E 1_555 1_555
N1E C16E 1_555 1_555
O5F In1F 1_555 1_555
C3F C4F 1_555 1_555
C3F C5F 1_555 1_555
O2F In1I 1_555 1_555
C10F C11F 1_555 1_555
C12F C13F 1_555 1_555
N1F C16F 1_555 1_555
O2G In1K 1_555 1_555
C10G C11G 1_555 1_555
C12G C13G 1_555 1_555
N1G C16G 1_555 1_555
In1A O1A 1_555 1_555
In1B O1B 1_555 1_555
In1H O1B 1_555 1_555
In1J O1A 1_555 1_555

#END
