
#######################################################################
#
#                 Cambridge Crystallographic Data Centre
#                                CCDC 
#
#######################################################################
#
# If this CIF has been generated from an entry in the Cambridge 
# Structural Database, then it will include bibliographic, chemical, 
# crystal, experimental, refinement or atomic coordinate data resulting 
# from the CCDC's data processing and validation procedures.
#
#######################################################################

data_BETGUE
_chemical_formula_moiety         
'(Co1 2+)1.5n,n(C72 H48 Cl3 Co12 N96 O12 3-),9.5n(C3 H7 N1 O1),64.5n(H2 O1)'
_chemical_name_systematic        
"catena-[sesquikis(Cobalt) octakis(\m~6~-5,5',5''-benzene-1,3,5-triyltris(tetrazolato))-tris(\m~4~-chloro)-dodeca-aqua-dodeca-cobalt(ii) N,N-dimethylformamide solvate hydrate]"
_symmetry_cell_setting           cubic
_symmetry_space_group_name_H-M   'P m -3 m'
_symmetry_Int_Tables_number      221
_space_group_name_Hall           '-P 4 2 3'
loop_
_symmetry_equiv_pos_site_id
_symmetry_equiv_pos_as_xyz
1 x,y,z
2 -x,-y,z
3 -x,y,-z
4 x,-y,-z
5 z,x,y
6 z,-x,-y
7 -z,-x,y
8 -z,x,-y
9 y,z,x
10 -y,z,-x
11 y,-z,-x
12 -y,-z,x
13 y,x,-z
14 -y,-x,-z
15 y,-x,z
16 -y,x,z
17 x,z,-y
18 -x,z,y
19 -x,-z,-y
20 x,-z,y
21 z,y,-x
22 z,-y,x
23 -z,y,x
24 -z,-y,-x
25 -x,-y,-z
26 x,y,-z
27 x,-y,z
28 -x,y,z
29 -z,-x,-y
30 -z,x,y
31 z,x,-y
32 z,-x,y
33 -y,-z,-x
34 y,-z,x
35 -y,z,x
36 y,z,-x
37 -y,-x,z
38 y,x,z
39 -y,x,-z
40 y,-x,-z
41 -x,-z,y
42 x,-z,-y
43 x,z,y
44 -x,z,-y
45 -z,-y,x
46 -z,y,-x
47 z,-y,-x
48 z,y,x
_cell_length_a                   18.7976(3)
_cell_length_b                   18.7976(3)
_cell_length_c                   18.7976(3)
_cell_angle_alpha                90
_cell_angle_beta                 90
_cell_angle_gamma                90
_cell_volume                     6642.13
_exptl_crystal_colour            pink
_exptl_crystal_description       chunky
_cell_formula_units_Z            1
loop_
_atom_site_label
_atom_site_type_symbol
_atom_site_fract_x
_atom_site_fract_y
_atom_site_fract_z
Co1 Co 0.36196(3) 0.5000 0.0000
Cl1 Cl 0.5000 0.5000 0.0000
N1 N 0.36965(12) 0.41876(11) 0.07772(11)
N2 N 0.32502(13) 0.40828(12) 0.13205(12)
O1 O 0.2535(3) 0.5000 0.0000
C1 C 0.35006(16) 0.35006(16) 0.1641(2)
C2 C 0.31818(17) 0.31818(17) 0.2273(2)
C3 C 0.25746(18) 0.3477(2) 0.25746(18)
H1 H 0.2368 0.3877 0.2368
N1D N 0.07772(11) 0.36965(12) 0.41876(11)
N2D N 0.13205(12) 0.32502(13) 0.40828(12)
C1D C 0.1641(2) 0.35006(16) 0.35006(16)
C2D C 0.2273(2) 0.31818(17) 0.31818(17)
C3D C 0.25746(18) 0.25746(18) 0.3477(2)
H1D H 0.2368 0.2368 0.3877
N1H N 0.41876(11) 0.07772(11) 0.36965(12)
N2H N 0.40828(12) 0.13205(12) 0.32502(13)
C1H C 0.35006(16) 0.1641(2) 0.35006(16)
C2H C 0.31818(17) 0.2273(2) 0.31818(17)
C3H C 0.3477(2) 0.25746(18) 0.25746(18)
H1H H 0.3877 0.2368 0.2368
N1KA N 0.41876(11) 0.36965(12) 0.07772(11)
N2KA N 0.40828(12) 0.32502(13) 0.13205(12)
N1PA N 0.36965(12) 0.07772(11) 0.41876(11)
N2PA N 0.32502(13) 0.13205(12) 0.40828(12)
N1UA N 0.07772(11) 0.41876(11) 0.36965(12)
N2UA N 0.13205(12) 0.40828(12) 0.32502(13)
Co1A Co 0.63804(3) 0.5000 0.0000
N1A N 0.63035(12) 0.58124(11) 0.07772(11)
N2A N 0.67498(13) 0.59172(12) 0.13205(12)
O1A O 0.7465(3) 0.5000 0.0000
C1A C 0.64994(16) 0.64994(16) 0.1641(2)
C2A C 0.68182(17) 0.68182(17) 0.2273(2)
C3A C 0.74254(18) 0.6523(2) 0.25746(18)
H1A H 0.7632 0.6123 0.2368
N1F N 0.92228(11) 0.63035(12) 0.41876(11)
N2F N 0.86795(12) 0.67498(13) 0.40828(12)
C1F C 0.8359(2) 0.64994(16) 0.35006(16)
C2F C 0.7727(2) 0.68182(17) 0.31818(17)
C3F C 0.74254(18) 0.74254(18) 0.3477(2)
H1F H 0.7632 0.7632 0.3877
N1K N 0.58124(11) 0.92228(11) 0.36965(12)
N2K N 0.59172(12) 0.86795(12) 0.32502(13)
C1K C 0.64994(16) 0.8359(2) 0.35006(16)
C2K C 0.68182(17) 0.7727(2) 0.31818(17)
C3K C 0.6523(2) 0.74254(18) 0.25746(18)
H1K H 0.6123 0.7632 0.2368
N1JA N 0.58124(11) 0.63035(12) 0.07772(11)
N2JA N 0.59172(12) 0.67498(13) 0.13205(12)
N1NA N 0.63035(12) 0.92228(11) 0.41876(11)
N2NA N 0.67498(13) 0.86795(12) 0.40828(12)
N1RA N 0.92228(11) 0.58124(11) 0.36965(12)
N2RA N 0.86795(12) 0.59172(12) 0.32502(13)
Co1D Co 0.0000 0.36196(3) 0.5000
Cl1D Cl 0.0000 0.5000 0.5000
O1D O 0.0000 0.2535(3) 0.5000
Co1E Co 0.0000 0.63804(3) 0.5000
N1E N 0.07772(11) 0.63035(12) 0.58124(11)
N2E N 0.13205(12) 0.67498(13) 0.59172(12)
O1E O 0.0000 0.7465(3) 0.5000
C1E C 0.1641(2) 0.64994(16) 0.64994(16)
C2E C 0.2273(2) 0.68182(17) 0.68182(17)
C3E C 0.25746(18) 0.74254(18) 0.6523(2)
H1E H 0.2368 0.7632 0.6123
N1J N 0.41876(11) 0.92228(11) 0.63035(12)
N2J N 0.40828(12) 0.86795(12) 0.67498(13)
C1J C 0.35006(16) 0.8359(2) 0.64994(16)
C2J C 0.31818(17) 0.7727(2) 0.68182(17)
C3J C 0.3477(2) 0.74254(18) 0.74254(18)
H1J H 0.3877 0.7632 0.7632
N1C N 0.36965(12) 0.58124(11) 0.92228(11)
N2C N 0.32502(13) 0.59172(12) 0.86795(12)
C1C C 0.35006(16) 0.64994(16) 0.8359(2)
C2C C 0.31818(17) 0.68182(17) 0.7727(2)
C3C C 0.25746(18) 0.6523(2) 0.74254(18)
H1C H 0.2368 0.6123 0.7632
N1TA N 0.07772(11) 0.58124(11) 0.63035(12)
N2TA N 0.13205(12) 0.59172(12) 0.67498(13)
N1MA N 0.41876(11) 0.63035(12) 0.92228(11)
N2MA N 0.40828(12) 0.67498(13) 0.86795(12)
N1OA N 0.36965(12) 0.92228(11) 0.58124(11)
N2OA N 0.32502(13) 0.86795(12) 0.59172(12)
Co1E_2 Co 1.0000 0.63804(3) 0.5000
Cl1D_2 Cl 1.0000 0.5000 0.5000
O1E_2 O 1.0000 0.7465(3) 0.5000
Co1D_2 Co 1.0000 0.36196(3) 0.5000
N1G N 0.92228(11) 0.36965(12) 0.58124(11)
N2G N 0.86795(12) 0.32502(13) 0.59172(12)
O1D_2 O 1.0000 0.2535(3) 0.5000
C1G C 0.8359(2) 0.35006(16) 0.64994(16)
C2G C 0.7727(2) 0.31818(17) 0.68182(17)
C3G C 0.74254(18) 0.25746(18) 0.6523(2)
H1G H 0.7632 0.2368 0.6123
N1I N 0.58124(11) 0.07772(11) 0.63035(12)
N2I N 0.59172(12) 0.13205(12) 0.67498(13)
C1I C 0.64994(16) 0.1641(2) 0.64994(16)
C2I C 0.68182(17) 0.2273(2) 0.68182(17)
C3I C 0.6523(2) 0.25746(18) 0.74254(18)
H1I H 0.6123 0.2368 0.7632
N1B N 0.63035(12) 0.41876(11) 0.92228(11)
N2B N 0.67498(13) 0.40828(12) 0.86795(12)
C1B C 0.64994(16) 0.35006(16) 0.8359(2)
C2B C 0.68182(17) 0.31818(17) 0.7727(2)
C3B C 0.74254(18) 0.3477(2) 0.74254(18)
H1B H 0.7632 0.3877 0.7632
N1SA N 0.92228(11) 0.41876(11) 0.63035(12)
N2SA N 0.86795(12) 0.40828(12) 0.67498(13)
N1LA N 0.58124(11) 0.36965(12) 0.92228(11)
N2LA N 0.59172(12) 0.32502(13) 0.86795(12)
N1QA N 0.63035(12) 0.07772(11) 0.58124(11)
N2QA N 0.67498(13) 0.13205(12) 0.59172(12)
Co1H Co 0.5000 0.0000 0.36196(3)
O1H O 0.5000 0.0000 0.2535(3)
Co1I Co 0.5000 0.0000 0.63804(3)
O1I O 0.5000 0.0000 0.7465(3)
Co1I_2 Co 0.5000 1.0000 0.63804(3)
O1I_2 O 0.5000 1.0000 0.7465(3)
Co1H_2 Co 0.5000 1.0000 0.36196(3)
O1H_2 O 0.5000 1.0000 0.2535(3)
Co1L Co 0.5000 0.36196(3) 0.0000
N1L N 0.41876(11) 0.36965(12) -0.07772(11)
N2L N 0.40828(12) 0.32502(13) -0.13205(12)
O1L O 0.5000 0.2535(3) 0.0000
C1L C 0.35006(16) 0.35006(16) -0.1641(2)
C2L C 0.31818(17) 0.31818(17) -0.2273(2)
C3L C 0.3477(2) 0.25746(18) -0.25746(18)
H1L H 0.3877 0.2368 -0.2368
N1P N 0.36965(12) 0.07772(11) -0.41876(11)
N2P N 0.32502(13) 0.13205(12) -0.40828(12)
C1P C 0.35006(16) 0.1641(2) -0.35006(16)
C2P C 0.31818(17) 0.2273(2) -0.31818(17)
C3P C 0.25746(18) 0.25746(18) -0.3477(2)
H1P H 0.2368 0.2368 -0.3877
N1T N 0.07772(11) 0.41876(11) -0.36965(12)
N2T N 0.13205(12) 0.40828(12) -0.32502(13)
C1T C 0.1641(2) 0.35006(16) -0.35006(16)
C2T C 0.2273(2) 0.31818(17) -0.31818(17)
C3T C 0.25746(18) 0.3477(2) -0.25746(18)
H1T H 0.2368 0.3877 -0.2368
N1Y N 0.36965(12) 0.41876(11) -0.07772(11)
N2Y N 0.32502(13) 0.40828(12) -0.13205(12)
N1DA N 0.07772(11) 0.36965(12) -0.41876(11)
N2DA N 0.13205(12) 0.32502(13) -0.40828(12)
N1IA N 0.41876(11) 0.07772(11) -0.36965(12)
N2IA N 0.40828(12) 0.13205(12) -0.32502(13)
N1L_2 N 0.41876(11) 0.36965(12) 0.92228(11)
N2L_2 N 0.40828(12) 0.32502(13) 0.86795(12)
C1L_2 C 0.35006(16) 0.35006(16) 0.8359(2)
C2L_2 C 0.31818(17) 0.31818(17) 0.7727(2)
C3L_2 C 0.3477(2) 0.25746(18) 0.74254(18)
H1L_2 H 0.3877 0.2368 0.7632
N1P_2 N 0.36965(12) 0.07772(11) 0.58124(11)
N2P_2 N 0.32502(13) 0.13205(12) 0.59172(12)
C1P_2 C 0.35006(16) 0.1641(2) 0.64994(16)
C2P_2 C 0.31818(17) 0.2273(2) 0.68182(17)
C3P_2 C 0.25746(18) 0.25746(18) 0.6523(2)
H1P_2 H 0.2368 0.2368 0.6123
N1T_2 N 0.07772(11) 0.41876(11) 0.63035(12)
N2T_2 N 0.13205(12) 0.40828(12) 0.67498(13)
C1T_2 C 0.1641(2) 0.35006(16) 0.64994(16)
C2T_2 C 0.2273(2) 0.31818(17) 0.68182(17)
C3T_2 C 0.25746(18) 0.3477(2) 0.74254(18)
H1T_2 H 0.2368 0.3877 0.7632
N1Y_2 N 0.36965(12) 0.41876(11) 0.92228(11)
N2Y_2 N 0.32502(13) 0.40828(12) 0.86795(12)
N1DA_2 N 0.07772(11) 0.36965(12) 0.58124(11)
N2DA_2 N 0.13205(12) 0.32502(13) 0.59172(12)
N1IA_2 N 0.41876(11) 0.07772(11) 0.63035(12)
N2IA_2 N 0.40828(12) 0.13205(12) 0.67498(13)
Co1M Co 0.5000 0.63804(3) 0.0000
O1M O 0.5000 0.7465(3) 0.0000
N1N N 0.41876(11) -0.36965(12) 0.07772(11)
N2N N 0.40828(12) -0.32502(13) 0.13205(12)
C1N C 0.35006(16) -0.35006(16) 0.1641(2)
C2N C 0.31818(17) -0.31818(17) 0.2273(2)
C3N C 0.3477(2) -0.25746(18) 0.25746(18)
H1N H 0.3877 -0.2368 0.2368
N1S N 0.36965(12) -0.07772(11) 0.41876(11)
N2S N 0.32502(13) -0.13205(12) 0.40828(12)
C1S C 0.35006(16) -0.1641(2) 0.35006(16)
C2S C 0.31818(17) -0.2273(2) 0.31818(17)
C3S C 0.25746(18) -0.25746(18) 0.3477(2)
H1S H 0.2368 -0.2368 0.3877
N1U N 0.07772(11) -0.41876(11) 0.36965(12)
N2U N 0.13205(12) -0.40828(12) 0.32502(13)
C1U C 0.1641(2) -0.35006(16) 0.35006(16)
C2U C 0.2273(2) -0.31818(17) 0.31818(17)
C3U C 0.25746(18) -0.3477(2) 0.25746(18)
H1U H 0.2368 -0.3877 0.2368
N1Z N 0.36965(12) -0.41876(11) 0.07772(11)
N2Z N 0.32502(13) -0.40828(12) 0.13205(12)
N1EA N 0.07772(11) -0.36965(12) 0.41876(11)
N2EA N 0.13205(12) -0.32502(13) 0.40828(12)
N1GA N 0.41876(11) -0.07772(11) 0.36965(12)
N2GA N 0.40828(12) -0.13205(12) 0.32502(13)
N1N_2 N 0.41876(11) 0.63035(12) 0.07772(11)
N2N_2 N 0.40828(12) 0.67498(13) 0.13205(12)
C1N_2 C 0.35006(16) 0.64994(16) 0.1641(2)
C2N_2 C 0.31818(17) 0.68182(17) 0.2273(2)
C3N_2 C 0.3477(2) 0.74254(18) 0.25746(18)
H1N_2 H 0.3877 0.7632 0.2368
N1S_2 N 0.36965(12) 0.92228(11) 0.41876(11)
N2S_2 N 0.32502(13) 0.86795(12) 0.40828(12)
C1S_2 C 0.35006(16) 0.8359(2) 0.35006(16)
C2S_2 C 0.31818(17) 0.7727(2) 0.31818(17)
C3S_2 C 0.25746(18) 0.74254(18) 0.3477(2)
H1S_2 H 0.2368 0.7632 0.3877
N1U_2 N 0.07772(11) 0.58124(11) 0.36965(12)
N2U_2 N 0.13205(12) 0.59172(12) 0.32502(13)
C1U_2 C 0.1641(2) 0.64994(16) 0.35006(16)
C2U_2 C 0.2273(2) 0.68182(17) 0.31818(17)
C3U_2 C 0.25746(18) 0.6523(2) 0.25746(18)
H1U_2 H 0.2368 0.6123 0.2368
N1Z_2 N 0.36965(12) 0.58124(11) 0.07772(11)
N2Z_2 N 0.32502(13) 0.59172(12) 0.13205(12)
N1EA_2 N 0.07772(11) 0.63035(12) 0.41876(11)
N2EA_2 N 0.13205(12) 0.67498(13) 0.40828(12)
N1GA_2 N 0.41876(11) 0.92228(11) 0.36965(12)
N2GA_2 N 0.40828(12) 0.86795(12) 0.32502(13)
Co1_2 Co 0.36196(3) -0.5000 0.0000
Co1_3 Co 0.36196(3) 0.5000 1.0000
Co1A_2 Co 0.63804(3) 0.5000 1.0000
Co1D_3 Co 0.0000 0.36196(3) -0.5000
Co1E_3 Co 0.0000 -0.36196(3) 0.5000
Co1I_3 Co 0.5000 0.0000 -0.36196(3)
Co1L_2 Co 0.5000 0.36196(3) 1.0000
Co1M_2 Co 0.5000 -0.36196(3) 0.0000
Co1M_3 Co 0.5000 0.63804(3) 1.0000
Co1P Co 0.36196(3) 0.0000 -0.5000
Co1P_2 Co 0.36196(3) 0.0000 0.5000
Co1P_3 Co 0.36196(3) 1.0000 0.5000
Co1Q Co 0.63804(3) 0.0000 0.5000
Co1Q_2 Co 0.63804(3) 1.0000 0.5000
Co1T Co 0.0000 0.5000 -0.36196(3)
Co1T_2 Co 0.0000 0.5000 0.63804(3)
Co1T_3 Co 1.0000 0.5000 0.63804(3)
Co1U Co 0.0000 -0.5000 0.36196(3)
Co1U_2 Co 0.0000 0.5000 0.36196(3)
Co1U_3 Co 1.0000 0.5000 0.36196(3)
Cl1H Cl 0.5000 0.0000 0.5000
Cl1H_2 Cl 0.5000 1.0000 0.5000
N1B_2 N 0.63035(12) 0.41876(11) -0.07772(11)
N1C_2 N 0.36965(12) 0.58124(11) -0.07772(11)
N1D_2 N 1.07772(11) 0.36965(12) 0.41876(11)
N1E_2 N 1.07772(11) 0.63035(12) 0.58124(11)
N1F_2 N -0.07772(11) 0.63035(12) 0.41876(11)
N1G_2 N -0.07772(11) 0.36965(12) 0.58124(11)
N1H_2 N 0.41876(11) 1.07772(11) 0.36965(12)
N1I_2 N 0.58124(11) 1.07772(11) 0.63035(12)
N1J_2 N 0.41876(11) -0.07772(11) 0.63035(12)
N1K_2 N 0.58124(11) -0.07772(11) 0.36965(12)
N1M N 0.58124(11) 0.63035(12) -0.07772(11)
N1O N 0.58124(11) 0.36965(12) 0.07772(11)
N1X N 0.63035(12) 0.58124(11) -0.07772(11)
N1AA N 0.63035(12) 0.41876(11) 0.07772(11)
N1BA N -0.07772(11) 0.63035(12) 0.58124(11)
N1BA_2 N 0.92228(11) 0.63035(12) 0.58124(11)
N1CA N -0.07772(11) 0.36965(12) 0.41876(11)
N1CA_2 N 0.92228(11) 0.36965(12) 0.41876(11)
N1DA_3 N 1.07772(11) 0.36965(12) 0.58124(11)
N1EA_3 N 1.07772(11) 0.63035(12) 0.41876(11)
N1FA N 0.58124(11) -0.07772(11) 0.63035(12)
N1FA_2 N 0.58124(11) 0.92228(11) 0.63035(12)
N1HA N 0.58124(11) 0.07772(11) 0.36965(12)
N1HA_2 N 0.58124(11) 1.07772(11) 0.36965(12)
N1IA_3 N 0.41876(11) 1.07772(11) 0.63035(12)
N1LA_2 N 0.58124(11) 0.36965(12) -0.07772(11)
N1MA_2 N 0.41876(11) 0.63035(12) -0.07772(11)
Co2? Co 0.2441(3) 0.5000 0.1274(3)
loop_
_geom_bond_atom_site_label_1
_geom_bond_atom_site_label_2
_geom_bond_site_symmetry_1
_geom_bond_site_symmetry_2
Co1 Cl1 1_555 1_555
Cl1 Co1A 1_555 1_555
N1 Co1 1_555 1_555
N2 N1 1_555 1_555
O1 Co1 1_555 1_555
C1 N2 1_555 1_555
C2 C1 1_555 1_555
C3 C2 1_555 1_555
H1 C3 1_555 1_555
N1D N2D 1_555 1_555
N2D C1D 1_555 1_555
C1D C2D 1_555 1_555
C2D C3 1_555 1_555
C3D C2D 1_555 1_555
H1D C3D 1_555 1_555
N1H N2H 1_555 1_555
N2H C1H 1_555 1_555
C1H C2H 1_555 1_555
C2H C3D 1_555 1_555
C3H C2 1_555 1_555
H1H C3H 1_555 1_555
N1KA N1 1_555 1_555
N2KA C1 1_555 1_555
N1PA N1H 1_555 1_555
N2PA C1H 1_555 1_555
N1UA N1D 1_555 1_555
N2UA C1D 1_555 1_555
Co1A N1A 1_555 1_555
N1A N2A 1_555 1_555
N2A C1A 1_555 1_555
O1A Co1A 1_555 1_555
C1A C2A 1_555 1_555
C2A C3A 1_555 1_555
C3A H1A 1_555 1_555
N1F N2F 1_555 1_555
N2F C1F 1_555 1_555
C1F C2F 1_555 1_555
C2F C3A 1_555 1_555
C3F C2F 1_555 1_555
H1F C3F 1_555 1_555
N1K N2K 1_555 1_555
N2K C1K 1_555 1_555
C1K C2K 1_555 1_555
C2K C3F 1_555 1_555
C3K C2A 1_555 1_555
H1K C3K 1_555 1_555
N1JA N1A 1_555 1_555
N2JA C1A 1_555 1_555
N1NA N1K 1_555 1_555
N2NA C1K 1_555 1_555
N1RA N1F 1_555 1_555
N2RA C1F 1_555 1_555
Co1D N1D 1_555 1_555
Cl1D Co1D 1_555 1_555
O1D Co1D 1_555 1_555
Co1E Cl1D 1_555 1_555
N1E Co1E 1_555 1_555
N2E N1E 1_555 1_555
O1E Co1E 1_555 1_555
C1E N2E 1_555 1_555
C2E C1E 1_555 1_555
C3E C2E 1_555 1_555
H1E C3E 1_555 1_555
N1J N2J 1_555 1_555
N2J C1J 1_555 1_555
C1J C2J 1_555 1_555
C2J C3E 1_555 1_555
C3J C2J 1_555 1_555
H1J C3J 1_555 1_555
N1C N2C 1_555 1_555
N2C C1C 1_555 1_555
C1C C2C 1_555 1_555
C2C C3J 1_555 1_555
C3C C2E 1_555 1_555
H1C C3C 1_555 1_555
N1TA N1E 1_555 1_555
N2TA C1E 1_555 1_555
N1MA N1C 1_555 1_555
N2MA C1C 1_555 1_555
N1OA N1J 1_555 1_555
N2OA C1J 1_555 1_555
Co1E_2 N1F 1_555 1_555
Cl1D_2 Co1E_2 1_555 1_555
O1E_2 Co1E_2 1_555 1_555
Co1D_2 Cl1D_2 1_555 1_555
N1G Co1D_2 1_555 1_555
N2G N1G 1_555 1_555
O1D_2 Co1D_2 1_555 1_555
C1G N2G 1_555 1_555
C2G C1G 1_555 1_555
C3G C2G 1_555 1_555
H1G C3G 1_555 1_555
N1I N2I 1_555 1_555
N2I C1I 1_555 1_555
C1I C2I 1_555 1_555
C2I C3G 1_555 1_555
C3I C2I 1_555 1_555
H1I C3I 1_555 1_555
N1B N2B 1_555 1_555
N2B C1B 1_555 1_555
C1B C2B 1_555 1_555
C2B C3I 1_555 1_555
C3B C2G 1_555 1_555
H1B C3B 1_555 1_555
N1SA N1G 1_555 1_555
N2SA C1G 1_555 1_555
N1LA N1B 1_555 1_555
N2LA C1B 1_555 1_555
N1QA N1I 1_555 1_555
N2QA C1I 1_555 1_555
Co1H N1H 1_555 1_555
O1H Co1H 1_555 1_555
Co1I N1I 1_555 1_555
O1I Co1I 1_555 1_555
Co1I_2 N1J 1_555 1_555
O1I_2 Co1I_2 1_555 1_555
Co1H_2 N1K 1_555 1_555
O1H_2 Co1H_2 1_555 1_555
Co1L Cl1 1_555 1_555
N1L Co1L 1_555 1_555
N2L N1L 1_555 1_555
O1L Co1L 1_555 1_555
C1L N2L 1_555 1_555
C2L C1L 1_555 1_555
C3L C2L 1_555 1_555
H1L C3L 1_555 1_555
N1P N2P 1_555 1_555
N2P C1P 1_555 1_555
C1P C2P 1_555 1_555
C2P C3L 1_555 1_555
C3P C2P 1_555 1_555
H1P C3P 1_555 1_555
N1T N2T 1_555 1_555
N2T C1T 1_555 1_555
C1T C2T 1_555 1_555
C2T C3P 1_555 1_555
C3T C2L 1_555 1_555
H1T C3T 1_555 1_555
N1Y Co1 1_555 1_555
N2Y C1L 1_555 1_555
N1DA N1T 1_555 1_555
N2DA C1T 1_555 1_555
N1IA N1P 1_555 1_555
N2IA C1P 1_555 1_555
N1L_2 N2L_2 1_555 1_555
N2L_2 C1L_2 1_555 1_555
C1L_2 C2L_2 1_555 1_555
C2L_2 C3L_2 1_555 1_555
C3L_2 H1L_2 1_555 1_555
N1P_2 N2P_2 1_555 1_555
N2P_2 C1P_2 1_555 1_555
C1P_2 C2P_2 1_555 1_555
C2P_2 C3L_2 1_555 1_555
C3P_2 C2P_2 1_555 1_555
H1P_2 C3P_2 1_555 1_555
N1T_2 N2T_2 1_555 1_555
N2T_2 C1T_2 1_555 1_555
C1T_2 C2T_2 1_555 1_555
C2T_2 C3P_2 1_555 1_555
C3T_2 C2L_2 1_555 1_555
H1T_2 C3T_2 1_555 1_555
N1Y_2 N1L_2 1_555 1_555
N2Y_2 C1L_2 1_555 1_555
N1DA_2 Co1D 1_555 1_555
N2DA_2 C1T_2 1_555 1_555
N1IA_2 Co1I 1_555 1_555
N2IA_2 C1P_2 1_555 1_555
Co1M Cl1 1_555 1_555
O1M Co1M 1_555 1_555
N1N N2N 1_555 1_555
N2N C1N 1_555 1_555
C1N C2N 1_555 1_555
C2N C3N 1_555 1_555
C3N H1N 1_555 1_555
N1S N2S 1_555 1_555
N2S C1S 1_555 1_555
C1S C2S 1_555 1_555
C2S C3N 1_555 1_555
C3S C2S 1_555 1_555
H1S C3S 1_555 1_555
N1U N2U 1_555 1_555
N2U C1U 1_555 1_555
C1U C2U 1_555 1_555
C2U C3S 1_555 1_555
C3U C2N 1_555 1_555
H1U C3U 1_555 1_555
N1Z N1N 1_555 1_555
N2Z C1N 1_555 1_555
N1EA N1U 1_555 1_555
N2EA C1U 1_555 1_555
N1GA Co1H 1_555 1_555
N2GA C1S 1_555 1_555
N1N_2 Co1M 1_555 1_555
N2N_2 N1N_2 1_555 1_555
C1N_2 N2N_2 1_555 1_555
C2N_2 C1N_2 1_555 1_555
C3N_2 C2N_2 1_555 1_555
H1N_2 C3N_2 1_555 1_555
N1S_2 N2S_2 1_555 1_555
N2S_2 C1S_2 1_555 1_555
C1S_2 C2S_2 1_555 1_555
C2S_2 C3N_2 1_555 1_555
C3S_2 C2S_2 1_555 1_555
H1S_2 C3S_2 1_555 1_555
N1U_2 N2U_2 1_555 1_555
N2U_2 C1U_2 1_555 1_555
C1U_2 C2U_2 1_555 1_555
C2U_2 C3S_2 1_555 1_555
C3U_2 C2N_2 1_555 1_555
H1U_2 C3U_2 1_555 1_555
N1Z_2 Co1 1_555 1_555
N2Z_2 C1N_2 1_555 1_555
N1EA_2 Co1E 1_555 1_555
N2EA_2 C1U_2 1_555 1_555
N1GA_2 Co1H_2 1_555 1_555
N2GA_2 C1S_2 1_555 1_555
Co1_2 N1Z 1_555 1_555
Co1_3 N1C 1_555 1_555
Co1A_2 N1B 1_555 1_555
Co1D_3 N1DA 1_555 1_555
Co1E_3 N1EA 1_555 1_555
Co1I_3 N1IA 1_555 1_555
Co1L_2 N1LA 1_555 1_555
Co1M_2 N1N 1_555 1_555
Co1M_3 N1MA 1_555 1_555
Co1P N1P 1_555 1_555
Co1P_2 N1PA 1_555 1_555
Co1P_3 N1OA 1_555 1_555
Co1Q N1QA 1_555 1_555
Co1Q_2 N1NA 1_555 1_555
Co1T N1T 1_555 1_555
Co1T_2 Cl1D 1_555 1_555
Co1T_3 Cl1D_2 1_555 1_555
Co1U N1U 1_555 1_555
Co1U_2 N1UA 1_555 1_555
Co1U_3 N1RA 1_555 1_555
Cl1H Co1H 1_555 1_555
Cl1H_2 Co1I_2 1_555 1_555
N1B_2 Co1A 1_555 1_555
N1C_2 Co1 1_555 1_555
N1D_2 Co1D_2 1_555 1_555
N1E_2 Co1E_2 1_555 1_555
N1F_2 Co1E 1_555 1_555
N1G_2 Co1D 1_555 1_555
N1H_2 Co1H_2 1_555 1_555
N1I_2 Co1I_2 1_555 1_555
N1J_2 Co1I 1_555 1_555
N1K_2 Co1H 1_555 1_555
N1M Co1M 1_555 1_555
N1O Co1L 1_555 1_555
N1X Co1A 1_555 1_555
N1AA Co1A 1_555 1_555
N1BA Co1E 1_555 1_555
N1BA_2 Co1E_2 1_555 1_555
N1CA Co1D 1_555 1_555
N1CA_2 Co1D_2 1_555 1_555
N1DA_3 Co1D_2 1_555 1_555
N1EA_3 Co1E_2 1_555 1_555
N1FA Co1I 1_555 1_555
N1FA_2 Co1I_2 1_555 1_555
N1HA Co1H 1_555 1_555
N1HA_2 Co1H_2 1_555 1_555
N1IA_3 Co1I_2 1_555 1_555
N1LA_2 Co1L 1_555 1_555
N1MA_2 Co1M 1_555 1_555
C2H C3H 1_555 1_555
N1KA N2KA 1_555 1_555
N1KA Co1L 1_555 1_555
N1PA N2PA 1_555 1_555
N1UA N2UA 1_555 1_555
C2K C3K 1_555 1_555
N1JA N2JA 1_555 1_555
N1JA Co1M 1_555 1_555
N1NA N2NA 1_555 1_555
N1RA N2RA 1_555 1_555
Cl1D Co1U_2 1_555 1_555
C2C C3C 1_555 1_555
N1TA N2TA 1_555 1_555
N1TA Co1T_2 1_555 1_555
N1MA N2MA 1_555 1_555
N1OA N2OA 1_555 1_555
Cl1D_2 Co1U_3 1_555 1_555
C2B C3B 1_555 1_555
N1SA N2SA 1_555 1_555
N1SA Co1T_3 1_555 1_555
N1LA N2LA 1_555 1_555
N1QA N2QA 1_555 1_555
Co1I Cl1H 1_555 1_555
Co1H_2 Cl1H_2 1_555 1_555
N1L N1Y 1_555 1_555
C2T C3T 1_555 1_555
N1Y N2Y 1_555 1_555
N1DA N2DA 1_555 1_555
N1IA N2IA 1_555 1_555
N1L_2 Co1L_2 1_555 1_555
N1P_2 N1IA_2 1_555 1_555
N1P_2 Co1P_2 1_555 1_555
N1T_2 N1DA_2 1_555 1_555
N1T_2 Co1T_2 1_555 1_555
C2T_2 C3T_2 1_555 1_555
N1Y_2 N2Y_2 1_555 1_555
N1Y_2 Co1_3 1_555 1_555
N1DA_2 N2DA_2 1_555 1_555
N1IA_2 N2IA_2 1_555 1_555
N1S N1GA 1_555 1_555
N1S Co1P_2 1_555 1_555
C2U C3U 1_555 1_555
N1Z N2Z 1_555 1_555
N1EA N2EA 1_555 1_555
N1GA N2GA 1_555 1_555
N1N_2 N1Z_2 1_555 1_555
N1S_2 N1GA_2 1_555 1_555
N1S_2 Co1P_3 1_555 1_555
N1U_2 N1EA_2 1_555 1_555
N1U_2 Co1U_2 1_555 1_555
C2U_2 C3U_2 1_555 1_555
N1Z_2 N2Z_2 1_555 1_555
N1EA_2 N2EA_2 1_555 1_555
N1GA_2 N2GA_2 1_555 1_555
Co1P_2 Cl1H 1_555 1_555
Co1P_3 Cl1H_2 1_555 1_555
Co1Q Cl1H 1_555 1_555
Co1Q_2 Cl1H_2 1_555 1_555
N1B_2 N1LA_2 1_555 1_555
N1C_2 N1MA_2 1_555 1_555
N1M N1X 1_555 1_555
N1O N1AA 1_555 1_555

#END
