
#######################################################################
#
#                 Cambridge Crystallographic Data Centre
#                                CCDC 
#
#######################################################################
#
# If this CIF has been generated from an entry in the Cambridge 
# Structural Database, then it will include bibliographic, chemical, 
# crystal, experimental, refinement or atomic coordinate data resulting 
# from the CCDC's data processing and validation procedures.
#
#######################################################################

data_BETHEP
_chemical_formula_moiety         
'(Cd1 2+)3.12n,n(C72 H24 Cd12 Cl3 N96 3-),3.24n(Cl1 1-)'
_chemical_name_systematic        
"catena-[tris(Cadmium) octakis(\m~6~-5,5',5''-benzene-1,3,5-triyltris(tetrazolato))-tris(\m~4~-chloro)-dodeca-cadmium(ii) trichloride]"
_symmetry_cell_setting           cubic
_symmetry_space_group_name_H-M   'P m -3 m'
_symmetry_Int_Tables_number      221
_space_group_name_Hall           '-P 4 2 3'
loop_
_symmetry_equiv_pos_site_id
_symmetry_equiv_pos_as_xyz
1 x,y,z
2 -y,x,z
3 -x,-y,z
4 y,-x,z
5 x,-y,-z
6 y,x,-z
7 -x,y,-z
8 -y,-x,-z
9 z,x,y
10 -x,z,y
11 -z,-x,y
12 x,-z,y
13 z,-x,-y
14 x,z,-y
15 -z,x,-y
16 -x,-z,-y
17 y,z,x
18 -z,-y,-x
19 -z,y,x
20 z,y,-x
21 z,-y,x
22 y,-z,-x
23 -y,-z,x
24 -y,z,-x
25 -x,-y,-z
26 y,-x,-z
27 x,y,-z
28 -y,x,-z
29 -x,y,z
30 -y,-x,z
31 x,-y,z
32 y,x,z
33 -z,-x,-y
34 x,-z,-y
35 z,x,-y
36 -x,z,-y
37 -z,x,y
38 -x,-z,y
39 z,-x,y
40 x,z,y
41 -y,-z,-x
42 z,y,x
43 z,-y,-x
44 -z,-y,x
45 -z,y,-x
46 -y,z,x
47 y,z,-x
48 y,-z,x
_cell_length_a                   19.2945(2)
_cell_length_b                   19.2945(2)
_cell_length_c                   19.2945(2)
_cell_angle_alpha                90
_cell_angle_beta                 90
_cell_angle_gamma                90
_cell_volume                     7182.91
_exptl_crystal_colour            colorless
_exptl_crystal_description       chunky
_cell_formula_units_Z            1
loop_
_atom_site_label
_atom_site_type_symbol
_atom_site_fract_x
_atom_site_fract_y
_atom_site_fract_z
Cd1 Cd 0.35474(3) 0.5000 0.0000
Cl1 Cl 0.5000 0.5000 0.0000
N1 N 0.3662(2) 0.4135(2) 0.0820(2)
N2 N 0.3232(2) 0.4040(2) 0.1353(2)
C1 C 0.3475(3) 0.3475(3) 0.1678(4)
C2 C 0.3157(3) 0.3157(3) 0.2280(4)
C3 C 0.2576(3) 0.3459(4) 0.2576(3)
H1 H 0.2387 0.3859 0.2387
N1H N 0.0820(2) 0.3662(2) 0.4135(2)
N2H N 0.1353(2) 0.3232(2) 0.4040(2)
C1H C 0.1678(4) 0.3475(3) 0.3475(3)
C2H C 0.2280(4) 0.3157(3) 0.3157(3)
C3H C 0.2576(3) 0.2576(3) 0.3459(4)
H1H H 0.2387 0.2387 0.3859
N1P N 0.4135(2) 0.0820(2) 0.3662(2)
N2P N 0.4040(2) 0.1353(2) 0.3232(2)
C1P C 0.3475(3) 0.1678(4) 0.3475(3)
C2P C 0.3157(3) 0.2280(4) 0.3157(3)
C3P C 0.3459(4) 0.2576(3) 0.2576(3)
H1P H 0.3859 0.2387 0.2387
N1EA N 0.4135(2) 0.3662(2) 0.0820(2)
N2EA N 0.4040(2) 0.3232(2) 0.1353(2)
N1MA N 0.3662(2) 0.0820(2) 0.4135(2)
N2MA N 0.3232(2) 0.1353(2) 0.4040(2)
N1OA N 0.0820(2) 0.4135(2) 0.3662(2)
N2OA N 0.1353(2) 0.4040(2) 0.3232(2)
Cd1A Cd 0.5000 0.35474(3) 0.0000
N1A N 0.5865(2) 0.3662(2) 0.0820(2)
N2A N 0.5960(2) 0.3232(2) 0.1353(2)
C1A C 0.6525(3) 0.3475(3) 0.1678(4)
C2A C 0.6843(3) 0.3157(3) 0.2280(4)
C3A C 0.6541(4) 0.2576(3) 0.2576(3)
H1A H 0.6141 0.2387 0.2387
N1I N 0.6338(2) 0.0820(2) 0.4135(2)
N2I N 0.6768(2) 0.1353(2) 0.4040(2)
C1I C 0.6525(3) 0.1678(4) 0.3475(3)
C2I C 0.6843(3) 0.2280(4) 0.3157(3)
C3I C 0.7424(3) 0.2576(3) 0.3459(4)
H1I H 0.7613 0.2387 0.3859
N1R N 0.9180(2) 0.4135(2) 0.3662(2)
N2R N 0.8647(2) 0.4040(2) 0.3232(2)
C1R C 0.8322(4) 0.3475(3) 0.3475(3)
C2R C 0.7720(4) 0.3157(3) 0.3157(3)
C3R C 0.7424(3) 0.3459(4) 0.2576(3)
H1R H 0.7613 0.3859 0.2387
N1BA N 0.6338(2) 0.4135(2) 0.0820(2)
N2BA N 0.6768(2) 0.4040(2) 0.1353(2)
N1JA N 0.9180(2) 0.3662(2) 0.4135(2)
N2JA N 0.8647(2) 0.3232(2) 0.4040(2)
N1SA N 0.5865(2) 0.0820(2) 0.3662(2)
N2SA N 0.5960(2) 0.1353(2) 0.3232(2)
Cd1B Cd 0.64526(3) 0.5000 0.0000
N1B N 0.6338(2) 0.5865(2) 0.0820(2)
N2B N 0.6768(2) 0.5960(2) 0.1353(2)
C1B C 0.6525(3) 0.6525(3) 0.1678(4)
C2B C 0.6843(3) 0.6843(3) 0.2280(4)
C3B C 0.7424(3) 0.6541(4) 0.2576(3)
H1B H 0.7613 0.6141 0.2387
N1J N 0.9180(2) 0.6338(2) 0.4135(2)
N2J N 0.8647(2) 0.6768(2) 0.4040(2)
C1J C 0.8322(4) 0.6525(3) 0.3475(3)
C2J C 0.7720(4) 0.6843(3) 0.3157(3)
C3J C 0.7424(3) 0.7424(3) 0.3459(4)
H1J H 0.7613 0.7613 0.3859
N1V N 0.5865(2) 0.9180(2) 0.3662(2)
N2V N 0.5960(2) 0.8647(2) 0.3232(2)
C1V C 0.6525(3) 0.8322(4) 0.3475(3)
C2V C 0.6843(3) 0.7720(4) 0.3157(3)
C3V C 0.6541(4) 0.7424(3) 0.2576(3)
H1V H 0.6141 0.7613 0.2387
N1CA N 0.5865(2) 0.6338(2) 0.0820(2)
N2CA N 0.5960(2) 0.6768(2) 0.1353(2)
N1KA N 0.6338(2) 0.9180(2) 0.4135(2)
N2KA N 0.6768(2) 0.8647(2) 0.4040(2)
N1QA N 0.9180(2) 0.5865(2) 0.3662(2)
N2QA N 0.8647(2) 0.5960(2) 0.3232(2)
Cd1C Cd 0.5000 0.64526(3) 0.0000
N1C N 0.4135(2) 0.6338(2) 0.0820(2)
N2C N 0.4040(2) 0.6768(2) 0.1353(2)
C1C C 0.3475(3) 0.6525(3) 0.1678(4)
C2C C 0.3157(3) 0.6843(3) 0.2280(4)
C3C C 0.3459(4) 0.7424(3) 0.2576(3)
H1C H 0.3859 0.7613 0.2387
N1K N 0.3662(2) 0.9180(2) 0.4135(2)
N2K N 0.3232(2) 0.8647(2) 0.4040(2)
C1K C 0.3475(3) 0.8322(4) 0.3475(3)
C2K C 0.3157(3) 0.7720(4) 0.3157(3)
C3K C 0.2576(3) 0.7424(3) 0.3459(4)
H1K H 0.2387 0.7613 0.3859
N1T N 0.0820(2) 0.5865(2) 0.3662(2)
N2T N 0.1353(2) 0.5960(2) 0.3232(2)
C1T C 0.1678(4) 0.6525(3) 0.3475(3)
C2T C 0.2280(4) 0.6843(3) 0.3157(3)
C3T C 0.2576(3) 0.6541(4) 0.2576(3)
H1T H 0.2387 0.6141 0.2387
N1DA N 0.3662(2) 0.5865(2) 0.0820(2)
N2DA N 0.3232(2) 0.5960(2) 0.1353(2)
N1LA N 0.0820(2) 0.6338(2) 0.4135(2)
N2LA N 0.1353(2) 0.6768(2) 0.4040(2)
N1UA N 0.4135(2) 0.9180(2) 0.3662(2)
N2UA N 0.4040(2) 0.8647(2) 0.3232(2)
N1E N 0.4135(2) 0.3662(2) -0.0820(2)
N2E N 0.4040(2) 0.3232(2) -0.1353(2)
C1E C 0.3475(3) 0.3475(3) -0.1678(4)
C2E C 0.3157(3) 0.3157(3) -0.2280(4)
C3E C 0.3459(4) 0.2576(3) -0.2576(3)
H1E H 0.3859 0.2387 -0.2387
N1M N 0.3662(2) 0.0820(2) -0.4135(2)
N2M N 0.3232(2) 0.1353(2) -0.4040(2)
C1M C 0.3475(3) 0.1678(4) -0.3475(3)
C2M C 0.3157(3) 0.2280(4) -0.3157(3)
C3M C 0.2576(3) 0.2576(3) -0.3459(4)
H1M H 0.2387 0.2387 -0.3859
N1S N 0.0820(2) 0.4135(2) -0.3662(2)
N2S N 0.1353(2) 0.4040(2) -0.3232(2)
C1S C 0.1678(4) 0.3475(3) -0.3475(3)
C2S C 0.2280(4) 0.3157(3) -0.3157(3)
C3S C 0.2576(3) 0.3459(4) -0.2576(3)
H1S H 0.2387 0.3859 -0.2387
N1Z N 0.3662(2) 0.4135(2) -0.0820(2)
N2Z N 0.3232(2) 0.4040(2) -0.1353(2)
N1HA N 0.0820(2) 0.3662(2) -0.4135(2)
N2HA N 0.1353(2) 0.3232(2) -0.4040(2)
N1TA N 0.4135(2) 0.0820(2) -0.3662(2)
N2TA N 0.4040(2) 0.1353(2) -0.3232(2)
Cd1H Cd 0.0000 0.35474(3) 0.5000
Cl1H Cl 0.0000 0.5000 0.5000
Cd1I Cd 0.64526(3) 0.0000 0.5000
Cl1I Cl 0.5000 0.0000 0.5000
Cd1J Cd 1.0000 0.64526(3) 0.5000
Cd1K Cd 0.35474(3) 0.0000 0.5000
N1K_2 N 0.3662(2) -0.0820(2) 0.4135(2)
N2K_2 N 0.3232(2) -0.1353(2) 0.4040(2)
C1K_2 C 0.3475(3) -0.1678(4) 0.3475(3)
C2K_2 C 0.3157(3) -0.2280(4) 0.3157(3)
C3K_2 C 0.2576(3) -0.2576(3) 0.3459(4)
H1K_2 H 0.2387 -0.2387 0.3859
N1T_2 N 0.0820(2) -0.4135(2) 0.3662(2)
N2T_2 N 0.1353(2) -0.4040(2) 0.3232(2)
C1T_2 C 0.1678(4) -0.3475(3) 0.3475(3)
C2T_2 C 0.2280(4) -0.3157(3) 0.3157(3)
C3T_2 C 0.2576(3) -0.3459(4) 0.2576(3)
H1T_2 H 0.2387 -0.3859 0.2387
N1C_2 N 0.4135(2) -0.3662(2) 0.0820(2)
N2C_2 N 0.4040(2) -0.3232(2) 0.1353(2)
C1C_2 C 0.3475(3) -0.3475(3) 0.1678(4)
C2C_2 C 0.3157(3) -0.3157(3) 0.2280(4)
C3C_2 C 0.3459(4) -0.2576(3) 0.2576(3)
H1C_2 H 0.3859 -0.2387 0.2387
N1UA_2 N 0.4135(2) -0.0820(2) 0.3662(2)
N2UA_2 N 0.4040(2) -0.1353(2) 0.3232(2)
N1DA_2 N 0.3662(2) -0.4135(2) 0.0820(2)
N2DA_2 N 0.3232(2) -0.4040(2) 0.1353(2)
N1LA_2 N 0.0820(2) -0.3662(2) 0.4135(2)
N2LA_2 N 0.1353(2) -0.3232(2) 0.4040(2)
Cd1K_2 Cd 0.35474(3) 1.0000 0.5000
Cd1J_2 Cd 0.0000 0.64526(3) 0.5000
N1L N 0.0820(2) 0.6338(2) 0.5865(2)
N2L N 0.1353(2) 0.6768(2) 0.5960(2)
C1L C 0.1678(4) 0.6525(3) 0.6525(3)
C2L C 0.2280(4) 0.6843(3) 0.6843(3)
C3L C 0.2576(3) 0.7424(3) 0.6541(4)
H1L H 0.2387 0.7613 0.6141
N1U N 0.4135(2) 0.9180(2) 0.6338(2)
N2U N 0.4040(2) 0.8647(2) 0.6768(2)
C1U C 0.3475(3) 0.8322(4) 0.6525(3)
C2U C 0.3157(3) 0.7720(4) 0.6843(3)
C3U C 0.3459(4) 0.7424(3) 0.7424(3)
H1U H 0.3859 0.7613 0.7613
N1D N 0.3662(2) 0.5865(2) 0.9180(2)
N2D N 0.3232(2) 0.5960(2) 0.8647(2)
C1D C 0.3475(3) 0.6525(3) 0.8322(4)
C2D C 0.3157(3) 0.6843(3) 0.7720(4)
C3D C 0.2576(3) 0.6541(4) 0.7424(3)
H1D H 0.2387 0.6141 0.7613
N1PA N 0.0820(2) 0.5865(2) 0.6338(2)
N2PA N 0.1353(2) 0.5960(2) 0.6768(2)
N1Y N 0.4135(2) 0.6338(2) 0.9180(2)
N2Y N 0.4040(2) 0.6768(2) 0.8647(2)
N1GA N 0.3662(2) 0.9180(2) 0.5865(2)
N2GA N 0.3232(2) 0.8647(2) 0.5960(2)
Cd1K_3 Cd 0.35474(3) 0.0000 -0.5000
N1M_2 N 0.3662(2) 0.0820(2) 0.5865(2)
N2M_2 N 0.3232(2) 0.1353(2) 0.5960(2)
C1M_2 C 0.3475(3) 0.1678(4) 0.6525(3)
C2M_2 C 0.3157(3) 0.2280(4) 0.6843(3)
C3M_2 C 0.2576(3) 0.2576(3) 0.6541(4)
H1M_2 H 0.2387 0.2387 0.6141
N1S_2 N 0.0820(2) 0.4135(2) 0.6338(2)
N2S_2 N 0.1353(2) 0.4040(2) 0.6768(2)
C1S_2 C 0.1678(4) 0.3475(3) 0.6525(3)
C2S_2 C 0.2280(4) 0.3157(3) 0.6843(3)
C3S_2 C 0.2576(3) 0.3459(4) 0.7424(3)
H1S_2 H 0.2387 0.3859 0.7613
N1E_2 N 0.4135(2) 0.3662(2) 0.9180(2)
N2E_2 N 0.4040(2) 0.3232(2) 0.8647(2)
C1E_2 C 0.3475(3) 0.3475(3) 0.8322(4)
C2E_2 C 0.3157(3) 0.3157(3) 0.7720(4)
C3E_2 C 0.3459(4) 0.2576(3) 0.7424(3)
H1E_2 H 0.3859 0.2387 0.7613
N1TA_2 N 0.4135(2) 0.0820(2) 0.6338(2)
N2TA_2 N 0.4040(2) 0.1353(2) 0.6768(2)
N1Z_2 N 0.3662(2) 0.4135(2) 0.9180(2)
N2Z_2 N 0.3232(2) 0.4040(2) 0.8647(2)
N1HA_2 N 0.0820(2) 0.3662(2) 0.5865(2)
N2HA_2 N 0.1353(2) 0.3232(2) 0.5960(2)
Cd1R Cd 0.0000 0.5000 0.35474(3)
Cd1_2 Cd 0.35474(3) -0.5000 0.0000
Cd1_3 Cd 0.35474(3) 0.5000 1.0000
Cd1A_2 Cd 0.5000 0.35474(3) 1.0000
Cd1C_2 Cd 0.5000 -0.35474(3) 0.0000
Cd1C_3 Cd 0.5000 0.64526(3) 1.0000
Cd1H_2 Cd 0.0000 0.35474(3) -0.5000
Cd1H_3 Cd 1.0000 0.35474(3) 0.5000
Cd1I_2 Cd 0.64526(3) 1.0000 0.5000
Cd1J_3 Cd 0.0000 -0.35474(3) 0.5000
Cd1P Cd 0.5000 0.0000 0.35474(3)
Cd1P_2 Cd 0.5000 1.0000 0.35474(3)
Cd1Q Cd 0.0000 0.5000 -0.35474(3)
Cd1Q_2 Cd 0.0000 0.5000 0.64526(3)
Cd1R_2 Cd 0.0000 -0.5000 0.35474(3)
Cd1R_3 Cd 1.0000 0.5000 0.35474(3)
Cd1U Cd 0.5000 0.0000 -0.35474(3)
Cd1U_2 Cd 0.5000 0.0000 0.64526(3)
Cd1U_3 Cd 0.5000 1.0000 0.64526(3)
Cl1H_2 Cl 1.0000 0.5000 0.5000
Cl1I_2 Cl 0.5000 0.0000 -0.5000
Cl1I_3 Cl 0.5000 1.0000 0.5000
N1D_2 N 0.3662(2) 0.5865(2) -0.0820(2)
N1F N 0.6338(2) 0.4135(2) -0.0820(2)
N1G N 0.5865(2) 0.6338(2) -0.0820(2)
N1J_2 N -0.0820(2) 0.6338(2) 0.4135(2)
N1K_3 N 0.3662(2) -0.0820(2) -0.5865(2)
N1L_2 N 1.0820(2) 0.6338(2) 0.5865(2)
N1M_3 N 0.3662(2) 1.0820(2) 0.5865(2)
N1N N -0.0820(2) 0.3662(2) 0.5865(2)
N1O N 0.6338(2) -0.0820(2) 0.5865(2)
N1R_2 N -0.0820(2) 0.4135(2) 0.3662(2)
N1X N 0.6338(2) 0.5865(2) -0.0820(2)
N1Y_2 N 0.4135(2) 0.6338(2) -0.0820(2)
N1AA N 0.5865(2) 0.3662(2) -0.0820(2)
N1FA N -0.0820(2) 0.6338(2) 0.5865(2)
N1FA_2 N 0.9180(2) 0.6338(2) 0.5865(2)
N1GA_2 N 0.3662(2) -0.0820(2) -0.4135(2)
N1GA_3 N 0.3662(2) -0.0820(2) 0.5865(2)
N1IA N 0.6338(2) 0.0820(2) 0.5865(2)
N1JA_2 N -0.0820(2) 0.3662(2) 0.4135(2)
N1KA_2 N 0.6338(2) -0.0820(2) 0.4135(2)
N1LA_3 N 1.0820(2) 0.6338(2) 0.4135(2)
N1MA_2 N 0.3662(2) 0.0820(2) -0.5865(2)
N1MA_3 N 0.3662(2) 1.0820(2) 0.4135(2)
N1QA_2 N -0.0820(2) 0.5865(2) 0.3662(2)
Cd2? Cd 0.2443(5) 0.5000 0.1460(6)
Cl2? Cl 0.2293(7) 0.5000 0.0000
loop_
_geom_bond_atom_site_label_1
_geom_bond_atom_site_label_2
_geom_bond_site_symmetry_1
_geom_bond_site_symmetry_2
Cd1 Cl1 1_555 1_555
Cl1 Cd1A 1_555 1_555
N1 Cd1 1_555 1_555
N2 N1 1_555 1_555
C1 N2 1_555 1_555
C2 C1 1_555 1_555
C3 C2 1_555 1_555
H1 C3 1_555 1_555
N1H N2H 1_555 1_555
N2H C1H 1_555 1_555
C1H C2H 1_555 1_555
C2H C3 1_555 1_555
C3H C2H 1_555 1_555
H1H C3H 1_555 1_555
N1P N2P 1_555 1_555
N2P C1P 1_555 1_555
C1P C2P 1_555 1_555
C2P C3H 1_555 1_555
C3P C2 1_555 1_555
H1P C3P 1_555 1_555
N1EA N1 1_555 1_555
N2EA C1 1_555 1_555
N1MA N1P 1_555 1_555
N2MA C1P 1_555 1_555
N1OA N1H 1_555 1_555
N2OA C1H 1_555 1_555
Cd1A N1EA 1_555 1_555
N1A Cd1A 1_555 1_555
N2A N1A 1_555 1_555
C1A N2A 1_555 1_555
C2A C1A 1_555 1_555
C3A C2A 1_555 1_555
H1A C3A 1_555 1_555
N1I N2I 1_555 1_555
N2I C1I 1_555 1_555
C1I C2I 1_555 1_555
C2I C3A 1_555 1_555
C3I C2I 1_555 1_555
H1I C3I 1_555 1_555
N1R N2R 1_555 1_555
N2R C1R 1_555 1_555
C1R C2R 1_555 1_555
C2R C3I 1_555 1_555
C3R C2A 1_555 1_555
H1R C3R 1_555 1_555
N1BA N1A 1_555 1_555
N2BA C1A 1_555 1_555
N1JA N1R 1_555 1_555
N2JA C1R 1_555 1_555
N1SA N1I 1_555 1_555
N2SA C1I 1_555 1_555
Cd1B Cl1 1_555 1_555
N1B Cd1B 1_555 1_555
N2B N1B 1_555 1_555
C1B N2B 1_555 1_555
C2B C1B 1_555 1_555
C3B C2B 1_555 1_555
H1B C3B 1_555 1_555
N1J N2J 1_555 1_555
N2J C1J 1_555 1_555
C1J C2J 1_555 1_555
C2J C3B 1_555 1_555
C3J C2J 1_555 1_555
H1J C3J 1_555 1_555
N1V N2V 1_555 1_555
N2V C1V 1_555 1_555
C1V C2V 1_555 1_555
C2V C3J 1_555 1_555
C3V C2B 1_555 1_555
H1V C3V 1_555 1_555
N1CA N1B 1_555 1_555
N2CA C1B 1_555 1_555
N1KA N1V 1_555 1_555
N2KA C1V 1_555 1_555
N1QA N1J 1_555 1_555
N2QA C1J 1_555 1_555
Cd1C Cl1 1_555 1_555
N1C Cd1C 1_555 1_555
N2C N1C 1_555 1_555
C1C N2C 1_555 1_555
C2C C1C 1_555 1_555
C3C C2C 1_555 1_555
H1C C3C 1_555 1_555
N1K N2K 1_555 1_555
N2K C1K 1_555 1_555
C1K C2K 1_555 1_555
C2K C3C 1_555 1_555
C3K C2K 1_555 1_555
H1K C3K 1_555 1_555
N1T N2T 1_555 1_555
N2T C1T 1_555 1_555
C1T C2T 1_555 1_555
C2T C3K 1_555 1_555
C3T C2C 1_555 1_555
H1T C3T 1_555 1_555
N1DA Cd1 1_555 1_555
N2DA C1C 1_555 1_555
N1LA N1T 1_555 1_555
N2LA C1T 1_555 1_555
N1UA N1K 1_555 1_555
N2UA C1K 1_555 1_555
N1E Cd1A 1_555 1_555
N2E N1E 1_555 1_555
C1E N2E 1_555 1_555
C2E C1E 1_555 1_555
C3E C2E 1_555 1_555
H1E C3E 1_555 1_555
N1M N2M 1_555 1_555
N2M C1M 1_555 1_555
C1M C2M 1_555 1_555
C2M C3E 1_555 1_555
C3M C2M 1_555 1_555
H1M C3M 1_555 1_555
N1S N2S 1_555 1_555
N2S C1S 1_555 1_555
C1S C2S 1_555 1_555
C2S C3M 1_555 1_555
C3S C2E 1_555 1_555
H1S C3S 1_555 1_555
N1Z Cd1 1_555 1_555
N2Z C1E 1_555 1_555
N1HA N1S 1_555 1_555
N2HA C1S 1_555 1_555
N1TA N1M 1_555 1_555
N2TA C1M 1_555 1_555
Cd1H N1H 1_555 1_555
Cl1H Cd1H 1_555 1_555
Cd1I N1I 1_555 1_555
Cl1I Cd1I 1_555 1_555
Cd1J N1J 1_555 1_555
Cd1K N1MA 1_555 1_555
N1K_2 Cd1K 1_555 1_555
N2K_2 N1K_2 1_555 1_555
C1K_2 N2K_2 1_555 1_555
C2K_2 C1K_2 1_555 1_555
C3K_2 C2K_2 1_555 1_555
H1K_2 C3K_2 1_555 1_555
N1T_2 N2T_2 1_555 1_555
N2T_2 C1T_2 1_555 1_555
C1T_2 C2T_2 1_555 1_555
C2T_2 C3K_2 1_555 1_555
C3T_2 C2T_2 1_555 1_555
H1T_2 C3T_2 1_555 1_555
N1C_2 N2C_2 1_555 1_555
N2C_2 C1C_2 1_555 1_555
C1C_2 C2C_2 1_555 1_555
C2C_2 C3T_2 1_555 1_555
C3C_2 C2K_2 1_555 1_555
H1C_2 C3C_2 1_555 1_555
N1UA_2 N1K_2 1_555 1_555
N2UA_2 C1K_2 1_555 1_555
N1DA_2 N1C_2 1_555 1_555
N2DA_2 C1C_2 1_555 1_555
N1LA_2 N1T_2 1_555 1_555
N2LA_2 C1T_2 1_555 1_555
Cd1K_2 N1K 1_555 1_555
Cd1J_2 N1LA 1_555 1_555
N1L Cd1J_2 1_555 1_555
N2L N1L 1_555 1_555
C1L N2L 1_555 1_555
C2L C1L 1_555 1_555
C3L C2L 1_555 1_555
H1L C3L 1_555 1_555
N1U N2U 1_555 1_555
N2U C1U 1_555 1_555
C1U C2U 1_555 1_555
C2U C3L 1_555 1_555
C3U C2U 1_555 1_555
H1U C3U 1_555 1_555
N1D N2D 1_555 1_555
N2D C1D 1_555 1_555
C1D C2D 1_555 1_555
C2D C3U 1_555 1_555
C3D C2L 1_555 1_555
H1D C3D 1_555 1_555
N1PA N1L 1_555 1_555
N2PA C1L 1_555 1_555
N1Y N1D 1_555 1_555
N2Y C1D 1_555 1_555
N1GA Cd1K_2 1_555 1_555
N2GA C1U 1_555 1_555
Cd1K_3 N1M 1_555 1_555
N1M_2 Cd1K 1_555 1_555
N2M_2 N1M_2 1_555 1_555
C1M_2 N2M_2 1_555 1_555
C2M_2 C1M_2 1_555 1_555
C3M_2 C2M_2 1_555 1_555
H1M_2 C3M_2 1_555 1_555
N1S_2 N2S_2 1_555 1_555
N2S_2 C1S_2 1_555 1_555
C1S_2 C2S_2 1_555 1_555
C2S_2 C3M_2 1_555 1_555
C3S_2 C2S_2 1_555 1_555
H1S_2 C3S_2 1_555 1_555
N1E_2 N2E_2 1_555 1_555
N2E_2 C1E_2 1_555 1_555
C1E_2 C2E_2 1_555 1_555
C2E_2 C3S_2 1_555 1_555
C3E_2 C2M_2 1_555 1_555
H1E_2 C3E_2 1_555 1_555
N1TA_2 N1M_2 1_555 1_555
N2TA_2 C1M_2 1_555 1_555
N1Z_2 N1E_2 1_555 1_555
N2Z_2 C1E_2 1_555 1_555
N1HA_2 Cd1H 1_555 1_555
N2HA_2 C1S_2 1_555 1_555
Cd1R N1OA 1_555 1_555
Cd1_2 N1DA_2 1_555 1_555
Cd1_3 N1D 1_555 1_555
Cd1A_2 N1E_2 1_555 1_555
Cd1C_2 N1C_2 1_555 1_555
Cd1C_3 N1Y 1_555 1_555
Cd1H_2 N1HA 1_555 1_555
Cd1H_3 N1JA 1_555 1_555
Cd1I_2 N1KA 1_555 1_555
Cd1J_3 N1LA_2 1_555 1_555
Cd1P N1P 1_555 1_555
Cd1P_2 N1V 1_555 1_555
Cd1Q N1S 1_555 1_555
Cd1Q_2 Cl1H 1_555 1_555
Cd1R_2 N1T_2 1_555 1_555
Cd1R_3 N1R 1_555 1_555
Cd1U N1TA 1_555 1_555
Cd1U_2 Cl1I 1_555 1_555
Cd1U_3 N1U 1_555 1_555
Cl1H_2 Cd1J 1_555 1_555
Cl1I_2 Cd1K_3 1_555 1_555
Cl1I_3 Cd1K_2 1_555 1_555
N1D_2 Cd1 1_555 1_555
N1F Cd1B 1_555 1_555
N1G Cd1C 1_555 1_555
N1J_2 Cd1J_2 1_555 1_555
N1K_3 Cd1K_3 1_555 1_555
N1L_2 Cd1J 1_555 1_555
N1M_3 Cd1K_2 1_555 1_555
N1N Cd1H 1_555 1_555
N1O Cd1I 1_555 1_555
N1R_2 Cd1R 1_555 1_555
N1X Cd1B 1_555 1_555
N1Y_2 Cd1C 1_555 1_555
N1AA Cd1A 1_555 1_555
N1FA Cd1J_2 1_555 1_555
N1FA_2 Cd1J 1_555 1_555
N1GA_2 Cd1K_3 1_555 1_555
N1GA_3 Cd1K 1_555 1_555
N1IA Cd1I 1_555 1_555
N1JA_2 Cd1H 1_555 1_555
N1KA_2 Cd1I 1_555 1_555
N1LA_3 Cd1J 1_555 1_555
N1MA_2 Cd1K_3 1_555 1_555
N1MA_3 Cd1K_2 1_555 1_555
N1QA_2 Cd1R 1_555 1_555
C2P C3P 1_555 1_555
N1EA N2EA 1_555 1_555
N1MA N2MA 1_555 1_555
N1OA N2OA 1_555 1_555
C2R C3R 1_555 1_555
N1BA N2BA 1_555 1_555
N1BA Cd1B 1_555 1_555
N1JA N2JA 1_555 1_555
N1SA N2SA 1_555 1_555
N1SA Cd1P 1_555 1_555
C2V C3V 1_555 1_555
N1CA N2CA 1_555 1_555
N1CA Cd1C 1_555 1_555
N1KA N2KA 1_555 1_555
N1QA N2QA 1_555 1_555
N1QA Cd1R_3 1_555 1_555
N1C N1DA 1_555 1_555
N1T Cd1R 1_555 1_555
C2T C3T 1_555 1_555
N1DA N2DA 1_555 1_555
N1LA N2LA 1_555 1_555
N1UA N2UA 1_555 1_555
N1UA Cd1P_2 1_555 1_555
N1E N1Z 1_555 1_555
C2S C3S 1_555 1_555
N1Z N2Z 1_555 1_555
N1HA N2HA 1_555 1_555
N1TA N2TA 1_555 1_555
Cl1H Cd1J_2 1_555 1_555
Cl1H Cd1R 1_555 1_555
Cl1I Cd1K 1_555 1_555
Cl1I Cd1P 1_555 1_555
C2C_2 C3C_2 1_555 1_555
N1UA_2 N2UA_2 1_555 1_555
N1UA_2 Cd1P 1_555 1_555
N1DA_2 N2DA_2 1_555 1_555
N1LA_2 N2LA_2 1_555 1_555
N1U N1GA 1_555 1_555
C2D C3D 1_555 1_555
N1PA N2PA 1_555 1_555
N1PA Cd1Q_2 1_555 1_555
N1Y N2Y 1_555 1_555
N1GA N2GA 1_555 1_555
N1S_2 N1HA_2 1_555 1_555
N1S_2 Cd1Q_2 1_555 1_555
C2E_2 C3E_2 1_555 1_555
N1TA_2 N2TA_2 1_555 1_555
N1TA_2 Cd1U_2 1_555 1_555
N1Z_2 N2Z_2 1_555 1_555
N1Z_2 Cd1_3 1_555 1_555
N1HA_2 N2HA_2 1_555 1_555
Cd1H_3 Cl1H_2 1_555 1_555
Cd1I_2 Cl1I_3 1_555 1_555
Cd1P_2 Cl1I_3 1_555 1_555
Cd1R_3 Cl1H_2 1_555 1_555
Cd1U Cl1I_2 1_555 1_555
Cd1U_3 Cl1I_3 1_555 1_555
N1D_2 N1Y_2 1_555 1_555
N1F N1AA 1_555 1_555
N1G N1X 1_555 1_555
N1J_2 N1QA_2 1_555 1_555
N1R_2 N1JA_2 1_555 1_555

#END
