
#######################################################################
#
#                 Cambridge Crystallographic Data Centre
#                                CCDC 
#
#######################################################################
#
# If this CIF has been generated from an entry in the Cambridge 
# Structural Database, then it will include bibliographic, chemical, 
# crystal, experimental, refinement or atomic coordinate data resulting 
# from the CCDC's data processing and validation procedures.
#
#######################################################################

data_BETHIT
_chemical_formula_moiety         
'(Cd1 2+)1.5n,n(C72 H48 Cd12 Cl3 N96 O12 3-),9.5n(C3 H7 N1 O1),64.5n(H2 O1)'
_chemical_name_systematic        
"catena-[sesquikis(Cadmium) octakis(\m~6~-5,5',5''-benzene-1,3,5-triyltris(tetrazolato))-tris(\m~4~-chloro)-dodeca-aqua-dodeca-cadmium(ii) N,N-dimethylformamide solvate hydrate]"
_symmetry_cell_setting           cubic
_symmetry_space_group_name_H-M   'P m -3 m'
_symmetry_Int_Tables_number      221
_space_group_name_Hall           '-P 4 2 3'
loop_
_symmetry_equiv_pos_site_id
_symmetry_equiv_pos_as_xyz
1 x,y,z
2 -x,-y,z
3 -x,y,-z
4 x,-y,-z
5 z,x,y
6 z,-x,-y
7 -z,-x,y
8 -z,x,-y
9 y,z,x
10 -y,z,-x
11 y,-z,-x
12 -y,-z,x
13 y,x,-z
14 -y,-x,-z
15 y,-x,z
16 -y,x,z
17 x,z,-y
18 -x,z,y
19 -x,-z,-y
20 x,-z,y
21 z,y,-x
22 z,-y,x
23 -z,y,x
24 -z,-y,-x
25 -x,-y,-z
26 x,y,-z
27 x,-y,z
28 -x,y,z
29 -z,-x,-y
30 -z,x,y
31 z,x,-y
32 z,-x,y
33 -y,-z,-x
34 y,-z,x
35 -y,z,x
36 y,z,-x
37 -y,-x,z
38 y,x,z
39 -y,x,-z
40 y,-x,-z
41 -x,-z,y
42 x,-z,-y
43 x,z,y
44 -x,z,-y
45 -z,-y,x
46 -z,y,-x
47 z,-y,-x
48 z,y,x
_cell_length_a                   19.3620(3)
_cell_length_b                   19.3620(3)
_cell_length_c                   19.3620(3)
_cell_angle_alpha                90
_cell_angle_beta                 90
_cell_angle_gamma                90
_cell_volume                     7258.56
_exptl_crystal_colour            colorless
_exptl_crystal_description       chunky
_cell_formula_units_Z            1
loop_
_atom_site_label
_atom_site_type_symbol
_atom_site_fract_x
_atom_site_fract_y
_atom_site_fract_z
Cd1 Cd 0.355425(11) 0.5000 0.0000
Cl1 Cl 0.5000 0.5000 0.0000
N1 N 0.36585(7) 0.41388(7) 0.08266(7)
N2 N 0.32375(8) 0.40471(8) 0.13615(7)
O1 O 0.23894(17) 0.5000 0.0000
C1 C 0.34895(9) 0.34895(9) 0.16773(13)
C2 C 0.31849(10) 0.31849(10) 0.23034(12)
C3 C 0.25984(10) 0.34782(12) 0.25984(10)
H1 H 0.2403 0.3871 0.2403
N1D N 0.08266(7) 0.36585(7) 0.41388(7)
N2D N 0.13615(7) 0.32375(8) 0.40471(8)
C1D C 0.16773(13) 0.34895(9) 0.34895(9)
C2D C 0.23034(12) 0.31849(10) 0.31849(10)
C3D C 0.25984(10) 0.25984(10) 0.34782(12)
H1D H 0.2403 0.2403 0.3871
N1H N 0.41388(7) 0.08266(7) 0.36585(7)
N2H N 0.40471(8) 0.13615(7) 0.32375(8)
C1H C 0.34895(9) 0.16773(13) 0.34895(9)
C2H C 0.31849(10) 0.23034(12) 0.31849(10)
C3H C 0.34782(12) 0.25984(10) 0.25984(10)
H1H H 0.3871 0.2403 0.2403
N1KA N 0.41388(7) 0.36585(7) 0.08266(7)
N2KA N 0.40471(8) 0.32375(8) 0.13615(7)
N1PA N 0.36585(7) 0.08266(7) 0.41388(7)
N2PA N 0.32375(8) 0.13615(7) 0.40471(8)
N1UA N 0.08266(7) 0.41388(7) 0.36585(7)
N2UA N 0.13615(7) 0.40471(8) 0.32375(8)
Cd1A Cd 0.644575(11) 0.5000 0.0000
N1A N 0.63415(7) 0.58612(7) 0.08266(7)
N2A N 0.67625(8) 0.59529(8) 0.13615(7)
O1A O 0.76106(17) 0.5000 0.0000
C1A C 0.65105(9) 0.65105(9) 0.16773(13)
C2A C 0.68151(10) 0.68151(10) 0.23034(12)
C3A C 0.74016(10) 0.65218(12) 0.25984(10)
H1A H 0.7597 0.6129 0.2403
N1F N 0.91734(7) 0.63415(7) 0.41388(7)
N2F N 0.86385(7) 0.67625(8) 0.40471(8)
C1F C 0.83227(13) 0.65105(9) 0.34895(9)
C2F C 0.76966(12) 0.68151(10) 0.31849(10)
C3F C 0.74016(10) 0.74016(10) 0.34782(12)
H1F H 0.7597 0.7597 0.3871
N1K N 0.58612(7) 0.91734(7) 0.36585(7)
N2K N 0.59529(8) 0.86385(7) 0.32375(8)
C1K C 0.65105(9) 0.83227(13) 0.34895(9)
C2K C 0.68151(10) 0.76966(12) 0.31849(10)
C3K C 0.65218(12) 0.74016(10) 0.25984(10)
H1K H 0.6129 0.7597 0.2403
N1JA N 0.58612(7) 0.63415(7) 0.08266(7)
N2JA N 0.59529(8) 0.67625(8) 0.13615(7)
N1NA N 0.63415(7) 0.91734(7) 0.41388(7)
N2NA N 0.67625(8) 0.86385(7) 0.40471(8)
N1RA N 0.91734(7) 0.58612(7) 0.36585(7)
N2RA N 0.86385(7) 0.59529(8) 0.32375(8)
Cd1D Cd 0.0000 0.355425(11) 0.5000
Cl1D Cl 0.0000 0.5000 0.5000
O1D O 0.0000 0.23894(17) 0.5000
Cd1E Cd 0.0000 0.644575(11) 0.5000
N1E N 0.08266(7) 0.63415(7) 0.58612(7)
N2E N 0.13615(7) 0.67625(8) 0.59529(8)
O1E O 0.0000 0.76106(17) 0.5000
C1E C 0.16773(13) 0.65105(9) 0.65105(9)
C2E C 0.23034(12) 0.68151(10) 0.68151(10)
C3E C 0.25984(10) 0.74016(10) 0.65218(12)
H1E H 0.2403 0.7597 0.6129
N1J N 0.41388(7) 0.91734(7) 0.63415(7)
N2J N 0.40471(8) 0.86385(7) 0.67625(8)
C1J C 0.34895(9) 0.83227(13) 0.65105(9)
C2J C 0.31849(10) 0.76966(12) 0.68151(10)
C3J C 0.34782(12) 0.74016(10) 0.74016(10)
H1J H 0.3871 0.7597 0.7597
N1C N 0.36585(7) 0.58612(7) 0.91734(7)
N2C N 0.32375(8) 0.59529(8) 0.86385(7)
C1C C 0.34895(9) 0.65105(9) 0.83227(13)
C2C C 0.31849(10) 0.68151(10) 0.76966(12)
C3C C 0.25984(10) 0.65218(12) 0.74016(10)
H1C H 0.2403 0.6129 0.7597
N1TA N 0.08266(7) 0.58612(7) 0.63415(7)
N2TA N 0.13615(7) 0.59529(8) 0.67625(8)
N1MA N 0.41388(7) 0.63415(7) 0.91734(7)
N2MA N 0.40471(8) 0.67625(8) 0.86385(7)
N1OA N 0.36585(7) 0.91734(7) 0.58612(7)
N2OA N 0.32375(8) 0.86385(7) 0.59529(8)
Cd1E_2 Cd 1.0000 0.644575(11) 0.5000
Cl1D_2 Cl 1.0000 0.5000 0.5000
O1E_2 O 1.0000 0.76106(17) 0.5000
Cd1H Cd 0.5000 0.0000 0.355425(11)
O1H O 0.5000 0.0000 0.23894(17)
Cd1I Cd 0.5000 0.0000 0.644575(11)
N1I N 0.58612(7) 0.08266(7) 0.63415(7)
N2I N 0.59529(8) 0.13615(7) 0.67625(8)
O1I O 0.5000 0.0000 0.76106(17)
C1I C 0.65105(9) 0.16773(13) 0.65105(9)
C2I C 0.68151(10) 0.23034(12) 0.68151(10)
C3I C 0.65218(12) 0.25984(10) 0.74016(10)
H1I H 0.6129 0.2403 0.7597
N1B N 0.63415(7) 0.41388(7) 0.91734(7)
N2B N 0.67625(8) 0.40471(8) 0.86385(7)
C1B C 0.65105(9) 0.34895(9) 0.83227(13)
C2B C 0.68151(10) 0.31849(10) 0.76966(12)
C3B C 0.74016(10) 0.34782(12) 0.74016(10)
H1B H 0.7597 0.3871 0.7597
N1G N 0.91734(7) 0.36585(7) 0.58612(7)
N2G N 0.86385(7) 0.32375(8) 0.59529(8)
C1G C 0.83227(13) 0.34895(9) 0.65105(9)
C2G C 0.76966(12) 0.31849(10) 0.68151(10)
C3G C 0.74016(10) 0.25984(10) 0.65218(12)
H1G H 0.7597 0.2403 0.6129
N1QA N 0.63415(7) 0.08266(7) 0.58612(7)
N2QA N 0.67625(8) 0.13615(7) 0.59529(8)
N1SA N 0.91734(7) 0.41388(7) 0.63415(7)
N2SA N 0.86385(7) 0.40471(8) 0.67625(8)
N1LA N 0.58612(7) 0.36585(7) 0.91734(7)
N2LA N 0.59529(8) 0.32375(8) 0.86385(7)
Cd1H_2 Cd 0.5000 1.0000 0.355425(11)
O1H_2 O 0.5000 1.0000 0.23894(17)
Cd1L Cd 0.5000 0.355425(11) 0.0000
N1L N 0.41388(7) 0.36585(7) -0.08266(7)
N2L N 0.40471(8) 0.32375(8) -0.13615(7)
O1L O 0.5000 0.23894(17) 0.0000
C1L C 0.34895(9) 0.34895(9) -0.16773(13)
C2L C 0.31849(10) 0.31849(10) -0.23034(12)
C3L C 0.34782(12) 0.25984(10) -0.25984(10)
H1L H 0.3871 0.2403 -0.2403
N1P N 0.36585(7) 0.08266(7) -0.41388(7)
N2P N 0.32375(8) 0.13615(7) -0.40471(8)
C1P C 0.34895(9) 0.16773(13) -0.34895(9)
C2P C 0.31849(10) 0.23034(12) -0.31849(10)
C3P C 0.25984(10) 0.25984(10) -0.34782(12)
H1P H 0.2403 0.2403 -0.3871
N1T N 0.08266(7) 0.41388(7) -0.36585(7)
N2T N 0.13615(7) 0.40471(8) -0.32375(8)
C1T C 0.16773(13) 0.34895(9) -0.34895(9)
C2T C 0.23034(12) 0.31849(10) -0.31849(10)
C3T C 0.25984(10) 0.34782(12) -0.25984(10)
H1T H 0.2403 0.3871 -0.2403
N1Y N 0.36585(7) 0.41388(7) -0.08266(7)
N2Y N 0.32375(8) 0.40471(8) -0.13615(7)
N1DA N 0.08266(7) 0.36585(7) -0.41388(7)
N2DA N 0.13615(7) 0.32375(8) -0.40471(8)
N1IA N 0.41388(7) 0.08266(7) -0.36585(7)
N2IA N 0.40471(8) 0.13615(7) -0.32375(8)
Cd1M Cd 0.5000 0.644575(11) 0.0000
O1M O 0.5000 0.76106(17) 0.0000
N1N N 0.41388(7) 0.63415(7) 0.08266(7)
N2N N 0.40471(8) 0.67625(8) 0.13615(7)
C1N C 0.34895(9) 0.65105(9) 0.16773(13)
C2N C 0.31849(10) 0.68151(10) 0.23034(12)
C3N C 0.34782(12) 0.74016(10) 0.25984(10)
H1N H 0.3871 0.7597 0.2403
N1S N 0.36585(7) 0.91734(7) 0.41388(7)
N2S N 0.32375(8) 0.86385(7) 0.40471(8)
C1S C 0.34895(9) 0.83227(13) 0.34895(9)
C2S C 0.31849(10) 0.76966(12) 0.31849(10)
C3S C 0.25984(10) 0.74016(10) 0.34782(12)
H1S H 0.2403 0.7597 0.3871
N1U N 0.08266(7) 0.58612(7) 0.36585(7)
N2U N 0.13615(7) 0.59529(8) 0.32375(8)
C1U C 0.16773(13) 0.65105(9) 0.34895(9)
C2U C 0.23034(12) 0.68151(10) 0.31849(10)
C3U C 0.25984(10) 0.65218(12) 0.25984(10)
H1U H 0.2403 0.6129 0.2403
N1Z N 0.36585(7) 0.58612(7) 0.08266(7)
N2Z N 0.32375(8) 0.59529(8) 0.13615(7)
N1EA N 0.08266(7) 0.63415(7) 0.41388(7)
N2EA N 0.13615(7) 0.67625(8) 0.40471(8)
N1GA N 0.41388(7) 0.91734(7) 0.36585(7)
N2GA N 0.40471(8) 0.86385(7) 0.32375(8)
N1O N 0.58612(7) 0.36585(7) 0.08266(7)
N2O N 0.59529(8) 0.32375(8) 0.13615(7)
C1O C 0.65105(9) 0.34895(9) 0.16773(13)
C2O C 0.68151(10) 0.31849(10) 0.23034(12)
C3O C 0.65218(12) 0.25984(10) 0.25984(10)
H1O H 0.6129 0.2403 0.2403
N1Q N 0.63415(7) 0.08266(7) 0.41388(7)
N2Q N 0.67625(8) 0.13615(7) 0.40471(8)
C1Q C 0.65105(9) 0.16773(13) 0.34895(9)
C2Q C 0.68151(10) 0.23034(12) 0.31849(10)
C3Q C 0.74016(10) 0.25984(10) 0.34782(12)
H1Q H 0.7597 0.2403 0.3871
N1V N 0.91734(7) 0.41388(7) 0.36585(7)
N2V N 0.86385(7) 0.40471(8) 0.32375(8)
C1V C 0.83227(13) 0.34895(9) 0.34895(9)
C2V C 0.76966(12) 0.31849(10) 0.31849(10)
C3V C 0.74016(10) 0.34782(12) 0.25984(10)
H1V H 0.7597 0.3871 0.2403
N1AA N 0.63415(7) 0.41388(7) 0.08266(7)
N2AA N 0.67625(8) 0.40471(8) 0.13615(7)
N1CA N 0.91734(7) 0.36585(7) 0.41388(7)
N2CA N 0.86385(7) 0.32375(8) 0.40471(8)
N1HA N 0.58612(7) 0.08266(7) 0.36585(7)
N2HA N 0.59529(8) 0.13615(7) 0.32375(8)
Cd1P Cd 0.355425(11) 0.0000 -0.5000
O1P O 0.23894(17) 0.0000 -0.5000
Cd1P_2 Cd 0.355425(11) 0.0000 0.5000
N1P_2 N 0.36585(7) 0.08266(7) 0.58612(7)
N2P_2 N 0.32375(8) 0.13615(7) 0.59529(8)
O1P_2 O 0.23894(17) 0.0000 0.5000
C1P_2 C 0.34895(9) 0.16773(13) 0.65105(9)
C2P_2 C 0.31849(10) 0.23034(12) 0.68151(10)
C3P_2 C 0.25984(10) 0.25984(10) 0.65218(12)
H1P_2 H 0.2403 0.2403 0.6129
N1T_2 N 0.08266(7) 0.41388(7) 0.63415(7)
N2T_2 N 0.13615(7) 0.40471(8) 0.67625(8)
C1T_2 C 0.16773(13) 0.34895(9) 0.65105(9)
C2T_2 C 0.23034(12) 0.31849(10) 0.68151(10)
C3T_2 C 0.25984(10) 0.34782(12) 0.74016(10)
H1T_2 H 0.2403 0.3871 0.7597
N1L_2 N 0.41388(7) 0.36585(7) 0.91734(7)
N2L_2 N 0.40471(8) 0.32375(8) 0.86385(7)
C1L_2 C 0.34895(9) 0.34895(9) 0.83227(13)
C2L_2 C 0.31849(10) 0.31849(10) 0.76966(12)
C3L_2 C 0.34782(12) 0.25984(10) 0.74016(10)
H1L_2 H 0.3871 0.2403 0.7597
N1IA_2 N 0.41388(7) 0.08266(7) 0.63415(7)
N2IA_2 N 0.40471(8) 0.13615(7) 0.67625(8)
N1Y_2 N 0.36585(7) 0.41388(7) 0.91734(7)
N2Y_2 N 0.32375(8) 0.40471(8) 0.86385(7)
N1DA_2 N 0.08266(7) 0.36585(7) 0.58612(7)
N2DA_2 N 0.13615(7) 0.32375(8) 0.59529(8)
Cd1_2 Cd 0.355425(11) 0.5000 1.0000
Cd1A_2 Cd 0.644575(11) 0.5000 1.0000
Cd1D_2 Cd 0.0000 0.355425(11) -0.5000
Cd1D_3 Cd 1.0000 0.355425(11) 0.5000
Cd1I_2 Cd 0.5000 0.0000 -0.355425(11)
Cd1I_3 Cd 0.5000 1.0000 0.644575(11)
Cd1L_2 Cd 0.5000 0.355425(11) 1.0000
Cd1M_2 Cd 0.5000 0.644575(11) 1.0000
Cd1P_3 Cd 0.355425(11) 1.0000 0.5000
Cd1Q Cd 0.644575(11) 0.0000 0.5000
Cd1Q_2 Cd 0.644575(11) 1.0000 0.5000
Cd1T Cd 0.0000 0.5000 -0.355425(11)
Cd1T_2 Cd 0.0000 0.5000 0.644575(11)
Cd1T_3 Cd 1.0000 0.5000 0.644575(11)
Cd1U Cd 0.0000 0.5000 0.355425(11)
Cd1U_2 Cd 1.0000 0.5000 0.355425(11)
Cl1H Cl 0.5000 0.0000 -0.5000
Cl1H_2 Cl 0.5000 0.0000 0.5000
Cl1H_3 Cl 0.5000 1.0000 0.5000
N1B_2 N 0.63415(7) 0.41388(7) -0.08266(7)
N1C_2 N 0.36585(7) 0.58612(7) -0.08266(7)
N1E_2 N 1.08266(7) 0.63415(7) 0.58612(7)
N1F_2 N -0.08266(7) 0.63415(7) 0.41388(7)
N1G_2 N -0.08266(7) 0.36585(7) 0.58612(7)
N1H_2 N 0.41388(7) 1.08266(7) 0.36585(7)
N1J_2 N 0.41388(7) -0.08266(7) 0.63415(7)
N1K_2 N 0.58612(7) -0.08266(7) 0.36585(7)
N1M N 0.58612(7) 0.63415(7) -0.08266(7)
N1S_2 N 0.36585(7) -0.08266(7) -0.58612(7)
N1S_3 N 0.36585(7) -0.08266(7) 0.41388(7)
N1X N 0.63415(7) 0.58612(7) -0.08266(7)
N1BA N -0.08266(7) 0.63415(7) 0.58612(7)
N1BA_2 N 0.91734(7) 0.63415(7) 0.58612(7)
N1CA_2 N -0.08266(7) 0.36585(7) 0.41388(7)
N1EA_2 N 1.08266(7) 0.63415(7) 0.41388(7)
N1FA N 0.58612(7) -0.08266(7) 0.63415(7)
N1GA_2 N 0.41388(7) -0.08266(7) 0.36585(7)
N1HA_2 N 0.58612(7) 1.08266(7) 0.36585(7)
N1LA_2 N 0.58612(7) 0.36585(7) -0.08266(7)
N1MA_2 N 0.41388(7) 0.63415(7) -0.08266(7)
N1OA_2 N 0.36585(7) -0.08266(7) -0.41388(7)
N1OA_3 N 0.36585(7) -0.08266(7) 0.58612(7)
N1PA_2 N 0.36585(7) 0.08266(7) -0.58612(7)
loop_
_geom_bond_atom_site_label_1
_geom_bond_atom_site_label_2
_geom_bond_site_symmetry_1
_geom_bond_site_symmetry_2
Cd1 Cl1 1_555 1_555
Cl1 Cd1A 1_555 1_555
N1 Cd1 1_555 1_555
N2 N1 1_555 1_555
O1 Cd1 1_555 1_555
C1 N2 1_555 1_555
C2 C1 1_555 1_555
C3 C2 1_555 1_555
H1 C3 1_555 1_555
N1D N2D 1_555 1_555
N2D C1D 1_555 1_555
C1D C2D 1_555 1_555
C2D C3 1_555 1_555
C3D C2D 1_555 1_555
H1D C3D 1_555 1_555
N1H N2H 1_555 1_555
N2H C1H 1_555 1_555
C1H C2H 1_555 1_555
C2H C3D 1_555 1_555
C3H C2 1_555 1_555
H1H C3H 1_555 1_555
N1KA N1 1_555 1_555
N2KA C1 1_555 1_555
N1PA N1H 1_555 1_555
N2PA C1H 1_555 1_555
N1UA N1D 1_555 1_555
N2UA C1D 1_555 1_555
Cd1A N1A 1_555 1_555
N1A N2A 1_555 1_555
N2A C1A 1_555 1_555
O1A Cd1A 1_555 1_555
C1A C2A 1_555 1_555
C2A C3A 1_555 1_555
C3A H1A 1_555 1_555
N1F N2F 1_555 1_555
N2F C1F 1_555 1_555
C1F C2F 1_555 1_555
C2F C3A 1_555 1_555
C3F C2F 1_555 1_555
H1F C3F 1_555 1_555
N1K N2K 1_555 1_555
N2K C1K 1_555 1_555
C1K C2K 1_555 1_555
C2K C3F 1_555 1_555
C3K C2A 1_555 1_555
H1K C3K 1_555 1_555
N1JA N1A 1_555 1_555
N2JA C1A 1_555 1_555
N1NA N1K 1_555 1_555
N2NA C1K 1_555 1_555
N1RA N1F 1_555 1_555
N2RA C1F 1_555 1_555
Cd1D N1D 1_555 1_555
Cl1D Cd1D 1_555 1_555
O1D Cd1D 1_555 1_555
Cd1E Cl1D 1_555 1_555
N1E Cd1E 1_555 1_555
N2E N1E 1_555 1_555
O1E Cd1E 1_555 1_555
C1E N2E 1_555 1_555
C2E C1E 1_555 1_555
C3E C2E 1_555 1_555
H1E C3E 1_555 1_555
N1J N2J 1_555 1_555
N2J C1J 1_555 1_555
C1J C2J 1_555 1_555
C2J C3E 1_555 1_555
C3J C2J 1_555 1_555
H1J C3J 1_555 1_555
N1C N2C 1_555 1_555
N2C C1C 1_555 1_555
C1C C2C 1_555 1_555
C2C C3J 1_555 1_555
C3C C2E 1_555 1_555
H1C C3C 1_555 1_555
N1TA N1E 1_555 1_555
N2TA C1E 1_555 1_555
N1MA N1C 1_555 1_555
N2MA C1C 1_555 1_555
N1OA N1J 1_555 1_555
N2OA C1J 1_555 1_555
Cd1E_2 N1F 1_555 1_555
Cl1D_2 Cd1E_2 1_555 1_555
O1E_2 Cd1E_2 1_555 1_555
Cd1H N1H 1_555 1_555
O1H Cd1H 1_555 1_555
Cd1I N1I 1_555 1_555
N1I N2I 1_555 1_555
N2I C1I 1_555 1_555
O1I Cd1I 1_555 1_555
C1I C2I 1_555 1_555
C2I C3I 1_555 1_555
C3I H1I 1_555 1_555
N1B N2B 1_555 1_555
N2B C1B 1_555 1_555
C1B C2B 1_555 1_555
C2B C3I 1_555 1_555
C3B C2B 1_555 1_555
H1B C3B 1_555 1_555
N1G N2G 1_555 1_555
N2G C1G 1_555 1_555
C1G C2G 1_555 1_555
C2G C3B 1_555 1_555
C3G C2I 1_555 1_555
H1G C3G 1_555 1_555
N1QA N1I 1_555 1_555
N2QA C1I 1_555 1_555
N1SA N1G 1_555 1_555
N2SA C1G 1_555 1_555
N1LA N1B 1_555 1_555
N2LA C1B 1_555 1_555
Cd1H_2 N1K 1_555 1_555
O1H_2 Cd1H_2 1_555 1_555
Cd1L Cl1 1_555 1_555
N1L Cd1L 1_555 1_555
N2L N1L 1_555 1_555
O1L Cd1L 1_555 1_555
C1L N2L 1_555 1_555
C2L C1L 1_555 1_555
C3L C2L 1_555 1_555
H1L C3L 1_555 1_555
N1P N2P 1_555 1_555
N2P C1P 1_555 1_555
C1P C2P 1_555 1_555
C2P C3L 1_555 1_555
C3P C2P 1_555 1_555
H1P C3P 1_555 1_555
N1T N2T 1_555 1_555
N2T C1T 1_555 1_555
C1T C2T 1_555 1_555
C2T C3P 1_555 1_555
C3T C2L 1_555 1_555
H1T C3T 1_555 1_555
N1Y Cd1 1_555 1_555
N2Y C1L 1_555 1_555
N1DA N1T 1_555 1_555
N2DA C1T 1_555 1_555
N1IA N1P 1_555 1_555
N2IA C1P 1_555 1_555
Cd1M Cl1 1_555 1_555
O1M Cd1M 1_555 1_555
N1N Cd1M 1_555 1_555
N2N N1N 1_555 1_555
C1N N2N 1_555 1_555
C2N C1N 1_555 1_555
C3N C2N 1_555 1_555
H1N C3N 1_555 1_555
N1S N2S 1_555 1_555
N2S C1S 1_555 1_555
C1S C2S 1_555 1_555
C2S C3N 1_555 1_555
C3S C2S 1_555 1_555
H1S C3S 1_555 1_555
N1U N2U 1_555 1_555
N2U C1U 1_555 1_555
C1U C2U 1_555 1_555
C2U C3S 1_555 1_555
C3U C2N 1_555 1_555
H1U C3U 1_555 1_555
N1Z Cd1 1_555 1_555
N2Z C1N 1_555 1_555
N1EA Cd1E 1_555 1_555
N2EA C1U 1_555 1_555
N1GA Cd1H_2 1_555 1_555
N2GA C1S 1_555 1_555
N1O Cd1L 1_555 1_555
N2O N1O 1_555 1_555
C1O N2O 1_555 1_555
C2O C1O 1_555 1_555
C3O C2O 1_555 1_555
H1O C3O 1_555 1_555
N1Q N2Q 1_555 1_555
N2Q C1Q 1_555 1_555
C1Q C2Q 1_555 1_555
C2Q C3O 1_555 1_555
C3Q C2Q 1_555 1_555
H1Q C3Q 1_555 1_555
N1V N2V 1_555 1_555
N2V C1V 1_555 1_555
C1V C2V 1_555 1_555
C2V C3Q 1_555 1_555
C3V C2O 1_555 1_555
H1V C3V 1_555 1_555
N1AA Cd1A 1_555 1_555
N2AA C1O 1_555 1_555
N1CA N1V 1_555 1_555
N2CA C1V 1_555 1_555
N1HA Cd1H 1_555 1_555
N2HA C1Q 1_555 1_555
Cd1P N1P 1_555 1_555
O1P Cd1P 1_555 1_555
Cd1P_2 N1PA 1_555 1_555
N1P_2 Cd1P_2 1_555 1_555
N2P_2 N1P_2 1_555 1_555
O1P_2 Cd1P_2 1_555 1_555
C1P_2 N2P_2 1_555 1_555
C2P_2 C1P_2 1_555 1_555
C3P_2 C2P_2 1_555 1_555
H1P_2 C3P_2 1_555 1_555
N1T_2 N2T_2 1_555 1_555
N2T_2 C1T_2 1_555 1_555
C1T_2 C2T_2 1_555 1_555
C2T_2 C3P_2 1_555 1_555
C3T_2 C2T_2 1_555 1_555
H1T_2 C3T_2 1_555 1_555
N1L_2 N2L_2 1_555 1_555
N2L_2 C1L_2 1_555 1_555
C1L_2 C2L_2 1_555 1_555
C2L_2 C3T_2 1_555 1_555
C3L_2 C2P_2 1_555 1_555
H1L_2 C3L_2 1_555 1_555
N1IA_2 Cd1I 1_555 1_555
N2IA_2 C1P_2 1_555 1_555
N1Y_2 N1L_2 1_555 1_555
N2Y_2 C1L_2 1_555 1_555
N1DA_2 Cd1D 1_555 1_555
N2DA_2 C1T_2 1_555 1_555
Cd1_2 N1C 1_555 1_555
Cd1A_2 N1B 1_555 1_555
Cd1D_2 N1DA 1_555 1_555
Cd1D_3 Cl1D_2 1_555 1_555
Cd1I_2 N1IA 1_555 1_555
Cd1I_3 N1J 1_555 1_555
Cd1L_2 N1LA 1_555 1_555
Cd1M_2 N1MA 1_555 1_555
Cd1P_3 N1OA 1_555 1_555
Cd1Q N1QA 1_555 1_555
Cd1Q_2 N1NA 1_555 1_555
Cd1T N1T 1_555 1_555
Cd1T_2 Cl1D 1_555 1_555
Cd1T_3 Cl1D_2 1_555 1_555
Cd1U N1UA 1_555 1_555
Cd1U_2 N1RA 1_555 1_555
Cl1H Cd1P 1_555 1_555
Cl1H_2 Cd1H 1_555 1_555
Cl1H_3 Cd1H_2 1_555 1_555
N1B_2 Cd1A 1_555 1_555
N1C_2 Cd1 1_555 1_555
N1E_2 Cd1E_2 1_555 1_555
N1F_2 Cd1E 1_555 1_555
N1G_2 Cd1D 1_555 1_555
N1H_2 Cd1H_2 1_555 1_555
N1J_2 Cd1I 1_555 1_555
N1K_2 Cd1H 1_555 1_555
N1M Cd1M 1_555 1_555
N1S_2 Cd1P 1_555 1_555
N1S_3 Cd1P_2 1_555 1_555
N1X Cd1A 1_555 1_555
N1BA Cd1E 1_555 1_555
N1BA_2 Cd1E_2 1_555 1_555
N1CA_2 Cd1D 1_555 1_555
N1EA_2 Cd1E_2 1_555 1_555
N1FA Cd1I 1_555 1_555
N1GA_2 Cd1H 1_555 1_555
N1HA_2 Cd1H_2 1_555 1_555
N1LA_2 Cd1L 1_555 1_555
N1MA_2 Cd1M 1_555 1_555
N1OA_2 Cd1P 1_555 1_555
N1OA_3 Cd1P_2 1_555 1_555
N1PA_2 Cd1P 1_555 1_555
C2H C3H 1_555 1_555
N1KA N2KA 1_555 1_555
N1KA Cd1L 1_555 1_555
N1PA N2PA 1_555 1_555
N1UA N2UA 1_555 1_555
C2K C3K 1_555 1_555
N1JA N2JA 1_555 1_555
N1JA Cd1M 1_555 1_555
N1NA N2NA 1_555 1_555
N1RA N2RA 1_555 1_555
Cl1D Cd1U 1_555 1_555
C2C C3C 1_555 1_555
N1TA N2TA 1_555 1_555
N1TA Cd1T_2 1_555 1_555
N1MA N2MA 1_555 1_555
N1OA N2OA 1_555 1_555
Cl1D_2 Cd1U_2 1_555 1_555
Cd1I Cl1H_2 1_555 1_555
N1G Cd1D_3 1_555 1_555
C2G C3G 1_555 1_555
N1QA N2QA 1_555 1_555
N1SA N2SA 1_555 1_555
N1SA Cd1T_3 1_555 1_555
N1LA N2LA 1_555 1_555
N1L N1Y 1_555 1_555
C2T C3T 1_555 1_555
N1Y N2Y 1_555 1_555
N1DA N2DA 1_555 1_555
N1IA N2IA 1_555 1_555
N1N N1Z 1_555 1_555
N1S N1GA 1_555 1_555
N1S Cd1P_3 1_555 1_555
N1U N1EA 1_555 1_555
N1U Cd1U 1_555 1_555
C2U C3U 1_555 1_555
N1Z N2Z 1_555 1_555
N1EA N2EA 1_555 1_555
N1GA N2GA 1_555 1_555
N1O N1AA 1_555 1_555
N1Q N1HA 1_555 1_555
N1Q Cd1Q 1_555 1_555
N1V Cd1U_2 1_555 1_555
C2V C3V 1_555 1_555
N1AA N2AA 1_555 1_555
N1CA N2CA 1_555 1_555
N1CA Cd1D_3 1_555 1_555
N1HA N2HA 1_555 1_555
Cd1P_2 Cl1H_2 1_555 1_555
N1P_2 N1IA_2 1_555 1_555
N1T_2 N1DA_2 1_555 1_555
N1T_2 Cd1T_2 1_555 1_555
N1L_2 Cd1L_2 1_555 1_555
C2L_2 C3L_2 1_555 1_555
N1IA_2 N2IA_2 1_555 1_555
N1Y_2 N2Y_2 1_555 1_555
N1Y_2 Cd1_2 1_555 1_555
N1DA_2 N2DA_2 1_555 1_555
Cd1I_2 Cl1H 1_555 1_555
Cd1I_3 Cl1H_3 1_555 1_555
Cd1P_3 Cl1H_3 1_555 1_555
Cd1Q Cl1H_2 1_555 1_555
Cd1Q_2 Cl1H_3 1_555 1_555
N1B_2 N1LA_2 1_555 1_555
N1C_2 N1MA_2 1_555 1_555
N1J_2 N1OA_3 1_555 1_555
N1M N1X 1_555 1_555
N1S_3 N1GA_2 1_555 1_555

#END
