
#######################################################################
#
#                 Cambridge Crystallographic Data Centre
#                                CCDC 
#
#######################################################################
#
# If this CIF has been generated from an entry in the Cambridge 
# Structural Database, then it will include bibliographic, chemical, 
# crystal, experimental, refinement or atomic coordinate data resulting 
# from the CCDC's data processing and validation procedures.
#
#######################################################################

data_DUBXOP
_chemical_formula_moiety         '(C8 H7 N1 O5 Sr1)n'
_chemical_name_systematic        
catena-[(\m-2-aminoterephthalato)-(\m-aqua)-strontium(ii)]
_symmetry_cell_setting           orthorhombic
_symmetry_space_group_name_H-M   'P n m a'
_symmetry_Int_Tables_number      62
_space_group_name_Hall           '-P 2ac 2n'
loop_
_symmetry_equiv_pos_site_id
_symmetry_equiv_pos_as_xyz
1 x,y,z
2 1/2-x,-y,1/2+z
3 -x,1/2+y,-z
4 1/2+x,1/2-y,1/2-z
5 -x,-y,-z
6 1/2+x,y,1/2-z
7 x,1/2-y,z
8 1/2-x,1/2+y,1/2+z
_cell_length_a                   7.3753(4)
_cell_length_b                   18.1716(10)
_cell_length_c                   10.0338(6)
_cell_angle_alpha                90
_cell_angle_beta                 90
_cell_angle_gamma                90
_cell_volume                     1344.74
_exptl_crystal_colour            colorless
_exptl_crystal_description       block
_cell_formula_units_Z            4
loop_
_atom_site_label
_atom_site_type_symbol
_atom_site_fract_x
_atom_site_fract_y
_atom_site_fract_z
Sr1 Sr 0.07409(8) 0.2500 0.20093(6)
O1 O 0.3653(7) 0.3342(3) 0.1803(5)
O2 O 0.1431(8) 0.3588(3) 0.0444(6)
C1 C 0.2986(8) 0.3728(3) 0.0895(6)
C2 C 0.4016(8) 0.4391(3) 0.0439(6)
C3 C 0.3297(11) 0.4865(5) -0.0533(9)
C4 C 0.5641(9) 0.4542(5) 0.0952(10)
H1 H 0.6099 0.4232 0.1635
N1 N 0.146(3) 0.4786(16) -0.105(3)
H2 H 0.1030 0.5110 -0.1617
H3 H 0.0782 0.4414 -0.0790
O3 O -0.2387(9) 0.2500 0.0729(6)
O1D O 0.6347(7) 0.6658(3) -0.1803(5)
O2D O 0.8569(8) 0.6412(3) -0.0444(6)
C1D C 0.7014(8) 0.6272(3) -0.0895(6)
C2D C 0.5984(8) 0.5609(3) -0.0439(6)
C3D C 0.6703(11) 0.5135(5) 0.0533(9)
C4D C 0.4359(9) 0.5458(5) -0.0952(10)
H1D H 0.3901 0.5768 -0.1635
N1D N 0.854(3) 0.5214(16) 0.105(3)
H2D H 0.8970 0.4890 0.1617
H3D H 0.9218 0.5586 0.0790
Sr1A Sr 0.42591(8) 0.7500 -0.29907(6)
Sr1B Sr 0.92591(8) 0.7500 -0.20093(6)
Sr1C Sr -0.42591(8) 0.2500 0.29907(6)
Sr1C_2 Sr 0.57409(8) 0.2500 0.29907(6)
O1C O -0.1347(7) 0.1658(3) 0.3197(5)
O1E O -0.1347(7) 0.3342(3) 0.3197(5)
O1F O 0.3653(7) 0.1658(3) 0.1803(5)
O2F O 0.1431(8) 0.1412(3) 0.0444(6)
O3C O 0.2613(9) 0.2500 0.4271(6)
loop_
_geom_bond_atom_site_label_1
_geom_bond_atom_site_label_2
_geom_bond_site_symmetry_1
_geom_bond_site_symmetry_2
Sr1 O1 1_555 1_555
O1 C1 1_555 1_555
O2 Sr1 1_555 1_555
C1 O2 1_555 1_555
C2 C1 1_555 1_555
C3 C2 1_555 1_555
C4 C2 1_555 1_555
H1 C4 1_555 1_555
N1 C3 1_555 1_555
H2 N1 1_555 1_555
H3 N1 1_555 1_555
O3 Sr1 1_555 1_555
O1D C1D 1_555 1_555
O2D C1D 1_555 1_555
C1D C2D 1_555 1_555
C2D C3D 1_555 1_555
C3D C4 1_555 1_555
C4D C3 1_555 1_555
H1D C4D 1_555 1_555
N1D C3D 1_555 1_555
H2D N1D 1_555 1_555
H3D N1D 1_555 1_555
Sr1A O1D 1_555 1_555
Sr1B O1D 1_555 1_555
Sr1C O3 1_555 1_555
Sr1C_2 O1 1_555 1_555
O1C Sr1 1_555 1_555
O1E Sr1 1_555 1_555
O1F Sr1 1_555 1_555
O2F Sr1 1_555 1_555
O3C Sr1 1_555 1_555
O2D Sr1B 1_555 1_555
C2D C4D 1_555 1_555
Sr1C O1C 1_555 1_555
Sr1C O1E 1_555 1_555
Sr1C_2 O1F 1_555 1_555
Sr1C_2 O3C 1_555 1_555

#END
