
#######################################################################
#
#                 Cambridge Crystallographic Data Centre
#                                CCDC 
#
#######################################################################
#
# If this CIF has been generated from an entry in the Cambridge 
# Structural Database, then it will include bibliographic, chemical, 
# crystal, experimental, refinement or atomic coordinate data resulting 
# from the CCDC's data processing and validation procedures.
#
#######################################################################

data_MUDKOM
_chemical_formula_moiety         '(C6 H6 N8 O4 Zn2)n,0.5n(H2 O1)'
_chemical_name_systematic        
'catena-(bis(\m~3~-3-amino-1,2,4-triazolato)-(\m~2~-oxalato)-di-zinc hemihydrate)'
_symmetry_cell_setting           orthorhombic
_symmetry_space_group_name_H-M   'P b c a'
_symmetry_Int_Tables_number      61
_space_group_name_Hall           '-P 2ac 2ab'
loop_
_symmetry_equiv_pos_site_id
_symmetry_equiv_pos_as_xyz
1 x,y,z
2 1/2-x,-y,1/2+z
3 -x,1/2+y,1/2-z
4 1/2+x,1/2-y,-z
5 -x,-y,-z
6 1/2+x,y,1/2-z
7 x,1/2-y,1/2+z
8 1/2-x,1/2+y,z
_cell_length_a                   13.838(3)
_cell_length_b                   12.784(3)
_cell_length_c                   16.885(3)
_cell_angle_alpha                90
_cell_angle_beta                 90
_cell_angle_gamma                90
_cell_volume                     2987.04
_exptl_crystal_colour            colorless
_exptl_crystal_description       cube
_cell_formula_units_Z            8
loop_
_atom_site_label
_atom_site_type_symbol
_atom_site_fract_x
_atom_site_fract_y
_atom_site_fract_z
_atom_site_U_iso_or_equiv
_atom_site_thermal_displace_type
Zn1 Zn 0.59354(4) -0.02398(5) 0.92413(3) 0.0235 Uani
Zn2 Zn 0.47753(4) 0.43198(5) 0.90213(3) 0.0230 Uani
C1 C 0.5896(4) -0.0218(6) 0.7546(4) 0.0387 Uani
C2 C 0.4938(4) -0.0742(5) 0.7779(3) 0.0310 Uani
C3 C 0.5481(4) 0.2053(5) 0.9124(3) 0.0300 Uani
C4 C 0.4178(4) 0.2247(5) 0.9766(3) 0.0313 Uani
C5 C 0.7799(4) 0.0214(5) 1.0222(3) 0.0280 Uani
C6 C 0.8120(4) -0.0243(5) 0.9054(3) 0.0317 Uani
H1 H 0.8052 -0.0448 0.8528 0.0380 Uiso
N1 N 0.4789(4) 0.2771(4) 0.9274(3) 0.0303 Uani
N2 N 0.5326(3) 0.1156(4) 0.9491(3) 0.0263 Uani
N3 N 0.4473(3) 0.1282(4) 0.9906(3) 0.0270 Uani
N4 N 0.6278(5) 0.2250(5) 0.8655(4) 0.0433 Uani
H2 H 0.6710 0.1774 0.8588 0.0520 Uiso
H3 H 0.6343 0.2849 0.8429 0.0520 Uiso
N5 N 0.8959(3) -0.0113(4) 0.9398(2) 0.0243 Uani
N6 N 0.8756(3) 0.0180(4) 1.0176(2) 0.0257 Uani
N7 N 0.7370(3) -0.0053(4) 0.9534(3) 0.0257 Uani
N8 N 0.7298(4) 0.0517(6) 1.0873(3) 0.0600 Uani
H4 H 0.7602 0.0706 1.1294 0.0720 Uiso
H5 H 0.6677 0.0522 1.0865 0.0720 Uiso
O1 O 0.6438(3) 0.0071(4) 0.8094(2) 0.0465 Uani
O2 O 0.4784(3) -0.0838(4) 0.8503(2) 0.0394 Uani
O3 O 0.6063(3) -0.0080(5) 0.6823(2) 0.0510 Uani
O4 O 0.4416(3) -0.1027(4) 0.7209(2) 0.0407 Uani
Zn1D Zn 0.40646(4) 0.02398(5) 1.07587(3) 0.0235 Uani
Zn2G Zn 1.02247(4) -0.06802(5) 0.90213(3) 0.0230 Uani
Zn2C Zn 0.97753(4) 0.06802(5) 1.09787(3) 0.0230 Uani
Zn2B Zn 0.52247(4) -0.06802(5) 0.59787(3) 0.0230 Uani
N3D N 0.5527(3) -0.1282(4) 1.0094(3) 0.0270 Uani
N5G N 0.6041(3) 0.4887(4) 0.9398(2) 0.0243 Uani
N6C N 0.3756(3) 0.4820(4) 0.9824(2) 0.0257 Uani
O3B O 0.3937(3) 0.4920(5) 0.8177(2) 0.0510 Uani
O4B O 0.5584(3) 0.3973(4) 0.7791(2) 0.0407 Uani
O5 O 0.833(2) 0.769(2) 0.1449(19) 0.1000 Uiso
O6 O 0.674(3) 0.732(4) 0.249(3) 0.1600 Uiso
H6? H 0.2922 0.2097 1.0297 0.0650 Uiso
H7? H 0.3063 0.3163 0.9960 0.0650 Uiso
N9? N 0.327(3) 0.254(3) 1.004(2) 0.0540 Uiso
loop_
_atom_site_aniso_label
_atom_site_aniso_U_11
_atom_site_aniso_U_22
_atom_site_aniso_U_33
_atom_site_aniso_U_23
_atom_site_aniso_U_13
_atom_site_aniso_U_12
Zn1 0.0157(3) 0.0386(4) 0.0162(3) 0.0005(3) -0.0008(2) -0.0014(3)
Zn2 0.0165 0.0347 0.0177 -0.0021 -0.0011 0.0007
C1 0.017(3) 0.074(5) 0.025(3) -0.009(3) -0.005(2) 0.006(3)
C2 0.026(3) 0.046(4) 0.021(3) 0.002(2) -0.007(2) 0.005(3)
C3 0.029(3) 0.028(3) 0.033(3) 0.000(2) 0.000(2) -0.003(3)
C4 0.031(3) 0.039(3) 0.024(3) 0.001(2) 0.003(2) 0.005(3)
C5 0.021 0.048 0.015 -0.004 -0.002 -0.002
C6 0.019 0.058 0.018 -0.007 -0.003 0.003
N1 0.032(3) 0.034(3) 0.025(2) 0.000(2) 0.001(2) 0.002(2)
N2 0.024(2) 0.029(2) 0.026(2) 0.002(2) 0.0028(19) 0.001(2)
N3 0.022(2) 0.037(3) 0.022(2) 0.001(2) 0.0021(18) 0.003(2)
N4 0.030(3) 0.033(4) 0.067(5) 0.011(3) 0.027(3) 0.007(3)
N5 0.016 0.041 0.016 -0.0029 0.0018 -0.001
N6 0.019 0.043 0.015 -0.0017 0.0004 0.002
N7 0.016 0.042 0.019 -0.002 -0.0019 0
N8 0.015 0.138 0.027 -0.028 -0.002 0.005
O1 0.027(2) 0.095(4) 0.0176(19) -0.004(2) -0.0008(17) -0.001(2)
O2 0.035(2) 0.061(3) 0.0222(19) -0.0008(19) -0.0066(18) -0.009(2)
O3 0.030(2) 0.107(4) 0.016(2) -0.007(2) -0.0006(17) -0.010(3)
O4 0.037(2) 0.060(3) 0.025(2) -0.004(2) -0.0125(18) -0.004(2)
Zn1D 0.0157 0.0386 0.0162 0.0005 -0.0008 -0.0014
Zn2G 0.0165 0.0347 0.0177 -0.0021 0.0011 -0.0007
Zn2C 0.0165 0.0347 0.0177 -0.0021 0.0011 -0.0007
Zn2B 0.0165(3) 0.0347(4) 0.0177(3) 0.0021(3) -0.0011(2) -0.0007(3)
N3D 0.022 0.037 0.022 0.001 0.0021 0.003
N5G 0.016 0.041 0.016 -0.0029 -0.0018 0.001
N6C 0.019 0.043 0.015 -0.0017 -0.0004 -0.002
O3B 0.03 0.107 0.016 0.007 -0.0006 0.01
O4B 0.037 0.06 0.025 0.004 -0.0125 0.004
loop_
_geom_bond_atom_site_label_1
_geom_bond_atom_site_label_2
_geom_bond_site_symmetry_1
_geom_bond_site_symmetry_2
Zn1 N2 1_555 1_555
Zn2 N1 1_555 1_555
C1 C2 1_555 1_555
C2 O2 1_555 1_555
C3 N1 1_555 1_555
C4 N1 1_555 1_555
C5 N6 1_555 1_555
C6 H1 1_555 1_555
N2 C3 1_555 1_555
N3 C4 1_555 1_555
N4 C3 1_555 1_555
H2 N4 1_555 1_555
H3 N4 1_555 1_555
N5 C6 1_555 1_555
N6 N5 1_555 1_555
N7 Zn1 1_555 1_555
N8 C5 1_555 1_555
H4 N8 1_555 1_555
H5 N8 1_555 1_555
O1 Zn1 1_555 1_555
O2 Zn1 1_555 1_555
O3 C1 1_555 1_555
O4 C2 1_555 1_555
Zn1D N3 1_555 1_555
Zn2G N5 1_555 1_555
Zn2C N6 1_555 1_555
Zn2B O3 1_555 1_555
N3D Zn1 1_555 1_555
N5G Zn2 1_555 1_555
N6C Zn2 1_555 1_555
O3B Zn2 1_555 1_555
O4B Zn2 1_555 1_555
C1 O1 1_555 1_555
C5 N7 1_555 1_555
C6 N7 1_555 1_555
N2 N3 1_555 1_555
O4 Zn2B 1_555 1_555

#END
