
#######################################################################
#
#                 Cambridge Crystallographic Data Centre
#                                CCDC 
#
#######################################################################
#
# If this CIF has been generated from an entry in the Cambridge 
# Structural Database, then it will include bibliographic, chemical, 
# crystal, experimental, refinement or atomic coordinate data resulting 
# from the CCDC's data processing and validation procedures.
#
#######################################################################

data_LEVKUU
_chemical_formula_moiety         '(C87 H129 N17 Ni3 O15)n,12n(H2 O1)'
_chemical_name_systematic        
"catena-[bis(\m~3~-4,4,4'-Aminotrimethylenetribenzoato)-tris(2-(1,3,5,8,12-pentaazacyclotetradecan-3-yl)butan-1-ol)-tri-nickel dodecahydrate]"
_symmetry_cell_setting           tetragonal
_symmetry_space_group_name_H-M   'I -4 c 2'
_symmetry_Int_Tables_number      120
_space_group_name_Hall           'I -4 -2c'
loop_
_symmetry_equiv_pos_site_id
_symmetry_equiv_pos_as_xyz
1 x,y,z
2 -x,-y,z
3 y,-x,-z
4 -y,x,-z
5 x,-y,1/2+z
6 -x,y,1/2+z
7 y,x,1/2-z
8 -y,-x,1/2-z
9 1/2+x,1/2+y,1/2+z
10 1/2-x,1/2-y,1/2+z
11 1/2+y,1/2-x,1/2-z
12 1/2-y,1/2+x,1/2-z
13 1/2+x,1/2-y,z
14 1/2-x,1/2+y,z
15 1/2+y,1/2+x,-z
16 1/2-y,1/2-x,-z
_cell_length_a                   30.233(2)
_cell_length_b                   30.233(2)
_cell_length_c                   22.671(3)
_cell_angle_alpha                90
_cell_angle_beta                 90
_cell_angle_gamma                90
_cell_volume                     20722.1
_exptl_crystal_colour            pink
_exptl_crystal_description       block
_cell_formula_units_Z            8
loop_
_atom_site_label
_atom_site_type_symbol
_atom_site_fract_x
_atom_site_fract_y
_atom_site_fract_z
_atom_site_U_iso_or_equiv
_atom_site_thermal_displace_type
O1 O 0.2078(6) 1.0751(4) 0.7995(9) 0.1430 Uani
O2 O 0.1814(6) 1.0642(4) 0.8903(9) 0.1710 Uani
C1 C 0.1896(5) 1.0886(4) 0.8483(9) 0.1290 Uani
C2 C 0.1963(5) 1.1362(3) 0.8618(8) 0.0963 Uani
C3 C 0.1794(5) 1.1532(4) 0.9141(7) 0.1077 Uani
H1 H 0.1614 1.1352 0.9388 0.1290 Uiso
C4 C 0.1889(5) 1.1965(4) 0.9305(6) 0.1130 Uani
H2 H 0.1774 1.2081 0.9663 0.1360 Uiso
C5 C 0.2153(5) 1.2228(3) 0.8944(5) 0.1133 Uani
C6 C 0.2321(4) 1.2058(4) 0.8421(5) 0.1080 Uani
H3 H 0.2501 1.2237 0.8175 0.1300 Uiso
C7 C 0.2226(5) 1.1625(4) 0.8258(6) 0.1087 Uani
H4 H 0.2341 1.1508 0.7900 0.1700 Uiso
N1 N 0.2259(6) 1.2970(7) 0.8682(13) 0.1107 Uani
C8 C 0.2334(6) 1.2665(4) 0.9162(7) 0.1103 Uani
H5 H 0.2177 1.2762 0.9522 0.1320 Uiso
H6 H 0.2654 1.2640 0.9251 0.1320 Uiso
O3 O 0.1348(3) 1.3677(4) 0.5942(4) 0.2223 Uani
O4 O 0.0976(6) 1.4138(7) 0.6531(6) 0.2303 Uani
C9 C 0.1251(6) 1.3843(6) 0.6455(4) 0.2220 Uani
C10 C 0.1390(6) 1.3773(5) 0.7073(5) 0.1620 Uani
C11 C 0.1594(6) 1.3362(5) 0.7031(4) 0.1710 Uani
H7 H 0.1632 1.3226 0.6656 0.2050 Uiso
C12 C 0.1744(5) 1.3150(4) 0.7537(4) 0.1587 Uani
H8 H 0.1883 1.2869 0.7508 0.1900 Uiso
C13 C 0.1690(5) 1.3349(4) 0.8085(4) 0.1370 Uani
C14 C 0.1486(5) 1.3760(4) 0.8127(5) 0.1443 Uani
H9 H 0.1448 1.3895 0.8501 0.1730 Uiso
C15 C 0.1336(5) 1.3972(4) 0.7621(6) 0.1520 Uani
H10 H 0.1197 1.4252 0.7649 0.1820 Uiso
C16 C 0.1795(7) 1.3098(6) 0.8639(6) 0.1337 Uani
H11 H 0.1718 1.3284 0.8983 0.1600 Uiso
H12 H 0.1609 1.2829 0.8654 0.1600 Uiso
O5 O 0.4497(4) 1.3126(5) 0.7850(6) 0.1533 Uani
O6 O 0.4605(4) 1.3406(6) 0.8749(6) 0.1630 Uani
C17 C 0.4397(4) 1.3168(5) 0.8406(6) 0.1547 Uani
C18 C 0.3896(3) 1.3196(6) 0.8536(8) 0.1517 Uani
C19 C 0.3734(4) 1.3339(7) 0.9077(7) 0.1507 Uani
H13 H 0.3932 1.3399 0.9392 0.1810 Uiso
C20 C 0.3281(4) 1.3395(6) 0.9158(6) 0.1483 Uani
H14 H 0.3171 1.3493 0.9528 0.1780 Uiso
C21 C 0.2991(3) 1.3307(5) 0.8697(6) 0.1477 Uani
C22 C 0.3153(4) 1.3164(5) 0.8156(6) 0.1483 Uani
H15 H 0.2954 1.3104 0.7841 0.1780 Uiso
C23 C 0.3605(4) 1.3108(5) 0.8076(7) 0.1497 Uani
H16 H 0.3716 1.3011 0.7706 0.1800 Uiso
C24 C 0.2511(4) 1.3377(7) 0.8783(9) 0.1467 Uani
H17 H 0.2457 1.3483 0.9190 0.1760 Uiso
H18 H 0.2406 1.3609 0.8507 0.1760 Uiso
Ni1 Ni 0.19666(9) 1.01381(6) 0.75502(14) 0.1934 Uani
C25 C 0.1230(8) 0.9632(6) 0.7786(10) 0.1933 Uani
H19 H 0.1386 0.9447 0.7492 0.2320 Uiso
H20 H 0.0909 0.9571 0.7754 0.2320 Uiso
C26 C 0.1094(6) 1.0284(8) 0.7157(11) 0.1760 Uani
H21 H 0.0804 1.0407 0.7275 0.2110 Uiso
H22 H 0.1043 1.0053 0.6855 0.2110 Uiso
C27 C 0.1376(7) 1.0644(7) 0.6903(10) 0.1613 Uani
H23 H 0.1245 1.0751 0.6529 0.1940 Uiso
H24 H 0.1390 1.0896 0.7182 0.1940 Uiso
C28 C 0.2083(6) 1.0850(5) 0.6617(10) 0.1547 Uani
H25 H 0.2049 1.1088 0.6913 0.1860 Uiso
H26 H 0.1968 1.0963 0.6236 0.1860 Uiso
C29 C 0.2564(6) 1.0747(7) 0.6548(8) 0.1793 Uani
H27 H 0.2715 1.1010 0.6383 0.2150 Uiso
H28 H 0.2597 1.0502 0.6261 0.2150 Uiso
C30 C 0.2788(7) 1.0619(6) 0.7112(10) 0.1857 Uani
H29 H 0.3110 1.0591 0.7042 0.2230 Uiso
H30 H 0.2742 1.0855 0.7409 0.2230 Uiso
C31 C 0.2845(7) 1.0125(9) 0.7898(11) 0.1933 Uani
H31 H 0.2833 1.0392 0.8150 0.2320 Uiso
H32 H 0.3159 1.0052 0.7824 0.2320 Uiso
C32 C 0.2623(7) 0.9748(8) 0.8205(11) 0.1987 Uani
H33 H 0.2685 0.9472 0.7985 0.2380 Uiso
H34 H 0.2753 0.9716 0.8604 0.2380 Uiso
C33 C 0.1859(7) 0.9462(6) 0.8468(10) 0.1720 Uani
H35 H 0.1916 0.9422 0.8894 0.2060 Uiso
H36 H 0.1944 0.9183 0.8270 0.2060 Uiso
N2 N 0.1388(6) 0.9519(6) 0.8392(9) 0.1820 Uani
N3 N 0.1312(3) 1.0091(6) 0.7667(8) 0.1797 Uani
H37 H 0.1250 1.0259 0.8001 0.2150 Uiso
N4 N 0.1816(5) 1.0478(6) 0.6795(6) 0.1590 Uani
H38 H 0.1798 1.0275 0.6487 0.1910 Uiso
N5 N 0.2621(3) 1.0212(6) 0.7338(8) 0.1920 Uani
H39 H 0.2692 0.9989 0.7071 0.2300 Uiso
N6 N 0.2150(5) 0.9801(6) 0.8261(7) 0.1927 Uani
H40 H 0.2128 1.0012 0.8557 0.2310 Uiso
Ni2 Ni 0.12509(12) 1.37491(12) 0.5000 0.2664 Uani
N7 N 0.0118(5) 1.3702(7) 0.5088(13) 0.2863 Uani
N8 N 0.0769(2) 1.4231(2) 0.5000 0.2809 Uani
N9 N 0.0766(5) 1.3343(4) 0.5250(7) 0.2803 Uani
N10 N 0.1725(2) 1.3275(2) 0.5000 0.2787 Uani
C34 C 0.0318(5) 1.4142(6) 0.5242(13) 0.2850 Uani
H45 H 0.0343 1.4142 0.5664 0.3420 Uiso
H46 H 0.0125 1.4381 0.5135 0.3420 Uiso
C36 C 0.0400(7) 1.3610(8) 0.5540(11) 0.2823 Uani
H49 H 0.0413 1.3637 0.5962 0.3380 Uiso
H52 H 0.0883 1.2749 0.5565 0.3400 Uiso
H55 H 0.1649 1.2699 0.5483 0.3400 Uiso
C40 C 0.1471(6) 1.2857(5) 0.5119(14) 0.2827 Uani
C41 C 0.1035(6) 1.2979(10) 0.5400(10) 0.2823 Uani
O1O O 0.4249(4) 1.2922(6) 0.2005(9) 0.1430 Uani
O2O O 0.4358(4) 1.3186(6) 0.1097(9) 0.1710 Uani
C1O C 0.4114(4) 1.3104(5) 0.1517(9) 0.1290 Uani
C2O C 0.3638(3) 1.3037(5) 0.1382(8) 0.0963 Uani
C3O C 0.3468(4) 1.3206(5) 0.0859(7) 0.1077 Uani
H1O H 0.3648 1.3386 0.0612 0.1290 Uiso
C4O C 0.3035(4) 1.3111(5) 0.0695(6) 0.1130 Uani
H2O H 0.2919 1.3226 0.0337 0.1360 Uiso
C5O C 0.2772(3) 1.2847(5) 0.1056(5) 0.1133 Uani
C6O C 0.2942(4) 1.2679(4) 0.1579(5) 0.1080 Uani
H3O H 0.2763 1.2499 0.1825 0.1300 Uiso
C7O C 0.3375(4) 1.2774(5) 0.1742(6) 0.1087 Uani
H4O H 0.3492 1.2659 0.2100 0.1700 Uiso
N1O N 0.2030(7) 1.2741(6) 0.1318(13) 0.1107 Uani
C8O C 0.2335(4) 1.2666(6) 0.0838(7) 0.1103 Uani
H5O H 0.2238 1.2823 0.0478 0.1320 Uiso
H6O H 0.2360 1.2346 0.0749 0.1320 Uiso
O3O O 0.1323(4) 1.3652(3) 0.4058(4) 0.2223 Uani
O4O O 0.0862(7) 1.4024(6) 0.3469(6) 0.2303 Uani
C9O C 0.1157(6) 1.3749(6) 0.3545(4) 0.2220 Uani
C10O C 0.1227(5) 1.3610(6) 0.2927(5) 0.1620 Uani
C11O C 0.1638(5) 1.3406(6) 0.2969(4) 0.1710 Uani
H7O H 0.1774 1.3368 0.3344 0.2050 Uiso
C12O C 0.1850(4) 1.3256(5) 0.2463(4) 0.1587 Uani
H8O H 0.2131 1.3117 0.2492 0.1900 Uiso
C13O C 0.1651(4) 1.3310(5) 0.1915(4) 0.1370 Uani
C14O C 0.1240(4) 1.3514(5) 0.1873(5) 0.1443 Uani
H9O H 0.1105 1.3552 0.1499 0.1730 Uiso
C15O C 0.1028(4) 1.3664(5) 0.2379(6) 0.1520 Uani
H10O H 0.0748 1.3803 0.2351 0.1820 Uiso
C16O C 0.1902(6) 1.3205(7) 0.1361(6) 0.1337 Uani
H11O H 0.1716 1.3282 0.1017 0.1600 Uiso
H12O H 0.2171 1.3391 0.1346 0.1600 Uiso
O5O O 0.1874(5) 1.0503(4) 0.2150(6) 0.1533 Uani
O5K O 0.1874(5) 0.9497(4) 0.7150(6) 0.1533 Uani
O5E O 0.5503(4) 1.3126(5) 0.2850(6) 0.1533 Uani
O6O O 0.1594(6) 1.0395(4) 0.1251(6) 0.1630 Uani
C17O C 0.1832(5) 1.0603(4) 0.1594(6) 0.1547 Uani
C18O C 0.1804(6) 1.1104(3) 0.1464(8) 0.1517 Uani
C19O C 0.1661(7) 1.1266(4) 0.0923(7) 0.1507 Uani
H13O H 0.1601 1.1068 0.0608 0.1810 Uiso
C20O C 0.1605(6) 1.1719(4) 0.0842(6) 0.1483 Uani
H14O H 0.1507 1.1829 0.0472 0.1780 Uiso
C21O C 0.1693(5) 1.2009(3) 0.1303(6) 0.1477 Uani
C22O C 0.1836(5) 1.1847(4) 0.1844(6) 0.1483 Uani
H15O H 0.1896 1.2046 0.2159 0.1780 Uiso
C23O C 0.1892(5) 1.1395(4) 0.1924(7) 0.1497 Uani
H16O H 0.1989 1.1284 0.2294 0.1800 Uiso
C24O C 0.1623(7) 1.2489(4) 0.1217(9) 0.1467 Uani
H17O H 0.1517 1.2543 0.0810 0.1760 Uiso
H18O H 0.1391 1.2594 0.1493 0.1760 Uiso
Ni1O Ni 0.48619(6) 1.30334(9) 0.24498(14) 0.1934 Uani
Ni1J Ni 0.51381(6) 1.30334(9) 0.74498(14) 0.1934 Uani
Ni1D Ni 0.19666(9) 0.98619(6) 0.25502(14) 0.1934 Uani
C25O C 0.5368(6) 1.3770(8) 0.2214(10) 0.1933 Uani
H19O H 0.5553 1.3614 0.2508 0.2320 Uiso
H20O H 0.5429 1.4091 0.2246 0.2320 Uiso
C26O C 0.4716(8) 1.3906(6) 0.2843(11) 0.1760 Uani
H21O H 0.4593 1.4196 0.2725 0.2110 Uiso
H22O H 0.4947 1.3957 0.3145 0.2110 Uiso
C27O C 0.4356(7) 1.3624(7) 0.3097(10) 0.1613 Uani
H23O H 0.4249 1.3755 0.3471 0.1940 Uiso
H24O H 0.4104 1.3610 0.2818 0.1940 Uiso
C28O C 0.4150(5) 1.2917(6) 0.3383(10) 0.1547 Uani
H25O H 0.3912 1.2951 0.3087 0.1860 Uiso
H26O H 0.4037 1.3032 0.3764 0.1860 Uiso
C29O C 0.4253(7) 1.2436(6) 0.3452(8) 0.1793 Uani
H27O H 0.3990 1.2285 0.3617 0.2150 Uiso
H28O H 0.4498 1.2403 0.3739 0.2150 Uiso
C30O C 0.4381(6) 1.2212(7) 0.2888(10) 0.1857 Uani
H29O H 0.4409 1.1890 0.2958 0.2230 Uiso
H30O H 0.4145 1.2258 0.2591 0.2230 Uiso
C31O C 0.4875(9) 1.2155(7) 0.2102(11) 0.1933 Uani
H31O H 0.4608 1.2167 0.1850 0.2320 Uiso
H32O H 0.4948 1.1841 0.2176 0.2320 Uiso
C32O C 0.5252(8) 1.2377(7) 0.1795(11) 0.1987 Uani
H33O H 0.5528 1.2315 0.2015 0.2380 Uiso
H34O H 0.5284 1.2247 0.1396 0.2380 Uiso
C33O C 0.5538(6) 1.3141(7) 0.1532(10) 0.1720 Uani
H35O H 0.5578 1.3084 0.1106 0.2060 Uiso
H36O H 0.5817 1.3056 0.1730 0.2060 Uiso
N2O N 0.5481(6) 1.3612(6) 0.1608(9) 0.1820 Uani
N3O N 0.4909(6) 1.3688(3) 0.2333(8) 0.1797 Uani
H37O H 0.4741 1.3750 0.1999 0.2150 Uiso
N4O N 0.4522(6) 1.3184(5) 0.3205(6) 0.1590 Uani
H38O H 0.4725 1.3202 0.3513 0.1910 Uiso
N5O N 0.4788(6) 1.2379(3) 0.2662(8) 0.1920 Uani
H39O H 0.5011 1.2308 0.2929 0.2300 Uiso
N6O N 0.5199(6) 1.2850(5) 0.1739(7) 0.1927 Uani
H40O H 0.4988 1.2872 0.1443 0.2310 Uiso
N7O N 0.1298(7) 1.4882(5) 0.4912(13) 0.2863 Uani
N9O N 0.1657(4) 1.4234(5) 0.4750(7) 0.2803 Uani
C34O C 0.0858(6) 1.4682(5) 0.4758(13) 0.2850 Uani
H45O H 0.0858 1.4657 0.4336 0.3420 Uiso
H46O H 0.0619 1.4875 0.4865 0.3420 Uiso
C36O C 0.1390(8) 1.4600(7) 0.4460(11) 0.2823 Uani
H49O H 0.1363 1.4587 0.4038 0.3380 Uiso
H52O H 0.2251 1.4117 0.4435 0.3400 Uiso
H55O H 0.2301 1.3351 0.4517 0.3400 Uiso
C40O C 0.2143(5) 1.3529(6) 0.4881(14) 0.2827 Uani
C41O C 0.2021(10) 1.3965(6) 0.4600(10) 0.2823 Uani
H41? H 0.0682 1.4193 0.4621 0.3370 Uiso
H42? H 0.1636 1.4299 0.5136 0.3360 Uiso
H43? H 0.1745 1.3292 0.4605 0.3340 Uiso
N11? N 0.0785(4) 1.3270(4) 0.4979(13) 0.2807 Uani
H44? H 0.0713 1.3235 0.4596 0.3370 Uiso
C35? C 0.0971(7) 1.4665(5) 0.4811(14) 0.2830 Uani
H47? H 0.0205 1.4009 0.4804 0.3400 Uiso
H48? H 0.0150 1.4213 0.5428 0.3400 Uiso
H50? H 0.0138 1.3447 0.5442 0.3380 Uiso
C37? C 0.2142(6) 1.4180(6) 0.4823(15) 0.2833 Uani
H51? H 0.2263 1.4461 0.4936 0.3400 Uiso
C38? C 0.2366(7) 1.3813(8) 0.5157(14) 0.2847 Uani
H53? H 0.2253 1.3854 0.5549 0.3420 Uiso
H54? H 0.2683 1.3839 0.5170 0.3420 Uiso
C39? C 0.2205(4) 1.3372(6) 0.4919(15) 0.2833 Uani
H56? H 0.2364 1.3153 0.5140 0.3400 Uiso
H57? H 0.2387 1.3353 0.4747 0.3390 Uiso
H58? H 0.2175 1.3570 0.5299 0.3390 Uiso
H59? H 0.0868 1.2735 0.5246 0.3390 Uiso
H60? H 0.1077 1.2930 0.5815 0.3390 Uiso
C42? C 0.0380(8) 1.3339(6) 0.5370(11) 0.2853 Uani
H61? H 0.0201 1.3080 0.5319 0.3420 Uiso
H62? H 0.1609 1.4595 0.4214 0.3420 Uiso
C43? C 0.8273(7) 0.9112(4) 0.8524(10) 0.1427 Uani
C44? C 0.8444(6) 0.6171(7) 0.6924(6) 0.1873 Uani
C45? C 0.8143(6) 0.6519(6) 0.6951(5) 0.1827 Uani
C46? C 0.7972(6) 0.6651(5) 0.7492(5) 0.1653 Uani
C47? C 0.8100(6) 0.6436(6) 0.8006(5) 0.1663 Uani
C48? C 0.8400(7) 0.6088(6) 0.7979(7) 0.1697 Uani
C49? C 0.8572(6) 0.5956(6) 0.7438(8) 0.1813 Uani
C50? C 0.7832(9) 0.6526(7) 0.8559(7) 0.1637 Uani
C51? C 0.5582(4) 0.7015(6) 0.8429(7) 0.1540 Uani
C52? C 0.6047(3) 0.6902(5) 0.8618(7) 0.1240 Uani
C53? C 0.6220(4) 0.6649(6) 0.9076(7) 0.1273 Uani
C54? C 0.8171(7) 0.8620(3) 0.8603(10) 0.1220 Uani
C55? C 0.6667(4) 0.6674(5) 0.9211(6) 0.1217 Uani
C56? C 0.6943(3) 0.6951(5) 0.8887(6) 0.1220 Uani
C57? C 0.6770(4) 0.7203(5) 0.8429(6) 0.1207 Uani
C58? C 0.6323(4) 0.7179(5) 0.8294(6) 0.1110 Uani
C59? C 0.7383(4) 0.7083(6) 0.9129(7) 0.1070 Uani
C60? C 0.9033(8) 1.0015(13) 0.7716(15) 0.2543 Uani
C61? C 0.8715(8) 0.9628(13) 0.6860(13) 0.2277 Uani
C62? C 0.8354(10) 0.9298(10) 0.6736(16) 0.2317 Uani
C63? C 0.7534(10) 0.9262(9) 0.6835(17) 0.2633 Uani
C64? C 0.7133(8) 0.9560(12) 0.6843(13) 0.2843 Uani
C65? C 0.8345(6) 0.8437(4) 0.9116(8) 0.1227 Uani
C66? C 0.7027(8) 0.9712(13) 0.7458(17) 0.3010 Uani
C67? C 0.7323(10) 1.0024(17) 0.8321(15) 0.3193 Uani
C68? C 0.7679(11) 1.0299(15) 0.8599(14) 0.3183 Uani
C69? C 0.8549(9) 1.0247(15) 0.8560(11) 0.2973 Uani
C70? C 0.8318(5) 0.7983(4) 0.9210(6) 0.0960 Uani
C71? C 0.8118(5) 0.7713(3) 0.8792(6) 0.1080 Uani
C72? C 0.7944(5) 0.7897(4) 0.8279(6) 0.1100 Uani
C73? C 0.7971(6) 0.8350(5) 0.8185(8) 0.1120 Uani
C74? C 0.8149(6) 0.7222(4) 0.8856(8) 0.1043 Uani
C75? C 0.8562(6) 0.6022(4) 0.6332(5) 0.2227 Uani
H63? H 0.8056 0.6666 0.6600 0.2190 Uiso
H64? H 0.7767 0.6889 0.7510 0.1990 Uiso
H65? H 0.8488 0.5941 0.8330 0.2040 Uiso
H66? H 0.8777 0.5718 0.7420 0.2170 Uiso
H67? H 0.7544 0.6374 0.8515 0.1960 Uiso
H68? H 0.7987 0.6385 0.8894 0.1960 Uiso
H69? H 0.6031 0.6460 0.9297 0.1530 Uiso
H70? H 0.6785 0.6502 0.9524 0.1460 Uiso
H71? H 0.6959 0.7393 0.8208 0.1450 Uiso
H72? H 0.6205 0.7351 0.7981 0.1330 Uiso
H73? H 0.7381 0.7403 0.9218 0.1280 Uiso
H74? H 0.7436 0.6922 0.9503 0.1280 Uiso
H75? H 0.9168 1.0196 0.7399 0.3050 Uiso
H76? H 0.9263 0.9806 0.7855 0.3050 Uiso
H77? H 0.9008 0.9493 0.6783 0.2730 Uiso
H78? H 0.8682 0.9888 0.6598 0.2730 Uiso
H79? H 0.8381 0.9187 0.6327 0.2780 Uiso
H80? H 0.8381 0.9044 0.7008 0.2780 Uiso
H81? H 0.7533 0.9074 0.7193 0.3160 Uiso
H82? H 0.7518 0.9065 0.6486 0.3160 Uiso
H83? H 0.7189 0.9821 0.6589 0.3410 Uiso
H84? H 0.6876 0.9398 0.6679 0.3410 Uiso
H85? H 0.6747 0.9882 0.7456 0.3610 Uiso
H86? H 0.6987 0.9452 0.7718 0.3610 Uiso
H87? H 0.7327 0.9725 0.8499 0.3830 Uiso
H88? H 0.7032 1.0159 0.8406 0.3830 Uiso
H89? H 0.7598 1.0616 0.8571 0.3820 Uiso
H90? H 0.7706 1.0222 0.9021 0.3820 Uiso
H91? H 0.8546 1.0492 0.8850 0.3570 Uiso
H92? H 0.8594 0.9970 0.8786 0.3570 Uiso
H93? H 0.8482 0.8621 0.9401 0.1470 Uiso
H94? H 0.8721 0.9494 0.7656 0.2830 Uiso
H95? H 0.8436 0.7858 0.9560 0.1150 Uiso
H96? H 0.7902 0.9712 0.6508 0.2980 Uiso
H97? H 0.7330 1.0266 0.7527 0.3850 Uiso
H98? H 0.8108 0.9980 0.8547 0.3770 Uiso
H99? H 0.7807 0.7712 0.7993 0.1320 Uiso
H100? H 0.7852 0.8476 0.7835 0.1350 Uiso
H101? H 0.8385 0.7112 0.8591 0.1260 Uiso
H102? H 0.8237 0.7152 0.9266 0.1260 Uiso
N12? N 0.7742(6) 0.6988(8) 0.8722(14) 0.1107 Uani
N13? N 0.8926(9) 1.0307(11) 0.8199(15) 0.2760 Uani
N14? N 0.8686(3) 0.9763(9) 0.7462(12) 0.2360 Uani
N15? N 0.7932(7) 0.9510(11) 0.6815(10) 0.2487 Uani
N16? N 0.7380(4) 0.9984(12) 0.7679(13) 0.3210 Uani
N17? N 0.8112(8) 1.0225(12) 0.8299(11) 0.3140 Uani
Ni3? Ni 0.80334(9) 0.98619(6) 0.75502(14) 0.1934 Uani
O7? O 0.8114(6) 0.9263(5) 0.8030(11) 0.1430 Uani
O8? O 0.8485(7) 0.9340(5) 0.8874(11) 0.1953 Uani
O9? O 0.8652(4) 0.6323(3) 0.5942(4) 0.2223 Uani
O10? O 0.8658(8) 0.5630(4) 0.6279(7) 0.2310 Uani
O11? O 0.5436(4) 0.7138(6) 0.7915(7) 0.1533 Uani
O12? O 0.5342(4) 0.6909(6) 0.8843(7) 0.1613 Uani
loop_
_atom_site_aniso_label
_atom_site_aniso_U_11
_atom_site_aniso_U_22
_atom_site_aniso_U_33
_atom_site_aniso_U_23
_atom_site_aniso_U_13
_atom_site_aniso_U_12
O1 0.144 0.096 0.189 -0.007 0.001 0.022
O2 0.175 0.136 0.202 0.02 0.002 -0.021
C1 0.123 0.118 0.146 0.008 -0.004 0.009
C2 0.077 0.107 0.105 -0.005 -0.02 -0.007
C3 0.096 0.13 0.097 -0.003 0.008 -0.027
C4 0.112 0.12 0.107 -0.02 -0.012 -0.019
C5 0.123 0.118 0.099 -0.009 -0.005 -0.011
C6 0.109 0.107 0.108 0.001 0.002 -0.006
C7 0.103 0.124 0.099 -0.01 -0.003 -0.023
N1 0.117 0.105 0.11 -0.033 0.025 -0.007
C8 0.124 0.109 0.098 -0.021 0.031 -0.011
O3 0.226 0.225 0.216 0.002 -0.003 0.006
O4 0.23 0.229 0.232 0.001 0.001 0.006
C9 0.224 0.222 0.22 0.001 -0.002 0.005
C10 0.166 0.148 0.172 0.004 0.043 0.023
C11 0.187 0.172 0.154 0.009 0.034 0.025
C12 0.168 0.163 0.145 0.005 0.034 0.029
C13 0.125 0.134 0.152 -0.006 0.028 0.004
C14 0.134 0.128 0.171 -0.003 0.018 -0.025
C15 0.138 0.138 0.18 0.006 0.012 0.005
C16 0.13 0.135 0.136 -0.02 0.031 0
O5 0.146 0.155 0.159 0 0.003 0
O6 0.16 0.165 0.164 -0.003 -0.002 -0.002
C17 0.15 0.157 0.157 -0.001 0.001 -0.001
C18 0.149 0.154 0.152 -0.002 0.002 -0.001
C19 0.151 0.152 0.149 0 0.001 -0.002
C20 0.15 0.148 0.147 0.001 0.001 -0.002
C21 0.148 0.147 0.148 -0.001 0.003 -0.004
C22 0.148 0.149 0.148 -0.004 0.003 -0.003
C23 0.148 0.151 0.15 -0.004 0.002 -0.001
C24 0.148 0.146 0.146 -0.002 0.003 -0.004
Ni1 0.264 0.0992 0.217 -0.0298 -0.039 0.0164
C25 0.192 0.197 0.191 0.005 -0.005 -0.015
C26 0.179 0.176 0.173 -0.005 -0.02 -0.008
C27 0.174 0.167 0.143 -0.008 -0.033 -0.005
C28 0.178 0.121 0.165 -0.035 -0.009 -0.001
C29 0.201 0.15 0.187 -0.029 0.008 -0.007
C30 0.188 0.179 0.19 -0.026 0.023 0.035
C31 0.193 0.181 0.206 -0.025 0.011 0.018
C32 0.203 0.188 0.205 -0.028 0.001 -0.014
C33 0.2 0.116 0.2 -0.003 -0.009 -0.01
N2 0.209 0.149 0.188 -0.007 -0.006 -0.012
N3 0.197 0.178 0.164 -0.01 -0.029 -0.011
N4 0.187 0.147 0.143 -0.038 -0.007 -0.008
N5 0.199 0.173 0.204 -0.015 0.03 0.036
N6 0.202 0.166 0.21 -0.029 -0.029 -0.014
Ni2 0.2696 0.2696 0.26 0.0025 0.0025 0.0058
N7 0.286 0.286 0.287 0.0005 0.0004 0.0011
N8 0.2794 0.2794 0.284 0.0005 0.0005 0.007
N9 0.279 0.28 0.282 0.0013 0.0012 -0.0021
N10 0.278 0.278 0.28 0.0002 0.0002 0.0057
C34 0.283 0.285 0.287 0 0.002 0.003
C36 0.282 0.282 0.283 0 0 0.001
C40 0.283 0.281 0.284 -0.001 -0.001 0.001
C41 0.281 0.281 0.285 0.001 0 -0.001
O1O 0.096 0.144 0.189 0.001 -0.007 0.022
O2O 0.136 0.175 0.202 0.002 0.02 -0.021
C1O 0.118 0.123 0.146 -0.004 0.008 0.009
C2O 0.107 0.077 0.105 -0.02 -0.005 -0.007
C3O 0.13 0.096 0.097 0.008 -0.003 -0.027
C4O 0.12 0.112 0.107 -0.012 -0.02 -0.019
C5O 0.118 0.123 0.099 -0.005 -0.009 -0.011
C6O 0.107 0.109 0.108 0.002 0.001 -0.006
C7O 0.124 0.103 0.099 -0.003 -0.01 -0.023
N1O 0.105 0.117 0.11 0.025 -0.033 -0.007
C8O 0.109 0.124 0.098 0.031 -0.021 -0.011
O3O 0.225 0.226 0.216 -0.003 0.002 0.006
O4O 0.229 0.23 0.232 0.001 0.001 0.006
C9O 0.222 0.224 0.22 -0.002 0.001 0.005
C10O 0.148 0.166 0.172 0.043 0.004 0.023
C11O 0.172 0.187 0.154 0.034 0.009 0.025
C12O 0.163 0.168 0.145 0.034 0.005 0.029
C13O 0.134 0.125 0.152 0.028 -0.006 0.004
C14O 0.128 0.134 0.171 0.018 -0.003 -0.025
C15O 0.138 0.138 0.18 0.012 0.006 0.005
C16O 0.135 0.13 0.136 0.031 -0.02 0
O5O 0.155 0.146 0.159 0.003 0 0
O5K 0.155 0.146 0.159 -0.003 0 0
O5E 0.146 0.155 0.159 0 -0.003 0
O6O 0.165 0.16 0.164 -0.002 -0.003 -0.002
C17O 0.157 0.15 0.157 0.001 -0.001 -0.001
C18O 0.154 0.149 0.152 0.002 -0.002 -0.001
C19O 0.152 0.151 0.149 0.001 0 -0.002
C20O 0.148 0.15 0.147 0.001 0.001 -0.002
C21O 0.147 0.148 0.148 0.003 -0.001 -0.004
C22O 0.149 0.148 0.148 0.003 -0.004 -0.003
C23O 0.151 0.148 0.15 0.002 -0.004 -0.001
C24O 0.146 0.148 0.146 0.003 -0.002 -0.004
Ni1O 0.0992 0.264 0.217 -0.039 -0.0298 0.0164
Ni1J 0.0992 0.264 0.217 -0.039 0.0298 -0.0164
Ni1D 0.264 0.0992 0.217 0.0298 -0.039 -0.0164
C25O 0.197 0.192 0.191 -0.005 0.005 -0.015
C26O 0.176 0.179 0.173 -0.02 -0.005 -0.008
C27O 0.167 0.174 0.143 -0.033 -0.008 -0.005
C28O 0.121 0.178 0.165 -0.009 -0.035 -0.001
C29O 0.15 0.201 0.187 0.008 -0.029 -0.007
C30O 0.179 0.188 0.19 0.023 -0.026 0.035
C31O 0.181 0.193 0.206 0.011 -0.025 0.018
C32O 0.188 0.203 0.205 0.001 -0.028 -0.014
C33O 0.116 0.2 0.2 -0.009 -0.003 -0.01
N2O 0.149 0.209 0.188 -0.006 -0.007 -0.012
N3O 0.178 0.197 0.164 -0.029 -0.01 -0.011
N4O 0.147 0.187 0.143 -0.007 -0.038 -0.008
N5O 0.173 0.199 0.204 0.03 -0.015 0.036
N6O 0.166 0.202 0.21 -0.029 -0.029 -0.014
N7O 0.286 0.286 0.287 0.0004 0.0005 0.0011
N9O 0.28 0.279 0.282 0.0012 0.0013 -0.0021
C34O 0.285 0.283 0.287 0.002 0 0.003
C36O 0.282 0.282 0.283 0 0 0.001
C40O 0.281 0.283 0.284 -0.001 -0.001 0.001
C41O 0.281 0.281 0.285 0 0.001 -0.001
N11? 0.28 0.28 0.282 -0.0001 0.0001 -0.0024
C35? 0.283 0.281 0.285 0.001 -0.001 0.003
C37? 0.282 0.284 0.284 0 -0.001 0
C38? 0.285 0.284 0.285 -0.001 -0.002 0
C39? 0.282 0.284 0.284 0 -0.001 0.001
C42? 0.284 0.285 0.287 0.001 0.002 0.001
C43? 0.142(12) 0.125(10) 0.161(11) -0.009(9) 0.006(10) 0.017(10)
C44? 0.200(12) 0.178(12) 0.184(10) 0.007(10) -0.020(10) 0.023(10)
C45? 0.190(13) 0.182(13) 0.176(11) 0.009(11) 0.002(11) 0.022(10)
C46? 0.180(12) 0.156(12) 0.160(11) 0.023(11) -0.003(11) 0.019(10)
C47? 0.183(12) 0.152(11) 0.164(10) 0.006(10) 0.006(10) 0.027(10)
C48? 0.176(13) 0.167(13) 0.166(11) 0.013(11) -0.008(11) 0.021(11)
C49? 0.175(13) 0.185(13) 0.184(11) 0.006(11) -0.001(12) 0.032(11)
C50? 0.191(15) 0.140(13) 0.160(12) 0.012(12) -0.007(12) 0.024(12)
C51? 0.148(3) 0.156(3) 0.158(3) 0.000(3) -0.002(3) 0.000(3)
C52? 0.117(9) 0.133(10) 0.122(10) -0.010(9) -0.024(8) -0.010(8)
C53? 0.140(10) 0.150(11) 0.092(10) -0.011(9) -0.021(9) -0.023(9)
C54? 0.116(12) 0.117(9) 0.133(11) 0.004(8) -0.005(10) -0.003(9)
C55? 0.129(10) 0.135(11) 0.101(10) -0.011(9) -0.013(9) -0.006(9)
C56? 0.127(9) 0.139(10) 0.100(9) 0.010(8) -0.003(8) -0.003(8)
C57? 0.105(9) 0.140(11) 0.117(10) 0.007(9) -0.009(9) 0.005(9)
C58? 0.117(9) 0.128(11) 0.088(9) 0.002(8) -0.018(8) 0.001(9)
C59? 0.119(10) 0.130(12) 0.072(9) 0.018(10) -0.006(9) 0.011(10)
C60? 0.265(14) 0.249(15) 0.249(14) 0.008(11) -0.011(11) -0.014(12)
C61? 0.239(13) 0.223(15) 0.221(14) 0.005(12) 0.009(12) 0.007(11)
C62? 0.248(13) 0.226(15) 0.221(14) -0.005(11) 0.002(12) 0.014(11)
C63? 0.266(13) 0.270(15) 0.254(15) 0.015(12) -0.008(12) -0.004(11)
C64? 0.278(14) 0.291(16) 0.284(15) 0.008(12) 0.009(13) 0.017(12)
C65? 0.135(13) 0.126(10) 0.107(10) -0.010(9) -0.004(10) -0.001(10)
C66? 0.300(15) 0.304(16) 0.299(15) -0.006(12) -0.001(12) 0.022(11)
C67? 0.318(14) 0.310(16) 0.330(15) -0.002(12) -0.022(12) 0.016(12)
C68? 0.315(14) 0.312(16) 0.328(15) 0.010(12) -0.016(11) 0.014(12)
C69? 0.308(14) 0.295(16) 0.289(15) 0.000(12) 0.003(11) -0.006(13)
C70? 0.105(11) 0.102(9) 0.081(9) -0.008(8) 0.027(8) -0.007(9)
C71? 0.098(9) 0.112(8) 0.114(9) 0.020(8) -0.028(8) -0.004(8)
C72? 0.104(10) 0.115(9) 0.111(10) 0.010(9) -0.024(9) -0.006(9)
C73? 0.100(11) 0.113(9) 0.123(11) 0.023(9) -0.027(10) 0.004(9)
C74? 0.115(10) 0.094(8) 0.104(9) 0.004(8) -0.042(9) 0.002(8)
C75? 0.224(4) 0.224(4) 0.220(4) -0.001(3) 0.003(3) 0.005(3)
N12? 0.117(5) 0.105(5) 0.110(5) 0.033(5) -0.025(5) -0.007(5)
N13? 0.293(14) 0.265(15) 0.270(15) -0.004(11) 0.000(12) -0.011(12)
N14? 0.238(10) 0.236(10) 0.234(10) 0.001(5) 0.001(5) -0.003(5)
N15? 0.250(10) 0.250(11) 0.246(11) 0.004(5) -0.003(5) 0.000(5)
N16? 0.322(12) 0.319(12) 0.322(12) 0.000(5) 0.000(5) 0.003(5)
N17? 0.313(12) 0.315(12) 0.314(12) 0.002(5) 0.000(5) 0.001(5)
Ni3? 0.264(3) 0.0992(11) 0.217(2) 0.0298(16) 0.039(3) 0.0164(15)
O7? 0.144(11) 0.096(4) 0.189(6) 0.007(5) -0.001(8) 0.022(6)
O8? 0.183(15) 0.179(13) 0.224(14) 0.006(12) -0.016(13) -0.066(12)
O9? 0.226(3) 0.225(3) 0.216(3) -0.002(2) 0.003(2) 0.006(2)
O10? 0.231(5) 0.227(4) 0.235(5) -0.002(4) 0.003(4) 0.001(4)
O11? 0.146(3) 0.155(3) 0.159(3) 0.000(2) -0.003(2) 0.000(2)
O12? 0.159(5) 0.164(5) 0.161(4) -0.001(4) 0.001(3) 0.004(4)
loop_
_geom_bond_atom_site_label_1
_geom_bond_atom_site_label_2
_geom_bond_site_symmetry_1
_geom_bond_site_symmetry_2
O1 C1 1_555 1_555
O2 C1 1_555 1_555
C1 C2 1_555 1_555
C2 C3 1_555 1_555
C3 H1 1_555 1_555
C4 C3 1_555 1_555
H2 C4 1_555 1_555
C5 C4 1_555 1_555
C6 C5 1_555 1_555
H3 C6 1_555 1_555
C7 C2 1_555 1_555
H4 C7 1_555 1_555
N1 C8 1_555 1_555
C8 C5 1_555 1_555
H5 C8 1_555 1_555
H6 C8 1_555 1_555
O3 C9 1_555 1_555
O4 C9 1_555 1_555
C9 C10 1_555 1_555
C10 C11 1_555 1_555
C11 H7 1_555 1_555
C12 C11 1_555 1_555
H8 C12 1_555 1_555
C13 C12 1_555 1_555
C14 C13 1_555 1_555
H9 C14 1_555 1_555
C15 C10 1_555 1_555
H10 C15 1_555 1_555
C16 N1 1_555 1_555
H11 C16 1_555 1_555
H12 C16 1_555 1_555
O5 C17 1_555 1_555
O6 C17 1_555 1_555
C17 C18 1_555 1_555
C18 C19 1_555 1_555
C19 H13 1_555 1_555
C20 C19 1_555 1_555
H14 C20 1_555 1_555
C21 C20 1_555 1_555
C22 C21 1_555 1_555
H15 C22 1_555 1_555
C23 C18 1_555 1_555
H16 C23 1_555 1_555
C24 N1 1_555 1_555
H17 C24 1_555 1_555
H18 C24 1_555 1_555
Ni1 O1 1_555 1_555
C25 H19 1_555 1_555
H20 C25 1_555 1_555
C26 H21 1_555 1_555
H22 C26 1_555 1_555
C27 C26 1_555 1_555
H23 C27 1_555 1_555
H24 C27 1_555 1_555
C28 H25 1_555 1_555
H26 C28 1_555 1_555
C29 C28 1_555 1_555
H27 C29 1_555 1_555
H28 C29 1_555 1_555
C30 C29 1_555 1_555
H29 C30 1_555 1_555
H30 C30 1_555 1_555
C31 H31 1_555 1_555
H32 C31 1_555 1_555
C32 C31 1_555 1_555
H33 C32 1_555 1_555
H34 C32 1_555 1_555
C33 H35 1_555 1_555
H36 C33 1_555 1_555
N2 C25 1_555 1_555
N3 Ni1 1_555 1_555
H37 N3 1_555 1_555
N4 Ni1 1_555 1_555
H38 N4 1_555 1_555
N5 Ni1 1_555 1_555
H39 N5 1_555 1_555
N6 Ni1 1_555 1_555
H40 N6 1_555 1_555
Ni2 O3 1_555 1_555
N7 C34 1_555 1_555
N8 Ni2 1_555 1_555
N9 Ni2 1_555 1_555
N10 Ni2 1_555 1_555
C34 N8 1_555 1_555
H45 C34 1_555 1_555
H46 C34 1_555 1_555
C36 N7 1_555 1_555
H49 C36 1_555 1_555
H52 C41 1_555 1_555
H55 C40 1_555 1_555
C40 N10 1_555 1_555
C41 N9 1_555 1_555
O1O C1O 1_555 1_555
O2O C1O 1_555 1_555
C1O C2O 1_555 1_555
C2O C3O 1_555 1_555
C3O H1O 1_555 1_555
C4O C3O 1_555 1_555
H2O C4O 1_555 1_555
C5O C4O 1_555 1_555
C6O C5O 1_555 1_555
H3O C6O 1_555 1_555
C7O C2O 1_555 1_555
H4O C7O 1_555 1_555
N1O C8O 1_555 1_555
C8O C5O 1_555 1_555
H5O C8O 1_555 1_555
H6O C8O 1_555 1_555
O3O Ni2 1_555 1_555
O4O C9O 1_555 1_555
C9O O3O 1_555 1_555
C10O C9O 1_555 1_555
C11O C10O 1_555 1_555
H7O C11O 1_555 1_555
C12O C11O 1_555 1_555
H8O C12O 1_555 1_555
C13O C12O 1_555 1_555
C14O C13O 1_555 1_555
H9O C14O 1_555 1_555
C15O C10O 1_555 1_555
H10O C15O 1_555 1_555
C16O N1O 1_555 1_555
H11O C16O 1_555 1_555
H12O C16O 1_555 1_555
O5O C17O 1_555 1_555
O5K Ni1 1_555 1_555
O5E Ni1O 1_555 1_555
O6O C17O 1_555 1_555
C17O C18O 1_555 1_555
C18O C19O 1_555 1_555
C19O H13O 1_555 1_555
C20O C19O 1_555 1_555
H14O C20O 1_555 1_555
C21O C20O 1_555 1_555
C22O C21O 1_555 1_555
H15O C22O 1_555 1_555
C23O C18O 1_555 1_555
H16O C23O 1_555 1_555
C24O N1O 1_555 1_555
H17O C24O 1_555 1_555
H18O C24O 1_555 1_555
Ni1O O1O 1_555 1_555
Ni1J O5 1_555 1_555
Ni1D O5O 1_555 1_555
C25O H19O 1_555 1_555
H20O C25O 1_555 1_555
C26O H21O 1_555 1_555
H22O C26O 1_555 1_555
C27O C26O 1_555 1_555
H23O C27O 1_555 1_555
H24O C27O 1_555 1_555
C28O H25O 1_555 1_555
H26O C28O 1_555 1_555
C29O C28O 1_555 1_555
H27O C29O 1_555 1_555
H28O C29O 1_555 1_555
C30O C29O 1_555 1_555
H29O C30O 1_555 1_555
H30O C30O 1_555 1_555
C31O H31O 1_555 1_555
H32O C31O 1_555 1_555
C32O C31O 1_555 1_555
H33O C32O 1_555 1_555
H34O C32O 1_555 1_555
C33O H35O 1_555 1_555
H36O C33O 1_555 1_555
N2O C25O 1_555 1_555
N3O Ni1O 1_555 1_555
H37O N3O 1_555 1_555
N4O Ni1O 1_555 1_555
H38O N4O 1_555 1_555
N5O Ni1O 1_555 1_555
H39O N5O 1_555 1_555
N6O Ni1O 1_555 1_555
H40O N6O 1_555 1_555
N7O C34O 1_555 1_555
N9O Ni2 1_555 1_555
C34O N8 1_555 1_555
H45O C34O 1_555 1_555
H46O C34O 1_555 1_555
C36O N7O 1_555 1_555
H49O C36O 1_555 1_555
H52O C41O 1_555 1_555
H55O C40O 1_555 1_555
C40O N10 1_555 1_555
C41O N9O 1_555 1_555
C6 C7 1_555 1_555
C13 C16 1_555 1_555
C14 C15 1_555 1_555
C21 C24 1_555 1_555
C22 C23 1_555 1_555
C25 N3 1_555 1_555
C26 N3 1_555 1_555
C27 N4 1_555 1_555
C28 N4 1_555 1_555
C30 N5 1_555 1_555
C31 N5 1_555 1_555
C32 N6 1_555 1_555
C33 N2 1_555 1_555
C33 N6 1_555 1_555
N9 C36 1_555 1_555
C40 C41 1_555 1_555
C6O C7O 1_555 1_555
C13O C16O 1_555 1_555
C14O C15O 1_555 1_555
C21O C24O 1_555 1_555
C22O C23O 1_555 1_555
C25O N3O 1_555 1_555
C26O N3O 1_555 1_555
C27O N4O 1_555 1_555
C28O N4O 1_555 1_555
C30O N5O 1_555 1_555
C31O N5O 1_555 1_555
C32O N6O 1_555 1_555
C33O N2O 1_555 1_555
C33O N6O 1_555 1_555
N9O C36O 1_555 1_555
C40O C41O 1_555 1_555

#END
