
#######################################################################
#
#                 Cambridge Crystallographic Data Centre
#                                CCDC 
#
#######################################################################
#
# If this CIF has been generated from an entry in the Cambridge 
# Structural Database, then it will include bibliographic, chemical, 
# crystal, experimental, refinement or atomic coordinate data resulting 
# from the CCDC's data processing and validation procedures.
#
#######################################################################

data_LIZWEX
_chemical_formula_moiety         
'(C108 H108 Cu24 N48 O88 4+)n,4n(N1 O3 1-),60n(H2 O1)'
_chemical_name_systematic        
'catena-(dodecakis(\m~6~-5-Tetrazolylisophthalato)-tetrakis(\m~3~-oxo)-hexatriacontaaqua-tetracosa-copper tetranitrate hydrate)'
_symmetry_cell_setting           cubic
_symmetry_space_group_name_H-M   'F m -3 m'
_symmetry_Int_Tables_number      225
_space_group_name_Hall           '-F 4 2 3'
loop_
_symmetry_equiv_pos_site_id
_symmetry_equiv_pos_as_xyz
1 x,y,z
2 z,x,y
3 y,z,x
4 y,x,-z
5 y,-x,z
6 -y,x,z
7 x,z,-y
8 -x,z,y
9 x,-z,y
10 z,y,-x
11 z,-y,x
12 -z,y,x
13 x,1/2+y,1/2+z
14 z,1/2+x,1/2+y
15 y,1/2+z,1/2+x
16 y,1/2+x,1/2-z
17 y,1/2-x,1/2+z
18 -y,1/2+x,1/2+z
19 x,1/2+z,1/2-y
20 -x,1/2+z,1/2+y
21 x,1/2-z,1/2+y
22 z,1/2+y,1/2-x
23 z,1/2-y,1/2+x
24 -z,1/2+y,1/2+x
25 1/2+x,y,1/2+z
26 1/2+z,x,1/2+y
27 1/2+y,z,1/2+x
28 1/2+y,x,1/2-z
29 1/2+y,-x,1/2+z
30 1/2-y,x,1/2+z
31 1/2+x,z,1/2-y
32 1/2-x,z,1/2+y
33 1/2+x,-z,1/2+y
34 1/2+z,y,1/2-x
35 1/2+z,-y,1/2+x
36 1/2-z,y,1/2+x
37 1/2+x,1/2+y,z
38 1/2+z,1/2+x,y
39 1/2+y,1/2+z,x
40 1/2+y,1/2+x,-z
41 1/2+y,1/2-x,z
42 1/2-y,1/2+x,z
43 1/2+x,1/2+z,-y
44 1/2-x,1/2+z,y
45 1/2+x,1/2-z,y
46 1/2+z,1/2+y,-x
47 1/2+z,1/2-y,x
48 1/2-z,1/2+y,x
49 -x,-y,z
50 -x,y,-z
51 x,-y,-z
52 z,-x,-y
53 -z,-x,y
54 -z,x,-y
55 -y,z,-x
56 y,-z,-x
57 -y,-z,x
58 -y,-x,-z
59 -x,-z,-y
60 -z,-y,-x
61 -x,1/2-y,1/2+z
62 -x,1/2+y,1/2-z
63 x,1/2-y,1/2-z
64 z,1/2-x,1/2-y
65 -z,1/2-x,1/2+y
66 -z,1/2+x,1/2-y
67 -y,1/2+z,1/2-x
68 y,1/2-z,1/2-x
69 -y,1/2-z,1/2+x
70 -y,1/2-x,1/2-z
71 -x,1/2-z,1/2-y
72 -z,1/2-y,1/2-x
73 1/2-x,-y,1/2+z
74 1/2-x,y,1/2-z
75 1/2+x,-y,1/2-z
76 1/2+z,-x,1/2-y
77 1/2-z,-x,1/2+y
78 1/2-z,x,1/2-y
79 1/2-y,z,1/2-x
80 1/2+y,-z,1/2-x
81 1/2-y,-z,1/2+x
82 1/2-y,-x,1/2-z
83 1/2-x,-z,1/2-y
84 1/2-z,-y,1/2-x
85 1/2-x,1/2-y,z
86 1/2-x,1/2+y,-z
87 1/2+x,1/2-y,-z
88 1/2+z,1/2-x,-y
89 1/2-z,1/2-x,y
90 1/2-z,1/2+x,-y
91 1/2-y,1/2+z,-x
92 1/2+y,1/2-z,-x
93 1/2-y,1/2-z,x
94 1/2-y,1/2-x,-z
95 1/2-x,1/2-z,-y
96 1/2-z,1/2-y,-x
97 -x,-y,-z
98 -z,-x,-y
99 -y,-z,-x
100 -y,-x,z
101 -y,x,-z
102 y,-x,-z
103 -x,-z,y
104 x,-z,-y
105 -x,z,-y
106 -z,-y,x
107 -z,y,-x
108 z,-y,-x
109 -x,1/2-y,1/2-z
110 -z,1/2-x,1/2-y
111 -y,1/2-z,1/2-x
112 -y,1/2-x,1/2+z
113 -y,1/2+x,1/2-z
114 y,1/2-x,1/2-z
115 -x,1/2-z,1/2+y
116 x,1/2-z,1/2-y
117 -x,1/2+z,1/2-y
118 -z,1/2-y,1/2+x
119 -z,1/2+y,1/2-x
120 z,1/2-y,1/2-x
121 1/2-x,-y,1/2-z
122 1/2-z,-x,1/2-y
123 1/2-y,-z,1/2-x
124 1/2-y,-x,1/2+z
125 1/2-y,x,1/2-z
126 1/2+y,-x,1/2-z
127 1/2-x,-z,1/2+y
128 1/2+x,-z,1/2-y
129 1/2-x,z,1/2-y
130 1/2-z,-y,1/2+x
131 1/2-z,y,1/2-x
132 1/2+z,-y,1/2-x
133 1/2-x,1/2-y,-z
134 1/2-z,1/2-x,-y
135 1/2-y,1/2-z,-x
136 1/2-y,1/2-x,z
137 1/2-y,1/2+x,-z
138 1/2+y,1/2-x,-z
139 1/2-x,1/2-z,y
140 1/2+x,1/2-z,-y
141 1/2-x,1/2+z,-y
142 1/2-z,1/2-y,x
143 1/2-z,1/2+y,-x
144 1/2+z,1/2-y,-x
145 x,y,-z
146 x,-y,z
147 -x,y,z
148 -z,x,y
149 z,x,-y
150 z,-x,y
151 y,-z,x
152 -y,z,x
153 y,z,-x
154 y,x,z
155 x,z,y
156 z,y,x
157 x,1/2+y,1/2-z
158 x,1/2-y,1/2+z
159 -x,1/2+y,1/2+z
160 -z,1/2+x,1/2+y
161 z,1/2+x,1/2-y
162 z,1/2-x,1/2+y
163 y,1/2-z,1/2+x
164 -y,1/2+z,1/2+x
165 y,1/2+z,1/2-x
166 y,1/2+x,1/2+z
167 x,1/2+z,1/2+y
168 z,1/2+y,1/2+x
169 1/2+x,y,1/2-z
170 1/2+x,-y,1/2+z
171 1/2-x,y,1/2+z
172 1/2-z,x,1/2+y
173 1/2+z,x,1/2-y
174 1/2+z,-x,1/2+y
175 1/2+y,-z,1/2+x
176 1/2-y,z,1/2+x
177 1/2+y,z,1/2-x
178 1/2+y,x,1/2+z
179 1/2+x,z,1/2+y
180 1/2+z,y,1/2+x
181 1/2+x,1/2+y,-z
182 1/2+x,1/2-y,z
183 1/2-x,1/2+y,z
184 1/2-z,1/2+x,y
185 1/2+z,1/2+x,-y
186 1/2+z,1/2-x,y
187 1/2+y,1/2-z,x
188 1/2-y,1/2+z,x
189 1/2+y,1/2+z,-x
190 1/2+y,1/2+x,z
191 1/2+x,1/2+z,y
192 1/2+z,1/2+y,x
_cell_length_a                   44.358(8)
_cell_length_b                   44.358(8)
_cell_length_c                   44.358(8)
_cell_angle_alpha                90
_cell_angle_beta                 90
_cell_angle_gamma                90
_cell_volume                     87280.2
_exptl_crystal_colour            green
_exptl_crystal_description       polyhedra
_cell_formula_units_Z            24
loop_
_atom_site_label
_atom_site_type_symbol
_atom_site_fract_x
_atom_site_fract_y
_atom_site_fract_z
_atom_site_U_iso_or_equiv
_atom_site_thermal_displace_type
O10 O 0.0899(4) 0.5000 0.0000 0.0570 Uiso
O16 O 0.3325(18) 0.1675(18) 0.113(3) 0.0800 Uiso
O17 O 0.1204(12) 0.3796(12) 0.1204(12) 0.1100 Uiso
O18 O 0.149(3) 0.240(3) 0.0000 0.1500 Uiso
N3 N 0.0624 0.4376 -0.0624 0.4390 Uiso
O19 O 0.0509 0.4146 -0.0509 0.4510 Uiso
O19JF O 0.0509 0.4491 -0.0854 0.4510 Uiso
O19EE O 0.0854 0.4491 -0.0509 0.4510 Uiso
O20 O 0.2023(13) 0.2394(13) 0.0000 0.0750 Uiso
O21 O 0.2942(12) 0.2058(12) 0.0729(18) 0.1100 Uiso
O22 O 0.2162(9) 0.2162(9) 0.0547(13) 0.1900 Uiso
O23 O 0.0852(18) 0.4604(19) 0.0000 0.1300 Uiso
O27 O 0.070(2) 0.157(3) 0.070(2) 0.2200 Uiso
O29 O 0.147(3) 0.147(3) 0.0000 0.0500 Uiso
O30 O 0.054(3) 0.231(4) 0.054(3) 0.2800 Uiso
O31 O 0.2668(18) 0.2332(18) 0.037(3) 0.2000 Uiso
O32 O 0.1001(19) 0.2079(18) -0.0375(18) 0.0800 Uiso
O35 O 0.262(5) 0.586(6) 0.0000 0.3800 Uiso
O36 O 0.197(2) 0.548(2) 0.0000 0.1700 Uiso
Cu1 Cu 0.16894(3) 0.33106(3) 0.0000 0.0203 Uani
Cu2 Cu 0.12661(3) 0.37339(3) 0.0000 0.0193 Uani
Cu3 Cu 0.11602(10) 0.16931(9) 0.16931(9) 0.2263 Uani
O1 O 0.10815(14) 0.34819(15) 0.03115(13) 0.0340 Uani
O2 O 0.14358(16) 0.31275(14) 0.03089(14) 0.0390 Uani
C1 C 0.1190(2) 0.3238(3) 0.0405(2) 0.0320 Uani
C2 C 0.0789(2) 0.3224(3) 0.0789(2) 0.0313 Uani
H1 H 0.0710 0.3407 0.0710 0.0380 Uiso
C3 C 0.1036(2) 0.3090(2) 0.0657(2) 0.0357 Uani
C4 C 0.1142(2) 0.2817(3) 0.0754(2) 0.0550 Uani
H2 H 0.1302 0.2720 0.0651 0.0660 Uiso
C5 C 0.1011(3) 0.2680(4) 0.1011(3) 0.0727 Uani
C6 C 0.1120(4) 0.2408(5) 0.1120(4) 0.0953 Uani
N1 N 0.1004(3) 0.2251(3) 0.1356(3) 0.1587 Uani
N2 N 0.1195(4) 0.2023(4) 0.1404(4) 0.2030 Uani
O3 O 0.2028(2) 0.2972(2) 0.0000 0.0633 Uani
O4 O 0.0929(2) 0.4071(2) 0.0000 0.0840 Uani
O5 O 0.1488(8) 0.1488(8) 0.1488(8) 0.2600 Uani
O7 O 0.0931(13) 0.1990(8) 0.1990(8) 0.1590 Uiso
O8 O 0.0671(12) 0.1642(11) 0.1642(11) 0.1330 Uiso
O13 O 0.1383(7) 0.1922(5) 0.1922(5) 0.0850 Uiso
Cu1K Cu 0.0000 0.33106(3) 0.16894(3) 0.0203 Uani
Cu1I Cu 0.0000 0.33106(3) -0.16894(3) 0.0203 Uani
Cu1R Cu 0.16894(3) 0.5000 0.16894(3) 0.0203 Uani
Cu1T Cu 0.16894(3) 0.5000 -0.16894(3) 0.0203 Uani
Cu1H Cu 0.16894(3) 0.0000 0.33106(3) 0.0203 Uani
Cu1A Cu 0.0000 0.16894(3) 0.33106(3) 0.0203 Uani
Cu1NA Cu -0.16894(3) 0.33106(3) 0.0000 0.0203 Uani
Cu1LA Cu -0.16894(3) 0.5000 0.16894(3) 0.0203 Uani
Cu1S Cu -0.16894(3) 0.5000 -0.16894(3) 0.0203 Uani
Cu1OA Cu 0.16894(3) 0.66894(3) 0.0000 0.0203 Uani
Cu2K Cu 0.0000 0.37339(3) 0.12661(3) 0.0193 Uani
Cu2I Cu 0.0000 0.37339(3) -0.12661(3) 0.0193 Uani
Cu2R Cu 0.12661(3) 0.5000 0.12661(3) 0.0193 Uani
Cu2T Cu 0.12661(3) 0.5000 -0.12661(3) 0.0193 Uani
Cu2H Cu 0.12661(3) 0.0000 0.37339(3) 0.0193 Uani
Cu2A Cu 0.0000 0.12661(3) 0.37339(3) 0.0193 Uani
Cu2NA Cu -0.12661(3) 0.37339(3) 0.0000 0.0193 Uani
Cu2LA Cu -0.12661(3) 0.5000 0.12661(3) 0.0193 Uani
Cu2S Cu -0.12661(3) 0.5000 -0.12661(3) 0.0193 Uani
Cu2OA Cu 0.12661(3) 0.62661(3) 0.0000 0.0193 Uani
Cu3B Cu 0.16931(9) 0.16931(9) 0.11602(10) 0.2263 Uani
Cu3F Cu 0.11602(10) 0.16931(9) -0.16931(9) 0.2263 Uani
Cu3I Cu 0.16931(9) 0.16931(9) -0.11602(10) 0.2263 Uani
Cu3EE Cu 0.33069(9) 0.38398(10) 0.16931(9) 0.2263 Uani
Cu3KE Cu 0.33069(9) 0.33069(9) 0.11602(10) 0.2263 Uani
Cu3CE Cu 0.33069(9) 0.38398(10) -0.16931(9) 0.2263 Uani
Cu3DE Cu 0.33069(9) 0.33069(9) -0.11602(10) 0.2263 Uani
Cu3A Cu 0.16931(9) 0.11602(10) 0.16931(9) 0.2263 Uani
Cu3K Cu -0.16931(9) 0.16931(9) 0.11602(10) 0.2263 Uani
Cu3G Cu -0.11602(10) 0.16931(9) 0.16931(9) 0.2263 Uani
Cu3ID Cu 0.16931(9) 0.38398(10) 0.33069(9) 0.2263 Uani
Cu3KD Cu 0.11602(10) 0.33069(9) 0.33069(9) 0.2263 Uani
Cu3ED Cu -0.16931(9) 0.38398(10) 0.33069(9) 0.2263 Uani
Cu3DD Cu -0.11602(10) 0.33069(9) 0.33069(9) 0.2263 Uani
Cu3BD Cu -0.16931(9) 0.16931(9) -0.11602(10) 0.2263 Uani
Cu3ZC Cu -0.11602(10) 0.16931(9) -0.16931(9) 0.2263 Uani
Cu3P Cu 0.16931(9) 0.38398(10) -0.33069(9) 0.2263 Uani
Cu3T Cu 0.11602(10) 0.33069(9) -0.33069(9) 0.2263 Uani
Cu3GD Cu -0.16931(9) 0.38398(10) -0.33069(9) 0.2263 Uani
Cu3JD Cu -0.11602(10) 0.33069(9) -0.33069(9) 0.2263 Uani
Cu3UA Cu 0.33069(9) 0.66931(9) 0.11602(10) 0.2263 Uani
Cu3OA Cu 0.33069(9) 0.61602(10) 0.16931(9) 0.2263 Uani
Cu3C Cu 0.16931(9) 0.11602(10) -0.16931(9) 0.2263 Uani
Cu3HE Cu 0.38398(10) 0.33069(9) 0.16931(9) 0.2263 Uani
Cu3BE Cu 0.38398(10) 0.33069(9) -0.16931(9) 0.2263 Uani
O1YE O 0.03115(13) 0.34819(15) 0.10815(14) 0.0340 Uani
O1NE O 0.10815(14) 0.34819(15) -0.03115(13) 0.0340 Uani
O1I O 0.03115(13) 0.34819(15) -0.10815(14) 0.0340 Uani
O1EE O 0.15181(15) 0.39185(14) 0.03115(13) 0.0340 Uani
O1NC O 0.15181(15) 0.46885(13) 0.10815(14) 0.0340 Uani
O1OC O 0.15181(15) 0.39185(14) -0.03115(13) 0.0340 Uani
O1DE O 0.15181(15) 0.46885(13) -0.10815(14) 0.0340 Uani
O1XE O 0.10815(14) 0.03115(13) 0.34819(15) 0.0340 Uani
O1A O 0.03115(13) 0.10815(14) 0.34819(15) 0.0340 Uani
O1K O -0.03115(13) 0.34819(15) 0.10815(14) 0.0340 Uani
O1PE O -0.10815(14) 0.34819(15) 0.03115(13) 0.0340 Uani
O1KB O 0.03115(13) 0.39185(14) 0.15181(15) 0.0340 Uani
O1KD O 0.10815(14) 0.46885(13) 0.15181(15) 0.0340 Uani
O1ED O -0.03115(13) 0.39185(14) 0.15181(15) 0.0340 Uani
O1RB O -0.10815(14) 0.46885(13) 0.15181(15) 0.0340 Uani
O1BD O -0.03115(13) 0.34819(15) -0.10815(14) 0.0340 Uani
O1WA O -0.10815(14) 0.34819(15) -0.03115(13) 0.0340 Uani
O1EF O 0.03115(13) 0.39185(14) -0.15181(15) 0.0340 Uani
O1T O 0.10815(14) 0.46885(13) -0.15181(15) 0.0340 Uani
O1LB O -0.03115(13) 0.39185(14) -0.15181(15) 0.0340 Uani
O1JD O -0.10815(14) 0.46885(13) -0.15181(15) 0.0340 Uani
O1EG O 0.15181(15) 0.53115(13) 0.10815(14) 0.0340 Uani
O1OA O 0.15181(15) 0.60815(14) 0.03115(13) 0.0340 Uani
O1R O 0.10815(14) 0.53115(13) 0.15181(15) 0.0340 Uani
O1JF O 0.10815(14) 0.53115(13) -0.15181(15) 0.0340 Uani
O1LC O 0.15181(15) 0.53115(13) -0.10815(14) 0.0340 Uani
O1H O 0.10815(14) -0.03115(13) 0.34819(15) 0.0340 Uani
O1RD O 0.15181(15) -0.03115(13) 0.39185(14) 0.0340 Uani
O1ZB O 0.15181(15) 0.03115(13) 0.39185(14) 0.0340 Uani
O2YE O 0.03089(14) 0.31275(14) 0.14358(16) 0.0390 Uani
O2NE O 0.14358(16) 0.31275(14) -0.03089(14) 0.0390 Uani
O2I O 0.03089(14) 0.31275(14) -0.14358(16) 0.0390 Uani
O2EE O 0.18725(14) 0.35642(16) 0.03089(14) 0.0390 Uani
O2NC O 0.18725(14) 0.46911(14) 0.14358(16) 0.0390 Uani
O2OC O 0.18725(14) 0.35642(16) -0.03089(14) 0.0390 Uani
O2DE O 0.18725(14) 0.46911(14) -0.14358(16) 0.0390 Uani
O2XE O 0.14358(16) 0.03089(14) 0.31275(14) 0.0390 Uani
O2A O 0.03089(14) 0.14358(16) 0.31275(14) 0.0390 Uani
O2K O -0.03089(14) 0.31275(14) 0.14358(16) 0.0390 Uani
O2PE O -0.14358(16) 0.31275(14) 0.03089(14) 0.0390 Uani
O2KB O 0.03089(14) 0.35642(16) 0.18725(14) 0.0390 Uani
O2KD O 0.14358(16) 0.46911(14) 0.18725(14) 0.0390 Uani
O2ED O -0.03089(14) 0.35642(16) 0.18725(14) 0.0390 Uani
O2RB O -0.14358(16) 0.46911(14) 0.18725(14) 0.0390 Uani
O2BD O -0.03089(14) 0.31275(14) -0.14358(16) 0.0390 Uani
O2WA O -0.14358(16) 0.31275(14) -0.03089(14) 0.0390 Uani
O2EF O 0.03089(14) 0.35642(16) -0.18725(14) 0.0390 Uani
O2T O 0.14358(16) 0.46911(14) -0.18725(14) 0.0390 Uani
O2LB O -0.03089(14) 0.35642(16) -0.18725(14) 0.0390 Uani
O2JD O -0.14358(16) 0.46911(14) -0.18725(14) 0.0390 Uani
O2EG O 0.18725(14) 0.53089(14) 0.14358(16) 0.0390 Uani
O2OA O 0.18725(14) 0.64358(16) 0.03089(14) 0.0390 Uani
O2R O 0.14358(16) 0.53089(14) 0.18725(14) 0.0390 Uani
O2JF O 0.14358(16) 0.53089(14) -0.18725(14) 0.0390 Uani
O2LC O 0.18725(14) 0.53089(14) -0.14358(16) 0.0390 Uani
O2H O 0.14358(16) -0.03089(14) 0.31275(14) 0.0390 Uani
O2RD O 0.18725(14) -0.03089(14) 0.35642(16) 0.0390 Uani
O2ZB O 0.18725(14) 0.03089(14) 0.35642(16) 0.0390 Uani
C1YE C 0.0405(2) 0.3238(3) 0.1190(2) 0.0320 Uani
C1NE C 0.1190(2) 0.3238(3) -0.0405(2) 0.0320 Uani
C1I C 0.0405(2) 0.3238(3) -0.1190(2) 0.0320 Uani
C1EE C 0.1762(3) 0.3810(2) 0.0405(2) 0.0320 Uani
C1NC C 0.1762(3) 0.4595(2) 0.1190(2) 0.0320 Uani
C1OC C 0.1762(3) 0.3810(2) -0.0405(2) 0.0320 Uani
C1DE C 0.1762(3) 0.4595(2) -0.1190(2) 0.0320 Uani
C1XE C 0.1190(2) 0.0405(2) 0.3238(3) 0.0320 Uani
C1A C 0.0405(2) 0.1190(2) 0.3238(3) 0.0320 Uani
C1K C -0.0405(2) 0.3238(3) 0.1190(2) 0.0320 Uani
C1PE C -0.1190(2) 0.3238(3) 0.0405(2) 0.0320 Uani
C1KB C 0.0405(2) 0.3810(2) 0.1762(3) 0.0320 Uani
C1KD C 0.1190(2) 0.4595(2) 0.1762(3) 0.0320 Uani
C1ED C -0.0405(2) 0.3810(2) 0.1762(3) 0.0320 Uani
C1RB C -0.1190(2) 0.4595(2) 0.1762(3) 0.0320 Uani
C1BD C -0.0405(2) 0.3238(3) -0.1190(2) 0.0320 Uani
C1WA C -0.1190(2) 0.3238(3) -0.0405(2) 0.0320 Uani
C1EF C 0.0405(2) 0.3810(2) -0.1762(3) 0.0320 Uani
C1T C 0.1190(2) 0.4595(2) -0.1762(3) 0.0320 Uani
C1LB C -0.0405(2) 0.3810(2) -0.1762(3) 0.0320 Uani
C1JD C -0.1190(2) 0.4595(2) -0.1762(3) 0.0320 Uani
C1EG C 0.1762(3) 0.5405(2) 0.1190(2) 0.0320 Uani
C1OA C 0.1762(3) 0.6190(2) 0.0405(2) 0.0320 Uani
C2I C 0.0789(2) 0.3224(3) -0.0789(2) 0.0313 Uani
C2EE C 0.1776(3) 0.4211(2) 0.0789(2) 0.0313 Uani
C2DE C 0.1776(3) 0.4211(2) -0.0789(2) 0.0313 Uani
C2A C 0.0789(2) 0.0789(2) 0.3224(3) 0.0313 Uani
C2K C -0.0789(2) 0.3224(3) 0.0789(2) 0.0313 Uani
C2KD C 0.0789(2) 0.4211(2) 0.1776(3) 0.0313 Uani
C2ED C -0.0789(2) 0.4211(2) 0.1776(3) 0.0313 Uani
C2BD C -0.0789(2) 0.3224(3) -0.0789(2) 0.0313 Uani
C2T C 0.0789(2) 0.4211(2) -0.1776(3) 0.0313 Uani
C2JD C -0.0789(2) 0.4211(2) -0.1776(3) 0.0313 Uani
C2OA C 0.1776(3) 0.5789(2) 0.0789(2) 0.0313 Uani
H1I H 0.0710 0.3407 -0.0710 0.0380 Uiso
H1EE H 0.1593 0.4290 0.0710 0.0380 Uiso
H1DE H 0.1593 0.4290 -0.0710 0.0380 Uiso
H1A H 0.0710 0.0710 0.3407 0.0380 Uiso
H1K H -0.0710 0.3407 0.0710 0.0380 Uiso
H1KD H 0.0710 0.4290 0.1593 0.0380 Uiso
H1ED H -0.0710 0.4290 0.1593 0.0380 Uiso
H1BD H -0.0710 0.3407 -0.0710 0.0380 Uiso
H1T H 0.0710 0.4290 -0.1593 0.0380 Uiso
H1JD H -0.0710 0.4290 -0.1593 0.0380 Uiso
H1OA H 0.1593 0.5710 0.0710 0.0380 Uiso
C3YE C 0.0657(2) 0.3090(2) 0.1036(2) 0.0357 Uani
C3NE C 0.1036(2) 0.3090(2) -0.0657(2) 0.0357 Uani
C3I C 0.0657(2) 0.3090(2) -0.1036(2) 0.0357 Uani
C3EE C 0.1910(2) 0.3964(2) 0.0657(2) 0.0357 Uani
C3NC C 0.1910(2) 0.4343(2) 0.1036(2) 0.0357 Uani
C3OC C 0.1910(2) 0.3964(2) -0.0657(2) 0.0357 Uani
C3DE C 0.1910(2) 0.4343(2) -0.1036(2) 0.0357 Uani
C3XE C 0.1036(2) 0.0657(2) 0.3090(2) 0.0357 Uani
C3A C 0.0657(2) 0.1036(2) 0.3090(2) 0.0357 Uani
C3K C -0.0657(2) 0.3090(2) 0.1036(2) 0.0357 Uani
C3PE C -0.1036(2) 0.3090(2) 0.0657(2) 0.0357 Uani
C3KB C 0.0657(2) 0.3964(2) 0.1910(2) 0.0357 Uani
C3KD C 0.1036(2) 0.4343(2) 0.1910(2) 0.0357 Uani
C3ED C -0.0657(2) 0.3964(2) 0.1910(2) 0.0357 Uani
C3RB C -0.1036(2) 0.4343(2) 0.1910(2) 0.0357 Uani
C3BD C -0.0657(2) 0.3090(2) -0.1036(2) 0.0357 Uani
C3WA C -0.1036(2) 0.3090(2) -0.0657(2) 0.0357 Uani
C3EF C 0.0657(2) 0.3964(2) -0.1910(2) 0.0357 Uani
C3T C 0.1036(2) 0.4343(2) -0.1910(2) 0.0357 Uani
C3LB C -0.0657(2) 0.3964(2) -0.1910(2) 0.0357 Uani
C3JD C -0.1036(2) 0.4343(2) -0.1910(2) 0.0357 Uani
C3EG C 0.1910(2) 0.5657(2) 0.1036(2) 0.0357 Uani
C3OA C 0.1910(2) 0.6036(2) 0.0657(2) 0.0357 Uani
C4YE C 0.0754(2) 0.2817(3) 0.1142(2) 0.0550 Uani
C4NE C 0.1142(2) 0.2817(3) -0.0754(2) 0.0550 Uani
C4I C 0.0754(2) 0.2817(3) -0.1142(2) 0.0550 Uani
C4EE C 0.2183(3) 0.3858(2) 0.0754(2) 0.0550 Uani
C4NC C 0.2183(3) 0.4246(2) 0.1142(2) 0.0550 Uani
C4OC C 0.2183(3) 0.3858(2) -0.0754(2) 0.0550 Uani
C4DE C 0.2183(3) 0.4246(2) -0.1142(2) 0.0550 Uani
C4XE C 0.1142(2) 0.0754(2) 0.2817(3) 0.0550 Uani
C4A C 0.0754(2) 0.1142(2) 0.2817(3) 0.0550 Uani
C4K C -0.0754(2) 0.2817(3) 0.1142(2) 0.0550 Uani
C4PE C -0.1142(2) 0.2817(3) 0.0754(2) 0.0550 Uani
C4KB C 0.0754(2) 0.3858(2) 0.2183(3) 0.0550 Uani
C4KD C 0.1142(2) 0.4246(2) 0.2183(3) 0.0550 Uani
C4ED C -0.0754(2) 0.3858(2) 0.2183(3) 0.0550 Uani
C4RB C -0.1142(2) 0.4246(2) 0.2183(3) 0.0550 Uani
C4BD C -0.0754(2) 0.2817(3) -0.1142(2) 0.0550 Uani
C4WA C -0.1142(2) 0.2817(3) -0.0754(2) 0.0550 Uani
C4EF C 0.0754(2) 0.3858(2) -0.2183(3) 0.0550 Uani
C4T C 0.1142(2) 0.4246(2) -0.2183(3) 0.0550 Uani
C4LB C -0.0754(2) 0.3858(2) -0.2183(3) 0.0550 Uani
C4JD C -0.1142(2) 0.4246(2) -0.2183(3) 0.0550 Uani
C4EG C 0.2183(3) 0.5754(2) 0.1142(2) 0.0550 Uani
C4OA C 0.2183(3) 0.6142(2) 0.0754(2) 0.0550 Uani
H2YE H 0.0651 0.2720 0.1302 0.0660 Uiso
H2NE H 0.1302 0.2720 -0.0651 0.0660 Uiso
H2I H 0.0651 0.2720 -0.1302 0.0660 Uiso
H2EE H 0.2280 0.3698 0.0651 0.0660 Uiso
H2NC H 0.2280 0.4349 0.1302 0.0660 Uiso
H2OC H 0.2280 0.3698 -0.0651 0.0660 Uiso
H2DE H 0.2280 0.4349 -0.1302 0.0660 Uiso
H2XE H 0.1302 0.0651 0.2720 0.0660 Uiso
H2A H 0.0651 0.1302 0.2720 0.0660 Uiso
H2K H -0.0651 0.2720 0.1302 0.0660 Uiso
H2PE H -0.1302 0.2720 0.0651 0.0660 Uiso
H2KB H 0.0651 0.3698 0.2280 0.0660 Uiso
H2KD H 0.1302 0.4349 0.2280 0.0660 Uiso
H2ED H -0.0651 0.3698 0.2280 0.0660 Uiso
H2RB H -0.1302 0.4349 0.2280 0.0660 Uiso
H2BD H -0.0651 0.2720 -0.1302 0.0660 Uiso
H2WA H -0.1302 0.2720 -0.0651 0.0660 Uiso
H2EF H 0.0651 0.3698 -0.2280 0.0660 Uiso
H2T H 0.1302 0.4349 -0.2280 0.0660 Uiso
H2LB H -0.0651 0.3698 -0.2280 0.0660 Uiso
H2JD H -0.1302 0.4349 -0.2280 0.0660 Uiso
H2EG H 0.2280 0.5651 0.1302 0.0660 Uiso
H2OA H 0.2280 0.6302 0.0651 0.0660 Uiso
C5I C 0.1011(3) 0.2680(4) -0.1011(3) 0.0727 Uani
C5EE C 0.2320(4) 0.3989(3) 0.1011(3) 0.0727 Uani
C5DE C 0.2320(4) 0.3989(3) -0.1011(3) 0.0727 Uani
C5A C 0.1011(3) 0.1011(3) 0.2680(4) 0.0727 Uani
C5K C -0.1011(3) 0.2680(4) 0.1011(3) 0.0727 Uani
C5KD C 0.1011(3) 0.3989(3) 0.2320(4) 0.0727 Uani
C5ED C -0.1011(3) 0.3989(3) 0.2320(4) 0.0727 Uani
C5BD C -0.1011(3) 0.2680(4) -0.1011(3) 0.0727 Uani
C5T C 0.1011(3) 0.3989(3) -0.2320(4) 0.0727 Uani
C5JD C -0.1011(3) 0.3989(3) -0.2320(4) 0.0727 Uani
C5OA C 0.2320(4) 0.6011(3) 0.1011(3) 0.0727 Uani
C6I C 0.1120(4) 0.2408(5) -0.1120(4) 0.0953 Uani
C6EE C 0.2592(5) 0.3880(4) 0.1120(4) 0.0953 Uani
C6DE C 0.2592(5) 0.3880(4) -0.1120(4) 0.0953 Uani
C6A C 0.1120(4) 0.1120(4) 0.2408(5) 0.0953 Uani
C6K C -0.1120(4) 0.2408(5) 0.1120(4) 0.0953 Uani
C6KD C 0.1120(4) 0.3880(4) 0.2592(5) 0.0953 Uani
C6ED C -0.1120(4) 0.3880(4) 0.2592(5) 0.0953 Uani
C6BD C -0.1120(4) 0.2408(5) -0.1120(4) 0.0953 Uani
C6T C 0.1120(4) 0.3880(4) -0.2592(5) 0.0953 Uani
C6JD C -0.1120(4) 0.3880(4) -0.2592(5) 0.0953 Uani
C6OA C 0.2592(5) 0.6120(4) 0.1120(4) 0.0953 Uani
N1YE N 0.1356(3) 0.2251(3) 0.1004(3) 0.1587 Uani
N1NE N 0.1004(3) 0.2251(3) -0.1356(3) 0.1587 Uani
N1I N 0.1356(3) 0.2251(3) -0.1004(3) 0.1587 Uani
N1EE N 0.2749(3) 0.3996(3) 0.1356(3) 0.1587 Uani
N1NC N 0.2749(3) 0.3644(3) 0.1004(3) 0.1587 Uani
N1OC N 0.2749(3) 0.3996(3) -0.1356(3) 0.1587 Uani
N1DE N 0.2749(3) 0.3644(3) -0.1004(3) 0.1587 Uani
N1XE N 0.1004(3) 0.1356(3) 0.2251(3) 0.1587 Uani
N1A N 0.1356(3) 0.1004(3) 0.2251(3) 0.1587 Uani
N1K N -0.1356(3) 0.2251(3) 0.1004(3) 0.1587 Uani
N1PE N -0.1004(3) 0.2251(3) 0.1356(3) 0.1587 Uani
N1KB N 0.1356(3) 0.3996(3) 0.2749(3) 0.1587 Uani
N1KD N 0.1004(3) 0.3644(3) 0.2749(3) 0.1587 Uani
N1ED N -0.1356(3) 0.3996(3) 0.2749(3) 0.1587 Uani
N1RB N -0.1004(3) 0.3644(3) 0.2749(3) 0.1587 Uani
N1BD N -0.1356(3) 0.2251(3) -0.1004(3) 0.1587 Uani
N1WA N -0.1004(3) 0.2251(3) -0.1356(3) 0.1587 Uani
N1EF N 0.1356(3) 0.3996(3) -0.2749(3) 0.1587 Uani
N1T N 0.1004(3) 0.3644(3) -0.2749(3) 0.1587 Uani
N1LB N -0.1356(3) 0.3996(3) -0.2749(3) 0.1587 Uani
N1JD N -0.1004(3) 0.3644(3) -0.2749(3) 0.1587 Uani
N1EG N 0.2749(3) 0.6356(3) 0.1004(3) 0.1587 Uani
N1OA N 0.2749(3) 0.6004(3) 0.1356(3) 0.1587 Uani
N2YE N 0.1404(4) 0.2023(4) 0.1195(4) 0.2030 Uani
N2NE N 0.1195(4) 0.2023(4) -0.1404(4) 0.2030 Uani
N2I N 0.1404(4) 0.2023(4) -0.1195(4) 0.2030 Uani
N2EE N 0.2977(4) 0.3805(4) 0.1404(4) 0.2030 Uani
N2NC N 0.2977(4) 0.3596(4) 0.1195(4) 0.2030 Uani
N2OC N 0.2977(4) 0.3805(4) -0.1404(4) 0.2030 Uani
N2DE N 0.2977(4) 0.3596(4) -0.1195(4) 0.2030 Uani
N2XE N 0.1195(4) 0.1404(4) 0.2023(4) 0.2030 Uani
N2A N 0.1404(4) 0.1195(4) 0.2023(4) 0.2030 Uani
N2K N -0.1404(4) 0.2023(4) 0.1195(4) 0.2030 Uani
N2PE N -0.1195(4) 0.2023(4) 0.1404(4) 0.2030 Uani
N2KB N 0.1404(4) 0.3805(4) 0.2977(4) 0.2030 Uani
N2KD N 0.1195(4) 0.3596(4) 0.2977(4) 0.2030 Uani
N2ED N -0.1404(4) 0.3805(4) 0.2977(4) 0.2030 Uani
N2RB N -0.1195(4) 0.3596(4) 0.2977(4) 0.2030 Uani
N2BD N -0.1404(4) 0.2023(4) -0.1195(4) 0.2030 Uani
N2WA N -0.1195(4) 0.2023(4) -0.1404(4) 0.2030 Uani
N2EF N 0.1404(4) 0.3805(4) -0.2977(4) 0.2030 Uani
N2T N 0.1195(4) 0.3596(4) -0.2977(4) 0.2030 Uani
N2LB N -0.1404(4) 0.3805(4) -0.2977(4) 0.2030 Uani
N2JD N -0.1195(4) 0.3596(4) -0.2977(4) 0.2030 Uani
N2EG N 0.2977(4) 0.6404(4) 0.1195(4) 0.2030 Uani
N2OA N 0.2977(4) 0.6195(4) 0.1404(4) 0.2030 Uani
N2B N 0.2023(4) 0.1404(4) 0.1195(4) 0.2030 Uani
N2F N 0.1195(4) 0.1404(4) -0.2023(4) 0.2030 Uani
N2VE N 0.2023(4) 0.1404(4) -0.1195(4) 0.2030 Uani
N2JC N 0.3596(4) 0.3805(4) 0.2023(4) 0.2030 Uani
N2KE N 0.3596(4) 0.2977(4) 0.1195(4) 0.2030 Uani
N2CE N 0.3596(4) 0.3805(4) -0.2023(4) 0.2030 Uani
N2QC N 0.3596(4) 0.2977(4) -0.1195(4) 0.2030 Uani
N2WE N 0.2023(4) 0.1195(4) 0.1404(4) 0.2030 Uani
N2UE N -0.2023(4) 0.1404(4) 0.1195(4) 0.2030 Uani
N2G N -0.1195(4) 0.1404(4) 0.2023(4) 0.2030 Uani
N2ID N 0.2023(4) 0.3805(4) 0.3596(4) 0.2030 Uani
O3K O 0.0000 0.2972(2) 0.2028(2) 0.0633 Uani
O3I O 0.0000 0.2972(2) -0.2028(2) 0.0633 Uani
O3R O 0.2028(2) 0.5000 0.2028(2) 0.0633 Uani
O3T O 0.2028(2) 0.5000 -0.2028(2) 0.0633 Uani
O3H O 0.2028(2) 0.0000 0.2972(2) 0.0633 Uani
O4K O 0.0000 0.4071(2) 0.0929(2) 0.0840 Uani
O4I O 0.0000 0.4071(2) -0.0929(2) 0.0840 Uani
O4R O 0.0929(2) 0.5000 0.0929(2) 0.0840 Uani
O4T O 0.0929(2) 0.5000 -0.0929(2) 0.0840 Uani
O4H O 0.0929(2) 0.0000 0.4071(2) 0.0840 Uani
O5C O 0.1488(8) 0.1488(8) -0.1488(8) 0.2600 Uani
O5EE O 0.3512(8) 0.3512(8) 0.1488(8) 0.2600 Uani
O5BE O 0.3512(8) 0.3512(8) -0.1488(8) 0.2600 Uani
O5E O -0.1488(8) 0.1488(8) 0.1488(8) 0.2600 Uani
O5ID O 0.1488(8) 0.3512(8) 0.3512(8) 0.2600 Uani
O7B O 0.1990(8) 0.1990(8) 0.0931(13) 0.1590 Uiso
O7F O 0.0931(13) 0.1990(8) -0.1990(8) 0.1590 Uiso
O7I O 0.1990(8) 0.1990(8) -0.0931(13) 0.1590 Uiso
O7EE O 0.3010(8) 0.4069(13) 0.1990(8) 0.1590 Uiso
O7KE O 0.3010(8) 0.3010(8) 0.0931(13) 0.1590 Uiso
O7CE O 0.3010(8) 0.4069(13) -0.1990(8) 0.1590 Uiso
O7DE O 0.3010(8) 0.3010(8) -0.0931(13) 0.1590 Uiso
O7A O 0.1990(8) 0.0931(13) 0.1990(8) 0.1590 Uiso
O7K O -0.1990(8) 0.1990(8) 0.0931(13) 0.1590 Uiso
O7G O -0.0931(13) 0.1990(8) 0.1990(8) 0.1590 Uiso
O7ID O 0.1990(8) 0.4069(13) 0.3010(8) 0.1590 Uiso
O8B O 0.1642(11) 0.1642(11) 0.0671(12) 0.1330 Uiso
O8F O 0.0671(12) 0.1642(11) -0.1642(11) 0.1330 Uiso
O8I O 0.1642(11) 0.1642(11) -0.0671(12) 0.1330 Uiso
O8EE O 0.3358(11) 0.4329(12) 0.1642(11) 0.1330 Uiso
O8KE O 0.3358(11) 0.3358(11) 0.0671(12) 0.1330 Uiso
O8CE O 0.3358(11) 0.4329(12) -0.1642(11) 0.1330 Uiso
O8DE O 0.3358(11) 0.3358(11) -0.0671(12) 0.1330 Uiso
O8A O 0.1642(11) 0.0671(12) 0.1642(11) 0.1330 Uiso
O8K O -0.1642(11) 0.1642(11) 0.0671(12) 0.1330 Uiso
O8G O -0.0671(12) 0.1642(11) 0.1642(11) 0.1330 Uiso
O8ID O 0.1642(11) 0.4329(12) 0.3358(11) 0.1330 Uiso
O13B O 0.1922(5) 0.1922(5) 0.1383(7) 0.0850 Uiso
O13F O 0.1383(7) 0.1922(5) -0.1922(5) 0.0850 Uiso
O13I O 0.1922(5) 0.1922(5) -0.1383(7) 0.0850 Uiso
O13EE O 0.3078(5) 0.3617(7) 0.1922(5) 0.0850 Uiso
O13KE O 0.3078(5) 0.3078(5) 0.1383(7) 0.0850 Uiso
O13CE O 0.3078(5) 0.3617(7) -0.1922(5) 0.0850 Uiso
O13DE O 0.3078(5) 0.3078(5) -0.1383(7) 0.0850 Uiso
O13A O 0.1922(5) 0.1383(7) 0.1922(5) 0.0850 Uiso
O13K O -0.1922(5) 0.1922(5) 0.1383(7) 0.0850 Uiso
O13G O -0.1383(7) 0.1922(5) 0.1922(5) 0.0850 Uiso
O13ID O 0.1922(5) 0.3617(7) 0.3078(5) 0.0850 Uiso
O6? O 0.0745(12) 0.1775(13) 0.1775(13) 0.1400 Uiso
O9? O 0.0711(15) 0.1911(13) 0.1911(13) 0.0710 Uiso
O11? O 0.1409(12) 0.5000 0.0000 0.1260 Uiso
O12? O 0.135(6) 0.228(5) 0.0000 0.1900 Uiso
O14? O 0.2500 0.2500 0.0590(7) 0.0850 Uiso
O15? O 0.2075(7) 0.2075(7) 0.0000 0.0950 Uiso
O24? O 0.301(2) 0.199(2) 0.106(3) 0.2200 Uiso
O25? O 0.150(2) 0.4891(17) -0.033(2) 0.1000 Uiso
O26? O 0.170(3) 0.5155(18) -0.0155(18) 0.2300 Uiso
O28? O -0.093(4) -0.093(4) 0.178(5) 0.2000 Uiso
O33? O 0.3585(15) 0.1415(15) 0.127(2) 0.1700 Uiso
O34? O 0.118(5) 0.231(5) 0.0000 0.2500 Uiso
O37? O 0.062(2) 0.146(2) 0.146(2) 0.1700 Uiso
loop_
_atom_site_aniso_label
_atom_site_aniso_U_11
_atom_site_aniso_U_22
_atom_site_aniso_U_33
_atom_site_aniso_U_23
_atom_site_aniso_U_13
_atom_site_aniso_U_12
Cu1 0.0225(10) 0.0225(10) 0.0159(14) 0.000 0.000 0.0108(10)
Cu2 0.0212(10) 0.0212(10) 0.0156(14) 0.000 0.000 0.0097(10)
Cu3 0.235(5) 0.222(4) 0.222(4) 0.198(4) 0.199(4) 0.199(4)
O1 0.040(5) 0.030(4) 0.032(4) 0.020(3) 0.005(3) 0.014(3)
O2 0.046(5) 0.035(4) 0.036(4) 0.014(3) 0.022(4) 0.020(4)
C1 0.036(7) 0.043(8) 0.017(6) 0.003(6) 0.001(6) -0.006(6)
C2 0.029(6) 0.036(9) 0.029(6) 0.012(5) 0.000(8) 0.012(5)
C3 0.043(7) 0.030(7) 0.034(7) 0.012(6) 0.011(5) 0.002(6)
C4 0.060(8) 0.057(9) 0.048(8) 0.028(7) 0.036(6) 0.017(6)
C5 0.092(9) 0.034(11) 0.092(9) 0.031(8) 0.027(12) 0.031(8)
C6 0.085(10) 0.116(18) 0.085(10) 0.076(11) 0.061(12) 0.076(11)
N1 0.175(14) 0.169(14) 0.132(12) 0.121(11) 0.115(10) 0.138(12)
N2 0.220(16) 0.189(15) 0.200(15) 0.175(13) 0.174(13) 0.190(14)
O3 0.058(7) 0.058(7) 0.074(12) 0.000 0.000 0.024(8)
O4 0.049(7) 0.049(7) 0.154(17) 0.000 0.000 0.045(8)
O5 0.26(3) 0.26(3) 0.26(3) 0.22(3) 0.22(3) 0.22(3)
Cu1K 0.0159 0.0225 0.0225 0.0108 0 0
Cu1I 0.0159 0.0225 0.0225 -0.0108 0 0
Cu1R 0.0225 0.0159 0.0225 0 -0.0108 0
Cu1T 0.0225 0.0159 0.0225 0 0.0108 0
Cu1H 0.0225 0.0159 0.0225 0 0.0108 0
Cu1A 0.0159 0.0225 0.0225 0.0108 0 0
Cu1NA 0.0225 0.0225 0.0159 0 0 -0.0108
Cu1LA 0.0225 0.0159 0.0225 0 0.0108 0
Cu1S 0.0225 0.0159 0.0225 0 -0.0108 0
Cu1OA 0.0225 0.0225 0.0159 0 0 -0.0108
Cu2K 0.0156 0.0212 0.0212 0.0097 0 0
Cu2I 0.0156 0.0212 0.0212 -0.0097 0 0
Cu2R 0.0212 0.0156 0.0212 0 -0.0097 0
Cu2T 0.0212 0.0156 0.0212 0 0.0097 0
Cu2H 0.0212 0.0156 0.0212 0 0.0097 0
Cu2A 0.0156 0.0212 0.0212 0.0097 0 0
Cu2NA 0.0212 0.0212 0.0156 0 0 -0.0097
Cu2LA 0.0212 0.0156 0.0212 0 0.0097 0
Cu2S 0.0212 0.0156 0.0212 0 -0.0097 0
Cu2OA 0.0212 0.0212 0.0156 0 0 -0.0097
Cu3B 0.222 0.222 0.235 0.199 0.199 0.198
Cu3F 0.235 0.222 0.222 -0.198 -0.199 0.199
Cu3I 0.222 0.222 0.235 -0.199 -0.199 0.198
Cu3EE 0.222 0.235 0.222 -0.199 -0.198 0.199
Cu3KE 0.222 0.222 0.235 -0.199 -0.199 0.198
Cu3CE 0.222 0.235 0.222 0.199 0.198 0.199
Cu3DE 0.222 0.222 0.235 0.199 0.199 0.198
Cu3A 0.222 0.235 0.222 0.199 0.198 0.199
Cu3K 0.222 0.222 0.235 0.199 -0.199 -0.198
Cu3G 0.235 0.222 0.222 0.198 -0.199 -0.199
Cu3ID 0.222 0.235 0.222 0.199 -0.198 -0.199
Cu3KD 0.235 0.222 0.222 0.198 -0.199 -0.199
Cu3ED 0.222 0.235 0.222 0.199 0.198 0.199
Cu3DD 0.235 0.222 0.222 0.198 0.199 0.199
Cu3BD 0.222 0.222 0.235 -0.199 0.199 -0.198
Cu3ZC 0.235 0.222 0.222 -0.198 0.199 -0.199
Cu3P 0.222 0.235 0.222 -0.199 0.198 -0.199
Cu3T 0.235 0.222 0.222 -0.198 0.199 -0.199
Cu3GD 0.222 0.235 0.222 -0.199 -0.198 0.199
Cu3JD 0.235 0.222 0.222 -0.198 -0.199 0.199
Cu3UA 0.222 0.222 0.235 0.199 -0.199 -0.198
Cu3OA 0.222 0.235 0.222 0.199 -0.198 -0.199
Cu3C 0.222 0.235 0.222 -0.199 -0.198 0.199
Cu3HE 0.235 0.222 0.222 -0.198 -0.199 0.199
Cu3BE 0.235 0.222 0.222 0.198 0.199 0.199
O1YE 0.032 0.03 0.04 0.014 0.005 0.02
O1NE 0.04 0.03 0.032 -0.02 -0.005 0.014
O1I 0.032 0.03 0.04 -0.014 -0.005 0.02
O1EE 0.03 0.04 0.032 -0.005 -0.02 0.014
O1NC 0.03 0.032 0.04 -0.005 -0.014 0.02
O1OC 0.03 0.04 0.032 0.005 0.02 0.014
O1DE 0.03 0.032 0.04 0.005 0.014 0.02
O1XE 0.04 0.032 0.03 0.02 0.014 0.005
O1A 0.032 0.04 0.03 0.014 0.02 0.005
O1K 0.032 0.03 0.04 0.014 -0.005 -0.02
O1PE 0.04 0.03 0.032 0.02 -0.005 -0.014
O1KB 0.032 0.04 0.03 0.014 -0.02 -0.005
O1KD 0.04 0.032 0.03 0.02 -0.014 -0.005
O1ED 0.032 0.04 0.03 0.014 0.02 0.005
O1RB 0.04 0.032 0.03 0.02 0.014 0.005
O1BD 0.032 0.03 0.04 -0.014 0.005 -0.02
O1WA 0.04 0.03 0.032 -0.02 0.005 -0.014
O1EF 0.032 0.04 0.03 -0.014 0.02 -0.005
O1T 0.04 0.032 0.03 -0.02 0.014 -0.005
O1LB 0.032 0.04 0.03 -0.014 -0.02 0.005
O1JD 0.04 0.032 0.03 -0.02 -0.014 0.005
O1EG 0.03 0.032 0.04 0.005 -0.014 -0.02
O1OA 0.03 0.04 0.032 0.005 -0.02 -0.014
O1R 0.04 0.032 0.03 -0.02 -0.014 0.005
O1JF 0.04 0.032 0.03 0.02 0.014 0.005
O1LC 0.03 0.032 0.04 -0.005 0.014 -0.02
O1H 0.04 0.032 0.03 -0.02 0.014 -0.005
O1RD 0.03 0.032 0.04 0.005 0.014 0.02
O1ZB 0.03 0.032 0.04 -0.005 0.014 -0.02
O2YE 0.036 0.035 0.046 0.02 0.022 0.014
O2NE 0.046 0.035 0.036 -0.014 -0.022 0.02
O2I 0.036 0.035 0.046 -0.02 -0.022 0.014
O2EE 0.035 0.046 0.036 -0.022 -0.014 0.02
O2NC 0.035 0.036 0.046 -0.022 -0.02 0.014
O2OC 0.035 0.046 0.036 0.022 0.014 0.02
O2DE 0.035 0.036 0.046 0.022 0.02 0.014
O2XE 0.046 0.036 0.035 0.014 0.02 0.022
O2A 0.036 0.046 0.035 0.02 0.014 0.022
O2K 0.036 0.035 0.046 0.02 -0.022 -0.014
O2PE 0.046 0.035 0.036 0.014 -0.022 -0.02
O2KB 0.036 0.046 0.035 0.02 -0.014 -0.022
O2KD 0.046 0.036 0.035 0.014 -0.02 -0.022
O2ED 0.036 0.046 0.035 0.02 0.014 0.022
O2RB 0.046 0.036 0.035 0.014 0.02 0.022
O2BD 0.036 0.035 0.046 -0.02 0.022 -0.014
O2WA 0.046 0.035 0.036 -0.014 0.022 -0.02
O2EF 0.036 0.046 0.035 -0.02 0.014 -0.022
O2T 0.046 0.036 0.035 -0.014 0.02 -0.022
O2LB 0.036 0.046 0.035 -0.02 -0.014 0.022
O2JD 0.046 0.036 0.035 -0.014 -0.02 0.022
O2EG 0.035 0.036 0.046 0.022 -0.02 -0.014
O2OA 0.035 0.046 0.036 0.022 -0.014 -0.02
O2R 0.046 0.036 0.035 -0.014 -0.02 0.022
O2JF 0.046 0.036 0.035 0.014 0.02 0.022
O2LC 0.035 0.036 0.046 -0.022 0.02 -0.014
O2H 0.046 0.036 0.035 -0.014 0.02 -0.022
O2RD 0.035 0.036 0.046 0.022 0.02 0.014
O2ZB 0.035 0.036 0.046 -0.022 0.02 -0.014
C1YE 0.017 0.043 0.036 -0.006 0.001 0.003
C1NE 0.036 0.043 0.017 -0.003 -0.001 -0.006
C1I 0.017 0.043 0.036 0.006 -0.001 0.003
C1EE 0.043 0.036 0.017 -0.001 -0.003 -0.006
C1NC 0.043 0.017 0.036 -0.001 0.006 0.003
C1OC 0.043 0.036 0.017 0.001 0.003 -0.006
C1DE 0.043 0.017 0.036 0.001 -0.006 0.003
C1XE 0.036 0.017 0.043 0.003 -0.006 0.001
C1A 0.017 0.036 0.043 -0.006 0.003 0.001
C1K 0.017 0.043 0.036 -0.006 -0.001 -0.003
C1PE 0.036 0.043 0.017 0.003 -0.001 0.006
C1KB 0.017 0.036 0.043 -0.006 -0.003 -0.001
C1KD 0.036 0.017 0.043 0.003 0.006 -0.001
C1ED 0.017 0.036 0.043 -0.006 0.003 0.001
C1RB 0.036 0.017 0.043 0.003 -0.006 0.001
C1BD 0.017 0.043 0.036 0.006 0.001 -0.003
C1WA 0.036 0.043 0.017 -0.003 0.001 0.006
C1EF 0.017 0.036 0.043 0.006 0.003 -0.001
C1T 0.036 0.017 0.043 -0.003 -0.006 -0.001
C1LB 0.017 0.036 0.043 0.006 -0.003 0.001
C1JD 0.036 0.017 0.043 -0.003 0.006 0.001
C1EG 0.043 0.017 0.036 0.001 0.006 -0.003
C1OA 0.043 0.036 0.017 0.001 -0.003 0.006
C2I 0.029 0.036 0.029 -0.012 0 0.012
C2EE 0.036 0.029 0.029 0 -0.012 0.012
C2DE 0.036 0.029 0.029 0 0.012 0.012
C2A 0.029 0.029 0.036 0.012 0.012 0
C2K 0.029 0.036 0.029 0.012 0 -0.012
C2KD 0.029 0.029 0.036 0.012 -0.012 0
C2ED 0.029 0.029 0.036 0.012 0.012 0
C2BD 0.029 0.036 0.029 -0.012 0 -0.012
C2T 0.029 0.029 0.036 -0.012 0.012 0
C2JD 0.029 0.029 0.036 -0.012 -0.012 0
C2OA 0.036 0.029 0.029 0 -0.012 -0.012
C3YE 0.034 0.03 0.043 0.002 0.011 0.012
C3NE 0.043 0.03 0.034 -0.012 -0.011 0.002
C3I 0.034 0.03 0.043 -0.002 -0.011 0.012
C3EE 0.03 0.043 0.034 -0.011 -0.012 0.002
C3NC 0.03 0.034 0.043 -0.011 -0.002 0.012
C3OC 0.03 0.043 0.034 0.011 0.012 0.002
C3DE 0.03 0.034 0.043 0.011 0.002 0.012
C3XE 0.043 0.034 0.03 0.012 0.002 0.011
C3A 0.034 0.043 0.03 0.002 0.012 0.011
C3K 0.034 0.03 0.043 0.002 -0.011 -0.012
C3PE 0.043 0.03 0.034 0.012 -0.011 -0.002
C3KB 0.034 0.043 0.03 0.002 -0.012 -0.011
C3KD 0.043 0.034 0.03 0.012 -0.002 -0.011
C3ED 0.034 0.043 0.03 0.002 0.012 0.011
C3RB 0.043 0.034 0.03 0.012 0.002 0.011
C3BD 0.034 0.03 0.043 -0.002 0.011 -0.012
C3WA 0.043 0.03 0.034 -0.012 0.011 -0.002
C3EF 0.034 0.043 0.03 -0.002 0.012 -0.011
C3T 0.043 0.034 0.03 -0.012 0.002 -0.011
C3LB 0.034 0.043 0.03 -0.002 -0.012 0.011
C3JD 0.043 0.034 0.03 -0.012 -0.002 0.011
C3EG 0.03 0.034 0.043 0.011 -0.002 -0.012
C3OA 0.03 0.043 0.034 0.011 -0.012 -0.002
C4YE 0.048 0.057 0.06 0.017 0.036 0.028
C4NE 0.06 0.057 0.048 -0.028 -0.036 0.017
C4I 0.048 0.057 0.06 -0.017 -0.036 0.028
C4EE 0.057 0.06 0.048 -0.036 -0.028 0.017
C4NC 0.057 0.048 0.06 -0.036 -0.017 0.028
C4OC 0.057 0.06 0.048 0.036 0.028 0.017
C4DE 0.057 0.048 0.06 0.036 0.017 0.028
C4XE 0.06 0.048 0.057 0.028 0.017 0.036
C4A 0.048 0.06 0.057 0.017 0.028 0.036
C4K 0.048 0.057 0.06 0.017 -0.036 -0.028
C4PE 0.06 0.057 0.048 0.028 -0.036 -0.017
C4KB 0.048 0.06 0.057 0.017 -0.028 -0.036
C4KD 0.06 0.048 0.057 0.028 -0.017 -0.036
C4ED 0.048 0.06 0.057 0.017 0.028 0.036
C4RB 0.06 0.048 0.057 0.028 0.017 0.036
C4BD 0.048 0.057 0.06 -0.017 0.036 -0.028
C4WA 0.06 0.057 0.048 -0.028 0.036 -0.017
C4EF 0.048 0.06 0.057 -0.017 0.028 -0.036
C4T 0.06 0.048 0.057 -0.028 0.017 -0.036
C4LB 0.048 0.06 0.057 -0.017 -0.028 0.036
C4JD 0.06 0.048 0.057 -0.028 -0.017 0.036
C4EG 0.057 0.048 0.06 0.036 -0.017 -0.028
C4OA 0.057 0.06 0.048 0.036 -0.028 -0.017
C5I 0.092 0.034 0.092 -0.031 -0.027 0.031
C5EE 0.034 0.092 0.092 -0.027 -0.031 0.031
C5DE 0.034 0.092 0.092 0.027 0.031 0.031
C5A 0.092 0.092 0.034 0.031 0.031 0.027
C5K 0.092 0.034 0.092 0.031 -0.027 -0.031
C5KD 0.092 0.092 0.034 0.031 -0.031 -0.027
C5ED 0.092 0.092 0.034 0.031 0.031 0.027
C5BD 0.092 0.034 0.092 -0.031 0.027 -0.031
C5T 0.092 0.092 0.034 -0.031 0.031 -0.027
C5JD 0.092 0.092 0.034 -0.031 -0.031 0.027
C5OA 0.034 0.092 0.092 0.027 -0.031 -0.031
C6I 0.085 0.116 0.085 -0.076 -0.061 0.076
C6EE 0.116 0.085 0.085 -0.061 -0.076 0.076
C6DE 0.116 0.085 0.085 0.061 0.076 0.076
C6A 0.085 0.085 0.116 0.076 0.076 0.061
C6K 0.085 0.116 0.085 0.076 -0.061 -0.076
C6KD 0.085 0.085 0.116 0.076 -0.076 -0.061
C6ED 0.085 0.085 0.116 0.076 0.076 0.061
C6BD 0.085 0.116 0.085 -0.076 0.061 -0.076
C6T 0.085 0.085 0.116 -0.076 0.076 -0.061
C6JD 0.085 0.085 0.116 -0.076 -0.076 0.061
C6OA 0.116 0.085 0.085 0.061 -0.076 -0.076
N1YE 0.132 0.169 0.175 0.138 0.115 0.121
N1NE 0.175 0.169 0.132 -0.121 -0.115 0.138
N1I 0.132 0.169 0.175 -0.138 -0.115 0.121
N1EE 0.169 0.175 0.132 -0.115 -0.121 0.138
N1NC 0.169 0.132 0.175 -0.115 -0.138 0.121
N1OC 0.169 0.175 0.132 0.115 0.121 0.138
N1DE 0.169 0.132 0.175 0.115 0.138 0.121
N1XE 0.175 0.132 0.169 0.121 0.138 0.115
N1A 0.132 0.175 0.169 0.138 0.121 0.115
N1K 0.132 0.169 0.175 0.138 -0.115 -0.121
N1PE 0.175 0.169 0.132 0.121 -0.115 -0.138
N1KB 0.132 0.175 0.169 0.138 -0.121 -0.115
N1KD 0.175 0.132 0.169 0.121 -0.138 -0.115
N1ED 0.132 0.175 0.169 0.138 0.121 0.115
N1RB 0.175 0.132 0.169 0.121 0.138 0.115
N1BD 0.132 0.169 0.175 -0.138 0.115 -0.121
N1WA 0.175 0.169 0.132 -0.121 0.115 -0.138
N1EF 0.132 0.175 0.169 -0.138 0.121 -0.115
N1T 0.175 0.132 0.169 -0.121 0.138 -0.115
N1LB 0.132 0.175 0.169 -0.138 -0.121 0.115
N1JD 0.175 0.132 0.169 -0.121 -0.138 0.115
N1EG 0.169 0.132 0.175 0.115 -0.138 -0.121
N1OA 0.169 0.175 0.132 0.115 -0.121 -0.138
N2YE 0.2 0.189 0.22 0.19 0.174 0.175
N2NE 0.22 0.189 0.2 -0.175 -0.174 0.19
N2I 0.2 0.189 0.22 -0.19 -0.174 0.175
N2EE 0.189 0.22 0.2 -0.174 -0.175 0.19
N2NC 0.189 0.2 0.22 -0.174 -0.19 0.175
N2OC 0.189 0.22 0.2 0.174 0.175 0.19
N2DE 0.189 0.2 0.22 0.174 0.19 0.175
N2XE 0.22 0.2 0.189 0.175 0.19 0.174
N2A 0.2 0.22 0.189 0.19 0.175 0.174
N2K 0.2 0.189 0.22 0.19 -0.174 -0.175
N2PE 0.22 0.189 0.2 0.175 -0.174 -0.19
N2KB 0.2 0.22 0.189 0.19 -0.175 -0.174
N2KD 0.22 0.2 0.189 0.175 -0.19 -0.174
N2ED 0.2 0.22 0.189 0.19 0.175 0.174
N2RB 0.22 0.2 0.189 0.175 0.19 0.174
N2BD 0.2 0.189 0.22 -0.19 0.174 -0.175
N2WA 0.22 0.189 0.2 -0.175 0.174 -0.19
N2EF 0.2 0.22 0.189 -0.19 0.175 -0.174
N2T 0.22 0.2 0.189 -0.175 0.19 -0.174
N2LB 0.2 0.22 0.189 -0.19 -0.175 0.174
N2JD 0.22 0.2 0.189 -0.175 -0.19 0.174
N2EG 0.189 0.2 0.22 0.174 -0.19 -0.175
N2OA 0.189 0.22 0.2 0.174 -0.175 -0.19
N2B 0.189 0.2 0.22 0.174 0.19 0.175
N2F 0.22 0.2 0.189 -0.175 -0.19 0.174
N2VE 0.189 0.2 0.22 -0.174 -0.19 0.175
N2JC 0.2 0.22 0.189 -0.19 -0.175 0.174
N2KE 0.2 0.189 0.22 -0.19 -0.174 0.175
N2CE 0.2 0.22 0.189 0.19 0.175 0.174
N2QC 0.2 0.189 0.22 0.19 0.174 0.175
N2WE 0.189 0.22 0.2 0.174 0.175 0.19
N2UE 0.189 0.2 0.22 0.174 -0.19 -0.175
N2G 0.22 0.2 0.189 0.175 -0.19 -0.174
N2ID 0.189 0.22 0.2 0.174 -0.175 -0.19
O3K 0.074 0.058 0.058 0.024 0 0
O3I 0.074 0.058 0.058 -0.024 0 0
O3R 0.058 0.074 0.058 0 -0.024 0
O3T 0.058 0.074 0.058 0 0.024 0
O3H 0.058 0.074 0.058 0 0.024 0
O4K 0.154 0.049 0.049 0.045 0 0
O4I 0.154 0.049 0.049 -0.045 0 0
O4R 0.049 0.154 0.049 0 -0.045 0
O4T 0.049 0.154 0.049 0 0.045 0
O4H 0.049 0.154 0.049 0 0.045 0
O5C 0.26 0.26 0.26 -0.22 -0.22 0.22
O5EE 0.26 0.26 0.26 -0.22 -0.22 0.22
O5BE 0.26 0.26 0.26 0.22 0.22 0.22
O5E 0.26 0.26 0.26 0.22 -0.22 -0.22
O5ID 0.26 0.26 0.26 0.22 -0.22 -0.22
loop_
_geom_bond_atom_site_label_1
_geom_bond_atom_site_label_2
_geom_bond_site_symmetry_1
_geom_bond_site_symmetry_2
Cu1 Cu2 1_555 1_555
Cu2 O1 1_555 1_555
Cu3 N2 1_555 1_555
O1 C1 1_555 1_555
O2 Cu1 1_555 1_555
C1 O2 1_555 1_555
C2 H1 1_555 1_555
C3 C1 1_555 1_555
C4 C3 1_555 1_555
H2 C4 1_555 1_555
C5 C4 1_555 1_555
C6 C5 1_555 1_555
N1 C6 1_555 1_555
N2 N1 1_555 1_555
O3 Cu1 1_555 1_555
O4 Cu2 1_555 1_555
O5 Cu3 1_555 1_555
O7 Cu3 1_555 1_555
O8 Cu3 1_555 1_555
O13 Cu3 1_555 1_555
N3 O19 1_555 1_555
Cu1K Cu2K 1_555 1_555
Cu1I Cu2I 1_555 1_555
Cu1R Cu2R 1_555 1_555
Cu1T Cu2T 1_555 1_555
Cu1H Cu2H 1_555 1_555
Cu1A Cu2A 1_555 1_555
Cu1NA Cu2NA 1_555 1_555
Cu1LA Cu2LA 1_555 1_555
Cu1S Cu2S 1_555 1_555
Cu1OA Cu2OA 1_555 1_555
Cu2K O1YE 1_555 1_555
Cu2I O1I 1_555 1_555
Cu2R O1NC 1_555 1_555
Cu2T O1DE 1_555 1_555
Cu2H O1XE 1_555 1_555
Cu2A O1A 1_555 1_555
Cu2NA O1PE 1_555 1_555
Cu2LA O1RB 1_555 1_555
Cu2S O1JD 1_555 1_555
Cu2OA O1OA 1_555 1_555
Cu3B O5 1_555 1_555
Cu3F N2NE 1_555 1_555
Cu3I N2I 1_555 1_555
Cu3EE N2EE 1_555 1_555
Cu3KE N2NC 1_555 1_555
Cu3CE N2OC 1_555 1_555
Cu3DE N2DE 1_555 1_555
Cu3A O5 1_555 1_555
Cu3K N2K 1_555 1_555
Cu3G N2PE 1_555 1_555
Cu3ID N2KB 1_555 1_555
Cu3KD N2KD 1_555 1_555
Cu3ED N2ED 1_555 1_555
Cu3DD N2RB 1_555 1_555
Cu3BD N2BD 1_555 1_555
Cu3ZC N2WA 1_555 1_555
Cu3P N2EF 1_555 1_555
Cu3T N2T 1_555 1_555
Cu3GD N2LB 1_555 1_555
Cu3JD N2JD 1_555 1_555
Cu3UA N2EG 1_555 1_555
Cu3OA N2OA 1_555 1_555
Cu3C O5C 1_555 1_555
Cu3HE O5EE 1_555 1_555
Cu3BE O5BE 1_555 1_555
O1YE C1YE 1_555 1_555
O1NE Cu2 1_555 1_555
O1I C1I 1_555 1_555
O1EE Cu2 1_555 1_555
O1NC C1NC 1_555 1_555
O1OC Cu2 1_555 1_555
O1DE C1DE 1_555 1_555
O1XE C1XE 1_555 1_555
O1A C1A 1_555 1_555
O1K Cu2K 1_555 1_555
O1PE C1PE 1_555 1_555
O1KB Cu2K 1_555 1_555
O1KD Cu2R 1_555 1_555
O1ED Cu2K 1_555 1_555
O1RB C1RB 1_555 1_555
O1BD Cu2I 1_555 1_555
O1WA Cu2NA 1_555 1_555
O1EF Cu2I 1_555 1_555
O1T Cu2T 1_555 1_555
O1LB Cu2I 1_555 1_555
O1JD C1JD 1_555 1_555
O1EG Cu2R 1_555 1_555
O1OA C1OA 1_555 1_555
O1R Cu2R 1_555 1_555
O1JF Cu2T 1_555 1_555
O1LC Cu2T 1_555 1_555
O1H Cu2H 1_555 1_555
O1RD Cu2H 1_555 1_555
O1ZB Cu2H 1_555 1_555
O2YE Cu1K 1_555 1_555
O2NE Cu1 1_555 1_555
O2I Cu1I 1_555 1_555
O2EE Cu1 1_555 1_555
O2NC Cu1R 1_555 1_555
O2OC Cu1 1_555 1_555
O2DE Cu1T 1_555 1_555
O2XE Cu1H 1_555 1_555
O2A Cu1A 1_555 1_555
O2K Cu1K 1_555 1_555
O2PE Cu1NA 1_555 1_555
O2KB Cu1K 1_555 1_555
O2KD Cu1R 1_555 1_555
O2ED Cu1K 1_555 1_555
O2RB Cu1LA 1_555 1_555
O2BD Cu1I 1_555 1_555
O2WA Cu1NA 1_555 1_555
O2EF Cu1I 1_555 1_555
O2T Cu1T 1_555 1_555
O2LB Cu1I 1_555 1_555
O2JD Cu1S 1_555 1_555
O2EG Cu1R 1_555 1_555
O2OA Cu1OA 1_555 1_555
O2R Cu1R 1_555 1_555
O2JF Cu1T 1_555 1_555
O2LC Cu1T 1_555 1_555
O2H Cu1H 1_555 1_555
O2RD Cu1H 1_555 1_555
O2ZB Cu1H 1_555 1_555
C1YE O2YE 1_555 1_555
C1NE O1NE 1_555 1_555
C1I O2I 1_555 1_555
C1EE O1EE 1_555 1_555
C1NC O2NC 1_555 1_555
C1OC O1OC 1_555 1_555
C1DE O2DE 1_555 1_555
C1XE O2XE 1_555 1_555
C1A O2A 1_555 1_555
C1K O1K 1_555 1_555
C1PE O2PE 1_555 1_555
C1KB O1KB 1_555 1_555
C1KD O1KD 1_555 1_555
C1ED O1ED 1_555 1_555
C1RB O2RB 1_555 1_555
C1BD O1BD 1_555 1_555
C1WA O1WA 1_555 1_555
C1EF O1EF 1_555 1_555
C1T O1T 1_555 1_555
C1LB O1LB 1_555 1_555
C1JD O2JD 1_555 1_555
C1EG O1EG 1_555 1_555
C1OA O2OA 1_555 1_555
C2I H1I 1_555 1_555
C2EE H1EE 1_555 1_555
C2DE H1DE 1_555 1_555
C2A H1A 1_555 1_555
C2K H1K 1_555 1_555
C2KD H1KD 1_555 1_555
C2ED H1ED 1_555 1_555
C2BD H1BD 1_555 1_555
C2T H1T 1_555 1_555
C2JD H1JD 1_555 1_555
C2OA H1OA 1_555 1_555
C3YE C2 1_555 1_555
C3NE C1NE 1_555 1_555
C3I C1I 1_555 1_555
C3EE C1EE 1_555 1_555
C3NC C1NC 1_555 1_555
C3OC C1OC 1_555 1_555
C3DE C1DE 1_555 1_555
C3XE C1XE 1_555 1_555
C3A C1A 1_555 1_555
C3K C1K 1_555 1_555
C3PE C1PE 1_555 1_555
C3KB C1KB 1_555 1_555
C3KD C1KD 1_555 1_555
C3ED C1ED 1_555 1_555
C3RB C1RB 1_555 1_555
C3BD C1BD 1_555 1_555
C3WA C1WA 1_555 1_555
C3EF C1EF 1_555 1_555
C3T C1T 1_555 1_555
C3LB C1LB 1_555 1_555
C3JD C1JD 1_555 1_555
C3EG C1EG 1_555 1_555
C3OA C1OA 1_555 1_555
C4YE C5 1_555 1_555
C4NE C3NE 1_555 1_555
C4I C3I 1_555 1_555
C4EE C3EE 1_555 1_555
C4NC C3NC 1_555 1_555
C4OC C3OC 1_555 1_555
C4DE C3DE 1_555 1_555
C4XE C3XE 1_555 1_555
C4A C3A 1_555 1_555
C4K C3K 1_555 1_555
C4PE C3PE 1_555 1_555
C4KB C3KB 1_555 1_555
C4KD C3KD 1_555 1_555
C4ED C3ED 1_555 1_555
C4RB C3RB 1_555 1_555
C4BD C3BD 1_555 1_555
C4WA C3WA 1_555 1_555
C4EF C3EF 1_555 1_555
C4T C3T 1_555 1_555
C4LB C3LB 1_555 1_555
C4JD C3JD 1_555 1_555
C4EG C3EG 1_555 1_555
C4OA C3OA 1_555 1_555
H2YE C4YE 1_555 1_555
H2NE C4NE 1_555 1_555
H2I C4I 1_555 1_555
H2EE C4EE 1_555 1_555
H2NC C4NC 1_555 1_555
H2OC C4OC 1_555 1_555
H2DE C4DE 1_555 1_555
H2XE C4XE 1_555 1_555
H2A C4A 1_555 1_555
H2K C4K 1_555 1_555
H2PE C4PE 1_555 1_555
H2KB C4KB 1_555 1_555
H2KD C4KD 1_555 1_555
H2ED C4ED 1_555 1_555
H2RB C4RB 1_555 1_555
H2BD C4BD 1_555 1_555
H2WA C4WA 1_555 1_555
H2EF C4EF 1_555 1_555
H2T C4T 1_555 1_555
H2LB C4LB 1_555 1_555
H2JD C4JD 1_555 1_555
H2EG C4EG 1_555 1_555
H2OA C4OA 1_555 1_555
C5I C4NE 1_555 1_555
C5EE C4EE 1_555 1_555
C5DE C4OC 1_555 1_555
C5A C4XE 1_555 1_555
C5K C4K 1_555 1_555
C5KD C4KB 1_555 1_555
C5ED C4ED 1_555 1_555
C5BD C4BD 1_555 1_555
C5T C4EF 1_555 1_555
C5JD C4LB 1_555 1_555
C5OA C4EG 1_555 1_555
C6I C5I 1_555 1_555
C6EE C5EE 1_555 1_555
C6DE C5DE 1_555 1_555
C6A C5A 1_555 1_555
C6K C5K 1_555 1_555
C6KD C5KD 1_555 1_555
C6ED C5ED 1_555 1_555
C6BD C5BD 1_555 1_555
C6T C5T 1_555 1_555
C6JD C5JD 1_555 1_555
C6OA C5OA 1_555 1_555
N1YE C6 1_555 1_555
N1NE C6I 1_555 1_555
N1I C6I 1_555 1_555
N1EE C6EE 1_555 1_555
N1NC C6EE 1_555 1_555
N1OC C6DE 1_555 1_555
N1DE C6DE 1_555 1_555
N1XE C6A 1_555 1_555
N1A C6A 1_555 1_555
N1K C6K 1_555 1_555
N1PE C6K 1_555 1_555
N1KB C6KD 1_555 1_555
N1KD C6KD 1_555 1_555
N1ED C6ED 1_555 1_555
N1RB C6ED 1_555 1_555
N1BD C6BD 1_555 1_555
N1WA C6BD 1_555 1_555
N1EF C6T 1_555 1_555
N1T C6T 1_555 1_555
N1LB C6JD 1_555 1_555
N1JD C6JD 1_555 1_555
N1EG C6OA 1_555 1_555
N1OA C6OA 1_555 1_555
N2YE N2 1_555 1_555
N2NE N1NE 1_555 1_555
N2I N1I 1_555 1_555
N2EE N1EE 1_555 1_555
N2NC N1NC 1_555 1_555
N2OC N1OC 1_555 1_555
N2DE N1DE 1_555 1_555
N2XE Cu3 1_555 1_555
N2A Cu3A 1_555 1_555
N2K N1K 1_555 1_555
N2PE N1PE 1_555 1_555
N2KB N1KB 1_555 1_555
N2KD N1KD 1_555 1_555
N2ED N1ED 1_555 1_555
N2RB N1RB 1_555 1_555
N2BD N1BD 1_555 1_555
N2WA N1WA 1_555 1_555
N2EF N1EF 1_555 1_555
N2T N1T 1_555 1_555
N2LB N1LB 1_555 1_555
N2JD N1JD 1_555 1_555
N2EG N1EG 1_555 1_555
N2OA N1OA 1_555 1_555
N2B Cu3B 1_555 1_555
N2F Cu3F 1_555 1_555
N2VE Cu3I 1_555 1_555
N2JC Cu3EE 1_555 1_555
N2KE Cu3KE 1_555 1_555
N2CE Cu3CE 1_555 1_555
N2QC Cu3DE 1_555 1_555
N2WE Cu3A 1_555 1_555
N2UE Cu3K 1_555 1_555
N2G Cu3G 1_555 1_555
N2ID Cu3ID 1_555 1_555
O3K Cu1K 1_555 1_555
O3I Cu1I 1_555 1_555
O3R Cu1R 1_555 1_555
O3T Cu1T 1_555 1_555
O3H Cu1H 1_555 1_555
O4K Cu2K 1_555 1_555
O4I Cu2I 1_555 1_555
O4R Cu2R 1_555 1_555
O4T Cu2T 1_555 1_555
O4H Cu2H 1_555 1_555
O5C Cu3F 1_555 1_555
O5EE Cu3EE 1_555 1_555
O5BE Cu3CE 1_555 1_555
O5E Cu3K 1_555 1_555
O5ID Cu3ID 1_555 1_555
O7B Cu3B 1_555 1_555
O7F Cu3F 1_555 1_555
O7I Cu3I 1_555 1_555
O7EE Cu3EE 1_555 1_555
O7KE Cu3KE 1_555 1_555
O7CE Cu3CE 1_555 1_555
O7DE Cu3DE 1_555 1_555
O7A Cu3A 1_555 1_555
O7K Cu3K 1_555 1_555
O7G Cu3G 1_555 1_555
O7ID Cu3ID 1_555 1_555
O8B Cu3B 1_555 1_555
O8F Cu3F 1_555 1_555
O8I Cu3I 1_555 1_555
O8EE Cu3EE 1_555 1_555
O8KE Cu3KE 1_555 1_555
O8CE Cu3CE 1_555 1_555
O8DE Cu3DE 1_555 1_555
O8A Cu3A 1_555 1_555
O8K Cu3K 1_555 1_555
O8G Cu3G 1_555 1_555
O8ID Cu3ID 1_555 1_555
O13B Cu3B 1_555 1_555
O13F Cu3F 1_555 1_555
O13I Cu3I 1_555 1_555
O13EE Cu3EE 1_555 1_555
O13KE Cu3KE 1_555 1_555
O13CE Cu3CE 1_555 1_555
O13DE Cu3DE 1_555 1_555
O13A Cu3A 1_555 1_555
O13K Cu3K 1_555 1_555
O13G Cu3G 1_555 1_555
O13ID Cu3ID 1_555 1_555
O19JF N3 1_555 1_555
O19EE N3 1_555 1_555
C2 C3 1_555 1_555
Cu3B N2YE 1_555 1_555
Cu3I O5C 1_555 1_555
Cu3KE O5EE 1_555 1_555
Cu3DE O5BE 1_555 1_555
Cu3G O5E 1_555 1_555
Cu3KD O5ID 1_555 1_555
O2NE C1NE 1_555 1_555
O2EE C1EE 1_555 1_555
O2OC C1OC 1_555 1_555
O2K C1K 1_555 1_555
O2KB C1KB 1_555 1_555
O2KD C1KD 1_555 1_555
O2ED C1ED 1_555 1_555
O2BD C1BD 1_555 1_555
O2WA C1WA 1_555 1_555
O2EF C1EF 1_555 1_555
O2T C1T 1_555 1_555
O2LB C1LB 1_555 1_555
O2EG C1EG 1_555 1_555
C1YE C3YE 1_555 1_555
C2I C3NE 1_555 1_555
C2I C3I 1_555 1_555
C2EE C3EE 1_555 1_555
C2EE C3NC 1_555 1_555
C2DE C3OC 1_555 1_555
C2DE C3DE 1_555 1_555
C2A C3XE 1_555 1_555
C2A C3A 1_555 1_555
C2K C3K 1_555 1_555
C2K C3PE 1_555 1_555
C2KD C3KB 1_555 1_555
C2KD C3KD 1_555 1_555
C2ED C3ED 1_555 1_555
C2ED C3RB 1_555 1_555
C2BD C3BD 1_555 1_555
C2BD C3WA 1_555 1_555
C2T C3EF 1_555 1_555
C2T C3T 1_555 1_555
C2JD C3LB 1_555 1_555
C2JD C3JD 1_555 1_555
C2OA C3EG 1_555 1_555
C2OA C3OA 1_555 1_555
C3YE C4YE 1_555 1_555
C4I C5I 1_555 1_555
C4NC C5EE 1_555 1_555
C4DE C5DE 1_555 1_555
C4A C5A 1_555 1_555
C4PE C5K 1_555 1_555
C4KD C5KD 1_555 1_555
C4RB C5ED 1_555 1_555
C4WA C5BD 1_555 1_555
C4T C5T 1_555 1_555
C4JD C5JD 1_555 1_555
C4OA C5OA 1_555 1_555
N1YE N2YE 1_555 1_555
N1XE N2XE 1_555 1_555
N1A N2A 1_555 1_555
N2NE N2I 1_555 1_555
N2EE N2NC 1_555 1_555
N2OC N2DE 1_555 1_555
N2XE N2A 1_555 1_555
N2K N2PE 1_555 1_555
N2KB N2KD 1_555 1_555
N2ED N2RB 1_555 1_555
N2BD N2WA 1_555 1_555
N2EF N2T 1_555 1_555
N2LB N2JD 1_555 1_555
N2EG N2OA 1_555 1_555
N2B N2WE 1_555 1_555

#END
