
#######################################################################
#
#                 Cambridge Crystallographic Data Centre
#                                CCDC 
#
#######################################################################
#
# If this CIF has been generated from an entry in the Cambridge 
# Structural Database, then it will include bibliographic, chemical, 
# crystal, experimental, refinement or atomic coordinate data resulting 
# from the CCDC's data processing and validation procedures.
#
#######################################################################

data_LIWBOK
_chemical_formula_moiety         '(C44 H32 Cl4 N2 O12 Ru2)n,4n(N1 O1)'
_chemical_name_systematic        
'catena-[tetrakis(\m-4-chloro-2-methoxybenzoato)-(\m-phenazine)-di-ruthenium nitric oxide]'
_symmetry_cell_setting           triclinic
_symmetry_space_group_name_H-M   'P -1'
_symmetry_Int_Tables_number      2
_space_group_name_Hall           '-P 1'
loop_
_symmetry_equiv_pos_site_id
_symmetry_equiv_pos_as_xyz
1 x,y,z
2 -x,-y,-z
_cell_length_a                   9.7255(3)
_cell_length_b                   12.0456(3)
_cell_length_c                   10.5596(3)
_cell_angle_alpha                86.501(3)
_cell_angle_beta                 101.224(5)
_cell_angle_gamma                83.605(4)
_cell_volume                     1201.49
_exptl_crystal_colour            'dark brown'
_cell_formula_units_Z            1
loop_
_atom_site_label
_atom_site_type_symbol
_atom_site_fract_x
_atom_site_fract_y
_atom_site_fract_z
_atom_site_U_iso_or_equiv
_atom_site_thermal_displace_type
C1 C 0.379(7) 0.564(7) 0.756(5) 0.0270 Uiso
C2 C 0.302(6) 0.601(6) 0.623(6) 0.0270 Uiso
C3 C 0.376(6) 0.627(6) 0.529(7) 0.0270 Uiso
C4 C 0.573(5) 0.654(5) 0.444(5) 0.0270 Uiso
C5 C 0.306(7) 0.662(6) 0.407(5) 0.0270 Uiso
C6 C 0.158(6) 0.669(6) 0.383(6) 0.0270 Uiso
C7 C 0.090(5) 0.643(5) 0.479(6) 0.0270 Uiso
C8 C 0.160(7) 0.610(6) 0.601(6) 0.0270 Uiso
Cl1 Cl 0.062(2) 0.713(1) 0.229(1) 0.0270 Uiso
O1 O 0.510(4) 0.551(4) 0.782(3) 0.0270 Uiso
O2 O 0.307(4) 0.547(4) 0.839(4) 0.0270 Uiso
O3 O 0.517(4) 0.621(4) 0.553(4) 0.0270 Uiso
N1 N 0.862(4) 0.473(5) 0.953(5) 0.0125 Uiso
C9 C 0.904(6) 0.572(6) 0.912(5) 0.0125 Uiso
C10 C 0.814(5) 0.653(5) 0.818(5) 0.0125 Uiso
C11 C 0.864(6) 0.748(5) 0.775(5) 0.0125 Uiso
C12 C 1.005(6) 0.771(5) 0.827(5) 0.0125 Uiso
C13 C 1.088(6) 0.697(5) 0.917(6) 0.0125 Uiso
C14 C 1.044(7) 0.597(5) 0.961(6) 0.0125 Uiso
Ru1 Ru 0.6074(5) 0.4972(7) 0.9698(7) 0.0056 Uiso
H1 H 0.53511 0.73204 0.41359 0.0324 Uiso
H2 H 0.67615 0.64778 0.46919 0.0324 Uiso
H3 H 0.54621 0.60536 0.37523 0.0324 Uiso
H4 H 0.35438 0.67996 0.34240 0.0324 Uiso
H5 H -0.00817 0.64843 0.46042 0.0324 Uiso
H6 H 0.11236 0.59346 0.66691 0.0324 Uiso
H7 H 0.72122 0.64070 0.78499 0.0150 Uiso
H8 H 0.80454 0.79923 0.71285 0.0150 Uiso
H9 H 1.03808 0.83572 0.79798 0.0150 Uiso
H10 H 1.17893 0.71176 0.95113 0.0150 Uiso
C15 C 0.523(7) 0.707(5) 1.068(7) 0.0396 Uiso
C16 C 0.547(7) 0.821(5) 1.116(6) 0.0396 Uiso
C17 C 0.430(7) 0.899(6) 1.125(6) 0.0396 Uiso
C18 C 0.175(5) 0.957(5) 1.101(5) 0.0396 Uiso
C19 C 0.457(7) 1.003(5) 1.171(6) 0.0396 Uiso
C20 C 0.596(7) 1.031(6) 1.204(6) 0.0396 Uiso
C21 C 0.710(6) 0.953(6) 1.191(6) 0.0396 Uiso
C22 C 0.687(7) 0.847(5) 1.148(7) 0.0396 Uiso
Cl2 Cl 0.629(2) 1.159(1) 1.260(2) 0.0396 Uiso
O4 O 0.621(4) 0.655(4) 1.027(4) 0.0396 Uiso
O5 O 0.408(4) 0.667(4) 1.075(4) 0.0396 Uiso
O6 O 0.293(4) 0.873(4) 1.093(4) 0.0396 Uiso
H11 H 0.17536 1.02361 1.04303 0.0475 Uiso
H12 H 0.08573 0.92549 1.07436 0.0475 Uiso
H13 H 0.18350 0.97745 1.18997 0.0475 Uiso
H14 H 0.38185 1.05520 1.17930 0.0475 Uiso
H15 H 0.80186 0.97140 1.21080 0.0475 Uiso
H16 H 0.76202 0.79474 1.14016 0.0475 Uiso
C9A C 1.096(6) 0.428(6) 1.088(5) 0.0125 Uiso
C10A C 1.186(5) 0.347(5) 1.182(5) 0.0125 Uiso
C11A C 1.136(6) 0.252(5) 1.225(5) 0.0125 Uiso
H7A H 1.27878 0.35930 1.21501 0.0150 Uiso
H8A H 1.19546 0.20077 1.28715 0.0150 Uiso
C12A C 0.995(6) 0.229(5) 1.173(5) 0.0125 Uiso
C13A C 0.912(6) 0.303(5) 1.083(6) 0.0125 Uiso
C14A C 0.956(7) 0.403(5) 1.039(6) 0.0125 Uiso
H9A H 0.96192 0.16428 1.20202 0.0150 Uiso
H10A H 0.82107 0.28824 1.04887 0.0150 Uiso
N1A N 1.138(4) 0.527(5) 1.047(5) 0.0125 Uiso
C1A C 0.621(7) 0.436(7) 1.244(5) 0.0270 Uiso
C2A C 0.698(6) 0.399(6) 1.377(6) 0.0270 Uiso
C3A C 0.624(6) 0.373(6) 1.471(7) 0.0270 Uiso
C4A C 0.427(5) 0.346(5) 1.556(5) 0.0270 Uiso
C5A C 0.694(7) 0.338(6) 1.593(5) 0.0270 Uiso
C6A C 0.842(6) 0.331(6) 1.617(6) 0.0270 Uiso
C7A C 0.910(5) 0.357(5) 1.521(6) 0.0270 Uiso
C8A C 0.840(7) 0.390(6) 1.399(6) 0.0270 Uiso
Cl1A Cl 0.938(2) 0.287(1) 1.771(1) 0.0270 Uiso
O1A O 0.490(4) 0.449(4) 1.218(3) 0.0270 Uiso
O2A O 0.693(4) 0.453(4) 1.161(4) 0.0270 Uiso
O3A O 0.483(4) 0.379(4) 1.447(4) 0.0270 Uiso
Ru1A Ru 0.3926(5) 0.5028(7) 1.0302(7) 0.0056 Uiso
H1A H 0.46489 0.26796 1.58641 0.0324 Uiso
H2A H 0.32385 0.35222 1.53081 0.0324 Uiso
H3A H 0.45379 0.39464 1.62477 0.0324 Uiso
H4A H 0.64562 0.32004 1.65760 0.0324 Uiso
H5A H 1.00817 0.35157 1.53958 0.0324 Uiso
H6A H 0.88764 0.40654 1.33309 0.0324 Uiso
C15A C 0.477(7) 0.293(5) 0.932(7) 0.0396 Uiso
C16A C 0.453(7) 0.179(5) 0.884(6) 0.0396 Uiso
C17A C 0.570(7) 0.101(6) 0.875(6) 0.0396 Uiso
C18A C 0.825(5) 0.043(5) 0.899(5) 0.0396 Uiso
C19A C 0.543(7) -0.003(5) 0.829(6) 0.0396 Uiso
C20A C 0.404(7) -0.031(6) 0.796(6) 0.0396 Uiso
C21A C 0.290(6) 0.047(6) 0.809(6) 0.0396 Uiso
C22A C 0.313(7) 0.153(5) 0.852(7) 0.0396 Uiso
Cl2A Cl 0.371(2) -0.159(1) 0.740(2) 0.0396 Uiso
O4A O 0.379(4) 0.345(4) 0.973(4) 0.0396 Uiso
O5A O 0.592(4) 0.333(4) 0.925(4) 0.0396 Uiso
O6A O 0.707(4) 0.127(4) 0.907(4) 0.0396 Uiso
H11A H 0.82464 -0.02361 0.95697 0.0475 Uiso
H12A H 0.91427 0.07451 0.92564 0.0475 Uiso
H13A H 0.81650 0.02255 0.81003 0.0475 Uiso
H14A H 0.61815 -0.05520 0.82070 0.0475 Uiso
H15A H 0.19814 0.02860 0.78920 0.0475 Uiso
H16A H 0.23798 0.20526 0.85984 0.0475 Uiso
N1A_2 N 0.138(4) 0.527(5) 1.047(5) 0.0125 Uiso
Ru1A_2 Ru 1.3926(5) 0.5028(7) 1.0302(7) 0.0056 Uiso
N2 N 0.997(9) 0.914(8) 0.506(9) 0.1921 Uiso
O7 O 1.051(6) 0.938(8) 0.421(4) 0.1921 Uiso
N3 N 0.632(6) 0.921(4) 0.522(6) 0.0980 Uiso
O8 O 0.596(5) 1.012(5) 0.541(6) 0.0980 Uiso
loop_
_geom_bond_atom_site_label_1
_geom_bond_atom_site_label_2
_geom_bond_site_symmetry_1
_geom_bond_site_symmetry_2
C1 C2 1_555 1_555
C2 C3 1_555 1_555
C3 C5 1_555 1_555
C4 O3 1_555 1_555
C5 C6 1_555 1_555
C6 C7 1_555 1_555
C7 C8 1_555 1_555
C8 C2 1_555 1_555
Cl1 C6 1_555 1_555
O1 C1 1_555 1_555
O2 C1 1_555 1_555
O3 C3 1_555 1_555
N1 C9 1_555 1_555
C9 C10 1_555 1_555
C10 C11 1_555 1_555
C11 C12 1_555 1_555
C12 C13 1_555 1_555
C13 C14 1_555 1_555
C14 C9 1_555 1_555
Ru1 O1 1_555 1_555
H1 C4 1_555 1_555
H2 C4 1_555 1_555
H3 C4 1_555 1_555
H4 C5 1_555 1_555
H5 C7 1_555 1_555
H6 C8 1_555 1_555
H7 C10 1_555 1_555
H8 C11 1_555 1_555
H9 C12 1_555 1_555
H10 C13 1_555 1_555
C15 C16 1_555 1_555
C16 C17 1_555 1_555
C17 C19 1_555 1_555
C18 O6 1_555 1_555
C19 C20 1_555 1_555
C20 C21 1_555 1_555
C21 C22 1_555 1_555
C22 C16 1_555 1_555
Cl2 C20 1_555 1_555
O4 Ru1 1_555 1_555
O5 C15 1_555 1_555
O6 C17 1_555 1_555
H11 C18 1_555 1_555
H12 C18 1_555 1_555
H13 C18 1_555 1_555
H14 C19 1_555 1_555
H15 C21 1_555 1_555
H16 C22 1_555 1_555
N2 O7 1_555 1_555
N3 O8 1_555 1_555
C9A C10A 1_555 1_555
C10A C11A 1_555 1_555
C11A H8A 1_555 1_555
H7A C10A 1_555 1_555
C12A C11A 1_555 1_555
C13A C12A 1_555 1_555
C14A N1 1_555 1_555
H9A C12A 1_555 1_555
H10A C13A 1_555 1_555
N1A C14 1_555 1_555
C1A C2A 1_555 1_555
C2A C3A 1_555 1_555
C3A C5A 1_555 1_555
C4A O3A 1_555 1_555
C5A C6A 1_555 1_555
C6A C7A 1_555 1_555
C7A C8A 1_555 1_555
C8A C2A 1_555 1_555
Cl1A C6A 1_555 1_555
O1A C1A 1_555 1_555
O2A Ru1 1_555 1_555
O3A C3A 1_555 1_555
Ru1A O2 1_555 1_555
H1A C4A 1_555 1_555
H2A C4A 1_555 1_555
H3A C4A 1_555 1_555
H4A C5A 1_555 1_555
H5A C7A 1_555 1_555
H6A C8A 1_555 1_555
C15A C16A 1_555 1_555
C16A C17A 1_555 1_555
C17A C19A 1_555 1_555
C18A O6A 1_555 1_555
C19A C20A 1_555 1_555
C20A C21A 1_555 1_555
C21A C22A 1_555 1_555
C22A C16A 1_555 1_555
Cl2A C20A 1_555 1_555
O4A Ru1A 1_555 1_555
O5A Ru1 1_555 1_555
O6A C17A 1_555 1_555
H11A C18A 1_555 1_555
H12A C18A 1_555 1_555
H13A C18A 1_555 1_555
H14A C19A 1_555 1_555
H15A C21A 1_555 1_555
H16A C22A 1_555 1_555
N1A_2 Ru1A 1_555 1_555
Ru1A_2 N1A 1_555 1_555
N1 Ru1 1_555 1_555
Ru1 Ru1A 1_555 1_555
C15 O4 1_555 1_555
O5 Ru1A 1_555 1_555
C9A C14A 1_555 1_555
C9A N1A 1_555 1_555
C13A C14A 1_555 1_555
C1A O2A 1_555 1_555
O1A Ru1A 1_555 1_555
C15A O4A 1_555 1_555
C15A O5A 1_555 1_555

#END
