
#######################################################################
#
#                 Cambridge Crystallographic Data Centre
#                                CCDC 
#
#######################################################################
#
# If this CIF has been generated from an entry in the Cambridge 
# Structural Database, then it will include bibliographic, chemical, 
# crystal, experimental, refinement or atomic coordinate data resulting 
# from the CCDC's data processing and validation procedures.
#
#######################################################################

data_PETWIW
_chemical_formula_moiety         '(C20 H16 Cu1 F6 N4 Ti1)n'
_chemical_name_systematic        
"catena-(bis(\m~2~-4,4'-Bipyridine-N,N')-bis(\m~2~-fluoro)-tetrafluoro-copper-titanium unknown solvate)"
_symmetry_cell_setting           tetragonal
_symmetry_space_group_name_H-M   'P 4/m m m'
_symmetry_Int_Tables_number      123
_space_group_name_Hall           '-P 4 2'
loop_
_symmetry_equiv_pos_site_id
_symmetry_equiv_pos_as_xyz
1 x,y,z
2 -x,-y,z
3 x,-y,-z
4 -x,y,-z
5 -y,-x,-z
6 y,x,-z
7 y,-x,z
8 -y,x,z
9 -x,-y,-z
10 x,y,-z
11 -x,y,z
12 x,-y,z
13 y,x,z
14 -y,-x,z
15 -y,x,-z
16 y,-x,-z
_cell_length_a                   11.1001(6)
_cell_length_b                   11.1001(6)
_cell_length_c                   8.4055(7)
_cell_angle_alpha                90
_cell_angle_beta                 90
_cell_angle_gamma                90
_cell_volume                     1035.66
_exptl_crystal_colour            purple
_exptl_crystal_description       block
_cell_formula_units_Z            1
loop_
_atom_site_label
_atom_site_type_symbol
_atom_site_fract_x
_atom_site_fract_y
_atom_site_fract_z
Cu1 Cu 0.0000 0.0000 0.0000
Ti1 Ti 0.0000 0.0000 0.5000
F1 F 0.0000 0.0000 0.2787(4)
C1 C 0.0000 0.4328(4) 0.0000
N1 N 0.0000 0.1824(3) 0.0000
F2 F 0.1183(9) 0.1183(9) 0.5000
C2 C 0.0422(6) 0.3676(4) 0.1264(6)
H1 H 0.0722 0.4077 0.2165
C3 C 0.0410(5) 0.2451(4) 0.1226(6)
H2 H 0.0707 0.2029 0.2113
C1A C 0.0000 0.5672(4) 0.0000
N1A N 0.0000 0.8176(3) 0.0000
C2A C -0.0422(6) 0.6324(4) 0.1264(6)
H1A H -0.0722 0.5923 0.2165
C3A C -0.0410(5) 0.7549(4) 0.1226(6)
H2A H -0.0707 0.7971 0.2113
C2B C 0.0422(6) 0.6324(4) -0.1264(6)
H1B H 0.0722 0.5923 -0.2165
C3B C 0.0410(5) 0.7549(4) -0.1226(6)
H2B H 0.0707 0.7971 -0.2113
C2C C -0.0422(6) 0.3676(4) -0.1264(6)
H1C H -0.0722 0.4077 -0.2165
C3C C -0.0410(5) 0.2451(4) -0.1226(6)
H2C H -0.0707 0.2029 -0.2113
C2H C -0.0422(6) 0.6324(4) -0.1264(6)
H1H H -0.0722 0.5923 -0.2165
C3H C -0.0410(5) 0.7549(4) -0.1226(6)
H2H H -0.0707 0.7971 -0.2113
C2I C 0.0422(6) 0.3676(4) -0.1264(6)
H1I H 0.0722 0.4077 -0.2165
C3I C 0.0410(5) 0.2451(4) -0.1226(6)
H2I H 0.0707 0.2029 -0.2113
C2J C -0.0422(6) 0.3676(4) 0.1264(6)
H1J H -0.0722 0.4077 0.2165
C3J C -0.0410(5) 0.2451(4) 0.1226(6)
H2J H -0.0707 0.2029 0.2113
C2K C 0.0422(6) 0.6324(4) 0.1264(6)
H1K H 0.0722 0.5923 0.2165
C3K C 0.0410(5) 0.7549(4) 0.1226(6)
H2K H 0.0707 0.7971 0.2113
C1A_2 C 0.0000 -0.4328(4) 0.0000
N1A_2 N 0.0000 -0.1824(3) 0.0000
F2A F -0.1183(9) -0.1183(9) 0.5000
C2A_2 C -0.0422(6) -0.3676(4) 0.1264(6)
H1A_2 H -0.0722 -0.4077 0.2165
C3A_2 C -0.0410(5) -0.2451(4) 0.1226(6)
H2A_2 H -0.0707 -0.2029 0.2113
C1_2 C 0.0000 -0.5672(4) 0.0000
N1_2 N 0.0000 -0.8176(3) 0.0000
C2_2 C 0.0422(6) -0.6324(4) 0.1264(6)
H1_2 H 0.0722 -0.5923 0.2165
C3_2 C 0.0410(5) -0.7549(4) 0.1226(6)
H2_2 H 0.0707 -0.7971 0.2113
C2C_2 C -0.0422(6) -0.6324(4) -0.1264(6)
H1C_2 H -0.0722 -0.5923 -0.2165
C3C_2 C -0.0410(5) -0.7549(4) -0.1226(6)
H2C_2 H -0.0707 -0.7971 -0.2113
C2B_2 C 0.0422(6) -0.3676(4) -0.1264(6)
H1B_2 H 0.0722 -0.4077 -0.2165
C3B_2 C 0.0410(5) -0.2451(4) -0.1226(6)
H2B_2 H 0.0707 -0.2029 -0.2113
C2I_2 C 0.0422(6) -0.6324(4) -0.1264(6)
H1I_2 H 0.0722 -0.5923 -0.2165
C3I_2 C 0.0410(5) -0.7549(4) -0.1226(6)
H2I_2 H 0.0707 -0.7971 -0.2113
C2H_2 C -0.0422(6) -0.3676(4) -0.1264(6)
H1H_2 H -0.0722 -0.4077 -0.2165
C3H_2 C -0.0410(5) -0.2451(4) -0.1226(6)
H2H_2 H -0.0707 -0.2029 -0.2113
C2K_2 C 0.0422(6) -0.3676(4) 0.1264(6)
H1K_2 H 0.0722 -0.4077 0.2165
C3K_2 C 0.0410(5) -0.2451(4) 0.1226(6)
H2K_2 H 0.0707 -0.2029 0.2113
C2J_2 C -0.0422(6) -0.6324(4) 0.1264(6)
H1J_2 H -0.0722 -0.5923 0.2165
C3J_2 C -0.0410(5) -0.7549(4) 0.1226(6)
H2J_2 H -0.0707 -0.7971 0.2113
F1B F 0.0000 0.0000 -0.2787(4)
F2B F 0.1183(9) -0.1183(9) 0.5000
F2C F -0.1183(9) 0.1183(9) 0.5000
Cu1_2 Cu 0.0000 -1.0000 0.0000
Cu1_3 Cu 0.0000 1.0000 0.0000
Ti1_2 Ti 0.0000 0.0000 -0.5000
F1B_2 F 0.0000 0.0000 0.7213(4)
N1D N -0.1824(3) 0.0000 0.0000
N1E N 0.1824(3) 0.0000 0.0000
F3? F 0.0000 0.1676(16) 0.5000
F4? F 0.0709(12) 0.1523(12) 0.5000
loop_
_geom_bond_atom_site_label_1
_geom_bond_atom_site_label_2
_geom_bond_site_symmetry_1
_geom_bond_site_symmetry_2
Cu1 F1 1_555 1_555
Ti1 F1 1_555 1_555
C1 C2 1_555 1_555
N1 Cu1 1_555 1_555
F2 Ti1 1_555 1_555
C2 H1 1_555 1_555
C3 N1 1_555 1_555
H2 C3 1_555 1_555
C1A C1 1_555 1_555
N1A C3A 1_555 1_555
C2A C1A 1_555 1_555
H1A C2A 1_555 1_555
C3A C2A 1_555 1_555
H2A C3A 1_555 1_555
C2B C1A 1_555 1_555
H1B C2B 1_555 1_555
C3B N1A 1_555 1_555
H2B C3B 1_555 1_555
C2C C1 1_555 1_555
H1C C2C 1_555 1_555
C3C N1 1_555 1_555
H2C C3C 1_555 1_555
C2H C1A 1_555 1_555
H1H C2H 1_555 1_555
C3H N1A 1_555 1_555
H2H C3H 1_555 1_555
C2I C1 1_555 1_555
H1I C2I 1_555 1_555
C3I N1 1_555 1_555
H2I C3I 1_555 1_555
C2J C1 1_555 1_555
H1J C2J 1_555 1_555
C3J N1 1_555 1_555
H2J C3J 1_555 1_555
C2K C1A 1_555 1_555
H1K C2K 1_555 1_555
C3K N1A 1_555 1_555
H2K C3K 1_555 1_555
C1A_2 C2A_2 1_555 1_555
N1A_2 Cu1 1_555 1_555
F2A Ti1 1_555 1_555
C2A_2 H1A_2 1_555 1_555
C3A_2 N1A_2 1_555 1_555
H2A_2 C3A_2 1_555 1_555
C1_2 C1A_2 1_555 1_555
N1_2 C3_2 1_555 1_555
C2_2 C1_2 1_555 1_555
H1_2 C2_2 1_555 1_555
C3_2 C2_2 1_555 1_555
H2_2 C3_2 1_555 1_555
C2C_2 C1_2 1_555 1_555
H1C_2 C2C_2 1_555 1_555
C3C_2 N1_2 1_555 1_555
H2C_2 C3C_2 1_555 1_555
C2B_2 C1A_2 1_555 1_555
H1B_2 C2B_2 1_555 1_555
C3B_2 N1A_2 1_555 1_555
H2B_2 C3B_2 1_555 1_555
C2I_2 C1_2 1_555 1_555
H1I_2 C2I_2 1_555 1_555
C3I_2 N1_2 1_555 1_555
H2I_2 C3I_2 1_555 1_555
C2H_2 C1A_2 1_555 1_555
H1H_2 C2H_2 1_555 1_555
C3H_2 N1A_2 1_555 1_555
H2H_2 C3H_2 1_555 1_555
C2K_2 C1A_2 1_555 1_555
H1K_2 C2K_2 1_555 1_555
C3K_2 N1A_2 1_555 1_555
H2K_2 C3K_2 1_555 1_555
C2J_2 C1_2 1_555 1_555
H1J_2 C2J_2 1_555 1_555
C3J_2 N1_2 1_555 1_555
H2J_2 C3J_2 1_555 1_555
F1B Cu1 1_555 1_555
F2B Ti1 1_555 1_555
F2C Ti1 1_555 1_555
Cu1_2 N1_2 1_555 1_555
Cu1_3 N1A 1_555 1_555
Ti1_2 F1B 1_555 1_555
F1B_2 Ti1 1_555 1_555
N1D Cu1 1_555 1_555
N1E Cu1 1_555 1_555
C2 C3 1_555 1_555
C2 C2J 1_555 1_555
C2 C3J 1_555 1_555
C3 C2J 1_555 1_555
C3 C3J 1_555 1_555
C2A C2K 1_555 1_555
C2A C3K 1_555 1_555
C3A C2K 1_555 1_555
C3A C3K 1_555 1_555
C2B C3B 1_555 1_555
C2B C2H 1_555 1_555
C2B C3H 1_555 1_555
C3B C2H 1_555 1_555
C3B C3H 1_555 1_555
C2C C3C 1_555 1_555
C2C C2I 1_555 1_555
C2C C3I 1_555 1_555
C3C C2I 1_555 1_555
C3C C3I 1_555 1_555
C2H C3H 1_555 1_555
C2I C3I 1_555 1_555
C2J C3J 1_555 1_555
C2K C3K 1_555 1_555
C2A_2 C3A_2 1_555 1_555
C2A_2 C2K_2 1_555 1_555
C2A_2 C3K_2 1_555 1_555
C3A_2 C2K_2 1_555 1_555
C3A_2 C3K_2 1_555 1_555
C2_2 C2J_2 1_555 1_555
C2_2 C3J_2 1_555 1_555
C3_2 C2J_2 1_555 1_555
C3_2 C3J_2 1_555 1_555
C2C_2 C3C_2 1_555 1_555
C2C_2 C2I_2 1_555 1_555
C2C_2 C3I_2 1_555 1_555
C3C_2 C2I_2 1_555 1_555
C3C_2 C3I_2 1_555 1_555
C2B_2 C3B_2 1_555 1_555
C2B_2 C2H_2 1_555 1_555
C2B_2 C3H_2 1_555 1_555
C3B_2 C2H_2 1_555 1_555
C3B_2 C3H_2 1_555 1_555
C2I_2 C3I_2 1_555 1_555
C2H_2 C3H_2 1_555 1_555
C2K_2 C3K_2 1_555 1_555
C2J_2 C3J_2 1_555 1_555

#END
