
#######################################################################
#
#                 Cambridge Crystallographic Data Centre
#                                CCDC 
#
#######################################################################
#
# If this CIF has been generated from an entry in the Cambridge 
# Structural Database, then it will include bibliographic, chemical, 
# crystal, experimental, refinement or atomic coordinate data resulting 
# from the CCDC's data processing and validation procedures.
#
#######################################################################

data_UVANUB
_chemical_formula_moiety         '(C46 H30 F12 N2 O8 Zn2)n,2n(C6 H7 N1)'
_chemical_name_systematic        
"catena-(bis(\m~4~-4,4'-(1,1,1,3,3,3-Hexafluoropropane-2,2-diyl)dibenzoato)-bis(3-methylpyridine)-di-zinc bis(3-methylpyridine))"
_symmetry_cell_setting           orthorhombic
_symmetry_space_group_name_H-M   'C m c 21'
_symmetry_Int_Tables_number      36
_space_group_name_Hall           'C 2c -2'
loop_
_symmetry_equiv_pos_site_id
_symmetry_equiv_pos_as_xyz
1 x,y,z
2 -x,-y,1/2+z
3 -x,y,z
4 x,-y,1/2+z
5 1/2+x,1/2+y,z
6 1/2-x,1/2-y,1/2+z
7 1/2-x,1/2+y,z
8 1/2+x,1/2-y,1/2+z
_cell_length_a                   21.626(2)
_cell_length_b                   14.6622(17)
_cell_length_c                   17.777(3)
_cell_angle_alpha                90
_cell_angle_beta                 90
_cell_angle_gamma                90
_cell_volume                     5636.82
_exptl_crystal_colour            colorless
_exptl_crystal_description       prism
_cell_formula_units_Z            4
loop_
_atom_site_label
_atom_site_type_symbol
_atom_site_fract_x
_atom_site_fract_y
_atom_site_fract_z
_atom_site_U_iso_or_equiv
_atom_site_thermal_displace_type
C30 C 0.3099(9) 0.6707(13) 1.0041(10) 0.1830 Uiso
H23 H 0.2792 0.6391 1.0299 0.2190 Uiso
C31 C 0.3027(7) 0.7344(13) 0.9476(11) 0.1240 Uiso
C32 C 0.3405(7) 0.7920(11) 0.9061(9) 0.1370 Uiso
H24 H 0.3218 0.8339 0.8741 0.1640 Uiso
C33 C 0.4023(10) 0.7907(16) 0.9098(13) 0.2150 Uiso
H25 H 0.4313 0.8255 0.8839 0.2580 Uiso
C34 C 0.4113(9) 0.7197(14) 0.9652(12) 0.1760 Uiso
H26 H 0.4530 0.7059 0.9713 0.2110 Uiso
C35 C 0.2500(12) 0.783(2) 0.924(2) 0.3360 Uiso
H27 H 0.2550 0.8007 0.8724 0.5040 Uiso
H28 H 0.2448 0.8359 0.9547 0.5040 Uiso
H29 H 0.2142 0.7443 0.9285 0.5040 Uiso
N3 N 0.3729(9) 0.6647(12) 1.0133(10) 0.2010 Uiso
C1 C 0.0830(5) 0.1534(7) 0.3732(8) 0.0557 Uani
C2 C 0.1281(5) 0.1001(6) 0.3282(6) 0.0487 Uani
C3 C 0.1583(5) 0.0260(7) 0.3615(7) 0.0700 Uani
H1 H 0.1523 0.0135 0.4122 0.0840 Uiso
C4 C 0.1968(6) -0.0282(7) 0.3197(7) 0.1080 Uani
H2 H 0.2088 -0.0842 0.3393 0.1290 Uiso
C5 C 0.2176(4) -0.0044(6) 0.2527(5) 0.0530 Uiso
C6 C 0.1839(4) 0.0640(8) 0.2149(6) 0.0613 Uani
H3 H 0.1890 0.0710 0.1633 0.0730 Uiso
C7 C 0.1432(5) 0.1213(7) 0.2532(5) 0.0470 Uani
H4 H 0.1264 0.1723 0.2297 0.0570 Uiso
C8 C 0.2612(4) -0.0628(5) 0.2062(4) 0.0530 Uiso
C9 C 0.3044(4) -0.1189(5) 0.2488(5) 0.0473 Uani
C10 C 0.2229(5) -0.1373(8) 0.1668(7) 0.0990 Uiso
C11 C 0.2978(4) -0.0064(6) 0.1481(5) 0.0520 Uiso
C12 C 0.3191(5) 0.0749(5) 0.1712(6) 0.0510 Uani
H5 H 0.3070 0.0977 0.2177 0.0610 Uiso
C13 C 0.3590(5) 0.1254(7) 0.1262(6) 0.0567 Uani
H6 H 0.3773 0.1773 0.1464 0.0680 Uiso
C14 C 0.3723(5) 0.1019(7) 0.0544(6) 0.0460 Uani
C15 C 0.3499(6) 0.0220(9) 0.0276(7) 0.0887 Uani
H7 H 0.3633 0.0001 -0.0187 0.1060 Uiso
C16 C 0.3063(7) -0.0282(11) 0.0695(7) 0.1090 Uiso
H8 H 0.2834 -0.0745 0.0470 0.1310 Uiso
C17 C 0.4187(5) 0.1610(7) 0.0098(6) 0.0377 Uani
C18 C 0.0000 -0.0015(11) 0.5741(10) 0.0710 Uiso
H9 H 0.0000 -0.0200 0.5241 0.0850 Uiso
C19 C 0.0000 -0.0667(12) 0.6282(10) 0.1053 Uani
H10 H 0.0000 -0.1286 0.6165 0.1260 Uiso
C20 C 0.0000 -0.0367(11) 0.7003(11) 0.0730 Uiso
H11 H 0.0000 -0.0790 0.7393 0.0880 Uiso
C21 C 0.0000 0.0507(9) 0.7163(7) 0.0540 Uiso
C22 C 0.0000 0.0687(17) 0.7944(10) 0.1650 Uiso
C23 C 0.0000 0.1183(13) 0.6607(9) 0.0900 Uiso
H15 H 0.0000 0.1801 0.6723 0.1070 Uiso
C24 C 0.0000 0.3873(10) 0.2226(6) 0.0493 Uani
H16 H 0.0000 0.3248 0.2135 0.0590 Uiso
C25 C 0.0000 0.4372(12) 0.1589(9) 0.1010 Uiso
C26 C 0.0000 0.3981(13) 0.0836(9) 0.1020 Uiso
C27 C 0.0000 0.5291(12) 0.1755(9) 0.0863 Uani
H20 H 0.0000 0.5708 0.1361 0.1040 Uiso
C28 C 0.0000 0.5618(14) 0.2490(9) 0.0910 Uiso
H21 H 0.0000 0.6242 0.2586 0.1100 Uiso
C29 C 0.0000 0.4997(10) 0.3074(10) 0.0877 Uani
H22 H 0.0000 0.5213 0.3566 0.1050 Uiso
F1 F 0.1870(4) -0.1002(5) 0.1136(5) 0.0510 Uiso
F4 F 0.2952(5) -0.1757(6) 0.3088(6) 0.0680 Uiso
F5 F 0.3470(6) -0.1569(8) 0.2003(7) 0.0570 Uiso
F6 F 0.3329(5) -0.0671(7) 0.2928(6) 0.1240 Uiso
N1 N 0.0000 0.0872(8) 0.5885(6) 0.0377 Uani
N2 N 0.0000 0.4076(9) 0.2955(6) 0.0563 Uani
O1 O 0.0632(4) 0.2284(6) 0.3397(4) 0.0687 Uani
O2 O 0.0658(3) 0.1271(6) 0.4344(4) 0.0650 Uani
O3 O 0.4342(4) 0.1233(5) -0.0523(4) 0.0650 Uani
O4 O 0.4349(4) 0.2281(5) 0.0366(4) 0.0600 Uani
Zn1 Zn 0.0000 0.31926(10) 0.37869(5) 0.0353 Uani
Zn2 Zn 0.0000 0.18085(10) 0.50132(5) 0.0341 Uani
O1B O -0.0632(4) 0.2284(6) 0.3397(4) 0.0687 Uani
O2B O -0.0658(3) 0.1271(6) 0.4344(4) 0.0650 Uani
O3E O 0.0658(4) 0.3767(5) 0.4477(4) 0.0650 Uani
O3G O -0.0658(4) 0.3767(5) 0.4477(4) 0.0650 Uani
O4E O 0.0651(4) 0.2719(5) 0.5366(4) 0.0600 Uani
O4G O -0.0651(4) 0.2719(5) 0.5366(4) 0.0600 Uani
Zn1E Zn 0.5000 0.18074(10) -0.12131(5) 0.0353 Uani
Zn2E Zn 0.5000 0.31915(10) 0.00132(5) 0.0341 Uani
H12? H 0.0020 0.1333 0.8026 0.2480 Uiso
H13? H 0.0352 0.0399 0.8172 0.2480 Uiso
H14? H -0.0372 0.0450 0.8164 0.2480 Uiso
H17? H 0.0418 0.3905 0.0666 0.1530 Uiso
H18? H -0.0216 0.4382 0.0499 0.1530 Uiso
H19? H -0.0203 0.3399 0.0845 0.1530 Uiso
F2? F 0.2616(5) -0.2091(6) 0.1479(5) 0.0580 Uiso
F3? F 0.1733(5) -0.1705(7) 0.2047(7) 0.0560 Uiso
F7? F 0.1602(5) -0.0482(8) 0.0715(7) 0.0250 Uiso
F8? F 0.2197(5) -0.1874(7) 0.0950(6) 0.0530 Uiso
F9? F 0.1392(4) -0.1436(7) 0.1567(5) 0.0500 Uiso
F10? F 0.2578(5) -0.1993(7) 0.2592(6) 0.0520 Uiso
F11? F 0.3090(5) -0.1841(6) 0.1520(6) 0.0650 Uiso
loop_
_atom_site_aniso_label
_atom_site_aniso_U_11
_atom_site_aniso_U_22
_atom_site_aniso_U_33
_atom_site_aniso_U_23
_atom_site_aniso_U_13
_atom_site_aniso_U_12
C1 0.034(6) 0.037(6) 0.096(9) 0.007(7) -0.010(7) 0.006(5)
C2 0.068(8) 0.032(6) 0.046(6) -0.002(5) 0.035(6) -0.004(5)
C3 0.075(7) 0.058(8) 0.077(8) 0.032(6) 0.038(7) 0.035(6)
C4 0.137(10) 0.053(6) 0.134(10) 0.071(7) 0.121(9) 0.071(6)
C6 0.045(6) 0.104(9) 0.035(5) 0.003(6) 0.028(5) -0.008(7)
C7 0.048(7) 0.046(6) 0.047(7) -0.005(5) 0.001(6) 0.002(5)
C9 0.054(6) 0.024(4) 0.064(6) 0.021(4) 0.045(5) 0.018(4)
C12 0.071(7) 0.012(4) 0.070(7) 0.003(4) 0.027(6) 0.003(5)
C13 0.062(8) 0.036(6) 0.072(8) -0.010(6) 0.036(6) 0.002(6)
C14 0.039(7) 0.043(7) 0.056(7) -0.011(6) 0.006(6) -0.002(5)
C15 0.104(10) 0.078(10) 0.084(10) -0.019(8) 0.066(8) -0.019(8)
C17 0.045(6) 0.042(6) 0.026(5) 0.011(5) 0.020(5) 0.001(5)
C19 0.162(18) 0.046(9) 0.108(14) 0.054(10) 0.000 0.000
C24 0.074(9) 0.059(8) 0.015(5) 0.014(5) 0.000 0.000
C27 0.068(10) 0.140(18) 0.051(9) 0.069(10) 0.000 0.000
C29 0.168(17) 0.029(7) 0.066(9) 0.023(6) 0.000 0.000
N1 0.040(7) 0.038(7) 0.035(6) 0.024(5) 0.000 0.000
N2 0.053(9) 0.084(10) 0.032(7) -0.023(7) 0.000 0.000
O1 0.086(7) 0.076(6) 0.044(4) 0.008(4) 0.029(4) 0.026(5)
O2 0.052(5) 0.097(7) 0.046(5) 0.005(5) 0.034(4) 0.014(4)
O3 0.102(7) 0.044(5) 0.049(5) -0.002(4) 0.019(5) -0.020(4)
O4 0.056(5) 0.037(5) 0.087(6) 0.001(4) 0.021(4) -0.021(4)
Zn1 0.0416(10) 0.0386(10) 0.0257(8) 0.0020(8) 0.000 0.000
Zn2 0.0376(10) 0.0331(10) 0.0316(8) -0.0030(8) 0.000 0.000
O1B 0.086 0.076 0.044 0.008 -0.029 -0.026
O2B 0.052 0.097 0.046 0.005 -0.034 -0.014
O3E 0.102 0.044 0.049 0.002 -0.019 -0.02
O3G 0.102 0.044 0.049 0.002 0.019 0.02
O4E 0.056 0.037 0.087 -0.001 -0.021 -0.021
O4G 0.056 0.037 0.087 -0.001 0.021 0.021
Zn1E 0.0416 0.0386 0.0257 -0.002 0 0
Zn2E 0.0376 0.0331 0.0316 0.003 0 0
loop_
_geom_bond_atom_site_label_1
_geom_bond_atom_site_label_2
_geom_bond_site_symmetry_1
_geom_bond_site_symmetry_2
C1 C2 1_555 1_555
C2 C3 1_555 1_555
C3 H1 1_555 1_555
C4 C3 1_555 1_555
H2 C4 1_555 1_555
C5 C4 1_555 1_555
C6 C5 1_555 1_555
H3 C6 1_555 1_555
C7 C2 1_555 1_555
H4 C7 1_555 1_555
C8 C5 1_555 1_555
C9 C8 1_555 1_555
C10 C8 1_555 1_555
C11 C8 1_555 1_555
C12 C11 1_555 1_555
H5 C12 1_555 1_555
C13 C12 1_555 1_555
H6 C13 1_555 1_555
C14 C13 1_555 1_555
C15 C14 1_555 1_555
H7 C15 1_555 1_555
C16 C11 1_555 1_555
H8 C16 1_555 1_555
C17 C14 1_555 1_555
C18 H9 1_555 1_555
C19 C18 1_555 1_555
H10 C19 1_555 1_555
C20 C19 1_555 1_555
H11 C20 1_555 1_555
C21 C20 1_555 1_555
C22 C21 1_555 1_555
C23 C21 1_555 1_555
H15 C23 1_555 1_555
C24 H16 1_555 1_555
C25 C24 1_555 1_555
C26 C25 1_555 1_555
C27 C25 1_555 1_555
H20 C27 1_555 1_555
C28 C27 1_555 1_555
H21 C28 1_555 1_555
C29 C28 1_555 1_555
H22 C29 1_555 1_555
C30 H23 1_555 1_555
C31 C30 1_555 1_555
C32 C31 1_555 1_555
H24 C32 1_555 1_555
C33 C32 1_555 1_555
H25 C33 1_555 1_555
C34 C33 1_555 1_555
H26 C34 1_555 1_555
C35 C31 1_555 1_555
H27 C35 1_555 1_555
H28 C35 1_555 1_555
H29 C35 1_555 1_555
F1 C10 1_555 1_555
F4 C9 1_555 1_555
F5 C9 1_555 1_555
F6 C9 1_555 1_555
N1 C18 1_555 1_555
N2 C24 1_555 1_555
N3 C30 1_555 1_555
O1 C1 1_555 1_555
O2 C1 1_555 1_555
O3 C17 1_555 1_555
O4 C17 1_555 1_555
Zn1 N2 1_555 1_555
Zn2 N1 1_555 1_555
O1B Zn1 1_555 1_555
O2B Zn2 1_555 1_555
O3E Zn1 1_555 1_555
O3G Zn1 1_555 1_555
O4E Zn2 1_555 1_555
O4G Zn2 1_555 1_555
Zn1E O3 1_555 1_555
Zn2E O4 1_555 1_555
C6 C7 1_555 1_555
C15 C16 1_555 1_555
C23 N1 1_555 1_555
C29 N2 1_555 1_555
C34 N3 1_555 1_555
O1 Zn1 1_555 1_555
O2 Zn2 1_555 1_555

#END
