
#######################################################################
#
#                 Cambridge Crystallographic Data Centre
#                                CCDC 
#
#######################################################################
#
# If this CIF has been generated from an entry in the Cambridge 
# Structural Database, then it will include bibliographic, chemical, 
# crystal, experimental, refinement or atomic coordinate data resulting 
# from the CCDC's data processing and validation procedures.
#
#######################################################################

data_PEQHUQ
_chemical_formula_moiety         '(C12 H10 N8 O4 Zn2)n'
_chemical_name_systematic        
'catena-[bis(\m~3~-3-Amino-1,2,4-triazolyl)-(\m~2~-terephthalato)-di-zinc(ii) unknown solvate]'
_symmetry_cell_setting           tetragonal
_symmetry_space_group_name_H-M   'P 4/n n c'
_symmetry_Int_Tables_number      126
_space_group_name_Hall           '-P 4a 2bc'
loop_
_symmetry_equiv_pos_site_id
_symmetry_equiv_pos_as_xyz
1 x,y,z
2 1/2-x,1/2-y,z
3 1/2-y,x,z
4 y,1/2-x,z
5 1/2-x,y,1/2-z
6 x,1/2-y,1/2-z
7 y,x,1/2-z
8 1/2-y,1/2-x,1/2-z
9 -x,-y,-z
10 1/2+x,1/2+y,-z
11 1/2+y,-x,-z
12 -y,1/2+x,-z
13 1/2+x,-y,1/2+z
14 -x,1/2+y,1/2+z
15 -y,-x,1/2+z
16 1/2+y,1/2+x,1/2+z
_cell_length_a                   12.6672(6)
_cell_length_b                   12.6672(6)
_cell_length_c                   25.4399(18)
_cell_angle_alpha                90
_cell_angle_beta                 90
_cell_angle_gamma                90
_cell_volume                     4082.03
_exptl_crystal_colour            colorless
_exptl_crystal_description       block
_cell_formula_units_Z            8
loop_
_atom_site_label
_atom_site_type_symbol
_atom_site_fract_x
_atom_site_fract_y
_atom_site_fract_z
_atom_site_U_iso_or_equiv
_atom_site_thermal_displace_type
Zn1 Zn 0.96052(3) 0.06672(4) 0.562588(16) 0.0249 Uani
O1 O 0.8533(3) 0.0520(4) 0.61652(14) 0.0690 Uani
O2 O 0.9882(3) 0.0883(3) 0.66743(15) 0.0563 Uani
N1 N 1.2752(3) -0.0225(3) 0.54913(12) 0.0307 Uani
N2 N 1.1302(3) -0.0270(3) 0.49992(12) 0.0283 Uani
N3 N 1.1015(3) 0.0025(3) 0.55081(12) 0.0267 Uani
N4 N 1.1962(3) 0.0308(4) 0.62946(14) 0.0566 Uani
H1 H 1.1397 0.0483 0.6461 0.0680 Uiso
H2 H 1.2559 0.0305 0.6455 0.0680 Uiso
C1 C 0.8929(4) 0.0712(4) 0.66111(19) 0.0463 Uani
C2 C 0.8178(4) 0.0731(4) 0.70713(16) 0.0400 Uani
C3 C 0.8573(4) 0.0737(5) 0.7575(2) 0.0537 Uani
H3 H 0.9299 0.0750 0.7628 0.0640 Uiso
C4 C 0.7106(4) 0.0724(5) 0.69936(18) 0.0557 Uani
H4 H 0.6834 0.0711 0.6654 0.0670 Uiso
C5 C 1.1912(3) 0.0042(3) 0.57896(15) 0.0298 Uani
C6 C 1.2321(3) -0.0399(3) 0.50111(15) 0.0323 Uani
H5 H 1.2716 -0.0593 0.4718 0.0390 Uiso
O1D O 0.6467(3) 0.0520(4) 0.88348(14) 0.0690 Uani
O2D O 0.5118(3) 0.0883(3) 0.83257(15) 0.0563 Uani
C1D C 0.6071(4) 0.0712(4) 0.83889(19) 0.0463 Uani
C2D C 0.6822(4) 0.0731(4) 0.79287(16) 0.0400 Uani
C3D C 0.6427(4) 0.0737(5) 0.7425(2) 0.0537 Uani
H3D H 0.5701 0.0750 0.7372 0.0640 Uiso
C4D C 0.7894(4) 0.0724(5) 0.80064(18) 0.0557 Uani
H4D H 0.8166 0.0711 0.8346 0.0670 Uiso
Zn1B Zn 1.43328(4) -0.03948(3) 0.562588(16) 0.0249 Uani
N1B N 1.5225(3) 0.2752(3) 0.54913(12) 0.0307 Uani
N2B N 1.5270(3) 0.1302(3) 0.49992(12) 0.0283 Uani
N3B N 1.4975(3) 0.1015(3) 0.55081(12) 0.0267 Uani
N4B N 1.4692(4) 0.1962(3) 0.62946(14) 0.0566 Uani
H1B H 1.4517 0.1397 0.6461 0.0680 Uiso
H2B H 1.4695 0.2559 0.6455 0.0680 Uiso
C5B C 1.4958(3) 0.1912(3) 0.57896(15) 0.0298 Uani
C6B C 1.5399(3) 0.2321(3) 0.50111(15) 0.0323 Uani
H5B H 1.5593 0.2716 0.4718 0.0390 Uiso
Zn1A Zn 1.53948(3) 0.43328(4) 0.562588(16) 0.0249 Uani
Zn1D Zn 0.53948(3) 0.06672(4) 0.937412(16) 0.0249 Uani
Zn1H Zn 1.03948(3) -0.06672(4) 0.437412(16) 0.0249 Uani
Zn1J Zn 1.56672(4) 0.03948(3) 0.437412(16) 0.0249 Uani
O1B O 1.4480(4) -0.1467(3) 0.61652(14) 0.0690 Uani
N1C N 0.9775(3) 0.2248(3) 0.54913(12) 0.0307 Uani
N2H N 0.8698(3) 0.0270(3) 0.50008(12) 0.0283 Uani
N2J N 1.4730(3) -0.1302(3) 0.50008(12) 0.0283 Uani
loop_
_atom_site_aniso_label
_atom_site_aniso_U_11
_atom_site_aniso_U_22
_atom_site_aniso_U_33
_atom_site_aniso_U_23
_atom_site_aniso_U_13
_atom_site_aniso_U_12
Zn1 0.0267(3) 0.0295(3) 0.0186(3) -0.00287(17) 0.00096(16) 0.00338(17)
O1 0.080(3) 0.098(3) 0.0291(18) -0.0080(18) 0.0246(19) -0.022(2)
O2 0.045(2) 0.060(2) 0.064(2) 0.0115(18) 0.0305(18) 0.0088(17)
N1 0.0236 0.044 0.0245 -0.0058 0.0023 0.0012
N2 0.0266 0.0359 0.0225 -0.008 0.0034 0.0003
N3 0.0269(17) 0.0329(18) 0.0204(15) -0.0055(13) 0.0023(12) 0.0013(14)
N4 0.032(2) 0.113(4) 0.0249(19) -0.020(2) -0.0032(16) 0.018(2)
C1 0.062(3) 0.038(3) 0.039(3) 0.002(2) 0.023(2) 0.000(2)
C2 0.041(3) 0.054(3) 0.025(2) -0.0009(19) 0.0126(18) -0.003(2)
C3 0.033(2) 0.089(4) 0.039(3) -0.005(3) 0.006(2) 0.001(2)
C4 0.044(3) 0.097(5) 0.026(2) 0.004(3) 0.003(2) -0.002(3)
C5 0.027(2) 0.036(2) 0.0265(19) -0.0020(16) 0.0011(15) 0.0022(17)
C6 0.025 0.048 0.0239 -0.0085 0.0024 0.0005
O1D 0.08 0.098 0.0291 0.008 0.0246 0.022
O2D 0.045 0.06 0.064 -0.0115 0.0305 -0.0088
C1D 0.062 0.038 0.039 -0.002 0.023 0
C2D 0.041 0.054 0.025 0.0009 0.0126 0.003
C3D 0.033 0.089 0.039 0.005 0.006 -0.001
C4D 0.044 0.097 0.026 -0.004 0.003 0.002
Zn1B 0.0295 0.0267 0.0186 0.00096 0.00287 -0.00338
N1B 0.044 0.0236 0.0245 0.0023 0.0058 -0.0012
N2B 0.0359 0.0266 0.0225 0.0034 0.008 -0.0003
N3B 0.0329 0.0269 0.0204 0.0023 0.0055 -0.0013
N4B 0.113 0.032 0.0249 -0.0032 0.02 -0.018
C5B 0.036 0.027 0.0265 0.0011 0.002 -0.0022
C6B 0.048 0.025 0.0239 0.0024 0.0085 -0.0005
Zn1A 0.0267 0.0295 0.0186 0.00287 -0.00096 0.00338
Zn1D 0.0267 0.0295 0.0186 0.00287 0.00096 -0.00338
Zn1H 0.0267 0.0295 0.0186 -0.00287 0.00096 0.00338
Zn1J 0.0295 0.0267 0.0186 0.00096 0.00287 -0.00338
O1B 0.098 0.08 0.0291 0.0246 0.008 0.022
N1C 0.044 0.0236 0.0245 -0.0023 -0.0058 -0.0012
N2H 0.0266 0.0359 0.0225 -0.008 0.0034 0.0003
N2J 0.0359 0.0266 0.0225 0.0034 0.008 -0.0003
loop_
_geom_bond_atom_site_label_1
_geom_bond_atom_site_label_2
_geom_bond_site_symmetry_1
_geom_bond_site_symmetry_2
Zn1 O1 1_555 1_555
O1 C1 1_555 1_555
O2 C1 1_555 1_555
N1 C5 1_555 1_555
N2 N3 1_555 1_555
N3 Zn1 1_555 1_555
N4 H1 1_555 1_555
H2 N4 1_555 1_555
C1 C2 1_555 1_555
C2 C3 1_555 1_555
C3 H3 1_555 1_555
C4 C2 1_555 1_555
H4 C4 1_555 1_555
C5 N3 1_555 1_555
C6 N1 1_555 1_555
H5 C6 1_555 1_555
O1D C1D 1_555 1_555
O2D C1D 1_555 1_555
C1D C2D 1_555 1_555
C2D C3D 1_555 1_555
C3D C4 1_555 1_555
H3D C3D 1_555 1_555
C4D C3 1_555 1_555
H4D C4D 1_555 1_555
Zn1B N1 1_555 1_555
N1B C5B 1_555 1_555
N2B N3B 1_555 1_555
N3B Zn1B 1_555 1_555
N4B H1B 1_555 1_555
H2B N4B 1_555 1_555
C5B N3B 1_555 1_555
C6B N1B 1_555 1_555
H5B C6B 1_555 1_555
Zn1A N1B 1_555 1_555
Zn1D O1D 1_555 1_555
Zn1H N2 1_555 1_555
Zn1J N2B 1_555 1_555
O1B Zn1B 1_555 1_555
N1C Zn1 1_555 1_555
N2H Zn1 1_555 1_555
N2J Zn1B 1_555 1_555
N2 C6 1_555 1_555
N4 C5 1_555 1_555
C2D C4D 1_555 1_555
N2B C6B 1_555 1_555
N4B C5B 1_555 1_555

#END
