
#######################################################################
#
#                 Cambridge Crystallographic Data Centre
#                                CCDC 
#
#######################################################################
#
# If this CIF has been generated from an entry in the Cambridge 
# Structural Database, then it will include bibliographic, chemical, 
# crystal, experimental, refinement or atomic coordinate data resulting 
# from the CCDC's data processing and validation procedures.
#
#######################################################################

data_UGOCAW
_chemical_formula_moiety         '(C60 H24 Cu12 N18 O50)n'
_chemical_name_systematic        
'catena-[hexakis(\m-4-(3,5-dicarboxylatophenyl)-2H-1,2,3-triazol-2-yl)-bis(\m-oxo)-tetracosaoxo-dodeca-copper unknown solvate]'
_symmetry_cell_setting           cubic
_symmetry_space_group_name_H-M   'F m -3 m'
_symmetry_Int_Tables_number      225
_space_group_name_Hall           '-F 4 2 3'
loop_
_symmetry_equiv_pos_site_id
_symmetry_equiv_pos_as_xyz
1 x,y,z
2 -x,-y,z
3 -x,y,-z
4 x,-y,-z
5 z,x,y
6 z,-x,-y
7 -z,-x,y
8 -z,x,-y
9 y,z,x
10 -y,z,-x
11 y,-z,-x
12 -y,-z,x
13 y,x,-z
14 -y,-x,-z
15 y,-x,z
16 -y,x,z
17 x,z,-y
18 -x,z,y
19 -x,-z,-y
20 x,-z,y
21 z,y,-x
22 z,-y,x
23 -z,y,x
24 -z,-y,-x
25 x,1/2+y,1/2+z
26 -x,1/2-y,1/2+z
27 -x,1/2+y,1/2-z
28 x,1/2-y,1/2-z
29 z,1/2+x,1/2+y
30 z,1/2-x,1/2-y
31 -z,1/2-x,1/2+y
32 -z,1/2+x,1/2-y
33 y,1/2+z,1/2+x
34 -y,1/2+z,1/2-x
35 y,1/2-z,1/2-x
36 -y,1/2-z,1/2+x
37 y,1/2+x,1/2-z
38 -y,1/2-x,1/2-z
39 y,1/2-x,1/2+z
40 -y,1/2+x,1/2+z
41 x,1/2+z,1/2-y
42 -x,1/2+z,1/2+y
43 -x,1/2-z,1/2-y
44 x,1/2-z,1/2+y
45 z,1/2+y,1/2-x
46 z,1/2-y,1/2+x
47 -z,1/2+y,1/2+x
48 -z,1/2-y,1/2-x
49 1/2+x,y,1/2+z
50 1/2-x,-y,1/2+z
51 1/2-x,y,1/2-z
52 1/2+x,-y,1/2-z
53 1/2+z,x,1/2+y
54 1/2+z,-x,1/2-y
55 1/2-z,-x,1/2+y
56 1/2-z,x,1/2-y
57 1/2+y,z,1/2+x
58 1/2-y,z,1/2-x
59 1/2+y,-z,1/2-x
60 1/2-y,-z,1/2+x
61 1/2+y,x,1/2-z
62 1/2-y,-x,1/2-z
63 1/2+y,-x,1/2+z
64 1/2-y,x,1/2+z
65 1/2+x,z,1/2-y
66 1/2-x,z,1/2+y
67 1/2-x,-z,1/2-y
68 1/2+x,-z,1/2+y
69 1/2+z,y,1/2-x
70 1/2+z,-y,1/2+x
71 1/2-z,y,1/2+x
72 1/2-z,-y,1/2-x
73 1/2+x,1/2+y,z
74 1/2-x,1/2-y,z
75 1/2-x,1/2+y,-z
76 1/2+x,1/2-y,-z
77 1/2+z,1/2+x,y
78 1/2+z,1/2-x,-y
79 1/2-z,1/2-x,y
80 1/2-z,1/2+x,-y
81 1/2+y,1/2+z,x
82 1/2-y,1/2+z,-x
83 1/2+y,1/2-z,-x
84 1/2-y,1/2-z,x
85 1/2+y,1/2+x,-z
86 1/2-y,1/2-x,-z
87 1/2+y,1/2-x,z
88 1/2-y,1/2+x,z
89 1/2+x,1/2+z,-y
90 1/2-x,1/2+z,y
91 1/2-x,1/2-z,-y
92 1/2+x,1/2-z,y
93 1/2+z,1/2+y,-x
94 1/2+z,1/2-y,x
95 1/2-z,1/2+y,x
96 1/2-z,1/2-y,-x
97 -x,-y,-z
98 x,y,-z
99 x,-y,z
100 -x,y,z
101 -z,-x,-y
102 -z,x,y
103 z,x,-y
104 z,-x,y
105 -y,-z,-x
106 y,-z,x
107 -y,z,x
108 y,z,-x
109 -y,-x,z
110 y,x,z
111 -y,x,-z
112 y,-x,-z
113 -x,-z,y
114 x,-z,-y
115 x,z,y
116 -x,z,-y
117 -z,-y,x
118 -z,y,-x
119 z,-y,-x
120 z,y,x
121 -x,1/2-y,1/2-z
122 x,1/2+y,1/2-z
123 x,1/2-y,1/2+z
124 -x,1/2+y,1/2+z
125 -z,1/2-x,1/2-y
126 -z,1/2+x,1/2+y
127 z,1/2+x,1/2-y
128 z,1/2-x,1/2+y
129 -y,1/2-z,1/2-x
130 y,1/2-z,1/2+x
131 -y,1/2+z,1/2+x
132 y,1/2+z,1/2-x
133 -y,1/2-x,1/2+z
134 y,1/2+x,1/2+z
135 -y,1/2+x,1/2-z
136 y,1/2-x,1/2-z
137 -x,1/2-z,1/2+y
138 x,1/2-z,1/2-y
139 x,1/2+z,1/2+y
140 -x,1/2+z,1/2-y
141 -z,1/2-y,1/2+x
142 -z,1/2+y,1/2-x
143 z,1/2-y,1/2-x
144 z,1/2+y,1/2+x
145 1/2-x,-y,1/2-z
146 1/2+x,y,1/2-z
147 1/2+x,-y,1/2+z
148 1/2-x,y,1/2+z
149 1/2-z,-x,1/2-y
150 1/2-z,x,1/2+y
151 1/2+z,x,1/2-y
152 1/2+z,-x,1/2+y
153 1/2-y,-z,1/2-x
154 1/2+y,-z,1/2+x
155 1/2-y,z,1/2+x
156 1/2+y,z,1/2-x
157 1/2-y,-x,1/2+z
158 1/2+y,x,1/2+z
159 1/2-y,x,1/2-z
160 1/2+y,-x,1/2-z
161 1/2-x,-z,1/2+y
162 1/2+x,-z,1/2-y
163 1/2+x,z,1/2+y
164 1/2-x,z,1/2-y
165 1/2-z,-y,1/2+x
166 1/2-z,y,1/2-x
167 1/2+z,-y,1/2-x
168 1/2+z,y,1/2+x
169 1/2-x,1/2-y,-z
170 1/2+x,1/2+y,-z
171 1/2+x,1/2-y,z
172 1/2-x,1/2+y,z
173 1/2-z,1/2-x,-y
174 1/2-z,1/2+x,y
175 1/2+z,1/2+x,-y
176 1/2+z,1/2-x,y
177 1/2-y,1/2-z,-x
178 1/2+y,1/2-z,x
179 1/2-y,1/2+z,x
180 1/2+y,1/2+z,-x
181 1/2-y,1/2-x,z
182 1/2+y,1/2+x,z
183 1/2-y,1/2+x,-z
184 1/2+y,1/2-x,-z
185 1/2-x,1/2-z,y
186 1/2+x,1/2-z,-y
187 1/2+x,1/2+z,y
188 1/2-x,1/2+z,-y
189 1/2-z,1/2-y,x
190 1/2-z,1/2+y,-x
191 1/2+z,1/2-y,-x
192 1/2+z,1/2+y,x
_cell_length_a                   44.271(2)
_cell_length_b                   44.271(2)
_cell_length_c                   44.271(2)
_cell_angle_alpha                90
_cell_angle_beta                 90
_cell_angle_gamma                90
_cell_volume                     86767.7
_exptl_crystal_colour            green
_exptl_crystal_description       polyhedron
_cell_formula_units_Z            16
loop_
_atom_site_label
_atom_site_type_symbol
_atom_site_fract_x
_atom_site_fract_y
_atom_site_fract_z
_atom_site_U_iso_or_equiv
_atom_site_thermal_displace_type
Cu1 Cu 0.669190(16) 0.5000 0.169190(16) 0.0374 Uani
Cu2 Cu 0.626697(15) 0.5000 0.126697(15) 0.0265 Uani
O1 O 0.64409(9) 0.53066(9) 0.18761(9) 0.0580 Uani
O2 O 0.60851(8) 0.53121(9) 0.15170(7) 0.0507 Uani
O3 O 0.7080(3) 0.5000 0.1995(3) 0.0513 Uani
O4 O 0.59169(13) 0.50782(18) 0.09169(13) 0.0400 Uiso
C1 C 0.61934(13) 0.54073(11) 0.17559(12) 0.0477 Uani
C2 C 0.60341(13) 0.56450(12) 0.19177(11) 0.0470 Uani
C3 C 0.6084(3) 0.5718(3) 0.22272(19) 0.0420 Uiso
H1 H 0.6232 0.5606 0.2330 0.0510 Uiso
C4 C 0.57905(11) 0.57905(11) 0.17714(16) 0.0413 Uani
H2 H 0.5726 0.5726 0.1580 0.0490 Uiso
Cu3 Cu 0.6003(2) 0.65383(17) 0.34617(17) 0.1150 Uani
C5 C 0.5937(3) 0.5937(3) 0.2390(3) 0.0520 Uani
C6 C 0.6025(4) 0.6025(4) 0.2709(5) 0.0700 Uani
N1 N 0.5898(4) 0.6231(3) 0.2880(3) 0.0923 Uani
N2 N 0.6056(3) 0.6255(3) 0.3135(3) 0.0720 Uani
O5 O 0.6336(3) 0.6336(3) 0.3664(3) 0.0390 Uani
O6 O 0.6355(4) 0.6836(4) 0.3164(4) 0.0813 Uani
O7 O 0.5610(5) 0.6288(5) 0.3712(5) 0.1703 Uani
O8 O 0.5688(4) 0.6769(3) 0.3231(3) 0.1130 Uani
O1ED O 0.53066(9) 0.64409(9) 0.18761(9) 0.0580 Uani
O2ED O 0.53121(9) 0.60851(8) 0.15170(7) 0.0507 Uani
C1ED C 0.54073(11) 0.61934(13) 0.17559(12) 0.0477 Uani
C2ED C 0.56450(12) 0.60341(13) 0.19177(11) 0.0470 Uani
C3ED C 0.5718(3) 0.6084(3) 0.22272(19) 0.0420 Uiso
H1ED H 0.5606 0.6232 0.2330 0.0510 Uiso
N1ED N 0.6231(3) 0.5898(4) 0.2880(3) 0.0923 Uani
N2ED N 0.6255(3) 0.6056(3) 0.3135(3) 0.0720 Uani
O4QB O 0.59169(13) 0.49218(18) 0.09169(13) 0.0400 Uiso
O1G O 0.81239(9) 0.64409(9) 0.46934(9) 0.0580 Uani
O2G O 0.84830(7) 0.60851(8) 0.46879(9) 0.0507 Uani
C1G C 0.82441(12) 0.61934(13) 0.45927(11) 0.0477 Uani
C2G C 0.80823(11) 0.60341(13) 0.43550(12) 0.0470 Uani
C3G C 0.77728(19) 0.6084(3) 0.4282(3) 0.0420 Uiso
H1G H 0.7670 0.6232 0.4394 0.0510 Uiso
C4G C 0.82286(16) 0.57905(11) 0.42095(11) 0.0413 Uani
H2G H 0.8420 0.5726 0.4274 0.0490 Uiso
Cu3G Cu 0.65383(17) 0.6003(2) 0.34617(17) 0.1150 Uani
C5G C 0.7610(3) 0.5937(3) 0.4063(3) 0.0520 Uani
C6G C 0.7291(5) 0.6025(4) 0.3975(4) 0.0700 Uani
N1G N 0.7120(3) 0.5898(4) 0.3769(3) 0.0923 Uani
N2G N 0.6865(3) 0.6056(3) 0.3745(3) 0.0720 Uani
O6G O 0.6836(4) 0.6355(4) 0.3164(4) 0.0813 Uani
O7G O 0.6288(5) 0.5610(5) 0.3712(5) 0.1703 Uani
O8G O 0.6769(3) 0.5688(4) 0.3231(3) 0.1130 Uani
O1MD O 0.81239(9) 0.53066(9) 0.35591(9) 0.0580 Uani
O2MD O 0.84830(7) 0.53121(9) 0.39149(8) 0.0507 Uani
C1MD C 0.82441(12) 0.54073(11) 0.38066(13) 0.0477 Uani
C2MD C 0.80823(11) 0.56450(12) 0.39659(13) 0.0470 Uani
C3MD C 0.77728(19) 0.5718(3) 0.3916(3) 0.0420 Uiso
H1MD H 0.7670 0.5606 0.3768 0.0510 Uiso
N1MD N 0.7120(3) 0.6231(3) 0.4102(4) 0.0923 Uani
N2MD N 0.6865(3) 0.6255(3) 0.3944(3) 0.0720 Uani
O1J O 0.53066(9) 0.81239(9) 0.35591(9) 0.0580 Uani
O2J O 0.53121(9) 0.84830(7) 0.39149(8) 0.0507 Uani
C1J C 0.54073(11) 0.82441(12) 0.38066(13) 0.0477 Uani
C2J C 0.56450(12) 0.80823(11) 0.39659(13) 0.0470 Uani
C3J C 0.5718(3) 0.77728(19) 0.3916(3) 0.0420 Uiso
H1J H 0.5606 0.7670 0.3768 0.0510 Uiso
C4J C 0.57905(11) 0.82286(16) 0.42095(11) 0.0413 Uani
H2J H 0.5726 0.8420 0.4274 0.0490 Uiso
Cu3J Cu 0.65383(17) 0.65383(17) 0.3997(2) 0.1150 Uani
C5J C 0.5937(3) 0.7610(3) 0.4063(3) 0.0520 Uani
C6J C 0.6025(4) 0.7291(5) 0.3975(4) 0.0700 Uani
N1J N 0.6231(3) 0.7120(3) 0.4102(4) 0.0923 Uani
N2J N 0.6255(3) 0.6865(3) 0.3944(3) 0.0720 Uani
O6J O 0.6836(4) 0.6836(4) 0.3645(4) 0.0813 Uani
O7J O 0.6288(5) 0.6288(5) 0.4390(5) 0.1703 Uani
O8J O 0.6769(3) 0.6769(3) 0.4312(4) 0.1130 Uani
O1ID O 0.64409(9) 0.81239(9) 0.46934(9) 0.0580 Uani
O2ID O 0.60851(8) 0.84830(7) 0.46879(9) 0.0507 Uani
C1ID C 0.61934(13) 0.82441(12) 0.45927(11) 0.0477 Uani
C2ID C 0.60341(13) 0.80823(11) 0.43550(12) 0.0470 Uani
C3ID C 0.6084(3) 0.77728(19) 0.4282(3) 0.0420 Uiso
H1ID H 0.6232 0.7670 0.4394 0.0510 Uiso
N1ID N 0.5898(4) 0.7120(3) 0.3769(3) 0.0923 Uani
N2ID N 0.6056(3) 0.6865(3) 0.3745(3) 0.0720 Uani
Cu1N Cu 0.5000 0.330810(16) 0.169190(16) 0.0374 Uani
Cu2N Cu 0.5000 0.373303(15) 0.126697(15) 0.0265 Uani
O1N O 0.53066(9) 0.35591(9) 0.18761(9) 0.0580 Uani
O2N O 0.53121(9) 0.39149(8) 0.15170(7) 0.0507 Uani
O3N O 0.5000 0.2920(3) 0.1995(3) 0.0513 Uani
O4N O 0.50782(18) 0.40831(13) 0.09169(13) 0.0400 Uiso
C1N C 0.54073(11) 0.38066(13) 0.17559(12) 0.0477 Uani
C2N C 0.56450(12) 0.39659(13) 0.19177(11) 0.0470 Uani
C3N C 0.5718(3) 0.3916(3) 0.22272(19) 0.0420 Uiso
H1N H 0.5606 0.3768 0.2330 0.0510 Uiso
C4N C 0.57905(11) 0.42095(11) 0.17714(16) 0.0413 Uani
H2N H 0.5726 0.4274 0.1580 0.0490 Uiso
Cu3N Cu 0.65383(17) 0.3997(2) 0.34617(17) 0.1150 Uani
C5N C 0.5937(3) 0.4063(3) 0.2390(3) 0.0520 Uani
C6N C 0.6025(4) 0.3975(4) 0.2709(5) 0.0700 Uani
N1N N 0.6231(3) 0.4102(4) 0.2880(3) 0.0923 Uani
N2N N 0.6255(3) 0.3944(3) 0.3135(3) 0.0720 Uani
O5N O 0.6336(3) 0.3664(3) 0.3664(3) 0.0390 Uani
O6N O 0.6836(4) 0.3645(4) 0.3164(4) 0.0813 Uani
O7N O 0.6288(5) 0.4390(5) 0.3712(5) 0.1703 Uani
O8N O 0.6769(3) 0.4312(4) 0.3231(3) 0.1130 Uani
O1TC O 0.64409(9) 0.46934(9) 0.18761(9) 0.0580 Uani
O2TC O 0.60851(8) 0.46879(9) 0.15170(7) 0.0507 Uani
C1TC C 0.61934(13) 0.45927(11) 0.17559(12) 0.0477 Uani
C2TC C 0.60341(13) 0.43550(12) 0.19177(11) 0.0470 Uani
C3TC C 0.6084(3) 0.4282(3) 0.22272(19) 0.0420 Uiso
H1TC H 0.6232 0.4394 0.2330 0.0510 Uiso
N1TC N 0.5898(4) 0.3769(3) 0.2880(3) 0.0923 Uani
N2TC N 0.6056(3) 0.3745(3) 0.3135(3) 0.0720 Uani
O4IA O 0.49218(18) 0.40831(13) 0.09169(13) 0.0400 Uiso
Cu1O Cu 0.5000 0.669190(16) 0.169190(16) 0.0374 Uani
Cu2O Cu 0.5000 0.626697(15) 0.126697(15) 0.0265 Uani
O1O O 0.46934(9) 0.64409(9) 0.18761(9) 0.0580 Uani
O2O O 0.46879(9) 0.60851(8) 0.15170(7) 0.0507 Uani
O3O O 0.5000 0.7080(3) 0.1995(3) 0.0513 Uani
O4O O 0.49218(18) 0.59169(13) 0.09169(13) 0.0400 Uiso
C1O C 0.45927(11) 0.61934(13) 0.17559(12) 0.0477 Uani
C2O C 0.43550(12) 0.60341(13) 0.19177(11) 0.0470 Uani
C3O C 0.4282(3) 0.6084(3) 0.22272(19) 0.0420 Uiso
H1O H 0.4394 0.6232 0.2330 0.0510 Uiso
C4O C 0.42095(11) 0.57905(11) 0.17714(16) 0.0413 Uani
H2O H 0.4274 0.5726 0.1580 0.0490 Uiso
Cu3O Cu 0.34617(17) 0.6003(2) 0.34617(17) 0.1150 Uani
C5O C 0.4063(3) 0.5937(3) 0.2390(3) 0.0520 Uani
C6O C 0.3975(4) 0.6025(4) 0.2709(5) 0.0700 Uani
N1O N 0.3769(3) 0.5898(4) 0.2880(3) 0.0923 Uani
N2O N 0.3745(3) 0.6056(3) 0.3135(3) 0.0720 Uani
O6O O 0.3164(4) 0.6355(4) 0.3164(4) 0.0813 Uani
O7O O 0.3712(5) 0.5610(5) 0.3712(5) 0.1703 Uani
O8O O 0.3231(3) 0.5688(4) 0.3231(3) 0.1130 Uani
O1UC O 0.35591(9) 0.53066(9) 0.18761(9) 0.0580 Uani
O2UC O 0.39149(8) 0.53121(9) 0.15170(7) 0.0507 Uani
C1UC C 0.38066(13) 0.54073(11) 0.17559(12) 0.0477 Uani
C2UC C 0.39659(13) 0.56450(12) 0.19177(11) 0.0470 Uani
C3UC C 0.3916(3) 0.5718(3) 0.22272(19) 0.0420 Uiso
H1UC H 0.3768 0.5606 0.2330 0.0510 Uiso
N1UC N 0.4102(4) 0.6231(3) 0.2880(3) 0.0923 Uani
N2UC N 0.3944(3) 0.6255(3) 0.3135(3) 0.0720 Uani
O4FA O 0.50782(18) 0.59169(13) 0.09169(13) 0.0400 Uiso
O1W O 0.81239(9) 0.46934(9) 0.35591(9) 0.0580 Uani
O2W O 0.84830(7) 0.46879(9) 0.39149(8) 0.0507 Uani
C1W C 0.82441(12) 0.45927(11) 0.38066(13) 0.0477 Uani
C2W C 0.80823(11) 0.43550(12) 0.39659(13) 0.0470 Uani
C3W C 0.77728(19) 0.4282(3) 0.3916(3) 0.0420 Uiso
H1W H 0.7670 0.4394 0.3768 0.0510 Uiso
C4W C 0.82286(16) 0.42095(11) 0.42095(11) 0.0413 Uani
H2W H 0.8420 0.4274 0.4274 0.0490 Uiso
Cu3W Cu 0.65383(17) 0.34617(17) 0.3997(2) 0.1150 Uani
C5W C 0.7610(3) 0.4063(3) 0.4063(3) 0.0520 Uani
C6W C 0.7291(5) 0.3975(4) 0.3975(4) 0.0700 Uani
N1W N 0.7120(3) 0.3769(3) 0.4102(4) 0.0923 Uani
N2W N 0.6865(3) 0.3745(3) 0.3944(3) 0.0720 Uani
O6W O 0.6836(4) 0.3164(4) 0.3645(4) 0.0813 Uani
O7W O 0.6288(5) 0.3712(5) 0.4390(5) 0.1703 Uani
O8W O 0.6769(3) 0.3231(3) 0.4312(4) 0.1130 Uani
O1VC O 0.81239(9) 0.35591(9) 0.46934(9) 0.0580 Uani
O2VC O 0.84830(7) 0.39149(8) 0.46879(9) 0.0507 Uani
C1VC C 0.82441(12) 0.38066(13) 0.45927(11) 0.0477 Uani
C2VC C 0.80823(11) 0.39659(13) 0.43550(12) 0.0470 Uani
C3VC C 0.77728(19) 0.3916(3) 0.4282(3) 0.0420 Uiso
H1VC H 0.7670 0.3768 0.4394 0.0510 Uiso
N1VC N 0.7120(3) 0.4102(4) 0.3769(3) 0.0923 Uani
N2VC N 0.6865(3) 0.3944(3) 0.3745(3) 0.0720 Uani
O3QB O 0.6995(3) 0.5000 0.2080(3) 0.0513 Uani
O3IA O 0.5000 0.3005(3) 0.2080(3) 0.0513 Uani
O3FA O 0.5000 0.6995(3) 0.2080(3) 0.0513 Uani
Cu1A Cu 0.330810(16) 0.5000 0.169190(16) 0.0374 Uani
Cu1F Cu 0.830810(16) 0.330810(16) 0.5000 0.0374 Uani
Cu1G Cu 0.830810(16) 0.669190(16) 0.5000 0.0374 Uani
Cu1J Cu 0.5000 0.830810(16) 0.330810(16) 0.0374 Uani
Cu1S Cu 0.669190(16) 0.830810(16) 0.5000 0.0374 Uani
Cu1W Cu 0.830810(16) 0.5000 0.330810(16) 0.0374 Uani
Cu2A Cu 0.373303(15) 0.5000 0.126697(15) 0.0265 Uani
Cu2F Cu 0.873303(15) 0.373303(15) 0.5000 0.0265 Uani
Cu2G Cu 0.873303(15) 0.626697(15) 0.5000 0.0265 Uani
Cu2J Cu 0.5000 0.873303(15) 0.373303(15) 0.0265 Uani
Cu2S Cu 0.626697(15) 0.873303(15) 0.5000 0.0265 Uani
Cu2W Cu 0.873303(15) 0.5000 0.373303(15) 0.0265 Uani
O1FA O 0.53066(9) 0.68761(9) 0.14409(9) 0.0580 Uani
O1IA O 0.46934(9) 0.31239(9) 0.14409(9) 0.0580 Uani
O1QB O 0.68761(9) 0.46934(9) 0.14409(9) 0.0580 Uani
O1DD O 0.46934(9) 0.35591(9) 0.18761(9) 0.0580 Uani
O1YD O 0.53066(9) 0.31239(9) 0.14409(9) 0.0580 Uani
O1ZD O 0.46934(9) 0.68761(9) 0.14409(9) 0.0580 Uani
O1KF O 0.68761(9) 0.53066(9) 0.14409(9) 0.0580 Uani
O2FA O 0.53121(9) 0.65170(7) 0.10851(8) 0.0507 Uani
O2IA O 0.46879(9) 0.34830(7) 0.10851(8) 0.0507 Uani
O2QB O 0.65170(7) 0.46879(9) 0.10851(8) 0.0507 Uani
O2DD O 0.46879(9) 0.39149(8) 0.15170(7) 0.0507 Uani
O2YD O 0.53121(9) 0.34830(7) 0.10851(8) 0.0507 Uani
O2ZD O 0.46879(9) 0.65170(7) 0.10851(8) 0.0507 Uani
O2KF O 0.65170(7) 0.53121(9) 0.10851(8) 0.0507 Uani
Cu3P Cu 0.6003(2) 0.34617(17) 0.34617(17) 0.1150 Uani
Cu3R Cu 0.3997(2) 0.65383(17) 0.34617(17) 0.1150 Uani
N2XC N 0.3135(3) 0.6056(3) 0.3745(3) 0.0720 Uani
N2CD N 0.6255(3) 0.3135(3) 0.3944(3) 0.0720 Uani
O5O O 0.3664(3) 0.6336(3) 0.3664(3) 0.0390 Uani
Cu4? Cu 0.6130(3) 0.66472(18) 0.33528(18) 0.1737 Uani
O9? O 0.6492(6) 0.6995(3) 0.3005(3) 0.1203 Uani
C7? C 0.6025(3) 0.6025(3) 0.2292(4) 0.0537 Uani
C8? C 0.6120(4) 0.6120(4) 0.2604(5) 0.0757 Uani
C9? C 0.6002(4) 0.6337(4) 0.2765(4) 0.0980 Uani
H3? H 0.5834 0.6455 0.2711 0.1170 Uiso
N3? N 0.6002(4) 0.6337(4) 0.2765(4) 0.0980 Uani
N4? N 0.6161(3) 0.6362(3) 0.3020(3) 0.1097 Uani
O10? O 0.6442(3) 0.6442(3) 0.3558(3) 0.0480 Uani
O11? O 0.5932(8) 0.6986(4) 0.3014(4) 0.1880 Uani
C10? C 0.6160(3) 0.5771(2) 0.2171(2) 0.0450 Uiso
H4? H 0.6334 0.5688 0.2259 0.0540 Uiso
C11? C 0.5898(4) 0.6231(3) 0.2880(3) 0.0923 Uani
H5? H 0.5724 0.6343 0.2831 0.1100 Uiso
loop_
_atom_site_aniso_label
_atom_site_aniso_U_11
_atom_site_aniso_U_22
_atom_site_aniso_U_33
_atom_site_aniso_U_23
_atom_site_aniso_U_13
_atom_site_aniso_U_12
Cu1 0.0353(5) 0.0415(7) 0.0353(5) 0.000 -0.0227(5) 0.000
Cu2 0.0264(5) 0.0266(6) 0.0264(5) 0.000 -0.0156(4) 0.000
O1 0.058(2) 0.059(3) 0.057(2) -0.0103(19) -0.032(2) 0.0213(19)
O2 0.059 0.057 0.036 -0.017 -0.0236 0.0298
O3 0.035(9) 0.083(6) 0.036(10) 0.000 -0.013(9) 0.000
C1 0.063(4) 0.032(3) 0.048(3) -0.008(2) -0.032(3) 0.008(2)
C2 0.060(3) 0.047(3) 0.034(3) -0.001(2) -0.010(2) 0.014(2)
C4 0.041(2) 0.041(2) 0.042(3) -0.023(2) -0.023(2) 0.005(3)
Cu3 0.125(5) 0.110(3) 0.110(3) -0.072(3) -0.088(3) 0.088(3)
C5 0.054(6) 0.054(6) 0.048(8) 0.002(5) 0.002(5) -0.005(6)
C6 0.077(9) 0.077(9) 0.056(11) -0.005(7) -0.005(7) -0.006(10)
N1 0.102(9) 0.087(9) 0.088(9) -0.022(7) -0.048(7) 0.007(7)
N2 0.075(8) 0.089(9) 0.052(7) -0.003(6) -0.015(6) 0.014(7)
O5 0.039(5) 0.039(5) 0.039(5) -0.024(7) -0.024(7) 0.024(7)
O6 0.070(11) 0.087(9) 0.087(9) -0.039(10) -0.010(7) 0.010(7)
O7 0.127(18) 0.192(16) 0.192(16) -0.079(19) -0.027(14) 0.027(14)
O8 0.151(16) 0.094(7) 0.094(7) -0.028(10) -0.072(10) 0.072(10)
O1ED 0.059 0.058 0.057 -0.032 -0.0103 0.0213
O2ED 0.057 0.059 0.036 -0.0236 -0.017 0.0298
C1ED 0.032 0.063 0.048 -0.032 -0.008 0.008
C2ED 0.047 0.06 0.034 -0.01 -0.001 0.014
N1ED 0.087 0.102 0.088 -0.048 -0.022 0.007
N2ED 0.089 0.075 0.052 -0.015 -0.003 0.014
O1G 0.057 0.058 0.059 -0.0213 -0.0103 0.032
O2G 0.036 0.059 0.057 -0.0298 -0.017 0.0236
C1G 0.048 0.063 0.032 -0.008 -0.008 0.032
C2G 0.034 0.06 0.047 -0.014 -0.001 0.01
C4G 0.042 0.041 0.041 -0.005 -0.023 0.023
Cu3G 0.11 0.125 0.11 -0.088 -0.072 0.088
C5G 0.048 0.054 0.054 0.005 0.002 -0.002
C6G 0.056 0.077 0.077 0.006 -0.005 0.005
N1G 0.088 0.102 0.087 -0.007 -0.022 0.048
N2G 0.052 0.075 0.089 -0.014 -0.003 0.015
O6G 0.087 0.07 0.087 -0.01 -0.039 0.01
O7G 0.192 0.127 0.192 -0.027 -0.079 0.027
O8G 0.094 0.151 0.094 -0.072 -0.028 0.072
O1MD 0.057 0.059 0.058 -0.0213 -0.032 0.0103
O2MD 0.036 0.057 0.059 -0.0298 -0.0236 0.017
C1MD 0.048 0.032 0.063 -0.008 -0.032 0.008
C2MD 0.034 0.047 0.06 -0.014 -0.01 0.001
N1MD 0.088 0.087 0.102 -0.007 -0.048 0.022
N2MD 0.052 0.089 0.075 -0.014 -0.015 0.003
O1J 0.059 0.057 0.058 -0.032 -0.0213 0.0103
O2J 0.057 0.036 0.059 -0.0236 -0.0298 0.017
C1J 0.032 0.048 0.063 -0.032 -0.008 0.008
C2J 0.047 0.034 0.06 -0.01 -0.014 0.001
C4J 0.041 0.042 0.041 -0.023 -0.005 0.023
Cu3J 0.11 0.11 0.125 -0.088 -0.088 0.072
C5J 0.054 0.048 0.054 0.002 0.005 -0.002
C6J 0.077 0.056 0.077 -0.005 0.006 0.005
N1J 0.087 0.088 0.102 -0.048 -0.007 0.022
N2J 0.089 0.052 0.075 -0.015 -0.014 0.003
O6J 0.087 0.087 0.07 -0.01 -0.01 0.039
O7J 0.192 0.192 0.127 -0.027 -0.027 0.079
O8J 0.094 0.094 0.151 -0.072 -0.072 0.028
O1ID 0.058 0.057 0.059 -0.0103 -0.0213 0.032
O2ID 0.059 0.036 0.057 -0.017 -0.0298 0.0236
C1ID 0.063 0.048 0.032 -0.008 -0.008 0.032
C2ID 0.06 0.034 0.047 -0.001 -0.014 0.01
N1ID 0.102 0.088 0.087 -0.022 -0.007 0.048
N2ID 0.075 0.052 0.089 -0.003 -0.014 0.015
Cu1N 0.0415 0.0353 0.0353 0.0227 0 0
Cu2N 0.0266 0.0264 0.0264 0.0156 0 0
O1N 0.059 0.058 0.057 0.032 -0.0103 -0.0213
O2N 0.057 0.059 0.036 0.0236 -0.017 -0.0298
O3N 0.083 0.035 0.036 0.013 0 0
C1N 0.032 0.063 0.048 0.032 -0.008 -0.008
C2N 0.047 0.06 0.034 0.01 -0.001 -0.014
C4N 0.041 0.041 0.042 0.023 -0.023 -0.005
Cu3N 0.11 0.125 0.11 0.088 -0.072 -0.088
C5N 0.054 0.054 0.048 -0.002 0.002 0.005
C6N 0.077 0.077 0.056 0.005 -0.005 0.006
N1N 0.087 0.102 0.088 0.048 -0.022 -0.007
N2N 0.089 0.075 0.052 0.015 -0.003 -0.014
O5N 0.039 0.039 0.039 0.024 -0.024 -0.024
O6N 0.087 0.07 0.087 0.01 -0.039 -0.01
O7N 0.192 0.127 0.192 0.027 -0.079 -0.027
O8N 0.094 0.151 0.094 0.072 -0.028 -0.072
O1TC 0.058 0.059 0.057 0.0103 -0.032 -0.0213
O2TC 0.059 0.057 0.036 0.017 -0.0236 -0.0298
C1TC 0.063 0.032 0.048 0.008 -0.032 -0.008
C2TC 0.06 0.047 0.034 0.001 -0.01 -0.014
N1TC 0.102 0.087 0.088 0.022 -0.048 -0.007
N2TC 0.075 0.089 0.052 0.003 -0.015 -0.014
Cu1O 0.0415 0.0353 0.0353 -0.0227 0 0
Cu2O 0.0266 0.0264 0.0264 -0.0156 0 0
O1O 0.059 0.058 0.057 -0.032 0.0103 -0.0213
O2O 0.057 0.059 0.036 -0.0236 0.017 -0.0298
O3O 0.083 0.035 0.036 -0.013 0 0
C1O 0.032 0.063 0.048 -0.032 0.008 -0.008
C2O 0.047 0.06 0.034 -0.01 0.001 -0.014
C4O 0.041 0.041 0.042 -0.023 0.023 -0.005
Cu3O 0.11 0.125 0.11 -0.088 0.072 -0.088
C5O 0.054 0.054 0.048 0.002 -0.002 0.005
C6O 0.077 0.077 0.056 -0.005 0.005 0.006
N1O 0.087 0.102 0.088 -0.048 0.022 -0.007
N2O 0.089 0.075 0.052 -0.015 0.003 -0.014
O6O 0.087 0.07 0.087 -0.01 0.039 -0.01
O7O 0.192 0.127 0.192 -0.027 0.079 -0.027
O8O 0.094 0.151 0.094 -0.072 0.028 -0.072
O1UC 0.058 0.059 0.057 -0.0103 0.032 -0.0213
O2UC 0.059 0.057 0.036 -0.017 0.0236 -0.0298
C1UC 0.063 0.032 0.048 -0.008 0.032 -0.008
C2UC 0.06 0.047 0.034 -0.001 0.01 -0.014
N1UC 0.102 0.087 0.088 -0.022 0.048 -0.007
N2UC 0.075 0.089 0.052 -0.003 0.015 -0.014
O1W 0.057 0.059 0.058 0.0213 -0.032 -0.0103
O2W 0.036 0.057 0.059 0.0298 -0.0236 -0.017
C1W 0.048 0.032 0.063 0.008 -0.032 -0.008
C2W 0.034 0.047 0.06 0.014 -0.01 -0.001
C4W 0.042 0.041 0.041 0.005 -0.023 -0.023
Cu3W 0.11 0.11 0.125 0.088 -0.088 -0.072
C5W 0.048 0.054 0.054 -0.005 0.002 0.002
C6W 0.056 0.077 0.077 -0.006 -0.005 -0.005
N1W 0.088 0.087 0.102 0.007 -0.048 -0.022
N2W 0.052 0.089 0.075 0.014 -0.015 -0.003
O6W 0.087 0.087 0.07 0.01 -0.01 -0.039
O7W 0.192 0.192 0.127 0.027 -0.027 -0.079
O8W 0.094 0.094 0.151 0.072 -0.072 -0.028
O1VC 0.057 0.058 0.059 0.0213 -0.0103 -0.032
O2VC 0.036 0.059 0.057 0.0298 -0.017 -0.0236
C1VC 0.048 0.063 0.032 0.008 -0.008 -0.032
C2VC 0.034 0.06 0.047 0.014 -0.001 -0.01
N1VC 0.088 0.102 0.087 0.007 -0.022 -0.048
N2VC 0.052 0.075 0.089 0.014 -0.003 -0.015
O3QB 0.036 0.083 0.035 0 -0.013 0
O3IA 0.083 0.036 0.035 0.013 0 0
O3FA 0.083 0.036 0.035 -0.013 0 0
Cu1A 0.0353 0.0415 0.0353 0 0.0227 0
Cu1F 0.0353 0.0353 0.0415 0 0 -0.0227
Cu1G 0.0353 0.0353 0.0415 0 0 0.0227
Cu1J 0.0415 0.0353 0.0353 -0.0227 0 0
Cu1S 0.0353 0.0353 0.0415 0 0 0.0227
Cu1W 0.0353 0.0415 0.0353 0 -0.0227 0
Cu2A 0.0264 0.0266 0.0264 0 0.0156 0
Cu2F 0.0264 0.0264 0.0266 0 0 -0.0156
Cu2G 0.0264 0.0264 0.0266 0 0 0.0156
Cu2J 0.0266 0.0264 0.0264 -0.0156 0 0
Cu2S 0.0264 0.0264 0.0266 0 0 0.0156
Cu2W 0.0264 0.0266 0.0264 0 -0.0156 0
O1FA 0.059 0.057 0.058 -0.032 0.0213 -0.0103
O1IA 0.059 0.057 0.058 0.032 -0.0213 -0.0103
O1QB 0.057 0.059 0.058 -0.0213 -0.032 0.0103
O1DD 0.059 0.058 0.057 0.032 0.0103 0.0213
O1YD 0.059 0.057 0.058 0.032 0.0213 0.0103
O1ZD 0.059 0.057 0.058 -0.032 -0.0213 0.0103
O1KF 0.057 0.059 0.058 0.0213 -0.032 -0.0103
O2FA 0.057 0.036 0.059 -0.0236 0.0298 -0.017
O2IA 0.057 0.036 0.059 0.0236 -0.0298 -0.017
O2QB 0.036 0.057 0.059 -0.0298 -0.0236 0.017
O2DD 0.057 0.059 0.036 0.0236 0.017 0.0298
O2YD 0.057 0.036 0.059 0.0236 0.0298 0.017
O2ZD 0.057 0.036 0.059 -0.0236 -0.0298 0.017
O2KF 0.036 0.057 0.059 0.0298 -0.0236 -0.017
Cu3P 0.125 0.11 0.11 0.072 -0.088 -0.088
Cu3R 0.125 0.11 0.11 -0.072 0.088 -0.088
N2XC 0.052 0.075 0.089 -0.014 0.003 -0.015
N2CD 0.089 0.052 0.075 0.015 -0.014 -0.003
O5O 0.039 0.039 0.039 -0.024 0.024 -0.024
Cu4? 0.203(13) 0.159(8) 0.159(8) -0.123(8) -0.142(8) 0.142(8)
O9? 0.155(19) 0.103(9) 0.103(9) -0.007(11) 0.013(10) -0.013(10)
C7? 0.062(6) 0.062(6) 0.037(7) -0.006(5) -0.006(5) 0.003(7)
C8? 0.078(9) 0.078(9) 0.071(13) -0.022(8) -0.022(8) 0.003(11)
C9? 0.106(9) 0.093(9) 0.095(9) -0.028(7) -0.047(8) 0.012(7)
N3? 0.106(9) 0.093(9) 0.095(9) -0.028(7) -0.047(8) 0.012(7)
N4? 0.128(14) 0.099(12) 0.102(14) -0.016(10) -0.017(10) 0.043(11)
O10? 0.048(6) 0.048(6) 0.048(6) -0.012(7) -0.012(7) 0.012(7)
O11? 0.30(3) 0.132(11) 0.132(11) -0.008(16) -0.074(16) 0.074(16)
C11? 0.102(9) 0.087(9) 0.088(9) -0.022(7) -0.048(7) 0.007(7)
loop_
_geom_bond_atom_site_label_1
_geom_bond_atom_site_label_2
_geom_bond_site_symmetry_1
_geom_bond_site_symmetry_2
Cu1 O1 1_555 1_555
Cu2 O2 1_555 1_555
O1 C1 1_555 1_555
O2 C1 1_555 1_555
O3 Cu1 1_555 1_555
O4 Cu2 1_555 1_555
C1 C2 1_555 1_555
C2 C3 1_555 1_555
C3 H1 1_555 1_555
C4 C2 1_555 1_555
H2 C4 1_555 1_555
Cu3 N2 1_555 1_555
C5 C3 1_555 1_555
C6 C5 1_555 1_555
N1 C6 1_555 1_555
N2 N1 1_555 1_555
O5 Cu3 1_555 1_555
O6 Cu3 1_555 1_555
O7 Cu3 1_555 1_555
O8 Cu3 1_555 1_555
O1ED C1ED 1_555 1_555
O2ED C1ED 1_555 1_555
C1ED C2ED 1_555 1_555
C2ED C4 1_555 1_555
C3ED C5 1_555 1_555
H1ED C3ED 1_555 1_555
N1ED C6 1_555 1_555
N2ED N2 1_555 1_555
O4QB Cu2 1_555 1_555
O1G C1G 1_555 1_555
O2G C1G 1_555 1_555
C1G C2G 1_555 1_555
C2G C3G 1_555 1_555
C3G H1G 1_555 1_555
C4G C2G 1_555 1_555
H2G C4G 1_555 1_555
Cu3G O5 1_555 1_555
C5G C3G 1_555 1_555
C6G C5G 1_555 1_555
N1G C6G 1_555 1_555
N2G Cu3G 1_555 1_555
O6G Cu3G 1_555 1_555
O7G Cu3G 1_555 1_555
O8G Cu3G 1_555 1_555
O1MD C1MD 1_555 1_555
O2MD C1MD 1_555 1_555
C1MD C2MD 1_555 1_555
C2MD C4G 1_555 1_555
C3MD C5G 1_555 1_555
H1MD C3MD 1_555 1_555
N1MD C6G 1_555 1_555
N2MD N2G 1_555 1_555
O1J C1J 1_555 1_555
O2J C1J 1_555 1_555
C1J C2J 1_555 1_555
C2J C3J 1_555 1_555
C3J H1J 1_555 1_555
C4J C2J 1_555 1_555
H2J C4J 1_555 1_555
Cu3J O5 1_555 1_555
C5J C3J 1_555 1_555
C6J C5J 1_555 1_555
N1J C6J 1_555 1_555
N2J Cu3J 1_555 1_555
O6J Cu3J 1_555 1_555
O7J Cu3J 1_555 1_555
O8J Cu3J 1_555 1_555
O1ID C1ID 1_555 1_555
O2ID C1ID 1_555 1_555
C1ID C2ID 1_555 1_555
C2ID C4J 1_555 1_555
C3ID C5J 1_555 1_555
H1ID C3ID 1_555 1_555
N1ID C6J 1_555 1_555
N2ID Cu3 1_555 1_555
Cu1N O1N 1_555 1_555
Cu2N O2N 1_555 1_555
O1N C1N 1_555 1_555
O2N C1N 1_555 1_555
O3N Cu1N 1_555 1_555
O4N Cu2N 1_555 1_555
C1N C2N 1_555 1_555
C2N C3N 1_555 1_555
C3N H1N 1_555 1_555
C4N C2N 1_555 1_555
H2N C4N 1_555 1_555
Cu3N N2N 1_555 1_555
C5N C3N 1_555 1_555
C6N C5N 1_555 1_555
N1N C6N 1_555 1_555
N2N N1N 1_555 1_555
O5N Cu3N 1_555 1_555
O6N Cu3N 1_555 1_555
O7N Cu3N 1_555 1_555
O8N Cu3N 1_555 1_555
O1TC Cu1 1_555 1_555
O2TC Cu2 1_555 1_555
C1TC O1TC 1_555 1_555
C2TC C4N 1_555 1_555
C3TC C5N 1_555 1_555
H1TC C3TC 1_555 1_555
N1TC C6N 1_555 1_555
N2TC N2N 1_555 1_555
O4IA Cu2N 1_555 1_555
Cu1O O1ED 1_555 1_555
Cu2O O2ED 1_555 1_555
O1O Cu1O 1_555 1_555
O2O Cu2O 1_555 1_555
O3O Cu1O 1_555 1_555
O4O Cu2O 1_555 1_555
C1O O1O 1_555 1_555
C2O C1O 1_555 1_555
C3O C2O 1_555 1_555
H1O C3O 1_555 1_555
C4O C2O 1_555 1_555
H2O C4O 1_555 1_555
Cu3O N2O 1_555 1_555
C5O C3O 1_555 1_555
C6O C5O 1_555 1_555
N1O C6O 1_555 1_555
N2O N1O 1_555 1_555
O6O Cu3O 1_555 1_555
O7O Cu3O 1_555 1_555
O8O Cu3O 1_555 1_555
O1UC C1UC 1_555 1_555
O2UC C1UC 1_555 1_555
C1UC C2UC 1_555 1_555
C2UC C4O 1_555 1_555
C3UC C5O 1_555 1_555
H1UC C3UC 1_555 1_555
N1UC C6O 1_555 1_555
N2UC N2O 1_555 1_555
O4FA Cu2O 1_555 1_555
O1W C1W 1_555 1_555
O2W C1W 1_555 1_555
C1W C2W 1_555 1_555
C2W C3W 1_555 1_555
C3W H1W 1_555 1_555
C4W C2W 1_555 1_555
H2W C4W 1_555 1_555
Cu3W O5N 1_555 1_555
C5W C3W 1_555 1_555
C6W C5W 1_555 1_555
N1W C6W 1_555 1_555
N2W Cu3W 1_555 1_555
O6W Cu3W 1_555 1_555
O7W Cu3W 1_555 1_555
O8W Cu3W 1_555 1_555
O1VC C1VC 1_555 1_555
O2VC C1VC 1_555 1_555
C1VC C2VC 1_555 1_555
C2VC C4W 1_555 1_555
C3VC C5W 1_555 1_555
H1VC C3VC 1_555 1_555
N1VC C6W 1_555 1_555
N2VC Cu3N 1_555 1_555
O3QB Cu1 1_555 1_555
O3IA Cu1N 1_555 1_555
O3FA Cu1O 1_555 1_555
Cu1A O1UC 1_555 1_555
Cu1F O1VC 1_555 1_555
Cu1G O1G 1_555 1_555
Cu1J O1J 1_555 1_555
Cu1S O1ID 1_555 1_555
Cu1W O1MD 1_555 1_555
Cu2A O2UC 1_555 1_555
Cu2F O2VC 1_555 1_555
Cu2G O2G 1_555 1_555
Cu2J O2J 1_555 1_555
Cu2S O2ID 1_555 1_555
Cu2W O2MD 1_555 1_555
O1FA Cu1O 1_555 1_555
O1IA Cu1N 1_555 1_555
O1QB Cu1 1_555 1_555
O1DD Cu1N 1_555 1_555
O1YD Cu1N 1_555 1_555
O1ZD Cu1O 1_555 1_555
O1KF Cu1 1_555 1_555
O2FA Cu2O 1_555 1_555
O2IA Cu2N 1_555 1_555
O2QB Cu2 1_555 1_555
O2DD Cu2N 1_555 1_555
O2YD Cu2N 1_555 1_555
O2ZD Cu2O 1_555 1_555
O2KF Cu2 1_555 1_555
Cu3P O5N 1_555 1_555
Cu3R N2UC 1_555 1_555
N2XC Cu3O 1_555 1_555
N2CD Cu3W 1_555 1_555
O5O Cu3O 1_555 1_555
C2ED C3ED 1_555 1_555
N1ED N2ED 1_555 1_555
N2ED Cu3G 1_555 1_555
N1G N2G 1_555 1_555
C2MD C3MD 1_555 1_555
N1MD N2MD 1_555 1_555
N2MD Cu3J 1_555 1_555
N1J N2J 1_555 1_555
N2J N2ID 1_555 1_555
C2ID C3ID 1_555 1_555
N1ID N2ID 1_555 1_555
O2TC C1TC 1_555 1_555
C1TC C2TC 1_555 1_555
C2TC C3TC 1_555 1_555
N1TC N2TC 1_555 1_555
N2TC Cu3P 1_555 1_555
O2O C1O 1_555 1_555
C2UC C3UC 1_555 1_555
N1UC N2UC 1_555 1_555
O1W Cu1W 1_555 1_555
O2W Cu2W 1_555 1_555
N1W N2W 1_555 1_555
N2W N2VC 1_555 1_555
C2VC C3VC 1_555 1_555
N1VC N2VC 1_555 1_555
Cu3R O5O 1_555 1_555

#END
