
#######################################################################
#
#                 Cambridge Crystallographic Data Centre
#                                CCDC 
#
#######################################################################
#
# If this CIF has been generated from an entry in the Cambridge 
# Structural Database, then it will include bibliographic, chemical, 
# crystal, experimental, refinement or atomic coordinate data resulting 
# from the CCDC's data processing and validation procedures.
#
#######################################################################

data_UGOCEA
_chemical_formula_moiety         '(C66 H30 Cu12 N12 O38)n'
_chemical_name_systematic        
'catena-[hexakis(\m-4-(3,5-dicarboxylatophenyl)pyrazolato)-bis(\m-oxo)-dodecaoxo-dodeca-copper unknown solvate]'
_symmetry_cell_setting           cubic
_symmetry_space_group_name_H-M   'F m -3 m'
_symmetry_Int_Tables_number      225
_space_group_name_Hall           '-F 4 2 3'
loop_
_symmetry_equiv_pos_site_id
_symmetry_equiv_pos_as_xyz
1 x,y,z
2 -y,x,z
3 -x,-y,z
4 y,-x,z
5 x,-z,y
6 x,-y,-z
7 x,z,-y
8 z,y,-x
9 -x,y,-z
10 -z,y,x
11 z,x,y
12 y,z,x
13 -y,-z,x
14 z,-x,-y
15 -y,z,-x
16 -z,-x,y
17 -z,x,-y
18 y,-z,-x
19 y,x,-z
20 -y,-x,-z
21 -x,z,y
22 -x,-z,-y
23 z,-y,x
24 -z,-y,-x
25 x,1/2+y,1/2+z
26 -y,1/2+x,1/2+z
27 -x,1/2-y,1/2+z
28 y,1/2-x,1/2+z
29 x,1/2-z,1/2+y
30 x,1/2-y,1/2-z
31 x,1/2+z,1/2-y
32 z,1/2+y,1/2-x
33 -x,1/2+y,1/2-z
34 -z,1/2+y,1/2+x
35 z,1/2+x,1/2+y
36 y,1/2+z,1/2+x
37 -y,1/2-z,1/2+x
38 z,1/2-x,1/2-y
39 -y,1/2+z,1/2-x
40 -z,1/2-x,1/2+y
41 -z,1/2+x,1/2-y
42 y,1/2-z,1/2-x
43 y,1/2+x,1/2-z
44 -y,1/2-x,1/2-z
45 -x,1/2+z,1/2+y
46 -x,1/2-z,1/2-y
47 z,1/2-y,1/2+x
48 -z,1/2-y,1/2-x
49 1/2+x,y,1/2+z
50 1/2-y,x,1/2+z
51 1/2-x,-y,1/2+z
52 1/2+y,-x,1/2+z
53 1/2+x,-z,1/2+y
54 1/2+x,-y,1/2-z
55 1/2+x,z,1/2-y
56 1/2+z,y,1/2-x
57 1/2-x,y,1/2-z
58 1/2-z,y,1/2+x
59 1/2+z,x,1/2+y
60 1/2+y,z,1/2+x
61 1/2-y,-z,1/2+x
62 1/2+z,-x,1/2-y
63 1/2-y,z,1/2-x
64 1/2-z,-x,1/2+y
65 1/2-z,x,1/2-y
66 1/2+y,-z,1/2-x
67 1/2+y,x,1/2-z
68 1/2-y,-x,1/2-z
69 1/2-x,z,1/2+y
70 1/2-x,-z,1/2-y
71 1/2+z,-y,1/2+x
72 1/2-z,-y,1/2-x
73 1/2+x,1/2+y,z
74 1/2-y,1/2+x,z
75 1/2-x,1/2-y,z
76 1/2+y,1/2-x,z
77 1/2+x,1/2-z,y
78 1/2+x,1/2-y,-z
79 1/2+x,1/2+z,-y
80 1/2+z,1/2+y,-x
81 1/2-x,1/2+y,-z
82 1/2-z,1/2+y,x
83 1/2+z,1/2+x,y
84 1/2+y,1/2+z,x
85 1/2-y,1/2-z,x
86 1/2+z,1/2-x,-y
87 1/2-y,1/2+z,-x
88 1/2-z,1/2-x,y
89 1/2-z,1/2+x,-y
90 1/2+y,1/2-z,-x
91 1/2+y,1/2+x,-z
92 1/2-y,1/2-x,-z
93 1/2-x,1/2+z,y
94 1/2-x,1/2-z,-y
95 1/2+z,1/2-y,x
96 1/2-z,1/2-y,-x
97 -x,-y,-z
98 y,-x,-z
99 x,y,-z
100 -y,x,-z
101 -x,z,-y
102 -x,y,z
103 -x,-z,y
104 -z,-y,x
105 x,-y,z
106 z,-y,-x
107 -z,-x,-y
108 -y,-z,-x
109 y,z,-x
110 -z,x,y
111 y,-z,x
112 z,x,-y
113 z,-x,y
114 -y,z,x
115 -y,-x,z
116 y,x,z
117 x,-z,-y
118 x,z,y
119 -z,y,-x
120 z,y,x
121 -x,1/2-y,1/2-z
122 y,1/2-x,1/2-z
123 x,1/2+y,1/2-z
124 -y,1/2+x,1/2-z
125 -x,1/2+z,1/2-y
126 -x,1/2+y,1/2+z
127 -x,1/2-z,1/2+y
128 -z,1/2-y,1/2+x
129 x,1/2-y,1/2+z
130 z,1/2-y,1/2-x
131 -z,1/2-x,1/2-y
132 -y,1/2-z,1/2-x
133 y,1/2+z,1/2-x
134 -z,1/2+x,1/2+y
135 y,1/2-z,1/2+x
136 z,1/2+x,1/2-y
137 z,1/2-x,1/2+y
138 -y,1/2+z,1/2+x
139 -y,1/2-x,1/2+z
140 y,1/2+x,1/2+z
141 x,1/2-z,1/2-y
142 x,1/2+z,1/2+y
143 -z,1/2+y,1/2-x
144 z,1/2+y,1/2+x
145 1/2-x,-y,1/2-z
146 1/2+y,-x,1/2-z
147 1/2+x,y,1/2-z
148 1/2-y,x,1/2-z
149 1/2-x,z,1/2-y
150 1/2-x,y,1/2+z
151 1/2-x,-z,1/2+y
152 1/2-z,-y,1/2+x
153 1/2+x,-y,1/2+z
154 1/2+z,-y,1/2-x
155 1/2-z,-x,1/2-y
156 1/2-y,-z,1/2-x
157 1/2+y,z,1/2-x
158 1/2-z,x,1/2+y
159 1/2+y,-z,1/2+x
160 1/2+z,x,1/2-y
161 1/2+z,-x,1/2+y
162 1/2-y,z,1/2+x
163 1/2-y,-x,1/2+z
164 1/2+y,x,1/2+z
165 1/2+x,-z,1/2-y
166 1/2+x,z,1/2+y
167 1/2-z,y,1/2-x
168 1/2+z,y,1/2+x
169 1/2-x,1/2-y,-z
170 1/2+y,1/2-x,-z
171 1/2+x,1/2+y,-z
172 1/2-y,1/2+x,-z
173 1/2-x,1/2+z,-y
174 1/2-x,1/2+y,z
175 1/2-x,1/2-z,y
176 1/2-z,1/2-y,x
177 1/2+x,1/2-y,z
178 1/2+z,1/2-y,-x
179 1/2-z,1/2-x,-y
180 1/2-y,1/2-z,-x
181 1/2+y,1/2+z,-x
182 1/2-z,1/2+x,y
183 1/2+y,1/2-z,x
184 1/2+z,1/2+x,-y
185 1/2+z,1/2-x,y
186 1/2-y,1/2+z,x
187 1/2-y,1/2-x,z
188 1/2+y,1/2+x,z
189 1/2+x,1/2-z,-y
190 1/2+x,1/2+z,y
191 1/2-z,1/2+y,-x
192 1/2+z,1/2+y,x
_cell_length_a                   44.588(3)
_cell_length_b                   44.588(3)
_cell_length_c                   44.588(3)
_cell_angle_alpha                90
_cell_angle_beta                 90
_cell_angle_gamma                90
_cell_volume                     88644.9
_exptl_crystal_colour            green
_exptl_crystal_description       polyhedron
_cell_formula_units_Z            16
loop_
_atom_site_label
_atom_site_type_symbol
_atom_site_fract_x
_atom_site_fract_y
_atom_site_fract_z
_atom_site_U_iso_or_equiv
_atom_site_thermal_displace_type
Cu1 Cu 0.332247(9) 0.0000 0.167753(9) 0.0192 Uani
Cu2 Cu 0.374137(9) 0.0000 0.125863(9) 0.0207 Uani
O1 O 0.29855(7) 0.0000 0.20145(7) 0.0503 Uani
O2 O 0.35738(5) -0.03082(5) 0.18628(5) 0.0372 Uani
C1 C 0.42107(7) -0.07893(7) 0.17641(9) 0.0321 Uani
H1 H 0.4279 -0.0721 0.1574 0.0380 Uiso
C2 C 0.39709(7) -0.06481(7) 0.19025(7) 0.0353 Uani
C3 C 0.38087(7) -0.04026(6) 0.17460(7) 0.0287 Uani
Cu3 Cu 0.33901(8) -0.10843(9) 0.33901(8) 0.1075 Uani
C4 C 0.3946(2) -0.1054(2) 0.2653(3) 0.0510 Uani
C5 C 0.37178(19) -0.0941(2) 0.2821(2) 0.0633 Uani
H2 H 0.3595 -0.0777 0.2765 0.0760 Uiso
N1 N 0.36915(18) -0.10960(19) 0.30802(18) 0.0743 Uani
O3 O 0.3277(2) -0.0632(3) 0.3277(2) 0.1163 Uani
O4 O 0.3582(3) -0.1418(3) 0.3582(3) 0.1000 Uani
O5 O 0.39242(5) -0.03080(5) 0.15070(5) 0.0370 Uani
O6 O 0.40798(9) 0.0072(3) 0.09202(9) 0.0565 Uani
C6 C 0.4034(2) -0.0966(2) 0.2343(2) 0.0383 Uani
C7 C 0.38994(18) -0.0731(2) 0.2208(2) 0.0367 Uani
H3 H 0.3755 -0.0618 0.2316 0.0440 Uiso
O2EG O 0.46918(5) -0.14262(5) 0.18628(5) 0.0372 Uani
C2EG C 0.43519(7) -0.10291(7) 0.19025(7) 0.0353 Uani
C3EG C 0.45974(6) -0.11913(7) 0.17460(7) 0.0287 Uani
C5EG C 0.4059(2) -0.12822(19) 0.2821(2) 0.0633 Uani
H2EG H 0.4223 -0.1405 0.2765 0.0760 Uiso
N1EG N 0.39040(19) -0.13085(18) 0.30802(18) 0.0743 Uani
O5EG O 0.46920(5) -0.10758(5) 0.15070(5) 0.0370 Uani
C7EG C 0.4269(2) -0.11006(18) 0.2208(2) 0.0367 Uani
H3EG H 0.4382 -0.1245 0.2316 0.0440 Uiso
O6SB O 0.40798(9) -0.0072(3) 0.09202(9) 0.0565 Uani
O2HA O 0.18628(5) -0.14262(5) 0.46918(5) 0.0372 Uani
C1HA C 0.17641(9) -0.07893(7) 0.42107(7) 0.0321 Uani
H1HA H 0.1574 -0.0721 0.4279 0.0380 Uiso
C2HA C 0.19025(7) -0.10291(7) 0.43519(7) 0.0353 Uani
C3HA C 0.17460(7) -0.11913(7) 0.45974(6) 0.0287 Uani
Cu3HA Cu 0.33901(8) -0.16099(8) 0.39157(9) 0.1075 Uani
C4HA C 0.2653(3) -0.1054(2) 0.3946(2) 0.0510 Uani
C5HA C 0.2821(2) -0.12822(19) 0.4059(2) 0.0633 Uani
H2HA H 0.2765 -0.1405 0.4223 0.0760 Uiso
N1HA N 0.30802(18) -0.13085(18) 0.39040(19) 0.0743 Uani
O3HA O 0.3277(2) -0.1723(2) 0.4368(3) 0.1163 Uani
O5HA O 0.15070(5) -0.10758(5) 0.46920(5) 0.0370 Uani
C6HA C 0.2343(2) -0.0966(2) 0.4034(2) 0.0383 Uani
C7HA C 0.2208(2) -0.11006(18) 0.4269(2) 0.0367 Uani
H3HA H 0.2316 -0.1245 0.4382 0.0440 Uiso
O2OD O 0.18628(5) -0.03082(5) 0.35738(5) 0.0372 Uani
C2OD C 0.19025(7) -0.06481(7) 0.39709(7) 0.0353 Uani
C3OD C 0.17460(7) -0.04026(6) 0.38087(7) 0.0287 Uani
C5OD C 0.2821(2) -0.0941(2) 0.37178(19) 0.0633 Uani
H2OD H 0.2765 -0.0777 0.3595 0.0760 Uiso
N1OD N 0.30802(18) -0.10960(19) 0.36915(18) 0.0743 Uani
O5OD O 0.15070(5) -0.03080(5) 0.39242(5) 0.0370 Uani
C7OD C 0.2208(2) -0.0731(2) 0.38994(18) 0.0367 Uani
H3OD H 0.2316 -0.0618 0.3755 0.0440 Uiso
Cu1MB Cu 0.5000 -0.167753(9) 0.167753(9) 0.0192 Uani
Cu2MB Cu 0.5000 -0.125863(9) 0.125863(9) 0.0207 Uani
O1MB O 0.5000 -0.20145(7) 0.20145(7) 0.0503 Uani
O2MB O 0.46918(5) -0.18628(5) 0.14262(5) 0.0372 Uani
C1MB C 0.42107(7) -0.17641(9) 0.07893(7) 0.0321 Uani
H1MB H 0.4279 -0.1574 0.0721 0.0380 Uiso
C2MB C 0.43519(7) -0.19025(7) 0.10291(7) 0.0353 Uani
C3MB C 0.45974(6) -0.17460(7) 0.11913(7) 0.0287 Uani
Cu3MB Cu 0.39157(9) -0.33901(8) 0.16099(8) 0.1075 Uani
C4MB C 0.3946(2) -0.2653(3) 0.1054(2) 0.0510 Uani
C5MB C 0.4059(2) -0.2821(2) 0.12822(19) 0.0633 Uani
H2MB H 0.4223 -0.2765 0.1405 0.0760 Uiso
N1MB N 0.39040(19) -0.30802(18) 0.13085(18) 0.0743 Uani
O3MB O 0.4368(3) -0.3277(2) 0.1723(2) 0.1163 Uani
O4M O 0.3582(3) -0.3582(3) 0.1418(3) 0.1000 Uani
O5MB O 0.46920(5) -0.15070(5) 0.10758(5) 0.0370 Uani
O6MB O 0.5072(3) -0.09202(9) 0.09202(9) 0.0565 Uani
C6MB C 0.4034(2) -0.2343(2) 0.0966(2) 0.0383 Uani
C7MB C 0.4269(2) -0.2208(2) 0.11006(18) 0.0367 Uani
H3MB H 0.4382 -0.2316 0.1245 0.0440 Uiso
O2LD O 0.35738(5) -0.18628(5) 0.03082(5) 0.0372 Uani
C2LD C 0.39709(7) -0.19025(7) 0.06481(7) 0.0353 Uani
C3LD C 0.38087(7) -0.17460(7) 0.04026(6) 0.0287 Uani
C5LD C 0.37178(19) -0.2821(2) 0.0941(2) 0.0633 Uani
H2LD H 0.3595 -0.2765 0.0777 0.0760 Uiso
N1LD N 0.36915(18) -0.30802(18) 0.10960(19) 0.0743 Uani
O5LD O 0.39242(5) -0.15070(5) 0.03080(5) 0.0370 Uani
C7LD C 0.38994(18) -0.2208(2) 0.0731(2) 0.0367 Uani
H3LD H 0.3755 -0.2316 0.0618 0.0440 Uiso
O6UB O 0.4928(3) -0.09202(9) 0.09202(9) 0.0565 Uani
O2UB O 0.53082(5) -0.14262(5) 0.18628(5) 0.0372 Uani
C1UB C 0.57893(7) -0.07893(7) 0.17641(9) 0.0321 Uani
H1UB H 0.5721 -0.0721 0.1574 0.0380 Uiso
C2UB C 0.56481(7) -0.10291(7) 0.19025(7) 0.0353 Uani
C3UB C 0.54026(6) -0.11913(7) 0.17460(7) 0.0287 Uani
Cu3UB Cu 0.60843(9) -0.16099(8) 0.33901(8) 0.1075 Uani
C4UB C 0.6054(2) -0.1054(2) 0.2653(3) 0.0510 Uani
C5UB C 0.5941(2) -0.12822(19) 0.2821(2) 0.0633 Uani
H2UB H 0.5777 -0.1405 0.2765 0.0760 Uiso
N1UB N 0.60960(19) -0.13085(18) 0.30802(18) 0.0743 Uani
O3UB O 0.5632(3) -0.1723(2) 0.3277(2) 0.1163 Uani
O5UB O 0.53080(5) -0.10758(5) 0.15070(5) 0.0370 Uani
C6UB C 0.5966(2) -0.0966(2) 0.2343(2) 0.0383 Uani
C7UB C 0.5731(2) -0.11006(18) 0.2208(2) 0.0367 Uani
H3UB H 0.5618 -0.1245 0.2316 0.0440 Uiso
O2WC O 0.64262(5) -0.03082(5) 0.18628(5) 0.0372 Uani
C2WC C 0.60291(7) -0.06481(7) 0.19025(7) 0.0353 Uani
C3WC C 0.61913(7) -0.04026(6) 0.17460(7) 0.0287 Uani
C5WC C 0.62822(19) -0.0941(2) 0.2821(2) 0.0633 Uani
H2WC H 0.6405 -0.0777 0.2765 0.0760 Uiso
N1WC N 0.63085(18) -0.10960(19) 0.30802(18) 0.0743 Uani
O5WC O 0.60758(5) -0.03080(5) 0.15070(5) 0.0370 Uani
C7WC C 0.61006(18) -0.0731(2) 0.2208(2) 0.0367 Uani
H3WC H 0.6245 -0.0618 0.2316 0.0440 Uiso
Cu1JB Cu 0.5000 0.167753(9) 0.167753(9) 0.0192 Uani
Cu2JB Cu 0.5000 0.125863(9) 0.125863(9) 0.0207 Uani
O1JB O 0.5000 0.20145(7) 0.20145(7) 0.0503 Uani
O2WB O 0.46918(5) 0.14262(5) 0.18628(5) 0.0372 Uani
C1WB C 0.42107(7) 0.07893(7) 0.17641(9) 0.0321 Uani
H1WB H 0.4279 0.0721 0.1574 0.0380 Uiso
C2WB C 0.43519(7) 0.10291(7) 0.19025(7) 0.0353 Uani
C3WB C 0.45974(6) 0.11913(7) 0.17460(7) 0.0287 Uani
Cu3WB Cu 0.39157(9) 0.16099(8) 0.33901(8) 0.1075 Uani
C4WB C 0.3946(2) 0.1054(2) 0.2653(3) 0.0510 Uani
C5WB C 0.4059(2) 0.12822(19) 0.2821(2) 0.0633 Uani
H2WB H 0.4223 0.1405 0.2765 0.0760 Uiso
N1WB N 0.39040(19) 0.13085(18) 0.30802(18) 0.0743 Uani
O3WB O 0.4368(3) 0.1723(2) 0.3277(2) 0.1163 Uani
O5WB O 0.46920(5) 0.10758(5) 0.15070(5) 0.0370 Uani
O6WB O 0.5072(3) 0.09202(9) 0.09202(9) 0.0565 Uani
C6WB C 0.4034(2) 0.0966(2) 0.2343(2) 0.0383 Uani
C7WB C 0.4269(2) 0.11006(18) 0.2208(2) 0.0367 Uani
H3WB H 0.4382 0.1245 0.2316 0.0440 Uiso
O2ZC O 0.35738(5) 0.03082(5) 0.18628(5) 0.0372 Uani
C2ZC C 0.39709(7) 0.06481(7) 0.19025(7) 0.0353 Uani
C3ZC C 0.38087(7) 0.04026(6) 0.17460(7) 0.0287 Uani
C5ZC C 0.37178(19) 0.0941(2) 0.2821(2) 0.0633 Uani
H2ZC H 0.3595 0.0777 0.2765 0.0760 Uiso
N1ZC N 0.36915(18) 0.10960(19) 0.30802(18) 0.0743 Uani
O5ZC O 0.39242(5) 0.03080(5) 0.15070(5) 0.0370 Uani
C7ZC C 0.38994(18) 0.0731(2) 0.2208(2) 0.0367 Uani
H3ZC H 0.3755 0.0618 0.2316 0.0440 Uiso
O6JB O 0.4928(3) 0.09202(9) 0.09202(9) 0.0565 Uani
O2EC O 0.46918(5) -0.31372(5) 0.35738(5) 0.0372 Uani
C1EC C 0.42107(7) -0.32359(9) 0.42107(7) 0.0321 Uani
H1EC H 0.4279 -0.3426 0.4279 0.0380 Uiso
C2EC C 0.43519(7) -0.30975(7) 0.39709(7) 0.0353 Uani
C3EC C 0.45974(6) -0.32540(7) 0.38087(7) 0.0287 Uani
Cu3EC Cu 0.39157(9) -0.16099(8) 0.33901(8) 0.1075 Uani
C4EC C 0.3946(2) -0.2347(3) 0.3946(2) 0.0510 Uani
C5EC C 0.4059(2) -0.2179(2) 0.37178(19) 0.0633 Uani
H2EC H 0.4223 -0.2235 0.3595 0.0760 Uiso
N1EC N 0.39040(19) -0.19198(18) 0.36915(18) 0.0743 Uani
O3EC O 0.4368(3) -0.1723(2) 0.3277(2) 0.1163 Uani
O5EC O 0.46920(5) -0.34930(5) 0.39242(5) 0.0370 Uani
C6EC C 0.4034(2) -0.2657(2) 0.4034(2) 0.0383 Uani
C7EC C 0.4269(2) -0.2792(2) 0.38994(18) 0.0367 Uani
H3EC H 0.4382 -0.2684 0.3755 0.0440 Uiso
O2KE O 0.35738(5) -0.31372(5) 0.46918(5) 0.0372 Uani
C2KE C 0.39709(7) -0.30975(7) 0.43519(7) 0.0353 Uani
C3KE C 0.38087(7) -0.32540(7) 0.45974(6) 0.0287 Uani
C5KE C 0.37178(19) -0.2179(2) 0.4059(2) 0.0633 Uani
H2KE H 0.3595 -0.2235 0.4223 0.0760 Uiso
N1KE N 0.36915(18) -0.19198(18) 0.39040(19) 0.0743 Uani
O5KE O 0.39242(5) -0.34930(5) 0.46920(5) 0.0370 Uani
C7KE C 0.38994(18) -0.2792(2) 0.4269(2) 0.0367 Uani
H3KE H 0.3755 -0.2684 0.4382 0.0440 Uiso
Cu1B Cu 0.667753(9) 0.0000 0.167753(9) 0.0192 Uani
Cu1D Cu 0.332247(9) -0.167753(9) 0.0000 0.0192 Uani
Cu1V Cu 0.167753(9) 0.0000 0.332247(9) 0.0192 Uani
Cu1DA Cu 0.332247(9) -0.332247(9) 0.5000 0.0192 Uani
Cu1HA Cu 0.167753(9) -0.167753(9) 0.5000 0.0192 Uani
Cu1OB Cu 0.5000 -0.332247(9) 0.332247(9) 0.0192 Uani
Cu2B Cu 0.625863(9) 0.0000 0.125863(9) 0.0207 Uani
Cu2D Cu 0.374137(9) -0.125863(9) 0.0000 0.0207 Uani
Cu2V Cu 0.125863(9) 0.0000 0.374137(9) 0.0207 Uani
Cu2DA Cu 0.374137(9) -0.374137(9) 0.5000 0.0207 Uani
Cu2HA Cu 0.125863(9) -0.125863(9) 0.5000 0.0207 Uani
Cu2OB Cu 0.5000 -0.374137(9) 0.374137(9) 0.0207 Uani
O2JB O 0.53082(5) 0.18628(5) 0.14262(5) 0.0372 Uani
O2SB O 0.31372(5) 0.03082(5) 0.14262(5) 0.0372 Uani
O2YE O 0.53082(5) -0.18628(5) 0.14262(5) 0.0372 Uani
O2ZE O 0.46918(5) 0.18628(5) 0.14262(5) 0.0372 Uani
O2JF O 0.31372(5) -0.03082(5) 0.14262(5) 0.0372 Uani
O2DG O 0.53082(5) 0.14262(5) 0.18628(5) 0.0372 Uani
Cu3I Cu 0.66099(8) -0.10843(9) 0.33901(8) 0.1075 Uani
Cu3M Cu 0.33901(8) -0.33901(8) 0.10843(9) 0.1075 Uani
Cu3V Cu 0.33901(8) 0.10843(9) 0.33901(8) 0.1075 Uani
Cu3CA Cu 0.33901(8) -0.39157(9) 0.16099(8) 0.1075 Uani
N1OE N 0.39040(19) -0.36915(18) 0.19198(18) 0.0743 Uani
N1ZF N 0.39040(19) 0.19198(18) 0.36915(18) 0.0743 Uani
N1CG N 0.60960(19) -0.19198(18) 0.36915(18) 0.0743 Uani
O4I O 0.6418(3) -0.1418(3) 0.3582(3) 0.1000 Uani
O4V O 0.3582(3) 0.1418(3) 0.3582(3) 0.1000 Uani
O5JB O 0.53080(5) 0.15070(5) 0.10758(5) 0.0370 Uani
O5SB O 0.34930(5) 0.03080(5) 0.10758(5) 0.0370 Uani
O5YE O 0.53080(5) -0.15070(5) 0.10758(5) 0.0370 Uani
O5ZE O 0.46920(5) 0.15070(5) 0.10758(5) 0.0370 Uani
O5JF O 0.34930(5) -0.03080(5) 0.10758(5) 0.0370 Uani
O5DG O 0.53080(5) 0.10758(5) 0.15070(5) 0.0370 Uani
C8? C 0.3962(4) -0.1038(4) 0.2269(5) 0.0463 Uani
C9? C 0.3833(3) -0.0780(3) 0.2143(3) 0.0227 Uani
H4? H 0.3653 -0.0699 0.2223 0.0270 Uiso
Cu4? Cu 0.32430(19) -0.1256(2) 0.32430(19) 0.1370 Uani
C10? C 0.3855(3) -0.1145(3) 0.2559(4) 0.0440 Uani
C11? C 0.3605(3) -0.1067(3) 0.2724(3) 0.0587 Uani
H5? H 0.3471 -0.0911 0.2667 0.0700 Uiso
N2? N 0.3572(3) -0.1228(3) 0.2962(3) 0.0630 Uani
O7? O 0.3346(4) -0.1654(4) 0.3346(4) 0.0650 Uani
O8? O 0.3070(4) -0.0845(4) 0.3070(4) 0.1033 Uani
loop_
_atom_site_aniso_label
_atom_site_aniso_U_11
_atom_site_aniso_U_22
_atom_site_aniso_U_33
_atom_site_aniso_U_23
_atom_site_aniso_U_13
_atom_site_aniso_U_12
Cu1 0.0216(2) 0.0143(3) 0.0216(2) 0.000 0.0101(2) 0.000
Cu2 0.0229(2) 0.0162(3) 0.0229(2) 0.000 0.0098(2) 0.000
O1 0.0414(17) 0.068(3) 0.0414(17) 0.000 0.030(2) 0.000
O2 0.0402(12) 0.0345(11) 0.0368(11) 0.0173(9) 0.0158(9) 0.0194(9)
C1 0.0322(12) 0.0322(12) 0.032(2) 0.0114(12) 0.0114(12) 0.0116(16)
C2 0.0362(15) 0.0308(14) 0.0388(16) 0.0141(12) 0.0135(12) 0.0128(12)
C3 0.0334(14) 0.0236(12) 0.0292(13) 0.0044(10) 0.0057(11) 0.0062(11)
Cu3 0.1023(15) 0.118(2) 0.1023(15) 0.0854(15) 0.0845(15) 0.0854(15)
C4 0.052(3) 0.052(3) 0.049(5) 0.020(3) 0.020(3) 0.019(4)
C5 0.062(4) 0.066(5) 0.062(5) 0.040(4) 0.036(4) 0.035(4)
N1 0.069(4) 0.077(5) 0.077(5) 0.051(4) 0.045(4) 0.044(4)
O3 0.111(5) 0.127(7) 0.111(5) 0.055(5) 0.090(5) 0.055(5)
O4 0.100(4) 0.100(4) 0.100(4) 0.065(5) 0.065(5) 0.065(5)
O5 0.0428(12) 0.0349(11) 0.0332(11) 0.0144(9) 0.0149(9) 0.0190(9)
O6 0.0318(18) 0.106(15) 0.0318(18) -0.002(2) 0.017(2) 0.002(2)
C6 0.041(3) 0.041(3) 0.033(5) 0.018(3) 0.018(3) 0.018(4)
C7 0.031(3) 0.037(3) 0.042(4) 0.009(3) 0.010(3) 0.000(2)
O2EG 0.0345 0.0402 0.0368 0.0158 0.0173 0.0194
C2EG 0.0308 0.0362 0.0388 0.0135 0.0141 0.0128
C3EG 0.0236 0.0334 0.0292 0.0057 0.0044 0.0062
C5EG 0.066 0.062 0.062 0.036 0.04 0.035
N1EG 0.077 0.069 0.077 0.045 0.051 0.044
O5EG 0.0349 0.0428 0.0332 0.0149 0.0144 0.019
C7EG 0.037 0.031 0.042 0.01 0.009 0
O6SB 0.0318 0.106 0.0318 0.002 0.017 -0.002
O2HA 0.0368 0.0402 0.0345 0.0194 0.0173 0.0158
C1HA 0.032 0.0322 0.0322 0.0116 0.0114 0.0114
C2HA 0.0388 0.0362 0.0308 0.0128 0.0141 0.0135
C3HA 0.0292 0.0334 0.0236 0.0062 0.0044 0.0057
Cu3HA 0.1023 0.1023 0.118 0.0854 0.0854 0.0845
C4HA 0.049 0.052 0.052 0.019 0.02 0.02
C5HA 0.062 0.062 0.066 0.035 0.04 0.036
N1HA 0.077 0.069 0.077 0.044 0.051 0.045
O3HA 0.111 0.111 0.127 0.055 0.055 0.09
O5HA 0.0332 0.0428 0.0349 0.019 0.0144 0.0149
C6HA 0.033 0.041 0.041 0.018 0.018 0.018
C7HA 0.042 0.031 0.037 0 0.009 0.01
O2OD 0.0368 0.0345 0.0402 0.0194 0.0158 0.0173
C2OD 0.0388 0.0308 0.0362 0.0128 0.0135 0.0141
C3OD 0.0292 0.0236 0.0334 0.0062 0.0057 0.0044
C5OD 0.062 0.066 0.062 0.035 0.036 0.04
N1OD 0.077 0.077 0.069 0.044 0.045 0.051
O5OD 0.0332 0.0349 0.0428 0.019 0.0149 0.0144
C7OD 0.042 0.037 0.031 0 0.01 0.009
Cu1MB 0.0143 0.0216 0.0216 0.0101 0 0
Cu2MB 0.0162 0.0229 0.0229 0.0098 0 0
O1MB 0.068 0.0414 0.0414 0.03 0 0
O2MB 0.0345 0.0368 0.0402 0.0158 -0.0194 -0.0173
C1MB 0.0322 0.032 0.0322 0.0114 -0.0116 -0.0114
C2MB 0.0308 0.0388 0.0362 0.0135 -0.0128 -0.0141
C3MB 0.0236 0.0292 0.0334 0.0057 -0.0062 -0.0044
Cu3MB 0.118 0.1023 0.1023 0.0845 -0.0854 -0.0854
C4MB 0.052 0.049 0.052 0.02 -0.019 -0.02
C5MB 0.066 0.062 0.062 0.036 -0.035 -0.04
N1MB 0.077 0.077 0.069 0.045 -0.044 -0.051
O3MB 0.127 0.111 0.111 0.09 -0.055 -0.055
O4M 0.1 0.1 0.1 0.065 -0.065 -0.065
O5MB 0.0349 0.0332 0.0428 0.0149 -0.019 -0.0144
O6MB 0.106 0.0318 0.0318 0.017 -0.002 0.002
C6MB 0.041 0.033 0.041 0.018 -0.018 -0.018
C7MB 0.037 0.042 0.031 0.01 0 -0.009
O2LD 0.0402 0.0368 0.0345 0.0173 -0.0194 -0.0158
C2LD 0.0362 0.0388 0.0308 0.0141 -0.0128 -0.0135
C3LD 0.0334 0.0292 0.0236 0.0044 -0.0062 -0.0057
C5LD 0.062 0.062 0.066 0.04 -0.035 -0.036
N1LD 0.069 0.077 0.077 0.051 -0.044 -0.045
O5LD 0.0428 0.0332 0.0349 0.0144 -0.019 -0.0149
C7LD 0.031 0.042 0.037 0.009 0 -0.01
O6UB 0.106 0.0318 0.0318 0.017 0.002 -0.002
O2UB 0.0345 0.0402 0.0368 0.0158 -0.0173 -0.0194
C1UB 0.0322 0.0322 0.032 0.0114 -0.0114 -0.0116
C2UB 0.0308 0.0362 0.0388 0.0135 -0.0141 -0.0128
C3UB 0.0236 0.0334 0.0292 0.0057 -0.0044 -0.0062
Cu3UB 0.118 0.1023 0.1023 0.0845 -0.0854 -0.0854
C4UB 0.052 0.052 0.049 0.02 -0.02 -0.019
C5UB 0.066 0.062 0.062 0.036 -0.04 -0.035
N1UB 0.077 0.069 0.077 0.045 -0.051 -0.044
O3UB 0.127 0.111 0.111 0.09 -0.055 -0.055
O5UB 0.0349 0.0428 0.0332 0.0149 -0.0144 -0.019
C6UB 0.041 0.041 0.033 0.018 -0.018 -0.018
C7UB 0.037 0.031 0.042 0.01 -0.009 0
O2WC 0.0402 0.0345 0.0368 0.0173 -0.0158 -0.0194
C2WC 0.0362 0.0308 0.0388 0.0141 -0.0135 -0.0128
C3WC 0.0334 0.0236 0.0292 0.0044 -0.0057 -0.0062
C5WC 0.062 0.066 0.062 0.04 -0.036 -0.035
N1WC 0.069 0.077 0.077 0.051 -0.045 -0.044
O5WC 0.0428 0.0349 0.0332 0.0144 -0.0149 -0.019
C7WC 0.031 0.037 0.042 0.009 -0.01 0
Cu1JB 0.0143 0.0216 0.0216 -0.0101 0 0
Cu2JB 0.0162 0.0229 0.0229 -0.0098 0 0
O1JB 0.068 0.0414 0.0414 -0.03 0 0
O2WB 0.0345 0.0402 0.0368 -0.0158 0.0173 -0.0194
C1WB 0.0322 0.0322 0.032 -0.0114 0.0114 -0.0116
C2WB 0.0308 0.0362 0.0388 -0.0135 0.0141 -0.0128
C3WB 0.0236 0.0334 0.0292 -0.0057 0.0044 -0.0062
Cu3WB 0.118 0.1023 0.1023 -0.0845 0.0854 -0.0854
C4WB 0.052 0.052 0.049 -0.02 0.02 -0.019
C5WB 0.066 0.062 0.062 -0.036 0.04 -0.035
N1WB 0.077 0.069 0.077 -0.045 0.051 -0.044
O3WB 0.127 0.111 0.111 -0.09 0.055 -0.055
O5WB 0.0349 0.0428 0.0332 -0.0149 0.0144 -0.019
O6WB 0.106 0.0318 0.0318 -0.017 -0.002 -0.002
C6WB 0.041 0.041 0.033 -0.018 0.018 -0.018
C7WB 0.037 0.031 0.042 -0.01 0.009 0
O2ZC 0.0402 0.0345 0.0368 -0.0173 0.0158 -0.0194
C2ZC 0.0362 0.0308 0.0388 -0.0141 0.0135 -0.0128
C3ZC 0.0334 0.0236 0.0292 -0.0044 0.0057 -0.0062
C5ZC 0.062 0.066 0.062 -0.04 0.036 -0.035
N1ZC 0.069 0.077 0.077 -0.051 0.045 -0.044
O5ZC 0.0428 0.0349 0.0332 -0.0144 0.0149 -0.019
C7ZC 0.031 0.037 0.042 -0.009 0.01 0
O6JB 0.106 0.0318 0.0318 -0.017 0.002 0.002
O2EC 0.0345 0.0368 0.0402 0.0158 0.0194 0.0173
C1EC 0.0322 0.032 0.0322 0.0114 0.0116 0.0114
C2EC 0.0308 0.0388 0.0362 0.0135 0.0128 0.0141
C3EC 0.0236 0.0292 0.0334 0.0057 0.0062 0.0044
Cu3EC 0.118 0.1023 0.1023 0.0845 0.0854 0.0854
C4EC 0.052 0.049 0.052 0.02 0.019 0.02
C5EC 0.066 0.062 0.062 0.036 0.035 0.04
N1EC 0.077 0.077 0.069 0.045 0.044 0.051
O3EC 0.127 0.111 0.111 0.09 0.055 0.055
O5EC 0.0349 0.0332 0.0428 0.0149 0.019 0.0144
C6EC 0.041 0.033 0.041 0.018 0.018 0.018
C7EC 0.037 0.042 0.031 0.01 0 0.009
O2KE 0.0402 0.0368 0.0345 0.0173 0.0194 0.0158
C2KE 0.0362 0.0388 0.0308 0.0141 0.0128 0.0135
C3KE 0.0334 0.0292 0.0236 0.0044 0.0062 0.0057
C5KE 0.062 0.062 0.066 0.04 0.035 0.036
N1KE 0.069 0.077 0.077 0.051 0.044 0.045
O5KE 0.0428 0.0332 0.0349 0.0144 0.019 0.0149
C7KE 0.031 0.042 0.037 0.009 0 0.01
Cu1B 0.0216 0.0143 0.0216 0 -0.0101 0
Cu1D 0.0216 0.0216 0.0143 0 0 -0.0101
Cu1V 0.0216 0.0143 0.0216 0 0.0101 0
Cu1DA 0.0216 0.0216 0.0143 0 0 0.0101
Cu1HA 0.0216 0.0216 0.0143 0 0 0.0101
Cu1OB 0.0143 0.0216 0.0216 0.0101 0 0
Cu2B 0.0229 0.0162 0.0229 0 -0.0098 0
Cu2D 0.0229 0.0229 0.0162 0 0 -0.0098
Cu2V 0.0229 0.0162 0.0229 0 0.0098 0
Cu2DA 0.0229 0.0229 0.0162 0 0 0.0098
Cu2HA 0.0229 0.0229 0.0162 0 0 0.0098
Cu2OB 0.0162 0.0229 0.0229 0.0098 0 0
O2JB 0.0345 0.0368 0.0402 -0.0158 0.0194 -0.0173
O2SB 0.0368 0.0345 0.0402 0.0194 0.0158 0.0173
O2YE 0.0345 0.0368 0.0402 0.0158 0.0194 0.0173
O2ZE 0.0345 0.0368 0.0402 -0.0158 -0.0194 0.0173
O2JF 0.0368 0.0345 0.0402 -0.0194 0.0158 -0.0173
O2DG 0.0345 0.0402 0.0368 -0.0158 -0.0173 0.0194
Cu3I 0.1023 0.118 0.1023 0.0854 -0.0845 -0.0854
Cu3M 0.1023 0.1023 0.118 0.0854 -0.0854 -0.0845
Cu3V 0.1023 0.118 0.1023 -0.0854 0.0845 -0.0854
Cu3CA 0.1023 0.118 0.1023 0.0854 -0.0845 -0.0854
N1OE 0.077 0.069 0.077 0.045 -0.051 -0.044
N1ZF 0.077 0.077 0.069 -0.045 0.044 -0.051
N1CG 0.077 0.077 0.069 0.045 -0.044 -0.051
O4I 0.1 0.1 0.1 0.065 -0.065 -0.065
O4V 0.1 0.1 0.1 -0.065 0.065 -0.065
O5JB 0.0349 0.0332 0.0428 -0.0149 0.019 -0.0144
O5SB 0.0332 0.0349 0.0428 0.019 0.0149 0.0144
O5YE 0.0349 0.0332 0.0428 0.0149 0.019 0.0144
O5ZE 0.0349 0.0332 0.0428 -0.0149 -0.019 0.0144
O5JF 0.0332 0.0349 0.0428 -0.019 0.0149 -0.0144
O5DG 0.0349 0.0428 0.0332 -0.0149 -0.0144 0.019
C8? 0.047(6) 0.047(6) 0.045(9) 0.019(5) 0.019(5) 0.017(7)
C9? 0.020(4) 0.021(4) 0.027(4) 0.009(3) 0.004(3) 0.013(3)
Cu4? 0.133(4) 0.145(5) 0.133(4) 0.089(4) 0.108(4) 0.089(4)
C10? 0.045(5) 0.045(5) 0.042(7) 0.018(4) 0.018(4) 0.013(6)
C11? 0.070(7) 0.059(7) 0.047(6) 0.029(5) 0.041(5) 0.034(6)
N2? 0.058(6) 0.074(7) 0.057(6) 0.044(5) 0.039(5) 0.039(5)
O7? 0.065(5) 0.065(5) 0.065(5) 0.038(5) 0.038(5) 0.038(5)
O8? 0.091(6) 0.128(10) 0.091(6) 0.035(6) 0.060(7) 0.035(6)
loop_
_geom_bond_atom_site_label_1
_geom_bond_atom_site_label_2
_geom_bond_site_symmetry_1
_geom_bond_site_symmetry_2
Cu1 O1 1_555 1_555
Cu2 O5 1_555 1_555
O2 Cu1 1_555 1_555
C1 H1 1_555 1_555
C2 C1 1_555 1_555
C3 O2 1_555 1_555
Cu3 N1 1_555 1_555
C4 C5 1_555 1_555
C5 H2 1_555 1_555
N1 C5 1_555 1_555
O3 Cu3 1_555 1_555
O4 Cu3 1_555 1_555
O5 C3 1_555 1_555
O6 Cu2 1_555 1_555
C6 C4 1_555 1_555
C7 C2 1_555 1_555
H3 C7 1_555 1_555
O2EG C3EG 1_555 1_555
C2EG C1 1_555 1_555
C3EG C2EG 1_555 1_555
C5EG C4 1_555 1_555
H2EG C5EG 1_555 1_555
N1EG N1 1_555 1_555
O5EG C3EG 1_555 1_555
C7EG C6 1_555 1_555
H3EG C7EG 1_555 1_555
O6SB Cu2 1_555 1_555
O2HA C3HA 1_555 1_555
C1HA H1HA 1_555 1_555
C2HA C1HA 1_555 1_555
C3HA C2HA 1_555 1_555
Cu3HA O4 1_555 1_555
C4HA C5HA 1_555 1_555
C5HA H2HA 1_555 1_555
N1HA Cu3HA 1_555 1_555
O3HA Cu3HA 1_555 1_555
O5HA C3HA 1_555 1_555
C6HA C4HA 1_555 1_555
C7HA C2HA 1_555 1_555
H3HA C7HA 1_555 1_555
O2OD C3OD 1_555 1_555
C2OD C1HA 1_555 1_555
C3OD C2OD 1_555 1_555
C5OD C4HA 1_555 1_555
H2OD C5OD 1_555 1_555
N1OD Cu3 1_555 1_555
O5OD C3OD 1_555 1_555
C7OD C6HA 1_555 1_555
H3OD C7OD 1_555 1_555
Cu1MB O2EG 1_555 1_555
Cu2MB O5EG 1_555 1_555
O1MB Cu1MB 1_555 1_555
O2MB Cu1MB 1_555 1_555
C1MB H1MB 1_555 1_555
C2MB C1MB 1_555 1_555
C3MB O2MB 1_555 1_555
Cu3MB N1MB 1_555 1_555
C4MB C5MB 1_555 1_555
C5MB H2MB 1_555 1_555
N1MB C5MB 1_555 1_555
O3MB Cu3MB 1_555 1_555
O4M Cu3MB 1_555 1_555
O5MB Cu2MB 1_555 1_555
O6MB Cu2MB 1_555 1_555
C6MB C4MB 1_555 1_555
C7MB C2MB 1_555 1_555
H3MB C7MB 1_555 1_555
O2LD C3LD 1_555 1_555
C2LD C1MB 1_555 1_555
C3LD C2LD 1_555 1_555
C5LD C4MB 1_555 1_555
H2LD C5LD 1_555 1_555
N1LD N1MB 1_555 1_555
O5LD C3LD 1_555 1_555
C7LD C6MB 1_555 1_555
H3LD C7LD 1_555 1_555
O6UB Cu2MB 1_555 1_555
O2UB Cu1MB 1_555 1_555
C1UB H1UB 1_555 1_555
C2UB C1UB 1_555 1_555
C3UB O2UB 1_555 1_555
Cu3UB N1UB 1_555 1_555
C4UB C5UB 1_555 1_555
C5UB H2UB 1_555 1_555
N1UB C5UB 1_555 1_555
O3UB Cu3UB 1_555 1_555
O5UB Cu2MB 1_555 1_555
C6UB C4UB 1_555 1_555
C7UB C2UB 1_555 1_555
H3UB C7UB 1_555 1_555
O2WC C3WC 1_555 1_555
C2WC C1UB 1_555 1_555
C3WC C2WC 1_555 1_555
C5WC C4UB 1_555 1_555
H2WC C5WC 1_555 1_555
N1WC N1UB 1_555 1_555
O5WC C3WC 1_555 1_555
C7WC C6UB 1_555 1_555
H3WC C7WC 1_555 1_555
Cu1JB O1JB 1_555 1_555
Cu2JB O5WB 1_555 1_555
O2WB Cu1JB 1_555 1_555
C1WB H1WB 1_555 1_555
C2WB C1WB 1_555 1_555
C3WB O2WB 1_555 1_555
Cu3WB N1WB 1_555 1_555
C4WB C5WB 1_555 1_555
C5WB H2WB 1_555 1_555
N1WB C5WB 1_555 1_555
O3WB Cu3WB 1_555 1_555
O5WB C3WB 1_555 1_555
O6WB Cu2JB 1_555 1_555
C6WB C4WB 1_555 1_555
C7WB C2WB 1_555 1_555
H3WB C7WB 1_555 1_555
O2ZC Cu1 1_555 1_555
C2ZC C1WB 1_555 1_555
C3ZC O2ZC 1_555 1_555
C5ZC C4WB 1_555 1_555
H2ZC C5ZC 1_555 1_555
N1ZC N1WB 1_555 1_555
O5ZC Cu2 1_555 1_555
C7ZC C6WB 1_555 1_555
H3ZC C7ZC 1_555 1_555
O6JB Cu2JB 1_555 1_555
O2EC C3EC 1_555 1_555
C1EC H1EC 1_555 1_555
C2EC C1EC 1_555 1_555
C3EC C2EC 1_555 1_555
Cu3EC O4 1_555 1_555
C4EC C5EC 1_555 1_555
C5EC H2EC 1_555 1_555
N1EC Cu3EC 1_555 1_555
O3EC Cu3EC 1_555 1_555
O5EC C3EC 1_555 1_555
C6EC C4EC 1_555 1_555
C7EC C2EC 1_555 1_555
H3EC C7EC 1_555 1_555
O2KE C3KE 1_555 1_555
C2KE C1EC 1_555 1_555
C3KE C2KE 1_555 1_555
C5KE C4EC 1_555 1_555
H2KE C5KE 1_555 1_555
N1KE Cu3HA 1_555 1_555
O5KE C3KE 1_555 1_555
C7KE C6EC 1_555 1_555
H3KE C7KE 1_555 1_555
Cu1B O2WC 1_555 1_555
Cu1D O2LD 1_555 1_555
Cu1V O2OD 1_555 1_555
Cu1DA O2KE 1_555 1_555
Cu1HA O2HA 1_555 1_555
Cu1OB O2EC 1_555 1_555
Cu2B O5WC 1_555 1_555
Cu2D O5LD 1_555 1_555
Cu2V O5OD 1_555 1_555
Cu2DA O5KE 1_555 1_555
Cu2HA O5HA 1_555 1_555
Cu2OB O5EC 1_555 1_555
O2JB Cu1JB 1_555 1_555
O2SB Cu1 1_555 1_555
O2YE Cu1MB 1_555 1_555
O2ZE Cu1JB 1_555 1_555
O2JF Cu1 1_555 1_555
O2DG Cu1JB 1_555 1_555
Cu3I N1WC 1_555 1_555
Cu3M O4M 1_555 1_555
Cu3V N1ZC 1_555 1_555
Cu3CA O4M 1_555 1_555
N1OE Cu3MB 1_555 1_555
N1ZF Cu3WB 1_555 1_555
N1CG Cu3UB 1_555 1_555
O4I Cu3UB 1_555 1_555
O4V Cu3WB 1_555 1_555
O5JB Cu2JB 1_555 1_555
O5SB Cu2 1_555 1_555
O5YE Cu2MB 1_555 1_555
O5ZE Cu2JB 1_555 1_555
O5JF Cu2 1_555 1_555
O5DG Cu2JB 1_555 1_555
C2 C3 1_555 1_555
C6 C7 1_555 1_555
C2EG C7EG 1_555 1_555
C5EG N1EG 1_555 1_555
N1EG Cu3EC 1_555 1_555
C5HA N1HA 1_555 1_555
N1HA N1OD 1_555 1_555
C6HA C7HA 1_555 1_555
C2OD C7OD 1_555 1_555
C5OD N1OD 1_555 1_555
C2MB C3MB 1_555 1_555
C3MB O5MB 1_555 1_555
C6MB C7MB 1_555 1_555
C2LD C7LD 1_555 1_555
C5LD N1LD 1_555 1_555
N1LD Cu3M 1_555 1_555
C2UB C3UB 1_555 1_555
C3UB O5UB 1_555 1_555
C6UB C7UB 1_555 1_555
C2WC C7WC 1_555 1_555
C5WC N1WC 1_555 1_555
C2WB C3WB 1_555 1_555
C6WB C7WB 1_555 1_555
C2ZC C3ZC 1_555 1_555
C2ZC C7ZC 1_555 1_555
C3ZC O5ZC 1_555 1_555
C5ZC N1ZC 1_555 1_555
C5EC N1EC 1_555 1_555
N1EC N1KE 1_555 1_555
C6EC C7EC 1_555 1_555
C2KE C7KE 1_555 1_555
C5KE N1KE 1_555 1_555
Cu3I O4I 1_555 1_555
Cu3V O4V 1_555 1_555

#END
