
#######################################################################
#
#                 Cambridge Crystallographic Data Centre
#                                CCDC 
#
#######################################################################
#
# If this CIF has been generated from an entry in the Cambridge 
# Structural Database, then it will include bibliographic, chemical, 
# crystal, experimental, refinement or atomic coordinate data resulting 
# from the CCDC's data processing and validation procedures.
#
#######################################################################

data_UBULIO
_chemical_formula_moiety         
'(C150 H99 N3 O45 Zn12)n,57n(C5 H11 N1 O1),18n(H2 O1)'
_chemical_name_systematic        
'catena-[tetrakis(\m~6~-1,3,5-tris(4-Carboxylatophenyl)benzene)-tris(\m~4~-2-((S)-4-isopropyl-2-oxo-1,3-oxazolidin-3-yl)benzene-1,4-dicarboxylato)-tris(\m~4~-oxo)-dodeca-zinc(ii) diethylformamide solvate octadecahydrate]'
_symmetry_cell_setting           hexagonal
_symmetry_space_group_name_H-M   'P 63'
_symmetry_Int_Tables_number      173
_space_group_name_Hall           'P 6c'
loop_
_symmetry_equiv_pos_site_id
_symmetry_equiv_pos_as_xyz
1 x,y,z
2 -y,x-y,z
3 -x+y,-x,z
4 -x,-y,1/2+z
5 y,-x+y,1/2+z
6 x-y,x,1/2+z
_cell_length_a                   41.459(6)
_cell_length_b                   41.459(6)
_cell_length_c                   17.561(4)
_cell_angle_alpha                90
_cell_angle_beta                 90
_cell_angle_gamma                120
_cell_volume                     26140.7
_exptl_crystal_colour            colorless
_exptl_crystal_description       block
_cell_formula_units_Z            2
loop_
_atom_site_label
_atom_site_type_symbol
_atom_site_fract_x
_atom_site_fract_y
_atom_site_fract_z
Zn1 Zn 0.628333(12) 0.028824(12) 0.402360(19)
Zn2 Zn 0.591444(7) 0.068872(6) 0.49408(3)
Zn3 Zn 0.627925(12) 0.028969(11) 0.581848(18)
Zn4 Zn 0.678877(7) 0.104207(6) 0.49096(3)
O1 O 0.63162(3) 0.05776(3) 0.49048(14)
O2 O 0.44081(9) -0.04717(13) 0.08007(16)
O3 O 0.41206(9) -0.02465(13) 0.14441(15)
O4 O 0.58170(8) 0.01426(7) 0.3492(2)
O5 O 0.55904(7) 0.04898(6) 0.40451(19)
O6 O 0.66959(5) 0.14599(5) 0.5047(2)
O7 O 0.60905(5) 0.12246(4) 0.5022(2)
O8 O 0.70723(7) 0.11046(8) 0.40339(13)
O9 O 0.66839(7) 0.06104(8) 0.33250(13)
O10 O 0.67156(9) 0.05683(7) -0.35580(17)
O11 O 0.70394(8) 0.11414(7) -0.40645(18)
O12 O 0.98781(11) 0.35291(8) 0.05288(17)
O13 O 0.98292(12) 0.35575(8) -0.0767(2)
C1 C 0.43983(8) -0.02830(9) 0.13499(18)
C2 C 0.46978(7) -0.01280(9) 0.19585(17)
C3 C 0.47125(9) 0.01081(11) 0.2536(2)
C4 C 0.49970(10) 0.02393(11) 0.30726(18)
C5 C 0.52668(9) 0.01344(10) 0.30309(17)
C6 C 0.52521(9) -0.01017(11) 0.24530(19)
H1 H 0.5433 -0.0172 0.2425
C7 C 0.49676(9) -0.02329(10) 0.19168(17)
H2 H 0.4958 -0.0391 0.1530
C8 C 0.55910(12) 0.02578(15) 0.3586(3)
C9 C 0.64081(8) 0.14788(7) 0.4816(2)
C10 C 0.64656(5) 0.18730(4) 0.4932(2)
C11 C 0.61843(4) 0.19323(4) 0.52021(17)
H3 H 0.5968 0.1735 0.5405
C12 C 0.62260(5) 0.22862(5) 0.5170(2)
H4 H 0.6038 0.2326 0.5350
C13 C 0.65491(5) 0.25808(4) 0.4867(2)
C14 C 0.68304(5) 0.25215(5) 0.4597(2)
H5 H 0.7047 0.2719 0.4395
C15 C 0.67887(5) 0.21676(5) 0.4630(2)
H6 H 0.6977 0.2128 0.4449
C16 C 0.66225(8) 0.29760(7) 0.4952(4)
C17 C 0.63133(7) 0.30298(7) 0.4944(4)
H7 H 0.6075 0.2823 0.4933
C18 C 0.69669(8) 0.09207(7) 0.34245(19)
C19 C 0.71831(6) 0.10433(6) 0.26486(11)
C20 C 0.74553(7) 0.14177(6) 0.26317(10)
H8 H 0.7495 0.1567 0.3057
C21 C 0.76681(6) 0.15693(5) 0.19791(9)
H9 H 0.7850 0.1820 0.1968
C22 C 0.76086(4) 0.13466(4) 0.13434(9)
C23 C 0.73365(5) 0.09722(4) 0.13604(11)
H10 H 0.7297 0.0823 0.0935
C24 C 0.71237(6) 0.08205(5) 0.20129(11)
H11 H 0.6942 0.0570 0.2024
C25 C 0.77931(3) 0.15107(3) 0.05518(9)
C26 C 0.81421(3) 0.18299(5) 0.05785(10)
H12 H 0.8272 0.1905 0.1036
C27 C 0.82971(4) 0.20371(5) -0.00789(11)
C28 C 0.81031(5) 0.19252(5) -0.07630(10)
H13 H 0.8207 0.2064 -0.1203
C29 C 0.77542(5) 0.16060(6) -0.07897(9)
C30 C 0.75992(4) 0.13987(5) -0.01323(9)
H14 H 0.7366 0.1185 -0.0150
C31 C 0.69591(15) 0.09084(13) -0.3537(2)
C32 C 0.71973(9) 0.11105(7) -0.28784(12)
C33 C 0.71397(9) 0.08832(5) -0.22515(14)
H15 H 0.6980 0.0627 -0.2289
C34 C 0.73204(9) 0.10382(6) -0.15683(13)
H16 H 0.7282 0.0886 -0.1149
C35 C 0.75586(8) 0.14205(7) -0.15120(12)
C36 C 0.76162(8) 0.16478(5) -0.21389(15)
H17 H 0.7776 0.1904 -0.2101
C37 C 0.74356(9) 0.14928(7) -0.28222(14)
H18 H 0.7474 0.1645 -0.3242
C38 C 0.97224(10) 0.34314(9) -0.0108(2)
C39 C 0.93550(9) 0.30506(5) -0.00857(19)
C40 C 0.91181(9) 0.29674(7) -0.07063(16)
H19 H 0.9188 0.3132 -0.1115
C41 C 0.87767(9) 0.26388(7) -0.07164(14)
H20 H 0.8618 0.2583 -0.1132
C42 C 0.86720(10) 0.23932(6) -0.01059(17)
C43 C 0.89088(10) 0.24763(7) 0.05147(15)
H21 H 0.8839 0.2312 0.0923
C44 C 0.92503(9) 0.28050(6) 0.05248(16)
H22 H 0.9409 0.2861 0.0940
N1 N 0.4408(2) 0.0153(3) 0.2825(5)
O14 O 0.3830 -0.0045 0.3398
O15 O 0.4064 -0.0436 0.3321
C45 C 0.4370 0.0485 0.2870
H23 H 0.4545 0.0659 0.3245
C46 C 0.3964 0.0329 0.3149
H24 H 0.3957 0.0479 0.3565
H25 H 0.3809 0.0333 0.2738
C47 C 0.4104 -0.0128 0.3212
C48 C 0.4442 0.0677 0.2072
H26 H 0.4274 0.0492 0.1702
C49 C 0.4845 0.0831 0.1797
H27 H 0.4884 0.0972 0.1339
H28 H 0.4889 0.0628 0.1696
H29 H 0.5015 0.0989 0.2183
C50 C 0.4360 0.1001 0.2091
H30 H 0.4426 0.1128 0.1610
H31 H 0.4504 0.1172 0.2489
H32 H 0.4100 0.0905 0.2187
Zn1E Zn 0.599509(17) -0.371667(12) 0.902360(19)
Zn1D Zn 1.028824(12) 0.400491(17) -0.097640(19)
Zn1C Zn 0.371667(12) -0.028824(12) 0.902360(19)
Zn1_2 Zn 0.628333(12) 0.028824(12) 1.402360(19)
Zn1D_2 Zn 1.028824(12) 0.400491(17) 0.902360(19)
Zn2C Zn 0.408556(7) -0.068872(6) -0.00592(3)
Zn2E Zn 0.522572(9) -0.408556(7) 0.99408(3)
Zn2B Zn 0.477428(9) 0.408556(7) 0.49408(3)
Zn2A Zn 0.931128(6) 0.522572(9) 0.49408(3)
Zn2C_2 Zn 0.408556(7) -0.068872(6) 0.99408(3)
Zn2B_2 Zn 0.477428(9) -0.591444(7) 0.49408(3)
Zn2D Zn 1.068872(6) 0.477428(9) -0.00592(3)
Zn3D Zn 1.028969(11) 0.401044(16) 0.081848(18)
Zn3C Zn 0.372075(12) -0.028969(11) 0.081848(18)
Zn3_2 Zn 0.627925(12) 0.028969(11) -0.418152(18)
Zn3E Zn 0.598956(16) -0.372075(12) 0.081848(18)
Zn3D_2 Zn 1.028969(11) 0.401044(16) 1.081848(18)
Zn3E_2 Zn 0.598956(16) -0.372075(12) 1.081848(18)
Zn3B Zn 0.401044(16) -0.627925(12) 0.581848(18)
Zn4E Zn 0.574670(9) -0.321123(7) 0.99096(3)
Zn4_2 Zn 0.678877(7) 0.104207(6) -0.50904(3)
Zn4B Zn 0.425330(9) 0.321123(7) 0.49096(3)
Zn4A Zn 0.895793(6) 0.574670(9) 0.49096(3)
Zn4E_2 Zn 0.574670(9) -0.321123(7) -0.00904(3)
Zn4_3 Zn 0.678877(7) 0.104207(6) 1.49096(3)
Zn4D Zn 1.104207(6) 0.425330(9) -0.00904(3)
O1E O 0.57386(4) -0.36838(3) 0.99048(14)
O1D O 1.05776(3) 0.42614(4) -0.00952(14)
O1C O 0.36838(3) -0.05776(3) -0.00952(14)
O1_2 O 0.63162(3) 0.05776(3) -0.50952(14)
O2C O 0.55919(9) 0.04717(13) 0.58007(16)
O2E O 0.48798(16) -0.55919(9) 0.58007(16)
O2B O 0.51202(16) -0.44081(9) 1.08007(16)
O3C O 0.58794(9) 0.02465(13) 0.64441(15)
O3E O 0.43671(16) -0.58794(9) 0.64441(15)
O3A O 1.02465(13) 0.43671(16) 0.14441(15)
O4C O 0.41830(8) -0.01426(7) 0.8492(2)
O4E O 0.56744(11) -0.41830(8) 0.8492(2)
O4D O 1.01426(7) 0.43256(11) -0.1508(2)
O5C O 0.44096(7) -0.04898(6) 0.90451(19)
O5E O 0.51006(9) -0.44096(7) 0.90451(19)
O5C_2 O 0.44096(7) -0.04898(6) -0.09549(19)
O6B O 0.47640(7) 0.33041(5) 0.5047(2)
O6A O 0.85401(5) 0.52360(7) 0.5047(2)
O6E O 0.52360(7) -0.33041(5) 1.0047(2)
O6_2 O 0.66959(5) 0.14599(5) -0.4953(2)
O7B O 0.51341(6) 0.39095(5) 0.5022(2)
O7A O 0.87754(4) 0.48659(6) 0.5022(2)
O7C O 0.39095(5) -0.12246(4) 0.0022(2)
O7E O 0.48659(6) -0.39095(5) 1.0022(2)
O8E O 0.59677(11) -0.29277(7) 0.90339(13)
O8_2 O 0.70723(7) 0.11046(8) 1.40339(13)
O8_3 O 0.70723(7) 0.11046(8) -0.59661(13)
O9E O 0.60735(11) -0.33161(7) 0.83250(13)
O9_2 O 0.66839(7) 0.06104(8) 1.33250(13)
O9D O 1.06104(8) 0.39265(11) -0.16750(13)
O10E O 0.61473(11) -0.32844(9) 0.14420(17)
O10_2 O 0.67156(9) 0.05683(7) 0.64420(17)
O10D O 1.05683(7) 0.38527(11) 0.14420(17)
O10C O 0.32844(9) -0.05683(7) 0.14420(17)
O11E O 0.58980(11) -0.29606(8) 0.09355(18)
O11_2 O 0.70394(8) 0.11414(7) 0.59355(18)
O11E_2 O 0.58980(11) -0.29606(8) 1.09355(18)
O12E O 0.63490(14) -0.01219(11) 0.55288(17)
O12_2 O 0.98781(11) 0.35291(8) 1.05288(17)
O12B O 0.36510(14) 0.01219(11) 0.05288(17)
O13E O 0.62717(14) -0.01708(12) 0.4233(2)
O13_2 O 0.98292(12) 0.35575(8) 0.9233(2)
O13A O 0.64425(8) -0.37283(14) 0.9233(2)
C1C C 0.56017(8) 0.02830(9) 0.63499(18)
C1E C 0.46813(12) -0.56017(8) 0.63499(18)
C2C C 0.53022(7) 0.01280(9) 0.69585(17)
C2E C 0.48258(11) -0.53022(7) 0.69585(17)
C3C C 0.52875(9) -0.01081(11) 0.7536(2)
C3E C 0.46044(14) -0.52875(9) 0.7536(2)
C4C C 0.50030(10) -0.02393(11) 0.80726(18)
C4E C 0.47577(15) -0.50030(10) 0.80726(18)
C5C C 0.47332(9) -0.01344(10) 0.80309(17)
C5E C 0.51324(13) -0.47332(9) 0.80309(17)
C6C C 0.47479(9) 0.01017(11) 0.74530(19)
C6E C 0.53538(14) -0.47479(9) 0.74530(19)
H1C H 0.4567 0.0172 0.7425
H1E H 0.5605 -0.4567 0.7425
C7C C 0.50324(9) 0.02329(10) 0.69168(17)
C7E C 0.52005(13) -0.50324(9) 0.69168(17)
H2C H 0.5042 0.0391 0.6530
H2E H 0.5349 -0.5042 0.6530
C8C C 0.44090(12) -0.02578(15) 0.8586(3)
C8E C 0.53332(19) -0.44090(12) 0.8586(3)
C9B C 0.50707(11) 0.35919(8) 0.4816(2)
C9A C 0.85212(7) 0.49293(11) 0.4816(2)
C10B C 0.54074(6) 0.35344(5) 0.4932(2)
C10A C 0.81270(4) 0.45926(6) 0.4932(2)
C11B C 0.57480(6) 0.38157(4) 0.52021(17)
C11A C 0.80677(4) 0.42520(6) 0.52021(17)
H3B H 0.5767 0.4032 0.5405
H3A H 0.8265 0.4233 0.5405
C12B C 0.60602(7) 0.37740(5) 0.5170(2)
C12A C 0.77138(5) 0.39398(7) 0.5170(2)
H4B H 0.6288 0.3962 0.5350
H4A H 0.7674 0.3712 0.5350
C13B C 0.60317(6) 0.34509(5) 0.4867(2)
C13A C 0.74192(4) 0.39683(6) 0.4867(2)
C14B C 0.56911(7) 0.31696(5) 0.4597(2)
C14A C 0.74785(5) 0.43089(7) 0.4597(2)
H5B H 0.5672 0.2953 0.4395
H5A H 0.7281 0.4328 0.4395
C15B C 0.53789(7) 0.32113(5) 0.4630(2)
C15A C 0.78324(5) 0.46211(7) 0.4630(2)
H6B H 0.5151 0.3023 0.4449
H6A H 0.7872 0.4849 0.4449
C16B C 0.63535(11) 0.33775(8) 0.4952(4)
C16A C 0.70240(7) 0.36465(11) 0.4952(4)
C17B C 0.67165(10) 0.36867(7) 0.4944(4)
C17A C 0.69702(7) 0.32835(10) 0.4944(4)
H7A H 0.7177 0.3252 0.4933
H7B H 0.6748 0.3925 0.4933
C18E C 0.60462(11) -0.30331(8) 0.84245(19)
C18_2 C 0.69669(8) 0.09207(7) 1.34245(19)
C19E C 0.61398(8) -0.28169(6) 0.76486(11)
C19_2 C 0.71831(6) 0.10433(6) 1.26486(11)
C20E C 0.60376(9) -0.25447(7) 0.76317(10)
C20_2 C 0.74553(7) 0.14177(6) 1.26317(10)
H8E H 0.5928 -0.2505 0.8057
H8_2 H 0.7495 0.1567 1.3057
C21E C 0.60988(8) -0.23319(6) 0.69791(9)
C21_2 C 0.76681(6) 0.15693(5) 1.19791(9)
H9E H 0.6030 -0.2150 0.6968
H9_2 H 0.7850 0.1820 1.1968
C22E C 0.62620(6) -0.23914(4) 0.63434(9)
C22_2 C 0.76086(4) 0.13466(4) 1.13434(9)
C23E C 0.63643(6) -0.26635(5) 0.63604(11)
C23_2 C 0.73365(5) 0.09722(4) 1.13604(11)
H10E H 0.6474 -0.2703 0.5935
H10_2 H 0.7297 0.0823 1.0935
C24E C 0.63032(8) -0.28763(6) 0.70129(11)
C24_2 C 0.71237(6) 0.08205(5) 1.20129(11)
H11E H 0.6372 -0.3058 0.7024
H11_2 H 0.6942 0.0570 1.2024
C25E C 0.62824(4) -0.22069(3) 0.55518(9)
C25_2 C 0.77931(3) 0.15107(3) 1.05518(9)
C26E C 0.63122(6) -0.18579(3) 0.55785(10)
C26_2 C 0.81421(3) 0.18299(5) 1.05785(10)
H12E H 0.6367 -0.1728 0.6036
H12_2 H 0.8272 0.1905 1.1036
C27E C 0.62600(6) -0.17029(4) 0.49211(11)
C27_2 C 0.82971(4) 0.20371(5) 0.99211(11)
C28E C 0.61779(7) -0.18969(5) 0.42370(10)
C28_2 C 0.81031(5) 0.19252(5) 0.92370(10)
H13E H 0.6143 -0.1793 0.3797
H13_2 H 0.8207 0.2064 0.8797
C29E C 0.61482(8) -0.22458(5) 0.42103(9)
C29_2 C 0.77542(5) 0.16060(6) 0.92103(9)
C30E C 0.62005(6) -0.24008(4) 0.48677(9)
C30_2 C 0.75992(4) 0.13987(5) 0.98677(9)
H14E H 0.6181 -0.2634 0.4850
H14_2 H 0.7366 0.1185 0.9850
C31E C 0.60507(20) -0.30409(15) 0.1463(2)
C31_2 C 0.69591(15) 0.09084(13) 0.6463(2)
C32E C 0.60868(11) -0.28027(9) 0.21216(12)
C32_2 C 0.71973(9) 0.11105(7) 0.71216(12)
C33E C 0.62565(10) -0.28603(9) 0.27485(14)
C33_2 C 0.71397(9) 0.08832(5) 0.77485(14)
H15E H 0.6353 -0.3020 0.2711
H15_2 H 0.6980 0.0627 0.7711
C34E C 0.62822(11) -0.26796(9) 0.34317(13)
C34_2 C 0.73204(9) 0.10382(6) 0.84317(13)
H16E H 0.6396 -0.2718 0.3851
H16_2 H 0.7282 0.0886 0.8851
C35E C 0.61381(11) -0.24414(8) 0.34880(12)
C35_2 C 0.75586(8) 0.14205(7) 0.84880(12)
C36E C 0.59684(9) -0.23838(8) 0.28611(15)
C36_2 C 0.76162(8) 0.16478(5) 0.78611(15)
H17E H 0.5872 -0.2224 0.2899
H17_2 H 0.7776 0.1904 0.7899
C37E C 0.59428(11) -0.25644(9) 0.21778(14)
C37_2 C 0.74356(9) 0.14928(7) 0.71778(14)
H18E H 0.5829 -0.2526 0.1758
H18_2 H 0.7474 0.1645 0.6758
C38E C 0.62910(13) -0.02776(10) 0.4892(2)
C38_2 C 0.97224(10) 0.34314(9) 0.9892(2)
C39E C 0.63044(10) -0.06450(9) 0.49143(19)
C39_2 C 0.93550(9) 0.30506(5) 0.99143(19)
C40E C 0.61507(11) -0.08819(9) 0.42937(16)
C40_2 C 0.91181(9) 0.29674(7) 0.92937(16)
H19E H 0.6056 -0.0812 0.3885
H19_2 H 0.9188 0.3132 0.8885
C41E C 0.61379(11) -0.12233(9) 0.42836(14)
C41_2 C 0.87767(9) 0.26388(7) 0.92836(14)
H20E H 0.6035 -0.1382 0.3868
H20_2 H 0.8618 0.2583 0.8868
C42E C 0.62788(12) -0.13280(10) 0.48941(17)
C42_2 C 0.86720(10) 0.23932(6) 0.98941(17)
C43E C 0.64325(12) -0.10912(10) 0.55147(15)
C43_2 C 0.89088(10) 0.24763(7) 1.05147(15)
H21E H 0.6527 -0.1161 0.5923
H21_2 H 0.8839 0.2312 1.0923
C44E C 0.64453(11) -0.07497(9) 0.55248(16)
C44_2 C 0.92503(9) 0.28050(6) 1.05248(16)
H22E H 0.6548 -0.0591 0.5940
H22_2 H 0.9409 0.2861 1.0940
N1C N 0.5592(2) -0.0153(3) 0.7825(5)
N1E N 0.4255(4) -0.5592(2) 0.7825(5)
O14C O 0.6170 0.0045 0.8398
O14E O 0.3875 -0.6170 0.8398
O15C O 0.5936 0.0436 0.8321
O15E O 0.4500 -0.5936 0.8321
C45C C 0.5630 -0.0485 0.7870
C45E C 0.3885 -0.5630 0.7870
H23C H 0.5455 -0.0659 0.8245
H23E H 0.3886 -0.5455 0.8245
C46C C 0.6036 -0.0329 0.8149
C46E C 0.3635 -0.6036 0.8149
H24C H 0.6043 -0.0479 0.8565
H24E H 0.3478 -0.6043 0.8565
H25C H 0.6191 -0.0333 0.7738
H25E H 0.3476 -0.6191 0.7738
C47C C 0.5896 0.0128 0.8212
C47E C 0.4232 -0.5896 0.8212
C48C C 0.5558 -0.0677 0.7072
C48E C 0.3765 -0.5558 0.7072
H26C H 0.5726 -0.0492 0.6702
H26E H 0.3782 -0.5726 0.6702
C49C C 0.5155 -0.0831 0.6797
C49E C 0.4014 -0.5155 0.6797
H27C H 0.5116 -0.0972 0.6339
H27E H 0.3912 -0.5116 0.6339
H28C H 0.5111 -0.0628 0.6696
H28E H 0.4261 -0.5111 0.6696
H29C H 0.4985 -0.0989 0.7183
H29E H 0.4026 -0.4985 0.7183
C50C C 0.5640 -0.1001 0.7091
C50E C 0.3359 -0.5640 0.7091
H30C H 0.5574 -0.1128 0.6610
H30E H 0.3298 -0.5574 0.6610
H31C H 0.5496 -0.1172 0.7489
H31E H 0.3332 -0.5496 0.7489
H32C H 0.5900 -0.0905 0.7187
H32E H 0.3195 -0.5900 0.7187
C51? C 0.5189 -0.0421 0.9371
C52? C 0.4837 -0.1046 0.9433
C53? C 0.4759 -0.0910 0.8668
C54? C 0.4826 -0.1103 0.7972
C55? C 0.4646 -0.1063 0.7241
C56? C 0.5236 -0.0991 0.7839
H33? H 0.4610 -0.1175 0.9730
H34? H 0.4930 -0.1215 0.9340
H35? H 0.4501 -0.0962 0.8662
H36? H 0.4696 -0.1370 0.8090
H37? H 0.4700 -0.1179 0.6826
H38? H 0.4744 -0.0804 0.7130
H39? H 0.4381 -0.1182 0.7309
H40? H 0.5253 -0.1126 0.7411
H41? H 0.5332 -0.1048 0.8284
H42? H 0.5379 -0.0728 0.7738
N2? N 0.5010(2) -0.05130(12) 0.8584(4)
O16? O 0.5109 -0.0723 0.9833
O17? O 0.5410 -0.0102 0.9559
loop_
_geom_bond_atom_site_label_1
_geom_bond_atom_site_label_2
_geom_bond_site_symmetry_1
_geom_bond_site_symmetry_2
Zn1 O1 1_555 1_555
Zn2 O1 1_555 1_555
Zn3 O1 1_555 1_555
Zn4 O1 1_555 1_555
O2 C1 1_555 1_555
O3 C1 1_555 1_555
O4 Zn1 1_555 1_555
O5 Zn2 1_555 1_555
O6 Zn4 1_555 1_555
O7 Zn2 1_555 1_555
O8 Zn4 1_555 1_555
O9 Zn1 1_555 1_555
O10 C31 1_555 1_555
O11 C31 1_555 1_555
O12 C38 1_555 1_555
O13 C38 1_555 1_555
C1 C2 1_555 1_555
C2 C3 1_555 1_555
C3 C4 1_555 1_555
C4 C5 1_555 1_555
C5 C6 1_555 1_555
C6 H1 1_555 1_555
C7 C2 1_555 1_555
H2 C7 1_555 1_555
C8 O4 1_555 1_555
C9 O6 1_555 1_555
C10 C9 1_555 1_555
C11 C10 1_555 1_555
H3 C11 1_555 1_555
C12 C11 1_555 1_555
H4 C12 1_555 1_555
C13 C12 1_555 1_555
C14 C13 1_555 1_555
H5 C14 1_555 1_555
C15 C10 1_555 1_555
H6 C15 1_555 1_555
C16 C13 1_555 1_555
C17 C16 1_555 1_555
H7 C17 1_555 1_555
C18 O8 1_555 1_555
C19 C18 1_555 1_555
C20 C19 1_555 1_555
H8 C20 1_555 1_555
C21 C20 1_555 1_555
H9 C21 1_555 1_555
C22 C21 1_555 1_555
C23 C22 1_555 1_555
H10 C23 1_555 1_555
C24 C19 1_555 1_555
H11 C24 1_555 1_555
C25 C22 1_555 1_555
C26 C25 1_555 1_555
H12 C26 1_555 1_555
C27 C26 1_555 1_555
C28 C27 1_555 1_555
H13 C28 1_555 1_555
C29 C28 1_555 1_555
C30 C25 1_555 1_555
H14 C30 1_555 1_555
C31 C32 1_555 1_555
C32 C33 1_555 1_555
C33 H15 1_555 1_555
C34 C33 1_555 1_555
H16 C34 1_555 1_555
C35 C29 1_555 1_555
C36 C35 1_555 1_555
H17 C36 1_555 1_555
C37 C32 1_555 1_555
H18 C37 1_555 1_555
C38 C39 1_555 1_555
C39 C40 1_555 1_555
C40 H19 1_555 1_555
C41 C40 1_555 1_555
H20 C41 1_555 1_555
C42 C27 1_555 1_555
C43 C42 1_555 1_555
H21 C43 1_555 1_555
C44 C39 1_555 1_555
H22 C44 1_555 1_555
N1 C3 1_555 1_555
O14 C46 1_555 1_555
O15 C47 1_555 1_555
C45 N1 1_555 1_555
H23 C45 1_555 1_555
C46 C45 1_555 1_555
H24 C46 1_555 1_555
H25 C46 1_555 1_555
C47 N1 1_555 1_555
C48 C45 1_555 1_555
H26 C48 1_555 1_555
C49 C48 1_555 1_555
H27 C49 1_555 1_555
H28 C49 1_555 1_555
H29 C49 1_555 1_555
C50 C48 1_555 1_555
H30 C50 1_555 1_555
H31 C50 1_555 1_555
H32 C50 1_555 1_555
Zn1E O1E 1_555 1_555
Zn1D O13 1_555 1_555
Zn1C O4C 1_555 1_555
Zn1_2 O9_2 1_555 1_555
Zn1D_2 O13_2 1_555 1_555
Zn2C O2 1_555 1_555
Zn2E O1E 1_555 1_555
Zn2B O7B 1_555 1_555
Zn2A O7A 1_555 1_555
Zn2C_2 O5C 1_555 1_555
Zn2B_2 O2E 1_555 1_555
Zn2D O1D 1_555 1_555
Zn3D O12 1_555 1_555
Zn3C O3 1_555 1_555
Zn3_2 O10 1_555 1_555
Zn3E O10E 1_555 1_555
Zn3D_2 O12_2 1_555 1_555
Zn3E_2 O1E 1_555 1_555
Zn3B O3E 1_555 1_555
Zn4E O1E 1_555 1_555
Zn4_2 O11 1_555 1_555
Zn4B O6B 1_555 1_555
Zn4A O6A 1_555 1_555
Zn4E_2 O11E 1_555 1_555
Zn4_3 O8_2 1_555 1_555
Zn4D O1D 1_555 1_555
O1D Zn1D 1_555 1_555
O1C Zn2C 1_555 1_555
O1_2 Zn3_2 1_555 1_555
O2C Zn2 1_555 1_555
O2E C1E 1_555 1_555
O2B Zn2E 1_555 1_555
O3C Zn3 1_555 1_555
O3E C1E 1_555 1_555
O3A Zn3D 1_555 1_555
O4C C8C 1_555 1_555
O4E Zn1E 1_555 1_555
O4D Zn1D 1_555 1_555
O5C C8C 1_555 1_555
O5E Zn2E 1_555 1_555
O5C_2 Zn2C 1_555 1_555
O6B C9B 1_555 1_555
O6A C9A 1_555 1_555
O6E Zn4E 1_555 1_555
O6_2 Zn4_2 1_555 1_555
O7B C9B 1_555 1_555
O7A C9A 1_555 1_555
O7C Zn2C 1_555 1_555
O7E Zn2E 1_555 1_555
O8E Zn4E 1_555 1_555
O8_2 C18_2 1_555 1_555
O8_3 Zn4_2 1_555 1_555
O9E Zn1E 1_555 1_555
O9_2 C18_2 1_555 1_555
O9D Zn1D 1_555 1_555
O10E C31E 1_555 1_555
O10_2 Zn3 1_555 1_555
O10D Zn3D 1_555 1_555
O10C Zn3C 1_555 1_555
O11E C31E 1_555 1_555
O11_2 Zn4 1_555 1_555
O11E_2 Zn4E 1_555 1_555
O12E Zn3 1_555 1_555
O12_2 C38_2 1_555 1_555
O12B Zn3C 1_555 1_555
O13E Zn1 1_555 1_555
O13_2 C38_2 1_555 1_555
O13A Zn1E 1_555 1_555
C1C O2C 1_555 1_555
C1E C2E 1_555 1_555
C2C C1C 1_555 1_555
C2E C3E 1_555 1_555
C3C C2C 1_555 1_555
C3E C4E 1_555 1_555
C4C C3C 1_555 1_555
C4E C5E 1_555 1_555
C5C C4C 1_555 1_555
C5E C6E 1_555 1_555
C6C C5C 1_555 1_555
C6E H1E 1_555 1_555
H1C C6C 1_555 1_555
C7C C2C 1_555 1_555
C7E C2E 1_555 1_555
H2C C7C 1_555 1_555
H2E C7E 1_555 1_555
C8C C5C 1_555 1_555
C8E O4E 1_555 1_555
C9B C10B 1_555 1_555
C9A C10A 1_555 1_555
C10B C11B 1_555 1_555
C10A C11A 1_555 1_555
C11B H3B 1_555 1_555
C11A H3A 1_555 1_555
C12B C11B 1_555 1_555
C12A C11A 1_555 1_555
H4B C12B 1_555 1_555
H4A C12A 1_555 1_555
C13B C12B 1_555 1_555
C13A C12A 1_555 1_555
C14B C13B 1_555 1_555
C14A C13A 1_555 1_555
H5B C14B 1_555 1_555
H5A C14A 1_555 1_555
C15B C10B 1_555 1_555
C15A C10A 1_555 1_555
H6B C15B 1_555 1_555
H6A C15A 1_555 1_555
C16B C17 1_555 1_555
C16A C13A 1_555 1_555
C17B C16B 1_555 1_555
C17A C16 1_555 1_555
H7A C17A 1_555 1_555
H7B C17B 1_555 1_555
C18E O8E 1_555 1_555
C18_2 C19_2 1_555 1_555
C19E C18E 1_555 1_555
C19_2 C20_2 1_555 1_555
C20E C19E 1_555 1_555
C20_2 H8_2 1_555 1_555
H8E C20E 1_555 1_555
C21E C20E 1_555 1_555
C21_2 C20_2 1_555 1_555
H9E C21E 1_555 1_555
H9_2 C21_2 1_555 1_555
C22E C21E 1_555 1_555
C22_2 C21_2 1_555 1_555
C23E C22E 1_555 1_555
C23_2 C22_2 1_555 1_555
H10E C23E 1_555 1_555
H10_2 C23_2 1_555 1_555
C24E C19E 1_555 1_555
C24_2 C19_2 1_555 1_555
H11E C24E 1_555 1_555
H11_2 C24_2 1_555 1_555
C25E C22E 1_555 1_555
C25_2 C22_2 1_555 1_555
C26E C25E 1_555 1_555
C26_2 C25_2 1_555 1_555
H12E C26E 1_555 1_555
H12_2 C26_2 1_555 1_555
C27E C26E 1_555 1_555
C27_2 C26_2 1_555 1_555
C28E C27E 1_555 1_555
C28_2 C27_2 1_555 1_555
H13E C28E 1_555 1_555
H13_2 C28_2 1_555 1_555
C29E C28E 1_555 1_555
C29_2 C28_2 1_555 1_555
C30E C25E 1_555 1_555
C30_2 C25_2 1_555 1_555
H14E C30E 1_555 1_555
H14_2 C30_2 1_555 1_555
C31E C32E 1_555 1_555
C31_2 O10_2 1_555 1_555
C32E C33E 1_555 1_555
C32_2 C31_2 1_555 1_555
C33E H15E 1_555 1_555
C33_2 C32_2 1_555 1_555
H15_2 C33_2 1_555 1_555
C34E C33E 1_555 1_555
C34_2 C33_2 1_555 1_555
H16E C34E 1_555 1_555
H16_2 C34_2 1_555 1_555
C35E C29E 1_555 1_555
C35_2 C29_2 1_555 1_555
C36E C35E 1_555 1_555
C36_2 C35_2 1_555 1_555
H17E C36E 1_555 1_555
H17_2 C36_2 1_555 1_555
C37E C32E 1_555 1_555
C37_2 C32_2 1_555 1_555
H18E C37E 1_555 1_555
H18_2 C37_2 1_555 1_555
C38E O12E 1_555 1_555
C38_2 C39_2 1_555 1_555
C39E C38E 1_555 1_555
C39_2 C40_2 1_555 1_555
C40E C39E 1_555 1_555
C40_2 H19_2 1_555 1_555
H19E C40E 1_555 1_555
C41E C40E 1_555 1_555
C41_2 C40_2 1_555 1_555
H20E C41E 1_555 1_555
H20_2 C41_2 1_555 1_555
C42E C27E 1_555 1_555
C42_2 C27_2 1_555 1_555
C43E C42E 1_555 1_555
C43_2 C42_2 1_555 1_555
H21E C43E 1_555 1_555
H21_2 C43_2 1_555 1_555
C44E C39E 1_555 1_555
C44_2 C39_2 1_555 1_555
H22E C44E 1_555 1_555
H22_2 C44_2 1_555 1_555
N1C C3C 1_555 1_555
N1E C3E 1_555 1_555
O14C C46C 1_555 1_555
O14E C46E 1_555 1_555
O15C C47C 1_555 1_555
O15E C47E 1_555 1_555
C45C N1C 1_555 1_555
C45E N1E 1_555 1_555
H23C C45C 1_555 1_555
H23E C45E 1_555 1_555
C46C C45C 1_555 1_555
C46E C45E 1_555 1_555
H24C C46C 1_555 1_555
H24E C46E 1_555 1_555
H25C C46C 1_555 1_555
H25E C46E 1_555 1_555
C47C N1C 1_555 1_555
C47E N1E 1_555 1_555
C48C C45C 1_555 1_555
C48E C45E 1_555 1_555
H26C C48C 1_555 1_555
H26E C48E 1_555 1_555
C49C C48C 1_555 1_555
C49E C48E 1_555 1_555
H27C C49C 1_555 1_555
H27E C49E 1_555 1_555
H28C C49C 1_555 1_555
H28E C49E 1_555 1_555
H29C C49C 1_555 1_555
H29E C49E 1_555 1_555
C50C C48C 1_555 1_555
C50E C48E 1_555 1_555
H30C C50C 1_555 1_555
H30E C50E 1_555 1_555
H31C C50C 1_555 1_555
H31E C50E 1_555 1_555
H32C C50C 1_555 1_555
H32E C50E 1_555 1_555
O5 C8 1_555 1_555
O7 C9 1_555 1_555
O9 C18 1_555 1_555
C5 C8 1_555 1_555
C6 C7 1_555 1_555
C14 C15 1_555 1_555
C23 C24 1_555 1_555
C29 C30 1_555 1_555
C34 C35 1_555 1_555
C36 C37 1_555 1_555
C41 C42 1_555 1_555
C43 C44 1_555 1_555
O14 C47 1_555 1_555
Zn3D O1D 1_555 1_555
Zn3C O1C 1_555 1_555
Zn4_2 O1_2 1_555 1_555
O3C C1C 1_555 1_555
O5E C8E 1_555 1_555
O9E C18E 1_555 1_555
O11_2 C31_2 1_555 1_555
O13E C38E 1_555 1_555
C5E C8E 1_555 1_555
C6C C7C 1_555 1_555
C6E C7E 1_555 1_555
C13B C16B 1_555 1_555
C14B C15B 1_555 1_555
C14A C15A 1_555 1_555
C16A C17B 1_555 1_555
C16A C17A 1_555 1_555
C23E C24E 1_555 1_555
C23_2 C24_2 1_555 1_555
C29E C30E 1_555 1_555
C29_2 C30_2 1_555 1_555
C34E C35E 1_555 1_555
C34_2 C35_2 1_555 1_555
C36E C37E 1_555 1_555
C36_2 C37_2 1_555 1_555
C41E C42E 1_555 1_555
C41_2 C42_2 1_555 1_555
C43E C44E 1_555 1_555
C43_2 C44_2 1_555 1_555
O14C C47C 1_555 1_555
O14E C47E 1_555 1_555

#END
