
#######################################################################
#
#                 Cambridge Crystallographic Data Centre
#                                CCDC 
#
#######################################################################
#
# If this CIF has been generated from an entry in the Cambridge 
# Structural Database, then it will include bibliographic, chemical, 
# crystal, experimental, refinement or atomic coordinate data resulting 
# from the CCDC's data processing and validation procedures.
#
#######################################################################

data_UBULEK
_chemical_formula_moiety         
'(C162 H99 N3 O45 Zn12)n,60n(C5 H11 N1 O1),24n(H2 O1)'
_chemical_name_systematic        
'catena-[tetrakis(\m~6~-1,3,5-tris(4-Carboxylatophenyl)benzene)-tris(\m~4~-2-((S)-4-benzyl-2-oxo-1,3-oxazolidin-3-yl)benzene-1,4-dicarboxylato)-tris(\m~4~-oxo)-dodeca-zinc(ii) diethylformamide solvate tetracosahydrate]'
_symmetry_cell_setting           hexagonal
_symmetry_space_group_name_H-M   'P 63'
_symmetry_Int_Tables_number      173
_space_group_name_Hall           'P 6c'
loop_
_symmetry_equiv_pos_site_id
_symmetry_equiv_pos_as_xyz
1 x,y,z
2 x-y,x,1/2+z
3 -y,x-y,z
4 -x,-y,1/2+z
5 -x+y,-x,z
6 y,-x+y,1/2+z
_cell_length_a                   41.414(6)
_cell_length_b                   41.414(6)
_cell_length_c                   17.637(3)
_cell_angle_alpha                90
_cell_angle_beta                 90
_cell_angle_gamma                120
_cell_volume                     26196.9
_exptl_crystal_colour            colorless
_exptl_crystal_description       block
_cell_formula_units_Z            2
loop_
_atom_site_label
_atom_site_type_symbol
_atom_site_fract_x
_atom_site_fract_y
_atom_site_fract_z
Zn1 Zn 0.400685(15) 0.372064(14) 0.061371(16)
Zn2 Zn 0.424843(6) 0.321041(6) 0.15099(4)
Zn3 Zn 0.477434(6) 0.408633(6) 0.15056(4)
Zn4 Zn 0.400606(15) 0.371957(14) 0.240345(16)
O1 O 0.42622(3) 0.36883(3) 0.14927(17)
O2 O 0.51136(9) 0.55850(8) -0.26356(18)
O3 O 0.56288(11) 0.58240(10) -0.20298(19)
O4 O 0.43166(8) 0.41748(8) 0.00565(18)
O5 O 0.49002(11) 0.44169(10) 0.0624(2)
O6 O 0.05650(8) 0.38779(9) -0.19310(18)
O7 O 0.11115(8) 0.40367(7) -0.25837(15)
O8 O 0.35601(10) 0.37401(8) 0.21775(18)
O9 O 0.35456(11) 0.36892(8) 0.08752(17)
O10 O 0.05949(11) 0.39180(9) 0.49039(15)
O11 O 0.11188(11) 0.41177(11) 0.5476(2)
O12 O 0.47636(4) 0.33022(5) 0.1410(3)
O13 O 0.51307(4) 0.39151(5) 0.1465(3)
C1 C 0.53176(17) 0.55919(12) -0.2096(2)
C2 C 0.51600(13) 0.52980(12) -0.1501(2)
C3 C 0.53824(11) 0.52744(12) -0.0938(3)
C4 C 0.52265(13) 0.49898(12) -0.0404(2)
C5 C 0.48482(13) 0.47287(12) -0.0433(2)
C6 C 0.46775(15) 0.44139(13) 0.0151(3)
C7 C 0.46395(16) 0.47833(16) -0.0914(3)
C8 C 0.47959(16) 0.50674(17) -0.1449(4)
C9 C 0.09280(15) 0.39766(12) -0.1993(2)
C10 C 0.10637(8) 0.38805(7) -0.12327(12)
C11 C 0.08386(8) 0.37240(7) -0.05996(13)
H1 H 0.0587 0.3652 -0.0621
C12 C 0.09894(7) 0.36755(6) 0.00654(12)
H2 H 0.0839 0.3571 0.0489
C13 C 0.13655(5) 0.37835(4) 0.00975(11)
C14 C 0.15906(7) 0.39400(6) -0.05356(11)
H3 H 0.1842 0.4012 -0.0514
C15 C 0.14398(9) 0.39885(7) -0.12007(11)
H4 H 0.1590 0.4093 -0.1624
C16 C 0.15509(4) 0.37788(3) 0.08390(11)
C17 C 0.13952(6) 0.38057(4) 0.15175(11)
H5 H 0.1177 0.3818 0.1513
C18 C 0.15658(7) 0.38146(4) 0.22021(11)
C19 C 0.18920(6) 0.37965(4) 0.22081(12)
H6 H 0.2006 0.3802 0.2666
C20 C 0.20477(7) 0.37696(4) 0.15296(13)
C21 C 0.18771(7) 0.37607(3) 0.08450(12)
H7 H 0.1982 0.3743 0.0391
C22 C 0.34189(11) 0.37161(7) 0.1535(3)
C23 C 0.30582(9) 0.37219(5) 0.1527(2)
C24 C 0.28311(11) 0.36027(8) 0.08884(19)
H8 H 0.2901 0.3518 0.0465
C25 C 0.24988(11) 0.36094(8) 0.08823(19)
H9 H 0.2347 0.3530 0.0455
C26 C 0.23937(9) 0.37353(5) 0.1515(2)
C27 C 0.26209(10) 0.38545(7) 0.21531(18)
H10 H 0.2551 0.3939 0.2576
C28 C 0.29532(10) 0.38478(7) 0.21592(18)
H11 H 0.3106 0.3928 0.2586
C29 C 0.09013(15) 0.39588(16) 0.4928(3)
C30 C 0.10872(12) 0.39220(9) 0.42830(14)
C31 C 0.14685(12) 0.40536(11) 0.42574(16)
H12 H 0.1614 0.4157 0.4688
C32 C 0.16329(12) 0.40306(10) 0.35878(18)
H13 H 0.1888 0.4119 0.3571
C33 C 0.14160(12) 0.38760(9) 0.29438(14)
C34 C 0.10347(13) 0.37444(10) 0.29693(15)
H14 H 0.0890 0.3641 0.2538
C35 C 0.08703(13) 0.37674(10) 0.36389(16)
H15 H 0.0615 0.3679 0.3656
C36 C 0.50746(6) 0.35889(7) 0.1476(4)
C37 C 0.54072(4) 0.35377(5) 0.1524(2)
C38 C 0.53743(4) 0.32051(5) 0.1781(2)
H16 H 0.5146 0.3016 0.1960
C39 C 0.56822(4) 0.31552(4) 0.1770(2)
H17 H 0.5660 0.2933 0.1941
C40 C 0.60229(3) 0.34379(4) 0.1502(2)
C41 C 0.60558(4) 0.37704(4) 0.1246(2)
H18 H 0.6284 0.3960 0.1067
C42 C 0.57479(5) 0.38203(4) 0.1257(2)
H19 H 0.5770 0.4043 0.1085
C43 C 0.63569(6) 0.33802(6) 0.1647(4)
C44 C 0.67182(6) 0.36911(6) 0.1641(4)
H20 H 0.6751 0.3930 0.1633
N3 N 0.5771(3) 0.5530(4) -0.0787(10)
O18 O 0.6339 0.6019 -0.0333
O19 O 0.5793 0.6025 -0.0246
C65 C 0.5961 0.5869 -0.0457
C66 C 0.6428 0.5747 -0.0600
H41 H 0.6522 0.5662 -0.0187
H42 H 0.6618 0.5853 -0.0991
C67 C 0.6066 0.5418 -0.0924
H43 H 0.6001 0.5192 -0.0633
C68 C 0.6109 0.5348 -0.1769
H44 H 0.6185 0.5576 -0.2051
H45 H 0.6306 0.5287 -0.1815
C69 C 0.5758 0.5037 -0.2122
C70 C 0.5618 0.5102 -0.2797
H46 H 0.5744 0.5334 -0.3030
C71 C 0.5290 0.4819 -0.3120
H47 H 0.5196 0.4864 -0.3562
C72 C 0.5101 0.4467 -0.2780
H48 H 0.4881 0.4280 -0.2992
C73 C 0.5244 0.4397 -0.2122
H49 H 0.5120 0.4162 -0.1899
C74 C 0.5573 0.4679 -0.1798
H50 H 0.5669 0.4630 -0.1365
Zn1E Zn 0.372064(14) -0.028621(21) -0.438629(16)
Zn1A Zn 0.028621(21) 0.400685(15) 0.561371(16)
Zn1E_2 Zn 0.372064(14) -0.028621(21) 0.561371(16)
Zn1_2 Zn 0.400685(15) 0.372064(14) 1.061371(16)
Zn1C Zn 0.599315(15) 0.627936(14) 0.561371(16)
Zn2A Zn 0.103802(8) 0.424843(6) -0.34901(4)
Zn2_2 Zn 0.424843(6) 0.321041(6) -0.84901(4)
Zn2A_2 Zn 0.103802(8) 0.424843(6) 0.65099(4)
Zn2D Zn 0.896198(8) 0.575157(6) 0.15099(4)
Zn2B Zn 0.678959(6) 0.103802(8) 0.15099(4)
Zn2_3 Zn 0.424843(6) 0.321041(6) 1.15099(4)
Zn2E Zn 0.321041(6) -0.103802(8) -0.34901(4)
Zn3C Zn 0.522566(6) 0.591367(6) -0.34944(4)
Zn3E Zn 0.408633(6) -0.068801(8) -0.34944(4)
Zn3D Zn 0.931199(8) 0.522566(6) 0.15056(4)
Zn3B Zn 0.591367(6) 0.068801(8) 0.15056(4)
Zn3C_2 Zn 0.522566(6) 0.591367(6) 0.65056(4)
Zn3B_2 Zn 0.591367(6) 0.068801(8) -0.84944(4)
Zn3A Zn 0.068801(8) 0.477434(6) 0.65056(4)
Zn4C Zn 0.599394(15) 0.628043(14) -0.259655(16)
Zn4A Zn 0.028649(21) 0.400606(15) -0.259655(16)
Zn4_2 Zn 0.400606(15) 0.371957(14) -0.759655(16)
Zn4E Zn 0.371957(14) -0.028649(21) -0.259655(16)
Zn4E_2 Zn 0.371957(14) -0.028649(21) 0.740345(16)
Zn4B Zn 0.628043(14) 0.028649(21) -0.759655(16)
Zn4A_2 Zn 0.028649(21) 0.400606(15) 0.740345(16)
O1E O 0.36883(3) -0.05739(4) -0.35073(17)
O1A O 0.05739(4) 0.42622(3) 0.64927(17)
O1A_2 O 0.05739(4) 0.42622(3) -0.35073(17)
O1_2 O 0.42622(3) 0.36883(3) -0.85073(17)
O1C O 0.57378(3) 0.63117(3) -0.35073(17)
O2C O 0.48864(9) 0.44150(8) 0.23644(18)
O2E O 0.55850(8) 0.04714(12) -0.76356(18)
O2B O 0.44150(8) -0.04714(12) -0.26356(18)
O3C O 0.43712(11) 0.41760(10) 0.29702(19)
O3E O 0.58240(10) 0.01952(15) -0.70298(19)
O3D O 0.01952(15) 0.43712(11) -0.20298(19)
O4C O 0.56834(8) 0.58252(8) 0.50565(18)
O4E O 0.41748(8) -0.01418(11) -0.49435(18)
O4A O 0.01418(11) 0.43166(8) 0.50565(18)
O5C O 0.50998(11) 0.55831(10) 0.5624(2)
O5E O 0.44169(10) -0.04833(15) -0.4376(2)
O5C_2 O 0.50998(11) 0.55831(10) -0.4376(2)
O6E O 0.38779(9) 0.33129(12) -0.69310(18)
O6E_2 O 0.38779(9) 0.33129(12) 0.30690(18)
O6B O 0.61221(9) 0.66871(12) -0.19310(18)
O7E O 0.40367(7) 0.29252(11) -0.75837(15)
O7E_2 O 0.40367(7) 0.29252(11) 0.24163(15)
O8E O 0.37401(8) 0.01800(13) -0.28225(18)
O8E_2 O 0.37401(8) 0.01800(13) 0.71775(18)
O8C O 0.64399(10) 0.62599(8) -0.28225(18)
O8A O -0.01800(13) 0.35601(10) -0.28225(18)
O9E O 0.36892(8) 0.01436(14) -0.41248(17)
O9E_2 O 0.36892(8) 0.01436(14) 0.58752(17)
O9A O -0.01436(14) 0.35456(11) 0.58752(17)
O10E O 0.39180(9) 0.33231(14) -0.00961(15)
O10E_2 O 0.39180(9) 0.33231(14) 0.99039(15)
O10D O 0.33231(14) -0.05949(11) -0.50961(15)
O11E O 0.41177(11) 0.29989(16) 0.0476(2)
O11E_2 O 0.41177(11) 0.29989(16) 1.0476(2)
O11_2 O 0.11188(11) 0.41177(11) -0.4524(2)
O11E_3 O 0.41177(11) 0.29989(16) -0.9524(2)
O12D O 0.85386(6) 0.52364(4) 0.1410(3)
O12B O 0.66978(5) 0.14614(6) 0.1410(3)
O12A O 0.14614(6) 0.47636(4) -0.3590(3)
O12_2 O 0.47636(4) 0.33022(5) -0.8590(3)
O13D O 0.87844(6) 0.48693(4) 0.1465(3)
O13B O 0.60849(5) 0.12156(6) 0.1465(3)
O13C O 0.48693(4) 0.60849(5) -0.3535(3)
O13E O 0.39151(5) -0.12156(6) -0.3535(3)
C1C C 0.46824(17) 0.44081(12) 0.2904(2)
C1E C 0.55919(12) 0.02743(21) -0.7096(2)
C2C C 0.48400(13) 0.47020(12) 0.3499(2)
C2E C 0.52980(12) 0.01380(18) -0.6501(2)
C3C C 0.46176(11) 0.47256(12) 0.4062(3)
C3E C 0.52744(12) -0.01080(16) -0.5938(3)
C4C C 0.47735(13) 0.50102(12) 0.4596(2)
C4E C 0.49898(12) -0.02367(18) -0.5404(2)
C5C C 0.51518(13) 0.52713(12) 0.4567(2)
C5E C 0.47287(12) -0.01195(18) -0.5433(2)
C6C C 0.53225(15) 0.55861(13) 0.5151(3)
C6E C 0.44139(13) -0.02636(20) -0.4849(3)
C7C C 0.53605(16) 0.52167(16) 0.4086(3)
C7E C 0.47833(16) 0.01438(23) -0.5914(3)
C8C C 0.52041(16) 0.49326(17) 0.3551(4)
C8E C 0.50674(17) 0.02715(23) -0.6449(4)
C9E C 0.39766(12) 0.30486(19) -0.6993(2)
C9E_2 C 0.39766(12) 0.30486(19) 0.3007(2)
C10E C 0.38805(7) 0.28168(11) -0.62327(12)
C10E_2 C 0.38805(7) 0.28168(11) 0.37673(12)
C11E C 0.37240(7) 0.28854(11) -0.55996(13)
C11E_2 C 0.37240(7) 0.28854(11) 0.44004(13)
H1E H 0.3652 0.3065 -0.5621
H1E_2 H 0.3652 0.3065 0.4379
C12E C 0.36755(6) 0.26861(9) -0.49346(12)
C12E_2 C 0.36755(6) 0.26861(9) 0.50654(12)
H2E H 0.3571 0.2732 -0.4511
H2E_2 H 0.3571 0.2732 0.5489
C13E C 0.37835(4) 0.24180(6) -0.49025(11)
C13E_2 C 0.37835(4) 0.24180(6) 0.50975(11)
C14E C 0.39400(6) 0.23494(9) -0.55356(11)
C14E_2 C 0.39400(6) 0.23494(9) 0.44644(11)
H3E H 0.4012 0.2170 -0.5514
H3E_2 H 0.4012 0.2170 0.4486
C15E C 0.39885(7) 0.25487(11) -0.62007(11)
C15E_2 C 0.39885(7) 0.25487(11) 0.37993(11)
H4E H 0.4093 0.2503 -0.6624
H4E_2 H 0.4093 0.2503 0.3376
C16E C 0.37788(3) 0.22279(5) -0.41610(11)
C16E_2 C 0.37788(3) 0.22279(5) 0.58390(11)
C17E C 0.38057(4) 0.24105(7) -0.34825(11)
C17E_2 C 0.38057(4) 0.24105(7) 0.65175(11)
H5E H 0.3818 0.2641 -0.3487
H5E_2 H 0.3818 0.2641 0.6513
C18E C 0.38146(4) 0.22488(8) -0.27979(11)
C18E_2 C 0.38146(4) 0.22488(8) 0.72021(11)
C19E C 0.37965(4) 0.19045(7) -0.27919(12)
C19E_2 C 0.37965(4) 0.19045(7) 0.72081(12)
H6E H 0.3802 0.1796 -0.2334
H6E_2 H 0.3802 0.1796 0.7666
C20E C 0.37696(4) 0.17219(8) -0.34704(13)
C20E_2 C 0.37696(4) 0.17219(8) 0.65296(13)
C21E C 0.37607(3) 0.18836(8) -0.41550(12)
C21E_2 C 0.37607(3) 0.18836(8) 0.58450(12)
H7E H 0.3743 0.1761 -0.4609
H7E_2 H 0.3743 0.1761 0.5391
C22E C 0.37161(7) 0.02972(13) -0.3465(3)
C22E_2 C 0.37161(7) 0.02972(13) 0.6535(3)
C23E C 0.37219(5) 0.06637(10) -0.3473(2)
C23E_2 C 0.37219(5) 0.06637(10) 0.6527(2)
C24E C 0.36027(8) 0.07716(14) -0.41116(19)
C24E_2 C 0.36027(8) 0.07716(14) 0.58884(19)
H8E H 0.3518 0.0617 -0.4535
H8E_2 H 0.3518 0.0617 0.5465
C25E C 0.36094(8) 0.11106(14) -0.41177(19)
C25E_2 C 0.36094(8) 0.11106(14) 0.58823(19)
H9E H 0.3530 0.1183 -0.4545
H9E_2 H 0.3530 0.1183 0.5455
C26E C 0.37353(5) 0.13416(10) -0.3485(2)
C26E_2 C 0.37353(5) 0.13416(10) 0.6515(2)
C27E C 0.38545(7) 0.12336(12) -0.28469(18)
C27E_2 C 0.38545(7) 0.12336(12) 0.71531(18)
H10E H 0.3939 0.1388 -0.2424
H10E_2 H 0.3939 0.1388 0.7576
C28E C 0.38478(7) 0.08946(12) -0.28408(18)
C28E_2 C 0.38478(7) 0.08946(12) 0.71592(18)
H11E H 0.3928 0.0822 -0.2414
H11E_2 H 0.3928 0.0822 0.7586
C29E C 0.39588(16) 0.30575(22) -0.0072(3)
C29E_2 C 0.39588(16) 0.30575(22) 0.9928(3)
C30E C 0.39220(9) 0.28348(15) -0.07170(14)
C30E_2 C 0.39220(9) 0.28348(15) 0.92830(14)
C31E C 0.40536(11) 0.25851(16) -0.07426(16)
C31E_2 C 0.40536(11) 0.25851(16) 0.92574(16)
H12E H 0.4157 0.2543 -0.0312
H12E_2 H 0.4157 0.2543 0.9688
C32E C 0.40306(10) 0.23977(16) -0.14122(18)
C32E_2 C 0.40306(10) 0.23977(16) 0.85878(18)
H13E H 0.4119 0.2231 -0.1429
H13E_2 H 0.4119 0.2231 0.8571
C33E C 0.38760(9) 0.24600(15) -0.20562(14)
C33E_2 C 0.38760(9) 0.24600(15) 0.79438(14)
C34E C 0.37444(10) 0.27097(16) -0.20307(15)
C34E_2 C 0.37444(10) 0.27097(16) 0.79693(15)
H14E H 0.3641 0.2751 -0.2462
H14E_2 H 0.3641 0.2751 0.7538
C35E C 0.37674(10) 0.28971(16) -0.13611(16)
C35E_2 C 0.37674(10) 0.28971(16) 0.86389(16)
H15E H 0.3679 0.3064 -0.1344
H15E_2 H 0.3679 0.3064 0.8656
C36D C 0.85143(9) 0.49254(6) 0.1476(4)
C36B C 0.64111(7) 0.14857(9) 0.1476(4)
C37D C 0.81305(6) 0.45928(4) 0.1524(2)
C37B C 0.64623(5) 0.18695(6) 0.1524(2)
C38D C 0.78308(6) 0.46257(4) 0.1781(2)
C38B C 0.67949(5) 0.21692(6) 0.1781(2)
H16D H 0.7870 0.4854 0.1960
H16B H 0.6984 0.2130 0.1960
C39D C 0.74730(6) 0.43178(4) 0.1770(2)
C39B C 0.68448(4) 0.25270(6) 0.1770(2)
H17D H 0.7273 0.4340 0.1941
H17B H 0.7067 0.2727 0.1941
C40D C 0.74150(5) 0.39771(3) 0.1502(2)
C40B C 0.65621(4) 0.25850(5) 0.1502(2)
C41D C 0.77146(6) 0.39442(4) 0.1246(2)
C41B C 0.62296(4) 0.22854(6) 0.1246(2)
H18D H 0.7676 0.3716 0.1067
H18B H 0.6040 0.2324 0.1067
C42D C 0.80724(6) 0.42521(5) 0.1257(2)
C42B C 0.61797(4) 0.19276(6) 0.1257(2)
H19D H 0.8273 0.4230 0.1085
H19B H 0.5957 0.1727 0.1085
C43D C 0.70233(8) 0.36431(6) 0.1647(4)
C43B C 0.66198(6) 0.29767(8) 0.1647(4)
C44D C 0.69729(8) 0.32818(6) 0.1641(4)
C44B C 0.63089(6) 0.30271(8) 0.1641(4)
H20B H 0.6070 0.2821 0.1633
H20D H 0.7179 0.3249 0.1633
N3C N 0.4229(3) 0.4470(4) 0.4213(10)
N3E N 0.5530(4) -0.0241(5) -0.5787(10)
O18C O 0.3661 0.3981 0.4667
O18E O 0.6019 -0.0320 -0.5333
O19C O 0.4207 0.3975 0.4754
O19E O 0.6025 0.0232 -0.5246
C65C C 0.4039 0.4131 0.4543
C65E C 0.5869 -0.0092 -0.5457
C66C C 0.3572 0.4253 0.4400
C66E C 0.5747 -0.0681 -0.5600
H41C H 0.3478 0.4338 0.4813
H41E H 0.5662 -0.0860 -0.5187
H42C H 0.3382 0.4147 0.4009
H42E H 0.5853 -0.0765 -0.5991
C67C C 0.3934 0.4582 0.4076
C67E C 0.5418 -0.0648 -0.5924
H43C H 0.3999 0.4808 0.4367
H43E H 0.5192 -0.0809 -0.5633
C68C C 0.3891 0.4652 0.3231
C68E C 0.5348 -0.0761 -0.6769
H44C H 0.3815 0.4424 0.2949
H44E H 0.5576 -0.0609 -0.7051
H45C H 0.3694 0.4713 0.3185
H45E H 0.5287 -0.1019 -0.6815
C69C C 0.4242 0.4963 0.2878
C69E C 0.5037 -0.0721 -0.7122
C70C C 0.4382 0.4898 0.2203
C70E C 0.5102 -0.0516 -0.7797
H46C H 0.4256 0.4666 0.1970
H46E H 0.5334 -0.0410 -0.8030
C71C C 0.4710 0.5181 0.1880
C71E C 0.4819 -0.0471 -0.8120
H47C H 0.4804 0.5136 0.1438
H47E H 0.4864 -0.0332 -0.8562
C72C C 0.4899 0.5533 0.2220
C72E C 0.4467 -0.0634 -0.7780
H48C H 0.5119 0.5720 0.2008
H48E H 0.4280 -0.0601 -0.7992
C73C C 0.4756 0.5603 0.2878
C73E C 0.4397 -0.0847 -0.7122
H49C H 0.4880 0.5838 0.3101
H49E H 0.4162 -0.0958 -0.6899
C74C C 0.4427 0.5321 0.3202
C74E C 0.4679 -0.0894 -0.6798
H50C H 0.4331 0.5370 0.3635
H50E H 0.4630 -0.1039 -0.6365
N1? N 0.5462(6) 0.4981(6) 0.2904(9)
O14? O 0.5927 0.4858 0.2426
O15? O 0.5646 0.4601 0.3553
C45? C 0.5573 0.5164 0.2202
H21? H 0.5361 0.5057 0.1852
C46? C 0.5883 0.5094 0.1893
H22? H 0.5813 0.4974 0.1401
H23? H 0.6115 0.5328 0.1839
C47? C 0.5675 0.4792 0.3003
C48? C 0.5709 0.5582 0.2320
H24? H 0.5534 0.5608 0.2645
H25? H 0.5949 0.5700 0.2572
C49? C 0.5743 0.5777 0.1576
C50? C 0.5422 0.5697 0.1161
H26? H 0.5188 0.5520 0.1341
C51? C 0.5451 0.5882 0.0480
H27? H 0.5237 0.5827 0.0207
C52? C 0.5800 0.6150 0.0209
H28? H 0.5819 0.6273 -0.0244
C53? C 0.6122 0.6233 0.0619
H29? H 0.6354 0.6412 0.0438
C54? C 0.6094 0.6048 0.1301
H30? H 0.6308 0.6105 0.1572
N2? N 0.4538(6) 0.4985(6) 0.5218(12)
O16? O 0.4049 0.5017 0.5665
O17? O 0.4380 0.5392 0.4675
C55? C 0.4328 0.4633 0.5587
H31? H 0.4207 0.4424 0.5231
C56? C 0.4047 0.4706 0.6023
H32? H 0.3800 0.4489 0.6002
H33? H 0.4121 0.4763 0.6550
C57? C 0.4319 0.5136 0.5102
C58? C 0.4617 0.4610 0.6102
H34? H 0.4838 0.4670 0.5808
H35? H 0.4689 0.4791 0.6507
C59? C 0.4459 0.4225 0.6436
C60? C 0.4410 0.3926 0.5976
H36? H 0.4477 0.3967 0.5467
C61? C 0.4261 0.3567 0.6280
H37? H 0.4228 0.3370 0.5973
C62? C 0.4160 0.3504 0.7045
H38? H 0.4061 0.3266 0.7247
C63? C 0.4209 0.3800 0.7507
H39? H 0.4143 0.3758 0.8016
C64? C 0.4358 0.4158 0.7203
H40? H 0.4389 0.4354 0.7512
C75? C 0.6020 0.5682 0.3510
C76? C 0.6401 0.5739 0.3778
C77? C 0.5950 0.5316 0.4529
C78? C 0.6008 0.6049 0.3482
C79? C 0.6126 0.6237 0.2715
C80? C 0.6485 0.6354 0.2430
C81? C 0.6588 0.6514 0.1710
C82? C 0.6336 0.6564 0.1271
C83? C 0.5982 0.6458 0.1555
C84? C 0.5876 0.6295 0.2273
H51? H 0.5935 0.5540 0.3037
H52? H 0.6522 0.5683 0.3370
H53? H 0.6563 0.5996 0.3933
H54? H 0.5756 0.5996 0.3592
H55? H 0.6172 0.6218 0.3869
H56? H 0.6655 0.6324 0.2723
H57? H 0.6825 0.6587 0.1523
H58? H 0.6404 0.6668 0.0789
H59? H 0.5816 0.6496 0.1266
H60? H 0.5640 0.6225 0.2460
N4? N 0.5766(5) 0.5496(8) 0.4138(15)
O20? O 0.6331 0.5493 0.4403
O21? O 0.5800 0.5079 0.5019
loop_
_geom_bond_atom_site_label_1
_geom_bond_atom_site_label_2
_geom_bond_site_symmetry_1
_geom_bond_site_symmetry_2
Zn1 O1 1_555 1_555
Zn2 O1 1_555 1_555
Zn3 O1 1_555 1_555
Zn4 O1 1_555 1_555
O2 C1 1_555 1_555
O3 C1 1_555 1_555
O4 Zn1 1_555 1_555
O5 Zn3 1_555 1_555
O6 C9 1_555 1_555
O7 C9 1_555 1_555
O8 Zn4 1_555 1_555
O9 Zn1 1_555 1_555
O10 C29 1_555 1_555
O11 C29 1_555 1_555
O12 Zn2 1_555 1_555
O13 Zn3 1_555 1_555
C1 C2 1_555 1_555
C2 C3 1_555 1_555
C3 C4 1_555 1_555
C4 C5 1_555 1_555
C5 C6 1_555 1_555
C6 O4 1_555 1_555
C7 C5 1_555 1_555
C8 C2 1_555 1_555
C9 C10 1_555 1_555
C10 C11 1_555 1_555
C11 H1 1_555 1_555
C12 C11 1_555 1_555
H2 C12 1_555 1_555
C13 C12 1_555 1_555
C14 C13 1_555 1_555
H3 C14 1_555 1_555
C15 C10 1_555 1_555
H4 C15 1_555 1_555
C16 C13 1_555 1_555
C17 C16 1_555 1_555
H5 C17 1_555 1_555
C18 C17 1_555 1_555
C19 C18 1_555 1_555
H6 C19 1_555 1_555
C20 C19 1_555 1_555
C21 C16 1_555 1_555
H7 C21 1_555 1_555
C22 O8 1_555 1_555
C23 C22 1_555 1_555
C24 C23 1_555 1_555
H8 C24 1_555 1_555
C25 C24 1_555 1_555
H9 C25 1_555 1_555
C26 C20 1_555 1_555
C27 C26 1_555 1_555
H10 C27 1_555 1_555
C28 C23 1_555 1_555
H11 C28 1_555 1_555
C29 C30 1_555 1_555
C30 C31 1_555 1_555
C31 H12 1_555 1_555
C32 C31 1_555 1_555
H13 C32 1_555 1_555
C33 C18 1_555 1_555
C34 C33 1_555 1_555
H14 C34 1_555 1_555
C35 C30 1_555 1_555
H15 C35 1_555 1_555
C36 O12 1_555 1_555
C37 C36 1_555 1_555
C38 C37 1_555 1_555
H16 C38 1_555 1_555
C39 C38 1_555 1_555
H17 C39 1_555 1_555
C40 C39 1_555 1_555
C41 C40 1_555 1_555
H18 C41 1_555 1_555
C42 C37 1_555 1_555
H19 C42 1_555 1_555
C43 C40 1_555 1_555
C44 C43 1_555 1_555
H20 C44 1_555 1_555
N3 C3 1_555 1_555
O18 C65 1_555 1_555
O19 C65 1_555 1_555
C65 N3 1_555 1_555
C66 O18 1_555 1_555
H41 C66 1_555 1_555
H42 C66 1_555 1_555
C67 N3 1_555 1_555
H43 C67 1_555 1_555
C68 C67 1_555 1_555
H44 C68 1_555 1_555
H45 C68 1_555 1_555
C69 C68 1_555 1_555
C70 C69 1_555 1_555
H46 C70 1_555 1_555
C71 C70 1_555 1_555
H47 C71 1_555 1_555
C72 C71 1_555 1_555
H48 C72 1_555 1_555
C73 C72 1_555 1_555
H49 C73 1_555 1_555
C74 C69 1_555 1_555
H50 C74 1_555 1_555
Zn1E O1E 1_555 1_555
Zn1A O10 1_555 1_555
Zn1E_2 O9E_2 1_555 1_555
Zn1_2 O10E_2 1_555 1_555
Zn1C O4C 1_555 1_555
Zn2A O7 1_555 1_555
Zn2_2 O1_2 1_555 1_555
Zn2A_2 O11 1_555 1_555
Zn2D O12D 1_555 1_555
Zn2B O12B 1_555 1_555
Zn2_3 O11E_2 1_555 1_555
Zn2E O1E 1_555 1_555
Zn3C O2 1_555 1_555
Zn3E O1E 1_555 1_555
Zn3D O13D 1_555 1_555
Zn3B O13B 1_555 1_555
Zn3C_2 O5C 1_555 1_555
Zn3B_2 O2E 1_555 1_555
Zn3A O1A 1_555 1_555
Zn4C O3 1_555 1_555
Zn4A O6 1_555 1_555
Zn4_2 O1_2 1_555 1_555
Zn4E O1E 1_555 1_555
Zn4E_2 O8E_2 1_555 1_555
Zn4B O3E 1_555 1_555
Zn4A_2 O1A 1_555 1_555
O1A Zn1A 1_555 1_555
O1A_2 Zn2A 1_555 1_555
O1C Zn3C 1_555 1_555
O2C Zn3 1_555 1_555
O2E C1E 1_555 1_555
O2B Zn3E 1_555 1_555
O3C Zn4 1_555 1_555
O3E C1E 1_555 1_555
O3D Zn4A 1_555 1_555
O4C C6C 1_555 1_555
O4E Zn1E 1_555 1_555
O4A Zn1A 1_555 1_555
O5C C6C 1_555 1_555
O5E Zn3E 1_555 1_555
O5C_2 Zn3C 1_555 1_555
O6E Zn4_2 1_555 1_555
O6E_2 Zn4 1_555 1_555
O6B Zn4C 1_555 1_555
O7E Zn2_2 1_555 1_555
O7E_2 Zn2 1_555 1_555
O8E Zn4E 1_555 1_555
O8E_2 C22E_2 1_555 1_555
O8C Zn4C 1_555 1_555
O8A Zn4A 1_555 1_555
O9E Zn1E 1_555 1_555
O9E_2 C22E_2 1_555 1_555
O9A Zn1A 1_555 1_555
O10E Zn1 1_555 1_555
O10E_2 C29E_2 1_555 1_555
O10D Zn1E 1_555 1_555
O11E Zn2 1_555 1_555
O11E_2 C29E_2 1_555 1_555
O11_2 Zn2A 1_555 1_555
O11E_3 Zn2_2 1_555 1_555
O12D C36D 1_555 1_555
O12B C36B 1_555 1_555
O12A Zn2A 1_555 1_555
O12_2 Zn2_2 1_555 1_555
O13D C36D 1_555 1_555
O13B C36B 1_555 1_555
O13C Zn3C 1_555 1_555
O13E Zn3E 1_555 1_555
C1C O2C 1_555 1_555
C1E C2E 1_555 1_555
C2C C1C 1_555 1_555
C2E C3E 1_555 1_555
C3C C2C 1_555 1_555
C3E C4E 1_555 1_555
C4C C3C 1_555 1_555
C4E C5E 1_555 1_555
C5C C4C 1_555 1_555
C5E C6E 1_555 1_555
C6C C5C 1_555 1_555
C6E O4E 1_555 1_555
C7C C5C 1_555 1_555
C7E C5E 1_555 1_555
C8C C2C 1_555 1_555
C8E C2E 1_555 1_555
C9E O6E 1_555 1_555
C9E_2 O6E_2 1_555 1_555
C10E C9E 1_555 1_555
C10E_2 C9E_2 1_555 1_555
C11E C10E 1_555 1_555
C11E_2 C10E_2 1_555 1_555
H1E C11E 1_555 1_555
H1E_2 C11E_2 1_555 1_555
C12E C11E 1_555 1_555
C12E_2 C11E_2 1_555 1_555
H2E C12E 1_555 1_555
H2E_2 C12E_2 1_555 1_555
C13E C12E 1_555 1_555
C13E_2 C12E_2 1_555 1_555
C14E C13E 1_555 1_555
C14E_2 C13E_2 1_555 1_555
H3E C14E 1_555 1_555
H3E_2 C14E_2 1_555 1_555
C15E C10E 1_555 1_555
C15E_2 C10E_2 1_555 1_555
H4E C15E 1_555 1_555
H4E_2 C15E_2 1_555 1_555
C16E C13E 1_555 1_555
C16E_2 C13E_2 1_555 1_555
C17E C16E 1_555 1_555
C17E_2 C16E_2 1_555 1_555
H5E C17E 1_555 1_555
H5E_2 C17E_2 1_555 1_555
C18E C17E 1_555 1_555
C18E_2 C17E_2 1_555 1_555
C19E C18E 1_555 1_555
C19E_2 C18E_2 1_555 1_555
H6E C19E 1_555 1_555
H6E_2 C19E_2 1_555 1_555
C20E C19E 1_555 1_555
C20E_2 C19E_2 1_555 1_555
C21E C16E 1_555 1_555
C21E_2 C16E_2 1_555 1_555
H7E C21E 1_555 1_555
H7E_2 C21E_2 1_555 1_555
C22E O8E 1_555 1_555
C22E_2 C23E_2 1_555 1_555
C23E C22E 1_555 1_555
C23E_2 C24E_2 1_555 1_555
C24E C23E 1_555 1_555
C24E_2 H8E_2 1_555 1_555
H8E C24E 1_555 1_555
C25E C24E 1_555 1_555
C25E_2 C24E_2 1_555 1_555
H9E C25E 1_555 1_555
H9E_2 C25E_2 1_555 1_555
C26E C20E 1_555 1_555
C26E_2 C20E_2 1_555 1_555
C27E C26E 1_555 1_555
C27E_2 C26E_2 1_555 1_555
H10E C27E 1_555 1_555
H10E_2 C27E_2 1_555 1_555
C28E C23E 1_555 1_555
C28E_2 C23E_2 1_555 1_555
H11E C28E 1_555 1_555
H11E_2 C28E_2 1_555 1_555
C29E O10E 1_555 1_555
C29E_2 C30E_2 1_555 1_555
C30E C29E 1_555 1_555
C30E_2 C31E_2 1_555 1_555
C31E C30E 1_555 1_555
C31E_2 H12E_2 1_555 1_555
H12E C31E 1_555 1_555
C32E C31E 1_555 1_555
C32E_2 C31E_2 1_555 1_555
H13E C32E 1_555 1_555
H13E_2 C32E_2 1_555 1_555
C33E C18E 1_555 1_555
C33E_2 C18E_2 1_555 1_555
C34E C33E 1_555 1_555
C34E_2 C33E_2 1_555 1_555
H14E C34E 1_555 1_555
H14E_2 C34E_2 1_555 1_555
C35E C30E 1_555 1_555
C35E_2 C30E_2 1_555 1_555
H15E C35E 1_555 1_555
H15E_2 C35E_2 1_555 1_555
C36D C37D 1_555 1_555
C36B C37B 1_555 1_555
C37D C38D 1_555 1_555
C37B C38B 1_555 1_555
C38D H16D 1_555 1_555
C38B H16B 1_555 1_555
C39D C38D 1_555 1_555
C39B C38B 1_555 1_555
H17D C39D 1_555 1_555
H17B C39B 1_555 1_555
C40D C39D 1_555 1_555
C40B C39B 1_555 1_555
C41D C40D 1_555 1_555
C41B C40B 1_555 1_555
H18D C41D 1_555 1_555
H18B C41B 1_555 1_555
C42D C37D 1_555 1_555
C42B C37B 1_555 1_555
H19D C42D 1_555 1_555
H19B C42B 1_555 1_555
C43D C44 1_555 1_555
C43B C40B 1_555 1_555
C44D C43D 1_555 1_555
C44B C43 1_555 1_555
H20B C44B 1_555 1_555
H20D C44D 1_555 1_555
N3C C3C 1_555 1_555
N3E C3E 1_555 1_555
O18C C65C 1_555 1_555
O18E C65E 1_555 1_555
O19C C65C 1_555 1_555
O19E C65E 1_555 1_555
C65C N3C 1_555 1_555
C65E N3E 1_555 1_555
C66C O18C 1_555 1_555
C66E O18E 1_555 1_555
H41C C66C 1_555 1_555
H41E C66E 1_555 1_555
H42C C66C 1_555 1_555
H42E C66E 1_555 1_555
C67C N3C 1_555 1_555
C67E N3E 1_555 1_555
H43C C67C 1_555 1_555
H43E C67E 1_555 1_555
C68C C67C 1_555 1_555
C68E C67E 1_555 1_555
H44C C68C 1_555 1_555
H44E C68E 1_555 1_555
H45C C68C 1_555 1_555
H45E C68E 1_555 1_555
C69C C68C 1_555 1_555
C69E C68E 1_555 1_555
C70C C69C 1_555 1_555
C70E C69E 1_555 1_555
H46C C70C 1_555 1_555
H46E C70E 1_555 1_555
C71C C70C 1_555 1_555
C71E C70E 1_555 1_555
H47C C71C 1_555 1_555
H47E C71E 1_555 1_555
C72C C71C 1_555 1_555
C72E C71E 1_555 1_555
H48C C72C 1_555 1_555
H48E C72E 1_555 1_555
C73C C72C 1_555 1_555
C73E C72E 1_555 1_555
H49C C73C 1_555 1_555
H49E C73E 1_555 1_555
C74C C69C 1_555 1_555
C74E C69E 1_555 1_555
H50C C74C 1_555 1_555
H50E C74E 1_555 1_555
O5 C6 1_555 1_555
O9 C22 1_555 1_555
O13 C36 1_555 1_555
C7 C8 1_555 1_555
C14 C15 1_555 1_555
C20 C21 1_555 1_555
C25 C26 1_555 1_555
C27 C28 1_555 1_555
C32 C33 1_555 1_555
C34 C35 1_555 1_555
C41 C42 1_555 1_555
C66 C67 1_555 1_555
C73 C74 1_555 1_555
Zn2A_2 O1A 1_555 1_555
Zn4C O1C 1_555 1_555
Zn4A O1A_2 1_555 1_555
O3C C1C 1_555 1_555
O5E C6E 1_555 1_555
O7E C9E 1_555 1_555
O7E_2 C9E_2 1_555 1_555
O9E C22E 1_555 1_555
O11E C29E 1_555 1_555
C7C C8C 1_555 1_555
C7E C8E 1_555 1_555
C14E C15E 1_555 1_555
C14E_2 C15E_2 1_555 1_555
C20E C21E 1_555 1_555
C20E_2 C21E_2 1_555 1_555
C25E C26E 1_555 1_555
C25E_2 C26E_2 1_555 1_555
C27E C28E 1_555 1_555
C27E_2 C28E_2 1_555 1_555
C32E C33E 1_555 1_555
C32E_2 C33E_2 1_555 1_555
C34E C35E 1_555 1_555
C34E_2 C35E_2 1_555 1_555
C40D C43D 1_555 1_555
C41D C42D 1_555 1_555
C41B C42B 1_555 1_555
C43B C44D 1_555 1_555
C43B C44B 1_555 1_555
C66C C67C 1_555 1_555
C66E C67E 1_555 1_555
C73C C74C 1_555 1_555
C73E C74E 1_555 1_555

#END
