
#######################################################################
#
#                 Cambridge Crystallographic Data Centre
#                                CCDC 
#
#######################################################################
#
# If this CIF has been generated from an entry in the Cambridge 
# Structural Database, then it will include bibliographic, chemical, 
# crystal, experimental, refinement or atomic coordinate data resulting 
# from the CCDC's data processing and validation procedures.
#
#######################################################################

data_ITUVID
_chemical_name_common            'NOTT-211 dimethylformamide solvate dihydrate'
_chemical_formula_moiety         
'(C2 H8 N1 1+)n,n(C24 H14 In1 O8 1-),2n(C3 H7 N1 O1),2n(H2 O1)'
_chemical_name_systematic        
"catena-[Dimethylammonium (\m~4~-2',5'-dimethyl-1,1':4',1''-terphenyl-3,3'',5,5''-tetracarboxylato)-indium(iii) dimethylformamide solvate dihydrate]"
_symmetry_cell_setting           tetragonal
_symmetry_space_group_name_H-M   'P 42/m m c'
_symmetry_Int_Tables_number      131
_space_group_name_Hall           '-P 4c 2'
loop_
_symmetry_equiv_pos_site_id
_symmetry_equiv_pos_as_xyz
1 x,y,z
2 -x,-y,z
3 -y,x,1/2+z
4 y,-x,1/2+z
5 -x,y,-z
6 x,-y,-z
7 y,x,1/2-z
8 -y,-x,1/2-z
9 -x,-y,-z
10 x,y,-z
11 y,-x,1/2-z
12 -y,x,1/2-z
13 x,-y,z
14 -x,y,z
15 -y,-x,1/2+z
16 y,x,1/2+z
_cell_length_a                   9.9617(4)
_cell_length_b                   9.9617(4)
_cell_length_c                   26.747(2)
_cell_angle_alpha                90
_cell_angle_beta                 90
_cell_angle_gamma                90
_cell_volume                     2654.25
_exptl_crystal_colour            colorless
_exptl_crystal_description       octahedron
_cell_formula_units_Z            2
loop_
_atom_site_label
_atom_site_type_symbol
_atom_site_fract_x
_atom_site_fract_y
_atom_site_fract_z
In1 In 0.5000 0.5000 0.2500
O1 O 0.5000(11) 0.2608 0.2592(3)
O2 O 0.5000 0.3562(9) 0.1878(3)
C1 C 0.5000 0.2497(14) 0.2137(5)
C2 C 0.5000 0.1196(13) 0.1871(5)
C3 C 0.5000 0.0000 0.2122(7)
H1 H 0.5000 0.0000 0.2470
C4 C 0.5000 0.1194(13) 0.1337(5)
H2 H 0.5000 0.2003 0.1163
C5 C 0.5000 0.0000 0.1078(7)
C6 C 0.5000 0.0000 0.0512(7)
C7 C 0.389(2) 0.058(2) 0.0298(6)
C8 C 0.258(3) 0.117(5) 0.0477(17)
H3 H 0.2083 0.1500 0.0196
H4 H 0.2763 0.1896 0.0703
H5 H 0.2073 0.0491 0.0645
In1_2 In 0.5000 -0.5000 0.2500
In1B In 0.5000 0.5000 -0.2500
In1B_2 In 0.5000 -0.5000 -0.2500
O1A O 0.5000(11) -0.2608 0.2592(3)
O1D O 0.5000(11) 0.2608 -0.2592(3)
O1E O 0.5000(11) -0.2608 -0.2592(3)
O1A_2 O 0.5000(11) 0.7392 0.2592(3)
O1F O 0.2608 0.5000(11) 0.2408(3)
O1G O 0.7392 0.5000(11) 0.2408(3)
O2A O 0.5000 -0.3562(9) 0.1878(3)
O2D O 0.5000 0.3562(9) -0.1878(3)
O2E O 0.5000 -0.3562(9) -0.1878(3)
O2A_2 O 0.5000 0.6438(9) 0.1878(3)
O2F O 0.3562(9) 0.5000 0.3122(3)
O2G O 0.6438(9) 0.5000 0.3122(3)
C1A C 0.5000 -0.2497(14) 0.2137(5)
C1D C 0.5000 0.2497(14) -0.2137(5)
C1E C 0.5000 -0.2497(14) -0.2137(5)
C2A C 0.5000 -0.1196(13) 0.1871(5)
C2D C 0.5000 0.1196(13) -0.1871(5)
C2E C 0.5000 -0.1196(13) -0.1871(5)
C3D C 0.5000 0.0000 -0.2122(7)
H1D H 0.5000 0.0000 -0.2470
C4A C 0.5000 -0.1194(13) 0.1337(5)
C4D C 0.5000 0.1194(13) -0.1337(5)
C4E C 0.5000 -0.1194(13) -0.1337(5)
H2A H 0.5000 -0.2003 0.1163
H2E H 0.5000 -0.2003 -0.1163
H2D H 0.5000 0.2003 -0.1163
C5D C 0.5000 0.0000 -0.1078(7)
C6D C 0.5000 0.0000 -0.0512(7)
C7I C 0.389(2) 0.058(2) -0.0298(6)
C7H C 0.611(2) -0.058(2) -0.0298(6)
C7A C 0.611(2) -0.058(2) 0.0298(6)
C7L C 0.389(2) -0.058(2) 0.0298(6)
C7E C 0.389(2) -0.058(2) -0.0298(6)
C7M C 0.611(2) 0.058(2) 0.0298(6)
C7D C 0.611(2) 0.058(2) -0.0298(6)
C8H C 0.742(3) -0.117(5) -0.0477(17)
C8L C 0.258(3) -0.117(5) 0.0477(17)
C8M C 0.742(3) 0.117(5) 0.0477(17)
C8A C 0.742(3) -0.117(5) 0.0477(17)
C8E C 0.258(3) -0.117(5) -0.0477(17)
C8D C 0.742(3) 0.117(5) -0.0477(17)
C8I C 0.258(3) 0.117(5) -0.0477(17)
H3H H 0.7917 -0.1500 -0.0196
H3L H 0.2083 -0.1500 0.0196
H3M H 0.7917 0.1500 0.0196
H3A H 0.7917 -0.1500 0.0196
H3E H 0.2083 -0.1500 -0.0196
H3D H 0.7917 0.1500 -0.0196
H3I H 0.2083 0.1500 -0.0196
H4H H 0.7237 -0.1896 -0.0703
H4L H 0.2763 -0.1896 0.0703
H4M H 0.7237 0.1896 0.0703
H4A H 0.7237 -0.1896 0.0703
H4E H 0.2763 -0.1896 -0.0703
H4D H 0.7237 0.1896 -0.0703
H4I H 0.2763 0.1896 -0.0703
H5H H 0.7927 -0.0491 -0.0645
H5L H 0.2073 -0.0491 0.0645
H5M H 0.7927 0.0491 0.0645
H5A H 0.7927 -0.0491 0.0645
H5E H 0.2073 -0.0491 -0.0645
H5D H 0.7927 0.0491 -0.0645
H5I H 0.2073 0.0491 -0.0645
loop_
_geom_bond_atom_site_label_1
_geom_bond_atom_site_label_2
_geom_bond_site_symmetry_1
_geom_bond_site_symmetry_2
In1 O1 1_555 1_555
O1 C1 1_555 1_555
O2 In1 1_555 1_555
C1 O2 1_555 1_555
C2 C1 1_555 1_555
C3 C2 1_555 1_555
H1 C3 1_555 1_555
C4 C2 1_555 1_555
H2 C4 1_555 1_555
C5 C4 1_555 1_555
C6 C5 1_555 1_555
C7 C6 1_555 1_555
C8 C7 1_555 1_555
H3 C8 1_555 1_555
H4 C8 1_555 1_555
H5 C8 1_555 1_555
In1_2 O1A 1_555 1_555
In1B O1D 1_555 1_555
In1B_2 O1E 1_555 1_555
O1A C1A 1_555 1_555
O1D C1D 1_555 1_555
O1E C1E 1_555 1_555
O1A_2 In1 1_555 1_555
O1F In1 1_555 1_555
O1G In1 1_555 1_555
O2A In1_2 1_555 1_555
O2D In1B 1_555 1_555
O2E In1B_2 1_555 1_555
O2A_2 In1 1_555 1_555
O2F In1 1_555 1_555
O2G In1 1_555 1_555
C1A O2A 1_555 1_555
C1D O2D 1_555 1_555
C1E O2E 1_555 1_555
C2A C3 1_555 1_555
C2D C1D 1_555 1_555
C2E C1E 1_555 1_555
C3D C2D 1_555 1_555
H1D C3D 1_555 1_555
C4A C5 1_555 1_555
C4D C2D 1_555 1_555
C4E C2E 1_555 1_555
H2A C4A 1_555 1_555
H2E C4E 1_555 1_555
H2D C4D 1_555 1_555
C5D C4D 1_555 1_555
C6D C5D 1_555 1_555
C7I C7 1_555 1_555
C7H C6D 1_555 1_555
C7A C6 1_555 1_555
C7L C6 1_555 1_555
C7E C6D 1_555 1_555
C7M C6 1_555 1_555
C7D C6D 1_555 1_555
C8H C7H 1_555 1_555
C8L C7L 1_555 1_555
C8M C7M 1_555 1_555
C8A C7A 1_555 1_555
C8E C7E 1_555 1_555
C8D C7D 1_555 1_555
C8I C7I 1_555 1_555
H3H C8H 1_555 1_555
H3L C8L 1_555 1_555
H3M C8M 1_555 1_555
H3A C8A 1_555 1_555
H3E C8E 1_555 1_555
H3D C8D 1_555 1_555
H3I C8I 1_555 1_555
H4H C8H 1_555 1_555
H4L C8L 1_555 1_555
H4M C8M 1_555 1_555
H4A C8A 1_555 1_555
H4E C8E 1_555 1_555
H4D C8D 1_555 1_555
H4I C8I 1_555 1_555
H5H C8H 1_555 1_555
H5L C8L 1_555 1_555
H5M C8M 1_555 1_555
H5A C8A 1_555 1_555
H5E C8E 1_555 1_555
H5D C8D 1_555 1_555
H5I C8I 1_555 1_555
C7 C7L 1_555 1_555
C1A C2A 1_555 1_555
C2A C4A 1_555 1_555
C2E C3D 1_555 1_555
C4E C5D 1_555 1_555
C6D C7I 1_555 1_555
C7I C7E 1_555 1_555
C7H C7A 1_555 1_555
C7H C7D 1_555 1_555
C7A C7M 1_555 1_555
C7L C7E 1_555 1_555
C7M C7D 1_555 1_555

#END
