
#######################################################################
#
#                 Cambridge Crystallographic Data Centre
#                                CCDC 
#
#######################################################################
#
# If this CIF has been generated from an entry in the Cambridge 
# Structural Database, then it will include bibliographic, chemical, 
# crystal, experimental, refinement or atomic coordinate data resulting 
# from the CCDC's data processing and validation procedures.
#
#######################################################################

data_YUNJUO
_chemical_formula_moiety         '(C34 H20 Ca1 O8)n,1.45(Xe1)'
_chemical_name_systematic        
"catena-[(\m~6~-dihydrogen 4,4',4'',4'''-(benzene-2,3,5,6-tetrayl)tetrabenzoato)-calcium xenon hydrate]"
_symmetry_cell_setting           triclinic
_symmetry_space_group_name_H-M   'P -1'
_symmetry_Int_Tables_number      2
_space_group_name_Hall           '-P 1'
loop_
_symmetry_equiv_pos_site_id
_symmetry_equiv_pos_as_xyz
1 x,y,z
2 -x,-y,-z
_cell_length_a                   5.1812(3)
_cell_length_b                   10.7420(6)
_cell_length_c                   15.1224(6)
_cell_angle_alpha                82.466(4)
_cell_angle_beta                 84.928(4)
_cell_angle_gamma                82.691(5)
_cell_volume                     825.409
_exptl_crystal_colour            colorless
_exptl_crystal_description       prism
_cell_formula_units_Z            1
loop_
_atom_site_label
_atom_site_type_symbol
_atom_site_fract_x
_atom_site_fract_y
_atom_site_fract_z
C1 C -0.0158(5) 0.6297(3) 0.48541(17)
H1 H -0.0282 0.7193 0.4755
C2 C 0.0857(5) 0.5673(3) 0.56424(17)
C3 C 0.0997(5) 0.4348(3) 0.57933(17)
C4 C 0.1897(5) 0.3598(3) 0.66371(18)
C5 C 0.4160(6) 0.2736(3) 0.66223(18)
H2 H 0.5085 0.2589 0.6068
C6 C 0.5060(6) 0.2093(3) 0.74146(18)
H3 H 0.6636 0.1535 0.7402
C7 C 0.1337(5) 0.3083(3) 0.82434(18)
H4 H 0.0337 0.3178 0.8793
C8 C 0.0496(5) 0.3758(3) 0.74507(18)
H5 H -0.1054 0.4335 0.7465
C9 C 0.3660(5) 0.2264(3) 0.82281(17)
C10 C 0.4674(5) 0.1601(3) 0.90891(18)
C11 C 0.1734(5) 0.6431(3) 0.63030(17)
C12 C 0.4016(5) 0.6035(3) 0.67280(18)
H6 H 0.5134 0.5321 0.6558
C13 C 0.4676(5) 0.6677(3) 0.74000(18)
H7 H 0.6230 0.6395 0.7694
C14 C 0.3054(5) 0.7738(3) 0.76433(18)
C15 C 0.0828(6) 0.8175(3) 0.71869(18)
H8 H -0.0255 0.8910 0.7338
C16 C 0.0198(6) 0.7534(3) 0.65131(18)
H9 H -0.1290 0.7847 0.6191
C17 C 0.3591(6) 0.8354(3) 0.84231(18)
O1 O 0.3005(4) 0.14812(19) 0.97672(12)
O2 O 0.7037(4) 0.1233(2) 0.91043(14)
O3 O 0.1984(4) 0.9143(2) 0.87453(13)
O4 O 0.5872(4) 0.7974(2) 0.87251(14)
H10 H 0.6054 0.8356 0.9162
Ca1 Ca 0.0000 0.0000 1.0000
C1A C 0.0158(5) 0.3703(3) 0.51459(17)
H1A H 0.0282 0.2807 0.5245
C2A C -0.0857(5) 0.4327(3) 0.43576(17)
C3A C -0.0997(5) 0.5652(3) 0.42067(17)
C4A C -0.1897(5) 0.6402(3) 0.33629(18)
C5A C -0.4160(6) 0.7264(3) 0.33777(18)
H2A H -0.5085 0.7411 0.3932
C6A C -0.5060(6) 0.7907(3) 0.25854(18)
H3A H -0.6636 0.8465 0.2598
C7A C -0.1337(5) 0.6917(3) 0.17566(18)
H4A H -0.0337 0.6822 0.1207
C8A C -0.0496(5) 0.6242(3) 0.25493(18)
H5A H 0.1054 0.5665 0.2535
C9A C -0.3660(5) 0.7736(3) 0.17719(17)
C10A C -0.4674(5) 0.8399(3) 0.09109(18)
C11A C -0.1734(5) 0.3569(3) 0.36970(17)
C12A C -0.4016(5) 0.3965(3) 0.32720(18)
H6A H -0.5134 0.4679 0.3442
C13A C -0.4676(5) 0.3323(3) 0.26000(18)
H7A H -0.6230 0.3605 0.2306
C14A C -0.3054(5) 0.2262(3) 0.23567(18)
C15A C -0.0828(6) 0.1825(3) 0.28131(18)
H8A H 0.0255 0.1090 0.2662
C16A C -0.0198(6) 0.2466(3) 0.34869(18)
H9A H 0.1290 0.2153 0.3809
C17A C -0.3591(6) 0.1646(3) 0.15769(18)
O1A O -0.3005(4) 0.85188(19) 0.02328(12)
O2A O -0.7037(4) 0.8767(2) 0.08957(14)
O3A O -0.1984(4) 0.0857(2) 0.12547(13)
O4A O -0.5872(4) 0.2026(2) 0.12749(14)
H10A H -0.6054 0.1644 0.0838
O1A_2 O -0.3005(4) -0.14812(19) 1.02328(12)
O2_2 O -0.2963(4) 0.1233(2) 0.91043(14)
O2A_2 O 0.2963(4) -0.1233(2) 1.08957(14)
O3_2 O 0.1984(4) -0.0857(2) 0.87453(13)
O3A_2 O -0.1984(4) 0.0857(2) 1.12547(13)
Ca1_2 Ca -1.0000 1.0000 0.0000
Ca1_3 Ca 0.0000 0.0000 0.0000
Ca1_4 Ca 0.0000 1.0000 0.0000
Ca1_5 Ca 0.0000 1.0000 1.0000
Ca1_6 Ca 1.0000 0.0000 1.0000
Xe1 Xe 0.5000 1.0000 0.5000
Xe2 Xe 0.5000 0.5000 1.0000
loop_
_geom_bond_atom_site_label_1
_geom_bond_atom_site_label_2
_geom_bond_site_symmetry_1
_geom_bond_site_symmetry_2
C1 H1 1_555 1_555
C2 C1 1_555 1_555
C3 C2 1_555 1_555
C4 C3 1_555 1_555
C5 C4 1_555 1_555
H2 C5 1_555 1_555
C6 C5 1_555 1_555
H3 C6 1_555 1_555
C7 H4 1_555 1_555
C8 C4 1_555 1_555
H5 C8 1_555 1_555
C9 C6 1_555 1_555
C10 C9 1_555 1_555
C11 C2 1_555 1_555
C12 C11 1_555 1_555
H6 C12 1_555 1_555
C13 C12 1_555 1_555
H7 C13 1_555 1_555
C14 C13 1_555 1_555
C15 C14 1_555 1_555
H8 C15 1_555 1_555
C16 C11 1_555 1_555
H9 C16 1_555 1_555
C17 C14 1_555 1_555
O1 C10 1_555 1_555
O2 C10 1_555 1_555
O3 C17 1_555 1_555
O4 C17 1_555 1_555
H10 O4 1_555 1_555
Ca1 O1 1_555 1_555
C1A C3 1_555 1_555
H1A C1A 1_555 1_555
C2A C1A 1_555 1_555
C3A C1 1_555 1_555
C4A C3A 1_555 1_555
C5A C4A 1_555 1_555
H2A C5A 1_555 1_555
C6A C5A 1_555 1_555
H3A C6A 1_555 1_555
C7A H4A 1_555 1_555
C8A C4A 1_555 1_555
H5A C8A 1_555 1_555
C9A C6A 1_555 1_555
C10A C9A 1_555 1_555
C11A C2A 1_555 1_555
C12A C11A 1_555 1_555
H6A C12A 1_555 1_555
C13A C12A 1_555 1_555
H7A C13A 1_555 1_555
C14A C13A 1_555 1_555
C15A C14A 1_555 1_555
H8A C15A 1_555 1_555
C16A C11A 1_555 1_555
H9A C16A 1_555 1_555
C17A C14A 1_555 1_555
O1A C10A 1_555 1_555
O2A C10A 1_555 1_555
O3A C17A 1_555 1_555
O4A C17A 1_555 1_555
H10A O4A 1_555 1_555
O1A_2 Ca1 1_555 1_555
O2_2 Ca1 1_555 1_555
O2A_2 Ca1 1_555 1_555
O3_2 Ca1 1_555 1_555
O3A_2 Ca1 1_555 1_555
Ca1_2 O2A 1_555 1_555
Ca1_3 O3A 1_555 1_555
Ca1_4 O1A 1_555 1_555
Ca1_5 O3 1_555 1_555
Ca1_6 O2 1_555 1_555
C7 C8 1_555 1_555
C7 C9 1_555 1_555
C15 C16 1_555 1_555
C2A C3A 1_555 1_555
C7A C8A 1_555 1_555
C7A C9A 1_555 1_555
C15A C16A 1_555 1_555

#END
