
#######################################################################
#
#                 Cambridge Crystallographic Data Centre
#                                CCDC 
#
#######################################################################
#
# If this CIF has been generated from an entry in the Cambridge 
# Structural Database, then it will include bibliographic, chemical, 
# crystal, experimental, refinement or atomic coordinate data resulting 
# from the CCDC's data processing and validation procedures.
#
#######################################################################

data_YUNJIC
_chemical_formula_moiety         '(C34 H20 Ca1 O8)n,2.66(H2 O1)'
_chemical_name_systematic        
"catena-[(\m~6~-dihydrogen 4,4',4'',4'''-(benzene-2,3,5,6-tetrayl)tetrabenzoato)-calcium hydrate]"
_symmetry_cell_setting           triclinic
_symmetry_space_group_name_H-M   'P -1'
_symmetry_Int_Tables_number      2
_space_group_name_Hall           '-P 1'
loop_
_symmetry_equiv_pos_site_id
_symmetry_equiv_pos_as_xyz
1 x,y,z
2 -x,-y,-z
_cell_length_a                   5.1594(2)
_cell_length_b                   11.0274(6)
_cell_length_c                   15.2740(8)
_cell_angle_alpha                83.310(4)
_cell_angle_beta                 87.657(4)
_cell_angle_gamma                83.128(4)
_cell_volume                     856.573
_exptl_crystal_colour            colorless
_exptl_crystal_description       prism
_cell_formula_units_Z            1
loop_
_atom_site_label
_atom_site_type_symbol
_atom_site_fract_x
_atom_site_fract_y
_atom_site_fract_z
O1 O 0.803(17) 0.493(3) 1.000(3)
O2 O 0.359(4) 0.983(3) 0.5136(18)
C1 C -0.0205(4) 0.62540(18) 0.49055(12)
H1 H -0.0354 0.7108 0.4842
C2 C 0.0772(3) 0.56208(18) 0.56894(12)
C3 C 0.0966(3) 0.43266(18) 0.57848(12)
C4 C 0.1850(4) 0.35600(18) 0.66135(12)
C5 C 0.4092(4) 0.2719(2) 0.66040(13)
H2 H 0.4994 0.2605 0.6075
C6 C 0.4980(4) 0.2050(2) 0.73822(13)
H3 H 0.6516 0.1516 0.7373
C7 C 0.3611(4) 0.21700(18) 0.81700(12)
C8 C 0.1324(4) 0.2970(2) 0.81692(13)
H4 H 0.0349 0.3040 0.8690
C9 C 0.0486(4) 0.3661(2) 0.74008(13)
H5 H -0.1031 0.4207 0.7414
C10 C 0.4645(4) 0.15020(18) 0.90198(13)
C11 C 0.1573(4) 0.63353(18) 0.63892(12)
C12 C 0.3858(4) 0.5962(2) 0.68448(14)
H6 H 0.4973 0.5290 0.6689
C13 C 0.4487(4) 0.6582(2) 0.75268(14)
H7 H 0.6021 0.6321 0.7828
C14 C 0.2855(4) 0.75895(19) 0.77679(13)
C15 C 0.0614(4) 0.7989(2) 0.72950(13)
H8 H -0.0476 0.8676 0.7439
C16 C -0.0002(4) 0.7370(2) 0.66113(13)
H9 H -0.1498 0.7651 0.6294
C17 C 0.3387(4) 0.8206(2) 0.85421(14)
O3 O 0.3048(2) 0.14197(12) 0.96794(8)
O4 O 0.6983(3) 0.10958(15) 0.90423(10)
O5 O 0.1818(3) 0.89816(15) 0.88325(10)
O6 O 0.5686(3) 0.78465(17) 0.88719(11)
H10 H 0.5869 0.8218 0.9296
Ca1 Ca 0.0000 0.0000 1.0000
C1A C 0.0205(4) 0.37460(18) 0.50945(12)
H1A H 0.0354 0.2892 0.5158
C2A C -0.0772(3) 0.43792(18) 0.43106(12)
C3A C -0.0966(3) 0.56734(18) 0.42152(12)
C4A C -0.1850(4) 0.64400(18) 0.33865(12)
C5A C -0.4092(4) 0.7281(2) 0.33960(13)
H2A H -0.4994 0.7395 0.3925
C6A C -0.4980(4) 0.7950(2) 0.26178(13)
H3A H -0.6516 0.8484 0.2627
C7A C -0.3611(4) 0.78300(18) 0.18300(12)
C8A C -0.1324(4) 0.7030(2) 0.18308(13)
H4A H -0.0349 0.6960 0.1310
C9A C -0.0486(4) 0.6339(2) 0.25992(13)
H5A H 0.1031 0.5793 0.2586
C10A C -0.4645(4) 0.84980(18) 0.09802(13)
C11A C -0.1573(4) 0.36647(18) 0.36108(12)
C12A C -0.3858(4) 0.4038(2) 0.31552(14)
H6A H -0.4973 0.4710 0.3311
C13A C -0.4487(4) 0.3418(2) 0.24732(14)
H7A H -0.6021 0.3679 0.2172
C14A C -0.2855(4) 0.24105(19) 0.22321(13)
C15A C -0.0614(4) 0.2011(2) 0.27050(13)
H8A H 0.0476 0.1324 0.2561
C16A C 0.0002(4) 0.2630(2) 0.33887(13)
H9A H 0.1498 0.2349 0.3706
C17A C -0.3387(4) 0.1794(2) 0.14579(14)
O3A O -0.3048(2) 0.85803(12) 0.03206(8)
O4A O -0.6983(3) 0.89042(15) 0.09577(10)
O5A O -0.1818(3) 0.10184(15) 0.11675(10)
O6A O -0.5686(3) 0.21535(17) 0.11281(11)
H10A H -0.5869 0.1782 0.0704
O3A_2 O -0.3048(2) -0.14197(12) 1.03206(8)
O4_2 O -0.3017(3) 0.10958(15) 0.90423(10)
O4A_2 O 0.3017(3) -0.10958(15) 1.09577(10)
O5_2 O 0.1818(3) -0.10184(15) 0.88325(10)
O5A_2 O -0.1818(3) 0.10184(15) 1.11675(10)
Ca1_2 Ca -1.0000 1.0000 0.0000
Ca1_3 Ca 0.0000 0.0000 0.0000
Ca1_4 Ca 0.0000 1.0000 0.0000
Ca1_5 Ca 0.0000 1.0000 1.0000
Ca1_6 Ca 1.0000 0.0000 1.0000
O7? O 0.628(14) 0.463(4) 0.974(3)
O8? O 1.019(7) 0.554(3) 0.962(2)
loop_
_geom_bond_atom_site_label_1
_geom_bond_atom_site_label_2
_geom_bond_site_symmetry_1
_geom_bond_site_symmetry_2
C1 H1 1_555 1_555
C2 C1 1_555 1_555
C3 C2 1_555 1_555
C4 C3 1_555 1_555
C5 C4 1_555 1_555
H2 C5 1_555 1_555
C6 C5 1_555 1_555
H3 C6 1_555 1_555
C7 C6 1_555 1_555
C8 C7 1_555 1_555
H4 C8 1_555 1_555
C9 C4 1_555 1_555
H5 C9 1_555 1_555
C10 C7 1_555 1_555
C11 C2 1_555 1_555
C12 C11 1_555 1_555
H6 C12 1_555 1_555
C13 C12 1_555 1_555
H7 C13 1_555 1_555
C14 C13 1_555 1_555
C15 C14 1_555 1_555
H8 C15 1_555 1_555
C16 C11 1_555 1_555
H9 C16 1_555 1_555
C17 C14 1_555 1_555
O3 C10 1_555 1_555
O4 C10 1_555 1_555
O5 C17 1_555 1_555
O6 C17 1_555 1_555
H10 O6 1_555 1_555
Ca1 O3 1_555 1_555
C1A C3 1_555 1_555
H1A C1A 1_555 1_555
C2A C1A 1_555 1_555
C3A C1 1_555 1_555
C4A C3A 1_555 1_555
C5A C4A 1_555 1_555
H2A C5A 1_555 1_555
C6A C5A 1_555 1_555
H3A C6A 1_555 1_555
C7A C6A 1_555 1_555
C8A C7A 1_555 1_555
H4A C8A 1_555 1_555
C9A C4A 1_555 1_555
H5A C9A 1_555 1_555
C10A C7A 1_555 1_555
C11A C2A 1_555 1_555
C12A C11A 1_555 1_555
H6A C12A 1_555 1_555
C13A C12A 1_555 1_555
H7A C13A 1_555 1_555
C14A C13A 1_555 1_555
C15A C14A 1_555 1_555
H8A C15A 1_555 1_555
C16A C11A 1_555 1_555
H9A C16A 1_555 1_555
C17A C14A 1_555 1_555
O3A C10A 1_555 1_555
O4A C10A 1_555 1_555
O5A C17A 1_555 1_555
O6A C17A 1_555 1_555
H10A O6A 1_555 1_555
O3A_2 Ca1 1_555 1_555
O4_2 Ca1 1_555 1_555
O4A_2 Ca1 1_555 1_555
O5_2 Ca1 1_555 1_555
O5A_2 Ca1 1_555 1_555
Ca1_2 O4A 1_555 1_555
Ca1_3 O5A 1_555 1_555
Ca1_4 O3A 1_555 1_555
Ca1_5 O5 1_555 1_555
Ca1_6 O4 1_555 1_555
C8 C9 1_555 1_555
C15 C16 1_555 1_555
C2A C3A 1_555 1_555
C8A C9A 1_555 1_555
C15A C16A 1_555 1_555

#END
