
#######################################################################
#
#                 Cambridge Crystallographic Data Centre
#                                CCDC 
#
#######################################################################
#
# If this CIF has been generated from an entry in the Cambridge 
# Structural Database, then it will include bibliographic, chemical, 
# crystal, experimental, refinement or atomic coordinate data resulting 
# from the CCDC's data processing and validation procedures.
#
#######################################################################

data_YOPZIN
_chemical_formula_moiety         '(C36 H20 N6 O8 Zn2)n,n(C3 H7 N1 O1)'
_chemical_name_systematic        
"catena-(bis(\m~4~-Naphthalene-2,6-dicarboxylato-O,O',O'',O''')-(\m~2~-3,6-bis(4-pyridyl)-1,2,4,5-tetrazine-N,N')-di-zinc N,N-dimethylformamide solvate)"
_symmetry_cell_setting           triclinic
_symmetry_space_group_name_H-M   'P -1'
_symmetry_Int_Tables_number      2
_space_group_name_Hall           '-P 1'
loop_
_symmetry_equiv_pos_site_id
_symmetry_equiv_pos_as_xyz
1 x,y,z
2 -x,-y,-z
_cell_length_a                   7.815(2)
_cell_length_b                   10.746(3)
_cell_length_c                   13.028(5)
_cell_angle_alpha                70.845(7)
_cell_angle_beta                 72.778(4)
_cell_angle_gamma                88.703(5)
_cell_volume                     983.806
_exptl_crystal_colour            pink
_exptl_crystal_description       block
_cell_formula_units_Z            1
loop_
_atom_site_label
_atom_site_type_symbol
_atom_site_fract_x
_atom_site_fract_y
_atom_site_fract_z
C1 C 0.5551(16) 0.6666(12) 0.3146(10)
H1 H 0.5664 0.5809 0.3631
H2 H 0.8201 0.6988 0.2507
C2 C 0.6936(18) 0.8591(14) 0.1643(12)
C3 C 0.525(2) 0.9054(15) 0.1715(13)
H3 H 0.5108 0.9905 0.1231
C4 C 0.3749(19) 0.8221(13) 0.2529(11)
H4 H 0.2583 0.8522 0.2587
C5 C 0.8563(19) 0.9381(14) 0.0792(12)
C6 C 0.1776(16) 0.2946(12) 0.5162(10)
C7 C 0.2770(15) 0.1712(11) 0.5173(10)
C8 C 0.1759(16) 0.0547(12) 0.5415(11)
H5 H 0.0486 0.0529 0.5615
C9 C 0.2610(16) -0.0598(11) 0.5364(11)
H6 H 0.1921 -0.1383 0.5497
C10 C 0.4524(15) -0.0587(11) 0.5113(10)
C11 C 0.4605(14) 0.1764(10) 0.4897(9)
H7 H 0.5286 0.2571 0.4716
C12 C -0.0561(16) 0.4712(11) 0.3216(10)
C13 C -0.0548(17) 0.4626(12) 0.2078(10)
C14 C -0.1570(19) 0.3604(13) 0.2045(11)
H8 H -0.2303 0.2982 0.2736
C15 C -0.1522(19) 0.3492(13) 0.1022(11)
H9 H -0.2164 0.2764 0.1002
C16 C -0.0490(17) 0.4484(14) -0.0029(10)
C17 C 0.0474(16) 0.5570(12) 0.1110(10)
H10 H 0.1166 0.6255 0.1155
C18 C 0.714(2) 0.742(2) 0.2424(13)
N1 N 0.8477(18) 1.0613(13) 0.0186(15)
N2 N 0.3910(13) 0.7018(13) 0.3223(9)
N3 N 1.005(3) 0.8730(19) 0.097(3)
O1 O 0.2694(11) 0.4040(7) 0.4724(7)
O2 O 0.0106(11) 0.2788(8) 0.5560(8)
O3 O 0.0686(11) 0.5422(9) 0.3229(7)
O4 O -0.1821(11) 0.4094(8) 0.4090(6)
Zn1 Zn 0.17074(16) 0.58406(12) 0.43768(10)
C1A C 1.4449(16) 1.3334(12) -0.3146(10)
H1A H 1.4336 1.4191 -0.3631
H2A H 1.1799 1.3012 -0.2507
C2A C 1.3064(18) 1.1409(14) -0.1643(12)
C3A C 1.475(2) 1.0946(15) -0.1715(13)
H3A H 1.4892 1.0095 -0.1231
C4A C 1.6251(19) 1.1779(13) -0.2529(11)
H4A H 1.7417 1.1478 -0.2587
C5A C 1.1437(19) 1.0619(14) -0.0792(12)
C6A C 0.8224(16) -0.2946(12) 0.4838(10)
C7A C 0.7230(15) -0.1712(11) 0.4827(10)
C8A C 0.8241(16) -0.0547(12) 0.4585(11)
H5A H 0.9514 -0.0529 0.4385
C9A C 0.7390(16) 0.0598(11) 0.4636(11)
H6A H 0.8079 0.1383 0.4503
C10A C 0.5476(15) 0.0587(11) 0.4887(10)
C11A C 0.5395(14) -0.1764(10) 0.5103(9)
H7A H 0.4714 -0.2571 0.5284
C12A C 0.0561(16) 0.5288(11) -0.3216(10)
C13A C 0.0548(17) 0.5374(12) -0.2078(10)
C14A C 0.1570(19) 0.6396(13) -0.2045(11)
H8A H 0.2303 0.7018 -0.2736
C15A C 0.1522(19) 0.6508(13) -0.1022(11)
H9A H 0.2164 0.7236 -0.1002
C16A C 0.0490(17) 0.5516(14) 0.0029(10)
C17A C -0.0474(16) 0.4430(12) -0.1110(10)
H10A H -0.1166 0.3745 -0.1155
C18A C 1.286(2) 1.258(2) -0.2424(13)
N1A N 1.1523(18) 0.9387(13) -0.0186(15)
N2A N 1.6090(13) 1.2982(13) -0.3223(9)
N2A_2 N 0.6090(13) -0.7018(13) 0.6777(9)
N3A N 0.995(3) 1.1270(19) -0.097(3)
O1A O 0.7306(11) -0.4040(7) 0.5276(7)
O2A O 0.9894(11) -0.2788(8) 0.4440(8)
O2A_2 O -0.0106(11) 0.7212(8) 0.4440(8)
O2_2 O 1.0106(11) -0.7212(8) 0.5560(8)
O3A O -0.0686(11) 0.4578(9) -0.3229(7)
O3A_2 O 0.9314(11) -0.5422(9) 0.6771(7)
O4A O 0.1821(11) 0.5906(8) -0.4090(6)
O4A_2 O 0.1821(11) 0.5906(8) 0.5910(6)
O4_2 O 0.8179(11) -0.5906(8) 0.4090(6)
Zn1A Zn 1.82926(16) 1.41594(12) -0.43768(10)
Zn1A_2 Zn -0.17074(16) 0.41594(12) 0.56232(10)
Zn1A_3 Zn 0.82926(16) -0.58406(12) 0.56232(10)
Zn1_2 Zn 1.17074(16) -0.41594(12) 0.43768(10)
Zn1A_4 Zn -0.17074(16) 0.41594(12) -0.43768(10)
Zn1_3 Zn 0.17074(16) 0.58406(12) -0.56232(10)
C19? C 0.747(3) 0.801(2) 0.2229(16)
N4? N 0.408(2) 0.6394(18) 0.3396(13)
N5? N 1.006(2) 0.8715(18) 0.051(2)
loop_
_geom_bond_atom_site_label_1
_geom_bond_atom_site_label_2
_geom_bond_site_symmetry_1
_geom_bond_site_symmetry_2
C1 H1 1_555 1_555
H2 C18 1_555 1_555
C2 C3 1_555 1_555
C3 H3 1_555 1_555
C4 C3 1_555 1_555
H4 C4 1_555 1_555
C5 C2 1_555 1_555
C6 C7 1_555 1_555
C7 C8 1_555 1_555
C8 H5 1_555 1_555
C9 C8 1_555 1_555
H6 C9 1_555 1_555
C10 C9 1_555 1_555
C11 C7 1_555 1_555
H7 C11 1_555 1_555
C12 C13 1_555 1_555
C13 C14 1_555 1_555
C14 H8 1_555 1_555
C15 C14 1_555 1_555
H9 C15 1_555 1_555
C16 C15 1_555 1_555
C17 C13 1_555 1_555
H10 C17 1_555 1_555
C18 C1 1_555 1_555
N1 C5 1_555 1_555
N2 C1 1_555 1_555
N3 C5 1_555 1_555
O1 C6 1_555 1_555
O2 C6 1_555 1_555
O3 C12 1_555 1_555
O4 C12 1_555 1_555
Zn1 N2 1_555 1_555
C1A H1A 1_555 1_555
H2A C18A 1_555 1_555
C2A C3A 1_555 1_555
C3A H3A 1_555 1_555
C4A C3A 1_555 1_555
H4A C4A 1_555 1_555
C5A C2A 1_555 1_555
C6A C7A 1_555 1_555
C7A C8A 1_555 1_555
C8A H5A 1_555 1_555
C9A C8A 1_555 1_555
H6A C9A 1_555 1_555
C10A C10 1_555 1_555
C11A C10 1_555 1_555
H7A C11A 1_555 1_555
C12A C13A 1_555 1_555
C13A C14A 1_555 1_555
C14A H8A 1_555 1_555
C15A C14A 1_555 1_555
H9A C15A 1_555 1_555
C16A C16 1_555 1_555
C17A C16 1_555 1_555
H10A C17A 1_555 1_555
C18A C1A 1_555 1_555
N1A N3 1_555 1_555
N2A C1A 1_555 1_555
N2A_2 Zn1A_3 1_555 1_555
N3A N1 1_555 1_555
O1A C6A 1_555 1_555
O2A C6A 1_555 1_555
O2A_2 Zn1 1_555 1_555
O2_2 Zn1A_3 1_555 1_555
O3A C12A 1_555 1_555
O3A_2 Zn1A_3 1_555 1_555
O4A C12A 1_555 1_555
O4A_2 Zn1 1_555 1_555
O4_2 Zn1A_3 1_555 1_555
Zn1A N2A 1_555 1_555
Zn1A_2 O2 1_555 1_555
Zn1A_3 O1A 1_555 1_555
Zn1_2 O2A 1_555 1_555
Zn1A_4 O3A 1_555 1_555
Zn1_3 O4A 1_555 1_555
C2 C18 1_555 1_555
C4 N2 1_555 1_555
C11 C10A 1_555 1_555
C17 C16A 1_555 1_555
O1 Zn1 1_555 1_555
O3 Zn1 1_555 1_555
O4 Zn1A_2 1_555 1_555
C2A C18A 1_555 1_555
C4A N2A 1_555 1_555
C5A N1A 1_555 1_555
C5A N3A 1_555 1_555
C7A C11A 1_555 1_555
C9A C10A 1_555 1_555
C13A C17A 1_555 1_555
C15A C16A 1_555 1_555

#END
