
#######################################################################
#
#                 Cambridge Crystallographic Data Centre
#                                CCDC 
#
#######################################################################
#
# If this CIF has been generated from an entry in the Cambridge 
# Structural Database, then it will include bibliographic, chemical, 
# crystal, experimental, refinement or atomic coordinate data resulting 
# from the CCDC's data processing and validation procedures.
#
#######################################################################

data_GEVRUW
_chemical_formula_moiety         '(C28 H30 N4 O2 Zn1 2+)n,2n(N1 O3 1-)'
_chemical_name_systematic        
"catena-((\m~2~-4,4'-Ethane-1,2-diylbis(N-(pyridin-2-ylmethylene)aniline))-dimethanol-zinc(ii) dinitrate unknown clathrate)"
_symmetry_cell_setting           monoclinic
_symmetry_space_group_name_H-M   'C 2/c'
_symmetry_Int_Tables_number      15
_space_group_name_Hall           '-C 2yc'
loop_
_symmetry_equiv_pos_site_id
_symmetry_equiv_pos_as_xyz
1 x,y,z
2 -x,y,1/2-z
3 1/2+x,1/2+y,z
4 1/2-x,1/2+y,1/2-z
5 -x,-y,-z
6 x,-y,1/2+z
7 1/2-x,1/2-y,-z
8 1/2+x,1/2-y,1/2+z
_cell_length_a                   17.746(5)
_cell_length_b                   12.105(4)
_cell_length_c                   15.306(5)
_cell_angle_alpha                90
_cell_angle_beta                 90.244(7)
_cell_angle_gamma                90
_cell_volume                     3287.93
_exptl_crystal_colour            yellow
_exptl_crystal_description       block
_cell_formula_units_Z            4
loop_
_atom_site_label
_atom_site_type_symbol
_atom_site_fract_x
_atom_site_fract_y
_atom_site_fract_z
_atom_site_U_iso_or_equiv
_atom_site_thermal_displace_type
N3 N 0.7927(9) 0.2573(12) 0.0207(9) 0.1085 Uani
O2 O 0.7327(7) 0.3153(6) 0.0414(3) 0.1711 Uani
O3 O 0.8596(10) 0.2441(12) 0.0556(8) 0.1884 Uani
N3F N 0.7073(9) 0.2427(12) -0.0207(9) 0.1085 Uani
O2F O 0.7673(7) 0.1847(6) -0.0414(3) 0.1711 Uani
O3F O 0.6404(10) 0.2559(12) -0.0556(8) 0.1884 Uani
N4 N 1.0000 0.0208(7) 0.2500 0.1639 Uani
O4 O 0.9485(3) -0.0295(4) 0.2896(5) 0.0563 Uani
O5 O 0.9666(7) 0.1162(9) 0.2313(8) 0.2190 Uiso
O4A O 1.0515(3) -0.0295(4) 0.2104(5) 0.0563 Uani
O5A O 1.0334(7) 0.1162(9) 0.2687(8) 0.2190 Uiso
C1 C 0.67443(19) 0.1875(3) 0.2245(2) 0.0400 Uani
H1 H 0.6612 0.2526 0.1959 0.0480 Uiso
C2 C 0.7498(2) 0.1553(3) 0.2255(3) 0.0482 Uani
H2 H 0.7859 0.1979 0.1974 0.0580 Uiso
C3 C 0.7702(2) 0.0607(4) 0.2681(3) 0.0515 Uani
H3 H 0.8203 0.0381 0.2689 0.0620 Uiso
C4 C 0.7149(2) -0.0021(3) 0.3108(2) 0.0420 Uani
H4 H 0.7273 -0.0664 0.3408 0.0500 Uiso
C5 C 0.64084(17) 0.0350(3) 0.3064(2) 0.0325 Uani
C6 C 0.57889(17) -0.0276(3) 0.34857(19) 0.0311 Uani
H5 H 0.5885 -0.0942 0.3769 0.0370 Uiso
C7 C 0.44992(17) -0.0505(3) 0.37903(19) 0.0315 Uani
C8 C 0.39275(19) 0.0067(3) 0.4225(2) 0.0366 Uani
H6 H 0.3980 0.0817 0.4341 0.0440 Uiso
C9 C 0.3278(2) -0.0491(3) 0.4483(2) 0.0436 Uani
H7 H 0.2902 -0.0108 0.4777 0.0520 Uiso
C10 C 0.3183(2) -0.1607(3) 0.4310(2) 0.0448 Uani
C11 C 0.3768(2) -0.2179(3) 0.3879(3) 0.0477 Uani
H8 H 0.3717 -0.2930 0.3766 0.0570 Uiso
C12 C 0.4419(2) -0.1630(3) 0.3622(2) 0.0385 Uani
H9 H 0.4800 -0.2014 0.3337 0.0460 Uiso
C13 C 0.2459(2) -0.2204(4) 0.4575(3) 0.0560 Uani
H10 H 0.2054 -0.1670 0.4620 0.0680 Uiso
H11 H 0.2323 -0.2731 0.4124 0.0680 Uiso
C14 C 0.4739(4) 0.2691(5) 0.0758(4) 0.0891 Uani
H12 H 0.4575 0.1951 0.0638 0.1340 Uiso
H13 H 0.5075 0.2931 0.0306 0.1340 Uiso
H14 H 0.4310 0.3174 0.0776 0.1340 Uiso
N1 N 0.62022(15) 0.1281(2) 0.26310(18) 0.0320 Uani
N2 N 0.51174(14) 0.0121(2) 0.34513(16) 0.0287 Uani
O1 O 0.51094(16) 0.2718(2) 0.15552(18) 0.0488 Uani
Zn1 Zn 0.5000 0.14922(4) 0.2500 0.0304 Uani
C1F C -0.17443(19) -0.6875(3) 0.7755(2) 0.0400 Uani
H1F H -0.1612 -0.7526 0.8041 0.0480 Uiso
C2F C -0.2498(2) -0.6553(3) 0.7745(3) 0.0482 Uani
H2F H -0.2859 -0.6979 0.8026 0.0580 Uiso
C3F C -0.2702(2) -0.5607(4) 0.7319(3) 0.0515 Uani
H3F H -0.3203 -0.5381 0.7311 0.0620 Uiso
C4F C -0.2149(2) -0.4979(3) 0.6892(2) 0.0420 Uani
H4F H -0.2273 -0.4336 0.6592 0.0500 Uiso
C5F C -0.14084(17) -0.5350(3) 0.6936(2) 0.0325 Uani
C6F C -0.07889(17) -0.4724(3) 0.65143(19) 0.0311 Uani
H5F H -0.0885 -0.4058 0.6231 0.0370 Uiso
C7F C 0.05008(17) -0.4495(3) 0.62097(19) 0.0315 Uani
C8F C 0.10725(19) -0.5067(3) 0.5775(2) 0.0366 Uani
H6F H 0.1020 -0.5817 0.5659 0.0440 Uiso
C9F C 0.1722(2) -0.4509(3) 0.5517(2) 0.0436 Uani
H7F H 0.2098 -0.4892 0.5223 0.0520 Uiso
C10F C 0.1817(2) -0.3393(3) 0.5690(2) 0.0448 Uani
C11F C 0.1232(2) -0.2821(3) 0.6121(3) 0.0477 Uani
H8F H 0.1283 -0.2070 0.6234 0.0570 Uiso
C12F C 0.0581(2) -0.3370(3) 0.6378(2) 0.0385 Uani
H9F H 0.0200 -0.2986 0.6663 0.0460 Uiso
C13F C 0.2541(2) -0.2796(4) 0.5425(3) 0.0560 Uani
H10F H 0.2946 -0.3330 0.5380 0.0680 Uiso
H11F H 0.2677 -0.2269 0.5876 0.0680 Uiso
N1F N -0.12022(15) -0.6281(2) 0.73690(18) 0.0320 Uani
N2F N -0.01174(14) -0.5121(2) 0.65487(16) 0.0287 Uani
C14A C 0.5261(4) 0.2691(5) 0.4242(4) 0.0891 Uani
H12A H 0.5425 0.1951 0.4362 0.1340 Uiso
H13A H 0.4925 0.2931 0.4694 0.1340 Uiso
H14A H 0.5690 0.3174 0.4224 0.1340 Uiso
O1A O 0.48906(16) 0.2718(2) 0.34448(18) 0.0488 Uani
N1A N 0.37978(15) 0.1281(2) 0.23690(18) 0.0320 Uani
N2A N 0.48826(14) 0.0121(2) 0.15487(16) 0.0287 Uani
Zn1F Zn 0.0000 -0.64922(4) 0.7500 0.0304 Uani
loop_
_atom_site_aniso_label
_atom_site_aniso_U_11
_atom_site_aniso_U_22
_atom_site_aniso_U_33
_atom_site_aniso_U_23
_atom_site_aniso_U_13
_atom_site_aniso_U_12
N3 0.150(11) 0.098(8) 0.078(8) 0.025(7) 0.072(9) -0.003(9)
O2 0.326(13) 0.119(5) 0.068(3) 0.007(3) -0.030(5) -0.111(7)
O3 0.244(16) 0.205(13) 0.117(8) -0.100(9) 0.109(10) -0.199(14)
N3F 0.15 0.098 0.078 0.025 0.072 -0.003
O2F 0.326 0.119 0.068 0.007 -0.03 -0.111
O3F 0.244 0.205 0.117 -0.1 0.109 -0.199
N4 0.256(16) 0.042(4) 0.193(12) 0.000 -0.064(11) 0.000
O4 0.040(3) 0.026(2) 0.103(5) 0.014(3) 0.019(3) 0.020(2)
O4A 0.04 0.026 0.103 -0.014 0.019 -0.02
C1 0.0329(17) 0.0464(18) 0.0408(18) 0.0049(14) 0.0048(14) -0.0107(14)
C2 0.0336(18) 0.062(2) 0.049(2) -0.0007(17) 0.0110(17) -0.0133(15)
C3 0.0254(16) 0.069(3) 0.060(2) -0.003(2) 0.0060(16) 0.0020(16)
C4 0.0305(16) 0.0486(19) 0.0469(19) -0.0003(15) 0.0046(14) 0.0044(14)
C5 0.0279(14) 0.0368(15) 0.0327(15) -0.0011(12) 0.0052(12) -0.0014(12)
C6 0.0297(15) 0.0336(15) 0.0301(14) 0.0044(11) 0.0054(12) 0.0006(12)
C7 0.0289(14) 0.0390(16) 0.0268(13) 0.0051(12) 0.0065(12) -0.0059(12)
C8 0.0350(16) 0.0419(17) 0.0331(16) 0.0005(13) 0.0095(13) -0.0042(13)
C9 0.0327(16) 0.061(2) 0.0371(17) 0.0050(16) 0.0128(14) -0.0033(15)
C10 0.0378(19) 0.060(2) 0.0368(18) 0.0117(15) 0.0061(15) -0.0161(15)
C11 0.046(2) 0.048(2) 0.049(2) 0.0058(16) 0.0040(17) -0.0162(16)
C12 0.0394(18) 0.0384(17) 0.0377(17) 0.0024(13) 0.0102(15) -0.0041(13)
C13 0.041(2) 0.079(3) 0.048(2) 0.014(2) 0.0049(17) -0.0208(19)
C14 0.102(5) 0.088(4) 0.077(3) 0.024(3) -0.022(3) -0.001(3)
N1 0.0259(12) 0.0376(13) 0.0324(13) 0.0010(11) 0.0044(10) -0.0037(10)
N2 0.0281(12) 0.0303(12) 0.0277(12) -0.0011(9) 0.0065(10) -0.0018(10)
O1 0.0544(15) 0.0425(14) 0.0494(14) 0.0121(11) 0.0002(12) -0.0047(12)
Zn1 0.0261(3) 0.0292(3) 0.0358(3) 0.000 0.0039(2) 0.000
C1F 0.0329 0.0464 0.0408 0.0049 0.0048 -0.0107
C2F 0.0336 0.062 0.049 -0.0007 0.011 -0.0133
C3F 0.0254 0.069 0.06 -0.003 0.006 0.002
C4F 0.0305 0.0486 0.0469 -0.0003 0.0046 0.0044
C5F 0.0279 0.0368 0.0327 -0.0011 0.0052 -0.0014
C6F 0.0297 0.0336 0.0301 0.0044 0.0054 0.0006
C7F 0.0289 0.039 0.0268 0.0051 0.0065 -0.0059
C8F 0.035 0.0419 0.0331 0.0005 0.0095 -0.0042
C9F 0.0327 0.061 0.0371 0.005 0.0128 -0.0033
C10F 0.0378 0.06 0.0368 0.0117 0.0061 -0.0161
C11F 0.046 0.048 0.049 0.0058 0.004 -0.0162
C12F 0.0394 0.0384 0.0377 0.0024 0.0102 -0.0041
C13F 0.041 0.079 0.048 0.014 0.0049 -0.0208
N1F 0.0259 0.0376 0.0324 0.001 0.0044 -0.0037
N2F 0.0281 0.0303 0.0277 -0.0011 0.0065 -0.0018
C14A 0.102 0.088 0.077 -0.024 -0.022 0.001
O1A 0.0544 0.0425 0.0494 -0.0121 0.0002 0.0047
N1A 0.0259 0.0376 0.0324 -0.001 0.0044 0.0037
N2A 0.0281 0.0303 0.0277 0.0011 0.0065 0.0018
Zn1F 0.0261 0.0292 0.0358 0 0.0039 0
loop_
_geom_bond_atom_site_label_1
_geom_bond_atom_site_label_2
_geom_bond_site_symmetry_1
_geom_bond_site_symmetry_2
C1 H1 1_555 1_555
C2 C1 1_555 1_555
H2 C2 1_555 1_555
C3 C2 1_555 1_555
H3 C3 1_555 1_555
C4 C3 1_555 1_555
H4 C4 1_555 1_555
C5 C4 1_555 1_555
C6 C5 1_555 1_555
H5 C6 1_555 1_555
C7 C8 1_555 1_555
C8 H6 1_555 1_555
C9 C8 1_555 1_555
H7 C9 1_555 1_555
C10 C9 1_555 1_555
C11 C10 1_555 1_555
H8 C11 1_555 1_555
C12 C7 1_555 1_555
H9 C12 1_555 1_555
C13 C10 1_555 1_555
H10 C13 1_555 1_555
H11 C13 1_555 1_555
C14 H12 1_555 1_555
H13 C14 1_555 1_555
H14 C14 1_555 1_555
N1 C1 1_555 1_555
N2 C6 1_555 1_555
O1 C14 1_555 1_555
Zn1 N1 1_555 1_555
N3 O2 1_555 1_555
O2 N3F 1_555 1_555
O3 N3 1_555 1_555
N4 O4 1_555 1_555
O5 N4 1_555 1_555
C1F H1F 1_555 1_555
C2F C1F 1_555 1_555
H2F C2F 1_555 1_555
C3F C2F 1_555 1_555
H3F C3F 1_555 1_555
C4F C3F 1_555 1_555
H4F C4F 1_555 1_555
C5F C4F 1_555 1_555
C6F C5F 1_555 1_555
H5F C6F 1_555 1_555
C7F C8F 1_555 1_555
C8F H6F 1_555 1_555
C9F C8F 1_555 1_555
H7F C9F 1_555 1_555
C10F C9F 1_555 1_555
C11F C10F 1_555 1_555
H8F C11F 1_555 1_555
C12F C7F 1_555 1_555
H9F C12F 1_555 1_555
C13F C13 1_555 1_555
H10F C13F 1_555 1_555
H11F C13F 1_555 1_555
N1F C1F 1_555 1_555
N2F C6F 1_555 1_555
C14A H12A 1_555 1_555
H13A C14A 1_555 1_555
H14A C14A 1_555 1_555
O1A Zn1 1_555 1_555
N1A Zn1 1_555 1_555
N2A Zn1 1_555 1_555
Zn1F N1F 1_555 1_555
N3F N3 1_555 1_555
O2F N3 1_555 1_555
O3F N3F 1_555 1_555
O4A N4 1_555 1_555
O5A N4 1_555 1_555
C5 N1 1_555 1_555
C7 N2 1_555 1_555
C11 C12 1_555 1_555
N2 Zn1 1_555 1_555
O1 Zn1 1_555 1_555
O5 O5A 1_555 1_555
C5F N1F 1_555 1_555
C7F N2F 1_555 1_555
C10F C13F 1_555 1_555
C11F C12F 1_555 1_555
N2F Zn1F 1_555 1_555
C14A O1A 1_555 1_555
N3F O2F 1_555 1_555

#END
