
#######################################################################
#
#                 Cambridge Crystallographic Data Centre
#                                CCDC 
#
#######################################################################
#
# If this CIF has been generated from an entry in the Cambridge 
# Structural Database, then it will include bibliographic, chemical, 
# crystal, experimental, refinement or atomic coordinate data resulting 
# from the CCDC's data processing and validation procedures.
#
#######################################################################

data_TUMDAI
_chemical_formula_moiety         '(C15 H9 N5 O4 Zn1)n,6(H2 O1)'
_chemical_name_systematic        
'catena-[(\m-5-(3-methyl-5-(pyrimidin-2-yl)-4H-1,2,4-triazol-4-yl)isophthalato)-zinc hexahydrate]'
_symmetry_cell_setting           monoclinic
_symmetry_space_group_name_H-M   'P 21/n'
_symmetry_Int_Tables_number      14
_space_group_name_Hall           '-P 2yn'
loop_
_symmetry_equiv_pos_site_id
_symmetry_equiv_pos_as_xyz
1 x,y,z
2 1/2-x,1/2+y,1/2-z
3 -x,-y,-z
4 1/2+x,1/2-y,1/2+z
_cell_length_a                   9.8187(9)
_cell_length_b                   17.6398(15)
_cell_length_c                   12.0712(13)
_cell_angle_alpha                90
_cell_angle_beta                 97.582(8)
_cell_angle_gamma                90
_cell_volume                     2072.45
_exptl_crystal_colour            colorless
_exptl_crystal_description       prism
_cell_formula_units_Z            4
loop_
_atom_site_label
_atom_site_type_symbol
_atom_site_fract_x
_atom_site_fract_y
_atom_site_fract_z
C1 C 0.3242(4) 0.0833(2) 0.1858(3)
C2 C 0.8353(4) 0.1294(2) 0.2176(3)
C3 C 0.5788(4) 0.1081(2) 0.2028(3)
H1 H 0.5895 0.0613 0.1659
C4 C 0.4493(4) 0.1308(2) 0.2241(3)
C5 C 0.6930(4) 0.1535(2) 0.2355(3)
C6 C 0.4337(4) 0.1991(2) 0.2796(3)
H2 H 0.3461 0.2143 0.2970
C7 C 0.6768(4) 0.2230(2) 0.2875(3)
H3 H 0.7534 0.2553 0.3080
C8 C 0.5472(4) 0.2439(2) 0.3086(3)
C9 C 0.6174(6) 0.2669(2) 0.5569(4)
H4 H 0.7164 0.2619 0.5545
H5 H 0.5719 0.2186 0.5356
H6 H 0.6012 0.2805 0.6328
C10 C 0.5610(4) 0.3270(2) 0.4779(3)
C11 C 0.4854(4) 0.3827(2) 0.3207(3)
C12 C 0.4412(4) 0.4025(2) 0.2035(3)
C13 C 0.3829(5) 0.3730(3) 0.0221(4)
H7 H 0.3774 0.3376 -0.0376
C14 C 0.3400(5) 0.4465(3) -0.0008(4)
H8 H 0.3005 0.4615 -0.0736
C15 C 0.3572(5) 0.4975(2) 0.0869(3)
H9 H 0.3305 0.5489 0.0739
N1 N 0.5311(3) 0.31504(17) 0.3648(3)
N2 N 0.5342(3) 0.39778(17) 0.5004(2)
N3 N 0.4859(3) 0.43318(17) 0.4008(2)
N4 N 0.4106(3) 0.47612(18) 0.1896(3)
N5 N 0.4319(4) 0.3495(2) 0.1255(3)
O1 O 0.3334(3) 0.02942(17) 0.1205(3)
O2 O 0.2143(3) 0.10366(15) 0.2210(2)
O3 O 0.8509(3) 0.06312(16) 0.1814(2)
O4 O 0.9323(3) 0.1729(2) 0.2417(4)
Zn1 Zn 0.45128(4) 0.54668(2) 0.34360(3)
N2B N 0.4658(3) 0.60222(17) 0.4996(2)
O2A O 0.2857(3) 0.60366(15) 0.2790(2)
O3A O 0.6491(3) 0.56312(16) 0.3186(2)
Zn1A Zn 0.04872(4) 0.04668(2) 0.15640(3)
Zn1A_2 Zn 1.04872(4) 0.04668(2) 0.15640(3)
Zn1B Zn 0.54872(4) 0.45332(2) 0.65640(3)
O5 O 0.0979(5) 0.2648(2) 0.3870(3)
O6 O 0.7447(4) 0.9258(2) 0.2606(4)
O7 O 0.3474(5) 0.8919(3) 0.2454(4)
O8 O 0.6203(5) 0.8637(3) 0.0653(4)
O9 O 0.4942(11) 0.9368(5) 0.4656(9)
O11 O 0.2680(8) 0.1614(5) 0.5319(6)
O10? O 0.5505(11) 0.9297(5) 0.4126(9)
O12? O 0.3079(12) 0.2092(8) 0.5299(9)
loop_
_geom_bond_atom_site_label_1
_geom_bond_atom_site_label_2
_geom_bond_site_symmetry_1
_geom_bond_site_symmetry_2
C1 C4 1_555 1_555
C2 C5 1_555 1_555
C3 H1 1_555 1_555
C4 C3 1_555 1_555
C5 C3 1_555 1_555
C6 C4 1_555 1_555
H2 C6 1_555 1_555
C7 C5 1_555 1_555
H3 C7 1_555 1_555
C8 C6 1_555 1_555
C9 H4 1_555 1_555
H5 C9 1_555 1_555
H6 C9 1_555 1_555
C10 C9 1_555 1_555
C11 C12 1_555 1_555
C12 N4 1_555 1_555
C13 H7 1_555 1_555
C14 C13 1_555 1_555
H8 C14 1_555 1_555
C15 C14 1_555 1_555
H9 C15 1_555 1_555
N1 C8 1_555 1_555
N2 C10 1_555 1_555
N3 C11 1_555 1_555
N4 C15 1_555 1_555
N5 C12 1_555 1_555
O1 C1 1_555 1_555
O2 C1 1_555 1_555
O3 C2 1_555 1_555
O4 C2 1_555 1_555
Zn1 N3 1_555 1_555
N2B Zn1 1_555 1_555
O2A Zn1 1_555 1_555
O3A Zn1 1_555 1_555
Zn1A O2 1_555 1_555
Zn1A_2 O3 1_555 1_555
Zn1B N2 1_555 1_555
C7 C8 1_555 1_555
C10 N1 1_555 1_555
C11 N1 1_555 1_555
C13 N5 1_555 1_555
N2 N3 1_555 1_555
N4 Zn1 1_555 1_555

#END
