
#######################################################################
#
#                 Cambridge Crystallographic Data Centre
#                                CCDC 
#
#######################################################################
#
# If this CIF has been generated from an entry in the Cambridge 
# Structural Database, then it will include bibliographic, chemical, 
# crystal, experimental, refinement or atomic coordinate data resulting 
# from the CCDC's data processing and validation procedures.
#
#######################################################################

data_TUMQOJ
_chemical_formula_moiety         '(C15 H8 N4 O4 Zn1)n,6n(H2 O1)'
_chemical_name_systematic        
'catena-((\m~4~-5-(3-(Pyridin-2-yl)-4H-1,2,4-triazol-4-yl)isophthalato)-zinc hexahydrate)'
_symmetry_cell_setting           monoclinic
_symmetry_space_group_name_H-M   'P 21/n'
_symmetry_Int_Tables_number      14
_space_group_name_Hall           '-P 2yn'
loop_
_symmetry_equiv_pos_site_id
_symmetry_equiv_pos_as_xyz
1 x,y,z
2 1/2-x,1/2+y,1/2-z
3 -x,-y,-z
4 1/2+x,1/2-y,1/2+z
_cell_length_a                   9.8054(16)
_cell_length_b                   17.9814(19)
_cell_length_c                   11.9775(17)
_cell_angle_alpha                90
_cell_angle_beta                 97.881(12)
_cell_angle_gamma                90
_cell_volume                     2091.86
_exptl_crystal_colour            colorless
_exptl_crystal_description       prism
_cell_formula_units_Z            4
loop_
_atom_site_label
_atom_site_type_symbol
_atom_site_fract_x
_atom_site_fract_y
_atom_site_fract_z
C1 C 0.3221(6) 0.0912(3) 0.1890(4)
C2 C 0.8363(5) 0.1394(3) 0.2049(4)
C3 C 0.5792(5) 0.1157(2) 0.2008(4)
H1 H 0.5890 0.0688 0.1661
C4 C 0.4493(5) 0.1382(2) 0.2235(4)
C5 C 0.6960(5) 0.1612(2) 0.2284(4)
C6 C 0.4352(5) 0.2059(2) 0.2791(4)
H2 H 0.3482 0.2211 0.2976
C7 C 0.6795(5) 0.2305(2) 0.2807(4)
H3 H 0.7557 0.2631 0.2979
C8 C 0.5510(5) 0.2502(2) 0.3064(4)
C9 C 0.5630(5) 0.3339(2) 0.4746(4)
H4 H 0.5972 0.2977 0.5291
C10 C 0.4885(5) 0.3875(2) 0.3157(3)
C11 C 0.4423(6) 0.4073(3) 0.1963(4)
C12 C 0.4394(8) 0.3601(3) 0.1050(4)
H5 H 0.4733 0.3107 0.1142
C13 C 0.3854(9) 0.3871(4) -0.0009(5)
H6 H 0.3845 0.3564 -0.0655
C14 C 0.3339(8) 0.4572(3) -0.0118(5)
H7 H 0.2917 0.4749 -0.0831
C15 C 0.3440(7) 0.5031(3) 0.0831(4)
H8 H 0.3120 0.5529 0.0750
N1 N 0.5347(4) 0.32135(18) 0.3621(3)
N2 N 0.5359(4) 0.40396(19) 0.4973(3)
N3 N 0.4889(4) 0.43771(19) 0.3956(3)
N4 N 0.3984(4) 0.4782(2) 0.1867(3)
O1 O 0.3293(5) 0.0333(2) 0.1322(4)
O2 O 0.2095(4) 0.11575(18) 0.2183(3)
O3 O 0.8602(4) 0.07042(19) 0.1922(3)
O4 O 0.9244(4) 0.1894(2) 0.1978(4)
Zn1 Zn 0.44553(5) 0.54772(3) 0.33909(4)
N2B N 0.4641(4) 0.59604(19) 0.5027(3)
O2A O 0.2905(4) 0.61575(18) 0.2817(3)
O3A O 0.6398(4) 0.57042(19) 0.3078(3)
Zn1A Zn 0.05447(5) 0.04772(3) 0.16091(4)
Zn1A_2 Zn 1.05447(5) 0.04772(3) 0.16091(4)
Zn1B Zn 0.55447(5) 0.45228(3) 0.66091(4)
O5 O 0.1102(7) 0.2529(3) 0.3834(6)
O6 O 0.8132(9) 0.3071(4) 0.0393(5)
O7 O 0.9723(15) 0.4399(8) 0.0670(12)
O8 O 0.4465(12) 0.9056(6) 0.1963(8)
O9 O 0.553(3) 0.9458(16) 0.060(2)
O10 O 0.628(3) 0.8707(17) 0.072(2)
O11 O 0.7297(15) 0.9286(8) 0.2390(11)
O12 O 1.090(3) 0.3377(15) 0.070(2)
O13? O 0.3194(17) 0.8736(8) 0.2107(12)
O14? O 0.6915(10) 0.9364(5) 0.1151(8)
O15? O 0.608(2) 0.8082(12) 0.0273(16)
loop_
_geom_bond_atom_site_label_1
_geom_bond_atom_site_label_2
_geom_bond_site_symmetry_1
_geom_bond_site_symmetry_2
C1 C4 1_555 1_555
C2 C5 1_555 1_555
C3 H1 1_555 1_555
C4 C3 1_555 1_555
C5 C3 1_555 1_555
C6 C4 1_555 1_555
H2 C6 1_555 1_555
C7 C5 1_555 1_555
H3 C7 1_555 1_555
C8 C6 1_555 1_555
C9 H4 1_555 1_555
C10 C11 1_555 1_555
C11 C12 1_555 1_555
C12 H5 1_555 1_555
C13 C12 1_555 1_555
H6 C13 1_555 1_555
C14 C13 1_555 1_555
H7 C14 1_555 1_555
C15 C14 1_555 1_555
H8 C15 1_555 1_555
N1 C8 1_555 1_555
N2 C9 1_555 1_555
N3 C10 1_555 1_555
N4 C11 1_555 1_555
O1 C1 1_555 1_555
O2 C1 1_555 1_555
O3 C2 1_555 1_555
O4 C2 1_555 1_555
Zn1 N3 1_555 1_555
N2B Zn1 1_555 1_555
O2A Zn1 1_555 1_555
O3A Zn1 1_555 1_555
Zn1A O2 1_555 1_555
Zn1A_2 O3 1_555 1_555
Zn1B N2 1_555 1_555
C7 C8 1_555 1_555
C9 N1 1_555 1_555
C10 N1 1_555 1_555
C15 N4 1_555 1_555
N2 N3 1_555 1_555
N4 Zn1 1_555 1_555

#END
