
#######################################################################
#
#                 Cambridge Crystallographic Data Centre
#                                CCDC 
#
#######################################################################
#
# If this CIF has been generated from an entry in the Cambridge 
# Structural Database, then it will include bibliographic, chemical, 
# crystal, experimental, refinement or atomic coordinate data resulting 
# from the CCDC's data processing and validation procedures.
#
#######################################################################

data_NIMPEG01
_chemical_formula_moiety         '(C47 H40 Cu2 O12)n'
_chemical_name_systematic        
"catena-[(\m~8~-5',5''-Propane-2,2-diylbis(2'-ethoxy-1,1':3',1''-terphenyl-4,4''-dicarboxylato))-diaqua-di-copper unknown solvate]"
_symmetry_cell_setting           triclinic
_symmetry_space_group_name_H-M   'P -1'
_symmetry_Int_Tables_number      2
_space_group_name_Hall           '-P 1'
loop_
_symmetry_equiv_pos_site_id
_symmetry_equiv_pos_as_xyz
1 x,y,z
2 -x,-y,-z
_cell_length_a                   15.01(2)
_cell_length_b                   16.62(2)
_cell_length_c                   19.29(3)
_cell_angle_alpha                102.288(19)
_cell_angle_beta                 91.786(18)
_cell_angle_gamma                93.300(18)
_cell_volume                     4689.51
_cell_formula_units_Z            2
loop_
_atom_site_label
_atom_site_type_symbol
_atom_site_fract_x
_atom_site_fract_y
_atom_site_fract_z
Cu1 Cu 0.54358(10) -0.49336(9) 0.44229(8)
Cu2 Cu -0.47274(10) -1.45714(9) -0.04716(9)
C1 C 0.4310(9) -0.6377(8) 0.4348(8)
C2 C 0.3925(5) -0.7218(3) 0.3975(4)
C3 C 0.3966(5) -0.7514(4) 0.3247(4)
H1 H 0.4282 -0.7197 0.2968
C4 C 0.3542(5) -0.8275(5) 0.2928(3)
H2 H 0.3570 -0.8477 0.2431
C5 C 0.3079(5) -0.8739(3) 0.3337(4)
C6 C 0.3039(5) -0.8443(4) 0.4064(4)
H3 H 0.2722 -0.8760 0.4344
C7 C 0.3462(5) -0.7682(5) 0.4383(3)
H4 H 0.3435 -0.7480 0.4881
C8 C 0.2614(5) -0.9556(4) 0.3030(5)
C9 C 0.3020(4) -1.0151(5) 0.2546(5)
C10 C 0.2587(5) -1.0925(4) 0.2296(4)
C11 C 0.1747(5) -1.1105(4) 0.2530(5)
H5 H 0.1451 -1.1634 0.2359
C12 C 0.1340(4) -1.0510(5) 0.3013(5)
C13 C 0.1774(5) -0.9736(4) 0.3263(4)
H6 H 0.1496 -0.9330 0.3594
C14 C 0.3044(5) -1.1663(5) 0.1872(5)
C15 C 0.3463(6) -1.1609(4) 0.1250(5)
H7 H 0.3494 -1.1103 0.1095
C16 C 0.3837(6) -1.2296(6) 0.0853(4)
H8 H 0.4124 -1.2259 0.0428
C17 C 0.3792(5) -1.3037(5) 0.1079(5)
C18 C 0.3373(6) -1.3091(4) 0.1702(5)
H9 H 0.3341 -1.3598 0.1856
C19 C 0.2999(6) -1.2405(6) 0.2098(4)
H10 H 0.2712 -1.2441 0.2523
C20 C 0.4205(11) -1.3734(9) 0.0686(9)
C21 C 0.0385(9) -1.0725(7) 0.3294(9)
C22 C 0.0287(9) -1.0339(8) 0.4049(7)
H11 H 0.0691 -1.0580 0.4345
H12 H -0.0331 -1.0438 0.4176
H13 H 0.0434 -0.9744 0.4126
C23 C -0.0329(9) -1.0350(8) 0.2820(8)
H14 H -0.0934 -1.0458 0.2969
H15 H -0.0286 -1.0613 0.2318
H16 H -0.0198 -0.9754 0.2885
C24 C 0.0165(5) -1.1634(4) 0.3193(4)
C25 C 0.0765(4) -1.2046(5) 0.3531(4)
H17 H 0.1238 -1.1744 0.3832
C26 C 0.0674(5) -1.2901(5) 0.3428(4)
C27 C -0.0017(6) -1.3343(4) 0.2987(5)
C28 C -0.0618(4) -1.2930(5) 0.2649(4)
C29 C -0.0527(5) -1.2076(5) 0.2752(4)
H18 H -0.0937 -1.1794 0.2522
C30 C 0.1396(5) -1.3353(5) 0.3734(6)
C31 C 0.2117(7) -1.3541(6) 0.3307(4)
H19 H 0.2105 -1.3443 0.2840
C32 C 0.2854(5) -1.3874(6) 0.3564(5)
H20 H 0.3347 -1.4003 0.3273
C33 C 0.2871(5) -1.4019(5) 0.4248(6)
C34 C 0.2150(7) -1.3830(6) 0.4674(4)
H21 H 0.2161 -1.3929 0.5142
C35 C 0.1412(5) -1.3497(6) 0.4417(5)
H22 H 0.0920 -1.3368 0.4709
C36 C 0.3612(10) -1.4349(10) 0.4517(9)
C37 C -0.1381(4) -1.3344(4) 0.2148(4)
C38 C -0.1973(5) -1.3912(5) 0.2356(3)
H23 H -0.1888 -1.4047 0.2807
C39 C -0.2690(4) -1.4283(4) 0.1905(4)
H24 H -0.3095 -1.4671 0.2048
C40 C -0.2815(4) -1.4085(4) 0.1246(4)
C41 C -0.2222(5) -1.3517(5) 0.1038(3)
H25 H -0.2307 -1.3382 0.0587
C42 C -0.1506(5) -1.3146(4) 0.1489(4)
H26 H -0.1101 -1.2757 0.1346
C43 C -0.3597(9) -1.4423(8) 0.0723(7)
C44 C 0.4552(5) -1.0146(11) 0.2805(10)
H27 H 0.4621 -1.0743 0.2769
H28 H 0.4460 -0.9876 0.3304
C45 C 0.5424(11) -0.9684(11) 0.2464(10)
H29 H 0.5981 -0.9754 0.2718
H30 H 0.5336 -0.9094 0.2519
H31 H 0.5458 -0.9937 0.1959
C46 C 0.0221(12) -1.4584(10) 0.2294(10)
H32 H 0.0848 -1.4390 0.2249
H33 H -0.0157 -1.4508 0.1886
C47 C 0.0116(10) -1.5582(8) 0.2435(8)
H34 H 0.0374 -1.5960 0.2043
H35 H -0.0517 -1.5748 0.2460
H36 H 0.0433 -1.5603 0.2882
O1 O 0.4872(5) -0.6012(4) 0.3960(5)
O2 O -0.3695(5) -1.4213(5) 0.0171(4)
O3 O 0.4358(6) -1.4444(6) 0.4165(5)
O4 O 0.6208(5) -0.4703(5) 0.3580(4)
O5 O 0.3567(5) -1.4574(6) 0.5171(5)
O6 O 0.4620(5) -1.3651(4) 0.0091(4)
O7 O -0.4142(5) -1.3891(5) -0.1268(5)
O8 O 0.4196(5) -1.4421(5) 0.0903(4)
O9 O 0.4175(5) -0.6129(5) 0.4956(5)
O10 O -0.4149(5) -1.4974(5) 0.1037(4)
O11 O 0.3844(7) -0.9999(7) 0.2323(7)
O12 O -0.0122(8) -1.4235(7) 0.2957(7)
Cu1_2 Cu 0.54358(10) -1.49336(9) 0.44229(8)
Cu1A Cu 0.45642(10) -1.50664(9) 0.55771(8)
Cu1A_2 Cu 0.45642(10) -0.50664(9) 0.55771(8)
Cu2_2 Cu 0.52726(10) -1.45714(9) -0.04716(9)
Cu2A Cu -0.52726(10) -1.54286(9) 0.04716(9)
Cu2A_2 Cu 0.47274(10) -1.54286(9) 0.04716(9)
O3_2 O 0.4358(6) -0.4444(6) 0.4165(5)
O5A O 0.6433(5) -0.5426(6) 0.4829(5)
O6_2 O -0.5380(5) -1.3651(4) 0.0091(4)
O8A O -0.4196(5) -1.5579(5) -0.0903(4)
O9A O 0.5825(5) -0.3871(5) 0.5044(5)
O10A O -0.5851(5) -1.5026(5) -0.1037(4)
loop_
_geom_bond_atom_site_label_1
_geom_bond_atom_site_label_2
_geom_bond_site_symmetry_1
_geom_bond_site_symmetry_2
Cu1 O1 1_555 1_555
Cu2 O2 1_555 1_555
C1 C2 1_555 1_555
C2 C3 1_555 1_555
C3 H1 1_555 1_555
C4 C3 1_555 1_555
H2 C4 1_555 1_555
C5 C4 1_555 1_555
C6 C5 1_555 1_555
H3 C6 1_555 1_555
C7 C2 1_555 1_555
H4 C7 1_555 1_555
C8 C5 1_555 1_555
C9 C8 1_555 1_555
C10 C9 1_555 1_555
C11 C10 1_555 1_555
H5 C11 1_555 1_555
C12 C11 1_555 1_555
C13 C8 1_555 1_555
H6 C13 1_555 1_555
C14 C10 1_555 1_555
C15 C14 1_555 1_555
H7 C15 1_555 1_555
C16 C15 1_555 1_555
H8 C16 1_555 1_555
C17 C16 1_555 1_555
C18 C17 1_555 1_555
H9 C18 1_555 1_555
C19 C14 1_555 1_555
H10 C19 1_555 1_555
C20 C17 1_555 1_555
C21 C12 1_555 1_555
C22 C21 1_555 1_555
H11 C22 1_555 1_555
H12 C22 1_555 1_555
H13 C22 1_555 1_555
C23 C21 1_555 1_555
H14 C23 1_555 1_555
H15 C23 1_555 1_555
H16 C23 1_555 1_555
C24 C21 1_555 1_555
C25 C24 1_555 1_555
H17 C25 1_555 1_555
C26 C25 1_555 1_555
C27 C26 1_555 1_555
C28 C27 1_555 1_555
C29 C24 1_555 1_555
H18 C29 1_555 1_555
C30 C26 1_555 1_555
C31 C30 1_555 1_555
H19 C31 1_555 1_555
C32 C31 1_555 1_555
H20 C32 1_555 1_555
C33 C32 1_555 1_555
C34 C33 1_555 1_555
H21 C34 1_555 1_555
C35 C30 1_555 1_555
H22 C35 1_555 1_555
C36 C33 1_555 1_555
C37 C28 1_555 1_555
C38 C37 1_555 1_555
H23 C38 1_555 1_555
C39 C38 1_555 1_555
H24 C39 1_555 1_555
C40 C39 1_555 1_555
C41 C40 1_555 1_555
H25 C41 1_555 1_555
C42 C37 1_555 1_555
H26 C42 1_555 1_555
C43 C40 1_555 1_555
C44 H27 1_555 1_555
H28 C44 1_555 1_555
C45 C44 1_555 1_555
H29 C45 1_555 1_555
H30 C45 1_555 1_555
H31 C45 1_555 1_555
C46 H32 1_555 1_555
H33 C46 1_555 1_555
C47 C46 1_555 1_555
H34 C47 1_555 1_555
H35 C47 1_555 1_555
H36 C47 1_555 1_555
O1 C1 1_555 1_555
O2 C43 1_555 1_555
O3 C36 1_555 1_555
O4 Cu1 1_555 1_555
O5 C36 1_555 1_555
O6 C20 1_555 1_555
O7 Cu2 1_555 1_555
O8 C20 1_555 1_555
O9 C1 1_555 1_555
O10 C43 1_555 1_555
O11 C9 1_555 1_555
O12 C27 1_555 1_555
Cu1_2 O3 1_555 1_555
Cu1A O5 1_555 1_555
Cu1A_2 O9 1_555 1_555
Cu2_2 O6 1_555 1_555
Cu2A O10 1_555 1_555
Cu2A_2 O8 1_555 1_555
O3_2 Cu1 1_555 1_555
O5A Cu1 1_555 1_555
O6_2 Cu2 1_555 1_555
O8A Cu2 1_555 1_555
O9A Cu1 1_555 1_555
O10A Cu2 1_555 1_555
C6 C7 1_555 1_555
C12 C13 1_555 1_555
C18 C19 1_555 1_555
C28 C29 1_555 1_555
C34 C35 1_555 1_555
C41 C42 1_555 1_555
C44 O11 1_555 1_555
C46 O12 1_555 1_555

#END
