
#######################################################################
#
#                 Cambridge Crystallographic Data Centre
#                                CCDC 
#
#######################################################################
#
# If this CIF has been generated from an entry in the Cambridge 
# Structural Database, then it will include bibliographic, chemical, 
# crystal, experimental, refinement or atomic coordinate data resulting 
# from the CCDC's data processing and validation procedures.
#
#######################################################################

data_FALRIV01
_chemical_formula_moiety         '(C26 H24 N7 Zn1 1+)n,n(C2 N3 1-),5n(H2 O1)'
_chemical_name_systematic        
"catena-(bis(\m~2~-4,4'-ethane-1,2-diyldipyridine)-(\m~2~-dicyanamide)-zinc(ii) dicyanamide pentahydrate)"
_symmetry_cell_setting           monoclinic
_symmetry_space_group_name_H-M   'C 2/c'
_symmetry_Int_Tables_number      15
_space_group_name_Hall           '-C 2yc'
loop_
_symmetry_equiv_pos_site_id
_symmetry_equiv_pos_as_xyz
1 x,y,z
2 -x,y,1/2-z
3 1/2+x,1/2+y,z
4 1/2-x,1/2+y,1/2-z
5 -x,-y,-z
6 x,-y,1/2+z
7 1/2-x,1/2-y,-z
8 1/2+x,1/2-y,1/2+z
_cell_length_a                   18.5462(9)
_cell_length_b                   20.0824(10)
_cell_length_c                   8.7759(5)
_cell_angle_alpha                90
_cell_angle_beta                 101.244(3)
_cell_angle_gamma                90
_cell_volume                     3205.86
_exptl_crystal_colour            colorless
_exptl_crystal_description       'square block'
_cell_formula_units_Z            4
loop_
_atom_site_label
_atom_site_type_symbol
_atom_site_fract_x
_atom_site_fract_y
_atom_site_fract_z
O1 O 0.4623(18) 0.0355(16) 1.019(4)
O2 O 0.410(2) 0.1571(17) 0.764(6)
O3 O 0.5000 0.0359(15) 0.7500
C1 C 0.6307(3) 0.2349(3) 0.4036(7)
H1 H 0.6305 0.2620 0.4893
C2 C 0.5814(3) 0.2061(3) 0.1546(7)
H2 H 0.5460 0.2122 0.0649
C3 C 0.6316(4) 0.1553(4) 0.1575(8)
H3 H 0.6306 0.1290 0.0700
C4 C 0.6814(4) 0.1848(3) 0.4157(7)
H4 H 0.7145 0.1786 0.5088
C5 C 0.6839(4) 0.1435(4) 0.2922(8)
C6 C 0.7407(5) 0.0891(5) 0.3032(10)
H5 H 0.7889 0.1094 0.3329
H6 H 0.7344 0.0594 0.3869
C7 C 0.7406(5) 0.0489(5) 0.1656(10)
H7 H 0.7465 0.0781 0.0807
H8 H 0.6932 0.0272 0.1367
C8 C 0.9168(4) -0.0416(3) 0.1478(8)
H9 H 0.9591 -0.0335 0.1088
C9 C 0.8496(3) -0.1092(3) 0.2696(7)
H10 H 0.8444 -0.1489 0.3210
C10 C 0.8639(5) 0.0073(3) 0.1305(9)
H11 H 0.8712 0.0473 0.0822
C11 C 0.7933(4) -0.0635(4) 0.2525(8)
H12 H 0.7504 -0.0739 0.2873
C12 C 0.7999(4) -0.0033(4) 0.1852(8)
C13 C 0.9973(4) -0.1524(3) -0.1180(7)
N1 N 0.9112(2) -0.0993(2) 0.2162(5)
N2 N 0.5814(2) 0.2464(2) 0.2731(5)
N3 N 0.9974(3) -0.1666(2) 0.0038(5)
N5 N 0.9857(19) -0.1240(6) -0.263(3)
Zn1 Zn 1.0000 -0.17488(4) 0.2500
C1B C 1.1307(3) -0.2651(3) 0.4036(7)
H1B H 1.1305 -0.2380 0.4893
C2B C 1.0814(3) -0.2939(3) 0.1546(7)
H2B H 1.0460 -0.2878 0.0649
C3B C 1.1316(4) -0.3447(4) 0.1575(8)
H3B H 1.1306 -0.3710 0.0700
C4B C 1.1814(4) -0.3152(3) 0.4157(7)
H4B H 1.2145 -0.3214 0.5088
C5B C 1.1839(4) -0.3565(4) 0.2922(8)
C6B C 1.2407(5) -0.4109(5) 0.3032(10)
H5B H 1.2889 -0.3906 0.3329
H6B H 1.2344 -0.4406 0.3869
C7B C 1.2406(5) -0.4511(5) 0.1656(10)
H7B H 1.2465 -0.4219 0.0807
H8B H 1.1932 -0.4728 0.1367
C8B C 1.4168(4) -0.5416(3) 0.1478(8)
H9B H 1.4591 -0.5335 0.1088
C9B C 1.3496(3) -0.6092(3) 0.2696(7)
H10B H 1.3444 -0.6489 0.3210
C10B C 1.3639(5) -0.4927(3) 0.1305(9)
H11B H 1.3712 -0.4527 0.0822
C11B C 1.2933(4) -0.5635(4) 0.2525(8)
H12B H 1.2504 -0.5739 0.2873
C12B C 1.2999(4) -0.5033(4) 0.1852(8)
C13A C 1.0027(4) -0.1524(3) -0.3820(7)
N1B N 1.4112(2) -0.5993(2) 0.2162(5)
N1A N 1.0888(2) -0.0993(2) 0.2838(5)
N2B N 1.0814(2) -0.2536(2) 0.2731(5)
N2C N 0.9186(2) -0.2536(2) 0.2269(5)
N3A N 1.0026(3) -0.1666(2) -0.5038(5)
N3A_2 N 1.0026(3) -0.1666(2) 0.4962(5)
N5A N 1.0143(19) -0.1240(6) -0.237(3)
Zn1B Zn 0.5000 0.32512(4) 0.2500
Zn1_2 Zn 1.0000 -0.17488(4) -0.7500
Zn1B_2 Zn 1.5000 -0.67488(4) 0.2500
C14? C 0.2066(13) 0.2389(12) 0.411(3)
N4? N 0.2502(13) 0.2133(13) 0.550(3)
N6? N 0.1698(13) 0.2709(12) 0.319(3)
loop_
_geom_bond_atom_site_label_1
_geom_bond_atom_site_label_2
_geom_bond_site_symmetry_1
_geom_bond_site_symmetry_2
C1 H1 1_555 1_555
C2 H2 1_555 1_555
C3 C2 1_555 1_555
H3 C3 1_555 1_555
C4 C1 1_555 1_555
H4 C4 1_555 1_555
C5 C3 1_555 1_555
C6 C5 1_555 1_555
H5 C6 1_555 1_555
H6 C6 1_555 1_555
C7 C6 1_555 1_555
H7 C7 1_555 1_555
H8 C7 1_555 1_555
C8 H9 1_555 1_555
C9 H10 1_555 1_555
C10 C8 1_555 1_555
H11 C10 1_555 1_555
C11 C9 1_555 1_555
H12 C11 1_555 1_555
C12 C7 1_555 1_555
C13 N3 1_555 1_555
N1 C8 1_555 1_555
N2 C1 1_555 1_555
N3 Zn1 1_555 1_555
N5 C13 1_555 1_555
Zn1 N1 1_555 1_555
C1B H1B 1_555 1_555
C2B H2B 1_555 1_555
C3B C2B 1_555 1_555
H3B C3B 1_555 1_555
C4B C1B 1_555 1_555
H4B C4B 1_555 1_555
C5B C3B 1_555 1_555
C6B C5B 1_555 1_555
H5B C6B 1_555 1_555
H6B C6B 1_555 1_555
C7B C6B 1_555 1_555
H7B C7B 1_555 1_555
H8B C7B 1_555 1_555
C8B H9B 1_555 1_555
C9B H10B 1_555 1_555
C10B C8B 1_555 1_555
H11B C10B 1_555 1_555
C11B C9B 1_555 1_555
H12B C11B 1_555 1_555
C12B C7B 1_555 1_555
C13A N5 1_555 1_555
N1B C8B 1_555 1_555
N1A Zn1 1_555 1_555
N2B Zn1 1_555 1_555
N2C Zn1 1_555 1_555
N3A C13A 1_555 1_555
N3A_2 Zn1 1_555 1_555
N5A C13 1_555 1_555
Zn1B N2 1_555 1_555
Zn1_2 N3A 1_555 1_555
Zn1B_2 N1B 1_555 1_555
C2 N2 1_555 1_555
C4 C5 1_555 1_555
C9 N1 1_555 1_555
C10 C12 1_555 1_555
C11 C12 1_555 1_555
N5 N5A 1_555 1_555
C1B N2B 1_555 1_555
C2B N2B 1_555 1_555
C4B C5B 1_555 1_555
C9B N1B 1_555 1_555
C10B C12B 1_555 1_555
C11B C12B 1_555 1_555
C13A N5A 1_555 1_555

#END
