
#######################################################################
#
#                 Cambridge Crystallographic Data Centre
#                                CCDC 
#
#######################################################################
#
# If this CIF has been generated from an entry in the Cambridge 
# Structural Database, then it will include bibliographic, chemical, 
# crystal, experimental, refinement or atomic coordinate data resulting 
# from the CCDC's data processing and validation procedures.
#
#######################################################################

data_FALRIV
_chemical_formula_moiety         '(C26 H24 N7 Zn1 1+)n,n(C2 N3 1-),5n(H2 O1)'
_chemical_name_systematic        
"catena-(bis(\m~2~-4,4'-ethane-1,2-diyldipyridine)-(\m~2~-dicyanamide)-zinc(ii) dicyanamide pentahydrate)"
_symmetry_cell_setting           monoclinic
_symmetry_space_group_name_H-M   'C 2/c'
_symmetry_Int_Tables_number      15
_space_group_name_Hall           '-C 2yc'
loop_
_symmetry_equiv_pos_site_id
_symmetry_equiv_pos_as_xyz
1 x,y,z
2 -x,y,1/2-z
3 1/2+x,1/2+y,z
4 1/2-x,1/2+y,1/2-z
5 -x,-y,-z
6 x,-y,1/2+z
7 1/2-x,1/2-y,-z
8 1/2+x,1/2-y,1/2+z
_cell_length_a                   18.7769(14)
_cell_length_b                   19.8686(14)
_cell_length_c                   8.7734(6)
_cell_angle_alpha                90
_cell_angle_beta                 100.967(6)
_cell_angle_gamma                90
_cell_volume                     3213.32
_exptl_crystal_colour            colorless
_exptl_crystal_description       'square block'
_cell_formula_units_Z            4
loop_
_atom_site_label
_atom_site_type_symbol
_atom_site_fract_x
_atom_site_fract_y
_atom_site_fract_z
O1 O 0.4129(17) 0.3651(15) -0.214(4)
O2 O 0.494(3) 0.471(3) 0.097(5)
O3 O 0.5000 0.4526(7) -0.2500
Zn1 Zn 0.0000 0.67525(4) 0.2500
N1 N 0.0874(3) 0.5990(2) 0.2828(5)
C1 C 0.2045(5) 0.5633(4) 0.2454(9)
H1 H 0.2470 0.5732 0.2100
N2 N 0.4187(3) 0.2540(2) 0.2248(6)
C2 C 0.3151(4) 0.3555(4) 0.2080(8)
C3 C 0.1350(5) 0.4914(4) 0.3658(10)
H2 H 0.1274 0.4502 0.4104
N3 N -0.0032(3) 0.6677(2) 0.0038(6)
C4 C 0.1484(3) 0.6099(3) 0.2284(8)
H3 H 0.1534 0.6502 0.1773
C5 C 0.3704(3) 0.2647(3) 0.0956(7)
H4 H 0.3717 0.2376 0.0098
C6 C 0.3680(5) 0.3461(4) 0.3378(9)
H5 H 0.3705 0.3748 0.4225
N4 N -0.015(2) 0.6248(6) -0.261(5)
C7 C 0.1970(5) 0.5025(4) 0.3148(9)
C8 C 0.0831(4) 0.5402(3) 0.3524(8)
H6 H 0.0422 0.5318 0.3947
C9 C 0.3184(4) 0.3143(3) 0.0835(8)
H7 H 0.2855 0.3201 -0.0091
C10 C 0.2585(6) 0.4089(5) 0.1961(11)
H8 H 0.2642 0.4389 0.1120
H9 H 0.2114 0.3875 0.1670
C11 C 0.4171(4) 0.2948(3) 0.3429(8)
H10 H 0.4509 0.2884 0.4339
C12 C -0.0025(4) 0.6522(3) -0.1179(8)
C13 C 0.2577(6) 0.4490(5) 0.3312(12)
H11 H 0.3041 0.4716 0.3589
H12 H 0.2529 0.4192 0.4163
Zn1B Zn 0.5000 0.17525(4) 0.2500
Zn1_2 Zn 0.0000 0.67525(4) -0.7500
Zn1B_2 Zn -0.5000 0.17525(4) 0.2500
N1A N -0.0874(3) 0.5990(2) 0.2172(5)
C1A C -0.2045(5) 0.5633(4) 0.2546(9)
H1A H -0.2470 0.5732 0.2900
N2A N -0.4187(3) 0.2540(2) 0.2752(6)
N2B N -0.0813(3) 0.7540(2) 0.2248(6)
N2C N 0.0813(3) 0.7540(2) 0.2752(6)
C2A C -0.3151(4) 0.3555(4) 0.2920(8)
C3A C -0.1350(5) 0.4914(4) 0.1342(10)
H2A H -0.1274 0.4502 0.0896
N3A N 0.0032(3) 0.6677(2) -0.5038(6)
N3A_2 N 0.0032(3) 0.6677(2) 0.4962(6)
C4A C -0.1484(3) 0.6099(3) 0.2716(8)
H3A H -0.1534 0.6502 0.3227
C5A C -0.3704(3) 0.2647(3) 0.4044(7)
H4A H -0.3717 0.2376 0.4902
C6A C -0.3680(5) 0.3461(4) 0.1622(9)
H5A H -0.3705 0.3748 0.0775
N4A N 0.015(2) 0.6248(6) -0.239(5)
C7A C -0.1970(5) 0.5025(4) 0.1852(9)
C8A C -0.0831(4) 0.5402(3) 0.1476(8)
H6A H -0.0422 0.5318 0.1053
C9A C -0.3184(4) 0.3143(3) 0.4165(8)
H7A H -0.2855 0.3201 0.5091
C10A C -0.2585(6) 0.4089(5) 0.3039(11)
H8A H -0.2642 0.4389 0.3880
H9A H -0.2114 0.3875 0.3330
C11A C -0.4171(4) 0.2948(3) 0.1571(8)
H10A H -0.4509 0.2884 0.0661
C12A C 0.0025(4) 0.6522(3) -0.3821(8)
C13A C -0.2577(6) 0.4490(5) 0.1688(12)
H11A H -0.3041 0.4716 0.1411
H12A H -0.2529 0.4192 0.0837
N5? N 0.8324(15) 0.2285(14) 0.194(3)
N6? N 0.7491(18) 0.2905(15) -0.042(4)
C14? C 0.7977(18) 0.2634(18) 0.117(4)
loop_
_geom_bond_atom_site_label_1
_geom_bond_atom_site_label_2
_geom_bond_site_symmetry_1
_geom_bond_site_symmetry_2
Zn1 N1 1_555 1_555
N1 C4 1_555 1_555
C1 H1 1_555 1_555
N2 C5 1_555 1_555
C2 C6 1_555 1_555
C3 H2 1_555 1_555
N3 Zn1 1_555 1_555
C4 C1 1_555 1_555
H3 C4 1_555 1_555
C5 H4 1_555 1_555
C6 H5 1_555 1_555
N4 C12 1_555 1_555
C7 C1 1_555 1_555
C8 N1 1_555 1_555
H6 C8 1_555 1_555
C9 C2 1_555 1_555
H7 C9 1_555 1_555
C10 C2 1_555 1_555
H8 C10 1_555 1_555
H9 C10 1_555 1_555
C11 N2 1_555 1_555
H10 C11 1_555 1_555
C12 N3 1_555 1_555
C13 C7 1_555 1_555
H11 C13 1_555 1_555
H12 C13 1_555 1_555
Zn1B N2 1_555 1_555
Zn1_2 N3A 1_555 1_555
Zn1B_2 N2A 1_555 1_555
N1A Zn1 1_555 1_555
C1A H1A 1_555 1_555
N2A C5A 1_555 1_555
N2B Zn1 1_555 1_555
N2C Zn1 1_555 1_555
C2A C6A 1_555 1_555
C3A H2A 1_555 1_555
N3A C12A 1_555 1_555
N3A_2 Zn1 1_555 1_555
C4A N1A 1_555 1_555
H3A C4A 1_555 1_555
C5A H4A 1_555 1_555
C6A H5A 1_555 1_555
N4A N4 1_555 1_555
C7A C1A 1_555 1_555
C8A N1A 1_555 1_555
H6A C8A 1_555 1_555
C9A C2A 1_555 1_555
H7A C9A 1_555 1_555
C10A C2A 1_555 1_555
H8A C10A 1_555 1_555
H9A C10A 1_555 1_555
C11A N2A 1_555 1_555
H10A C11A 1_555 1_555
C12A N4 1_555 1_555
C13A C7A 1_555 1_555
H11A C13A 1_555 1_555
H12A C13A 1_555 1_555
C3 C7 1_555 1_555
C3 C8 1_555 1_555
C5 C9 1_555 1_555
C6 C11 1_555 1_555
C10 C13 1_555 1_555
C12 N4A 1_555 1_555
C1A C4A 1_555 1_555
C3A C7A 1_555 1_555
C3A C8A 1_555 1_555
C5A C9A 1_555 1_555
C6A C11A 1_555 1_555
N4A C12A 1_555 1_555
C10A C13A 1_555 1_555

#END
