
#######################################################################
#
#                 Cambridge Crystallographic Data Centre
#                                CCDC 
#
#######################################################################
#
# If this CIF has been generated from an entry in the Cambridge 
# Structural Database, then it will include bibliographic, chemical, 
# crystal, experimental, refinement or atomic coordinate data resulting 
# from the CCDC's data processing and validation procedures.
#
#######################################################################

data_RUHCED
_chemical_formula_moiety         '(C8 H5 Ga1 O5)n,0.85n(C3 H7 N1 O1)'
_chemical_name_systematic        
'catena-[(\m~4~-Benzene-1,4-dicarboxylato)-(\m~2~-hydroxo)-gallium dimethylformamide clathrate]'
_symmetry_cell_setting           monoclinic
_symmetry_space_group_name_H-M   'I 2/a'
_symmetry_Int_Tables_number      15
_space_group_name_Hall           '-I 2ya'
loop_
_symmetry_equiv_pos_site_id
_symmetry_equiv_pos_as_xyz
1 x,y,z
2 1/2-x,y,-z
3 1/2+x,1/2+y,1/2+z
4 -x,1/2+y,1/2-z
5 -x,-y,-z
6 1/2+x,-y,z
7 1/2-x,1/2-y,1/2-z
8 x,1/2-y,1/2+z
_cell_length_a                   6.7120(4)
_cell_length_b                   11.2486(11)
_cell_length_c                   17.9650(16)
_cell_angle_alpha                90
_cell_angle_beta                 91.975(7)
_cell_angle_gamma                90
_cell_volume                     1355.56
_exptl_crystal_colour            white
_exptl_crystal_description       plate
_cell_formula_units_Z            4
loop_
_atom_site_label
_atom_site_type_symbol
_atom_site_fract_x
_atom_site_fract_y
_atom_site_fract_z
_atom_site_U_iso_or_equiv
_atom_site_thermal_displace_type
Ga1 Ga -0.5000 0.0000 0.5000 0.0136 Uani
O1 O -0.7500 0.0769(6) 0.5000 0.0150 Uani
O2 O -0.6056(9) -0.1215(6) 0.4275(3) 0.0350 Uani
C1 C -0.7620(11) -0.1308(7) 0.3946(4) 0.0221 Uani
C2 C -0.7597(12) -0.1970(7) 0.3187(3) 0.0251 Uani
C3 C -0.9284(11) -0.2166(9) 0.2778(5) 0.0581 Uani
C4 C -0.9194(11) -0.2714(9) 0.2082(4) 0.0454 Uani
O3 O -0.5698(9) -0.4020(6) 0.0875(3) 0.0335 Uani
H1 H -0.4454(13) -0.210(2) 0.3237(8) 0.0394 Uiso
H2 H -0.4303(13) -0.311(2) 0.2018(10) 0.0363 Uiso
Ga1B Ga -1.0000 -0.5000 0.0000 0.0136 Uani
Ga1C Ga -0.5000 -0.5000 0.0000 0.0136 Uani
Ga1A Ga -1.0000 0.0000 0.5000 0.0136 Uani
O1D O -0.2500 -0.0769(6) 0.5000 0.0150 Uani
O2F O -0.8944(9) -0.3785(6) 0.0725(3) 0.0350 Uani
O2D O -0.3944(9) 0.1215(6) 0.5725(3) 0.0350 Uani
C1F C -0.7380(11) -0.3692(7) 0.1054(4) 0.0221 Uani
C2F C -0.7403(12) -0.3030(7) 0.1813(3) 0.0251 Uani
C3F C -0.5716(11) -0.2834(9) 0.2222(5) 0.0581 Uani
C4F C -0.5806(11) -0.2286(9) 0.2918(4) 0.0454 Uani
O3F O -0.9302(9) -0.0980(6) 0.4125(3) 0.0335 Uani
O3G O -0.5698(9) -0.0980(6) 0.5875(3) 0.0335 Uani
O3C O -0.4302(9) 0.0980(6) 0.4125(3) 0.0335 Uani
H1F H -1.0546(13) -0.290(2) 0.1763(8) 0.0394 Uiso
H2F H -1.0697(13) -0.189(2) 0.2982(10) 0.0363 Uiso
loop_
_atom_site_aniso_label
_atom_site_aniso_U_11
_atom_site_aniso_U_22
_atom_site_aniso_U_33
_atom_site_aniso_U_23
_atom_site_aniso_U_13
_atom_site_aniso_U_12
Ga1 0.0101 0.0186 0.0121 0.0003 0.0022 -0.0018
O1 0.001 0.018 0.026 0 0.001 0
O2 0.02 0.048 0.037 -0.022 0 0.004
C1 0.021 0.023 0.022 -0.008 -0.003 0.002
C2 0.028 0.026 0.021 -0.01 -0.002 0.002
C3 0.03 0.087 0.058 -0.052 0.012 0
C4 0.033 0.081 0.022 -0.021 0 0.006
O3 0.02 0.064 0.017 -0.024 0.009 -0.009
Ga1B 0.0101 0.0186 0.0121 0.0003 0.0022 -0.0018
Ga1C 0.0101 0.0186 0.0121 -0.0003 0.0022 0.0018
Ga1A 0.0101 0.0186 0.0121 -0.0003 0.0022 0.0018
O1D 0.001 0.018 0.026 0 0.001 0
O2F 0.02 0.048 0.037 -0.022 0 0.004
O2D 0.02 0.048 0.037 -0.022 0 0.004
C1F 0.021 0.023 0.022 -0.008 -0.003 0.002
C2F 0.028 0.026 0.021 -0.01 -0.002 0.002
C3F 0.03 0.087 0.058 -0.052 0.012 0
C4F 0.033 0.081 0.022 -0.021 0 0.006
O3F 0.02 0.064 0.017 -0.024 0.009 -0.009
O3G 0.02 0.064 0.017 0.024 0.009 0.009
O3C 0.02 0.064 0.017 0.024 0.009 0.009
loop_
_geom_bond_atom_site_label_1
_geom_bond_atom_site_label_2
_geom_bond_site_symmetry_1
_geom_bond_site_symmetry_2
Ga1 O1 1_555 1_555
O1 Ga1A 1_555 1_555
O2 Ga1 1_555 1_555
C1 O2 1_555 1_555
C2 C1 1_555 1_555
C3 C2 1_555 1_555
C4 C3 1_555 1_555
O3 Ga1C 1_555 1_555
H1 C4F 1_555 1_555
H2 C3F 1_555 1_555
Ga1B O2F 1_555 1_555
Ga1A O3F 1_555 1_555
O1D Ga1 1_555 1_555
O2F C1F 1_555 1_555
O2D Ga1 1_555 1_555
C1F O3 1_555 1_555
C2F C4 1_555 1_555
C3F C2F 1_555 1_555
C4F C2 1_555 1_555
O3F C1 1_555 1_555
O3G Ga1 1_555 1_555
O3C Ga1 1_555 1_555
H1F C4 1_555 1_555
H2F C3 1_555 1_555
C1F C2F 1_555 1_555
C3F C4F 1_555 1_555

#END
