
#######################################################################
#
#                 Cambridge Crystallographic Data Centre
#                                CCDC 
#
#######################################################################
#
# If this CIF has been generated from an entry in the Cambridge 
# Structural Database, then it will include bibliographic, chemical, 
# crystal, experimental, refinement or atomic coordinate data resulting 
# from the CCDC's data processing and validation procedures.
#
#######################################################################

data_GAGZEV
_chemical_formula_moiety         '(C60 H24 Cu2 O12)n'
_chemical_name_systematic        
'catena-((\m~12~-1,3,5-Tris[(1,3-carboxylic acid-5-(4-(ethynyl)phenyl))ethynyl]benzene)-di-copper)'
_symmetry_cell_setting           cubic
_symmetry_space_group_name_H-M   'F m -3 m'
_symmetry_Int_Tables_number      225
_space_group_name_Hall           '-F 4 2 3'
loop_
_symmetry_equiv_pos_site_id
_symmetry_equiv_pos_as_xyz
1 x,y,z
2 -x,-y,z
3 -x,y,-z
4 x,-y,-z
5 z,x,y
6 z,-x,-y
7 -z,-x,y
8 -z,x,-y
9 y,z,x
10 -y,z,-x
11 y,-z,-x
12 -y,-z,x
13 y,x,-z
14 -y,-x,-z
15 y,-x,z
16 -y,x,z
17 x,z,-y
18 -x,z,y
19 -x,-z,-y
20 x,-z,y
21 z,y,-x
22 z,-y,x
23 -z,y,x
24 -z,-y,-x
25 x,1/2+y,1/2+z
26 -x,1/2-y,1/2+z
27 -x,1/2+y,1/2-z
28 x,1/2-y,1/2-z
29 z,1/2+x,1/2+y
30 z,1/2-x,1/2-y
31 -z,1/2-x,1/2+y
32 -z,1/2+x,1/2-y
33 y,1/2+z,1/2+x
34 -y,1/2+z,1/2-x
35 y,1/2-z,1/2-x
36 -y,1/2-z,1/2+x
37 y,1/2+x,1/2-z
38 -y,1/2-x,1/2-z
39 y,1/2-x,1/2+z
40 -y,1/2+x,1/2+z
41 x,1/2+z,1/2-y
42 -x,1/2+z,1/2+y
43 -x,1/2-z,1/2-y
44 x,1/2-z,1/2+y
45 z,1/2+y,1/2-x
46 z,1/2-y,1/2+x
47 -z,1/2+y,1/2+x
48 -z,1/2-y,1/2-x
49 1/2+x,y,1/2+z
50 1/2-x,-y,1/2+z
51 1/2-x,y,1/2-z
52 1/2+x,-y,1/2-z
53 1/2+z,x,1/2+y
54 1/2+z,-x,1/2-y
55 1/2-z,-x,1/2+y
56 1/2-z,x,1/2-y
57 1/2+y,z,1/2+x
58 1/2-y,z,1/2-x
59 1/2+y,-z,1/2-x
60 1/2-y,-z,1/2+x
61 1/2+y,x,1/2-z
62 1/2-y,-x,1/2-z
63 1/2+y,-x,1/2+z
64 1/2-y,x,1/2+z
65 1/2+x,z,1/2-y
66 1/2-x,z,1/2+y
67 1/2-x,-z,1/2-y
68 1/2+x,-z,1/2+y
69 1/2+z,y,1/2-x
70 1/2+z,-y,1/2+x
71 1/2-z,y,1/2+x
72 1/2-z,-y,1/2-x
73 1/2+x,1/2+y,z
74 1/2-x,1/2-y,z
75 1/2-x,1/2+y,-z
76 1/2+x,1/2-y,-z
77 1/2+z,1/2+x,y
78 1/2+z,1/2-x,-y
79 1/2-z,1/2-x,y
80 1/2-z,1/2+x,-y
81 1/2+y,1/2+z,x
82 1/2-y,1/2+z,-x
83 1/2+y,1/2-z,-x
84 1/2-y,1/2-z,x
85 1/2+y,1/2+x,-z
86 1/2-y,1/2-x,-z
87 1/2+y,1/2-x,z
88 1/2-y,1/2+x,z
89 1/2+x,1/2+z,-y
90 1/2-x,1/2+z,y
91 1/2-x,1/2-z,-y
92 1/2+x,1/2-z,y
93 1/2+z,1/2+y,-x
94 1/2+z,1/2-y,x
95 1/2-z,1/2+y,x
96 1/2-z,1/2-y,-x
97 -x,-y,-z
98 x,y,-z
99 x,-y,z
100 -x,y,z
101 -z,-x,-y
102 -z,x,y
103 z,x,-y
104 z,-x,y
105 -y,-z,-x
106 y,-z,x
107 -y,z,x
108 y,z,-x
109 -y,-x,z
110 y,x,z
111 -y,x,-z
112 y,-x,-z
113 -x,-z,y
114 x,-z,-y
115 x,z,y
116 -x,z,-y
117 -z,-y,x
118 -z,y,-x
119 z,-y,-x
120 z,y,x
121 -x,1/2-y,1/2-z
122 x,1/2+y,1/2-z
123 x,1/2-y,1/2+z
124 -x,1/2+y,1/2+z
125 -z,1/2-x,1/2-y
126 -z,1/2+x,1/2+y
127 z,1/2+x,1/2-y
128 z,1/2-x,1/2+y
129 -y,1/2-z,1/2-x
130 y,1/2-z,1/2+x
131 -y,1/2+z,1/2+x
132 y,1/2+z,1/2-x
133 -y,1/2-x,1/2+z
134 y,1/2+x,1/2+z
135 -y,1/2+x,1/2-z
136 y,1/2-x,1/2-z
137 -x,1/2-z,1/2+y
138 x,1/2-z,1/2-y
139 x,1/2+z,1/2+y
140 -x,1/2+z,1/2-y
141 -z,1/2-y,1/2+x
142 -z,1/2+y,1/2-x
143 z,1/2-y,1/2-x
144 z,1/2+y,1/2+x
145 1/2-x,-y,1/2-z
146 1/2+x,y,1/2-z
147 1/2+x,-y,1/2+z
148 1/2-x,y,1/2+z
149 1/2-z,-x,1/2-y
150 1/2-z,x,1/2+y
151 1/2+z,x,1/2-y
152 1/2+z,-x,1/2+y
153 1/2-y,-z,1/2-x
154 1/2+y,-z,1/2+x
155 1/2-y,z,1/2+x
156 1/2+y,z,1/2-x
157 1/2-y,-x,1/2+z
158 1/2+y,x,1/2+z
159 1/2-y,x,1/2-z
160 1/2+y,-x,1/2-z
161 1/2-x,-z,1/2+y
162 1/2+x,-z,1/2-y
163 1/2+x,z,1/2+y
164 1/2-x,z,1/2-y
165 1/2-z,-y,1/2+x
166 1/2-z,y,1/2-x
167 1/2+z,-y,1/2-x
168 1/2+z,y,1/2+x
169 1/2-x,1/2-y,-z
170 1/2+x,1/2+y,-z
171 1/2+x,1/2-y,z
172 1/2-x,1/2+y,z
173 1/2-z,1/2-x,-y
174 1/2-z,1/2+x,y
175 1/2+z,1/2+x,-y
176 1/2+z,1/2-x,y
177 1/2-y,1/2-z,-x
178 1/2+y,1/2-z,x
179 1/2-y,1/2+z,x
180 1/2+y,1/2+z,-x
181 1/2-y,1/2-x,z
182 1/2+y,1/2+x,z
183 1/2-y,1/2+x,-z
184 1/2+y,1/2-x,-z
185 1/2-x,1/2-z,y
186 1/2+x,1/2-z,-y
187 1/2+x,1/2+z,y
188 1/2-x,1/2+z,-y
189 1/2-z,1/2-y,x
190 1/2-z,1/2+y,-x
191 1/2+z,1/2-y,-x
192 1/2+z,1/2+y,x
_cell_length_a                   59.872(2)
_cell_length_b                   59.872(2)
_cell_length_c                   59.872(2)
_cell_angle_alpha                90
_cell_angle_beta                 90
_cell_angle_gamma                90
_cell_volume                     214621
_cell_formula_units_Z            24
loop_
_atom_site_label
_atom_site_type_symbol
_atom_site_fract_x
_atom_site_fract_y
_atom_site_fract_z
Cu1 Cu 0.0000 0.094635(14) 0.094635(14)
Cu2 Cu 0.0000 0.125943(15) 0.125943(15)
O1 O 0.02336(7) 0.08109(7) 0.11336(7)
O2 O 0.02332(7) 0.10686(8) 0.13976(7)
O3 O 0.0000 0.06936(13) 0.06936(13)
O4 O 0.0000 0.15112(14) 0.15112(14)
C1 C 0.03068(9) 0.08834(9) 0.13304(9)
C2 C 0.04935(10) 0.07797(10) 0.14192(10)
C3 C 0.05733(10) 0.08587(13) 0.16238(13)
H1 H 0.0506 0.0986 0.1691
C4 C 0.0918(3) 0.1195(3) 0.2397(3)
H2 H 0.0798 0.1266 0.2322
C5 C 0.1004(2) 0.1281(3) 0.2599(3)
H3 H 0.0941 0.1412 0.2664
C6 C 0.05957(10) 0.05957(10) 0.13253(15)
H4 H 0.0537 0.0537 0.1190
C7 C 0.07521(8) 0.07521(8) 0.17303(19)
C8 C 0.08428(10) 0.08428(10) 0.1936(2)
C9 C 0.09141(14) 0.09141(14) 0.2098(3)
C10 C 0.10107(14) 0.10107(14) 0.2318(3)
C11 C 0.11774(11) 0.11774(11) 0.2700(3)
C12 C 0.12742(18) 0.12742(18) 0.2906(4)
C13 C 0.13566(17) 0.13566(17) 0.3081(3)
C14 C 0.14475(16) 0.14475(16) 0.3275(3)
C15 C 0.1360(3) 0.16402(18) 0.33598(18)
H5 H 0.1240 0.1714 0.3286
Cu1CA Cu 0.094635(14) 0.5000 0.405365(14)
Cu1UB Cu 0.5000 0.405365(14) 0.094635(14)
Cu1CB Cu 0.405365(14) 0.0000 0.405365(14)
Cu1D Cu 0.094635(14) 0.0000 0.094635(14)
Cu1GB Cu 0.405365(14) -0.094635(14) 0.5000
Cu1FA Cu 0.094635(14) -0.405365(14) 0.5000
Cu1Z Cu 0.0000 -0.405365(14) 0.405365(14)
Cu1J Cu 0.094635(14) -0.094635(14) 0.0000
Cu1CC Cu 0.405365(14) -0.405365(14) 0.0000
Cu1ZB Cu 0.405365(14) -0.5000 0.094635(14)
Cu1C Cu 0.0000 -0.094635(14) -0.094635(14)
Cu1BA Cu 0.094635(14) -0.5000 0.594635(14)
Cu1CA_2 Cu 0.094635(14) -0.5000 0.405365(14)
Cu1TB Cu 0.5000 -0.405365(14) 0.094635(14)
Cu1VB Cu 0.5000 -0.405365(14) -0.094635(14)
Cu1EC Cu 0.405365(14) -0.594635(14) 0.0000
Cu1G Cu -0.094635(14) 0.0000 -0.094635(14)
Cu1A Cu 0.0000 -0.094635(14) 0.094635(14)
Cu2CA Cu 0.125943(15) 0.5000 0.374057(15)
Cu2UB Cu 0.5000 0.374057(15) 0.125943(15)
Cu2CB Cu 0.374057(15) 0.0000 0.374057(15)
Cu2D Cu 0.125943(15) 0.0000 0.125943(15)
Cu2GB Cu 0.374057(15) -0.125943(15) 0.5000
Cu2FA Cu 0.125943(15) -0.374057(15) 0.5000
Cu2Z Cu 0.0000 -0.374057(15) 0.374057(15)
Cu2J Cu 0.125943(15) -0.125943(15) 0.0000
Cu2CC Cu 0.374057(15) -0.374057(15) 0.0000
Cu2ZB Cu 0.374057(15) -0.5000 0.125943(15)
Cu2C Cu 0.0000 -0.125943(15) -0.125943(15)
Cu2BA Cu 0.125943(15) -0.5000 0.625943(15)
Cu2CA_2 Cu 0.125943(15) -0.5000 0.374057(15)
Cu2TB Cu 0.5000 -0.374057(15) 0.125943(15)
Cu2VB Cu 0.5000 -0.374057(15) -0.125943(15)
Cu2EC Cu 0.374057(15) -0.625943(15) 0.0000
Cu2G Cu -0.125943(15) 0.0000 -0.125943(15)
Cu2A Cu 0.0000 -0.125943(15) 0.125943(15)
O1Q O -0.02336(7) 0.11336(7) 0.08109(7)
O1UC O -0.02336(7) 0.08109(7) 0.11336(7)
O1JD O 0.02336(7) 0.11336(7) 0.08109(7)
O1EE O 0.08109(7) 0.47664(7) 0.38664(7)
O1VD O 0.11336(7) 0.52336(7) 0.41891(7)
O1JA O 0.08109(7) 0.52336(7) 0.38664(7)
O1CA O 0.11336(7) 0.47664(7) 0.41891(7)
O1UB O 0.47664(7) 0.41891(7) 0.11336(7)
O1MC O 0.52336(7) 0.38664(7) 0.08109(7)
O1NF O 0.52336(7) 0.41891(7) 0.11336(7)
O1BG O 0.47664(7) 0.38664(7) 0.08109(7)
O1BF O 0.41891(7) 0.02336(7) 0.38664(7)
O1RE O 0.38664(7) -0.02336(7) 0.41891(7)
O1IB O 0.41891(7) -0.02336(7) 0.38664(7)
O1CB O 0.38664(7) 0.02336(7) 0.41891(7)
O1ED O 0.08109(7) 0.02336(7) 0.11336(7)
O1YC O 0.11336(7) -0.02336(7) 0.08109(7)
O1N O 0.08109(7) -0.02336(7) 0.11336(7)
O1SB O 0.38664(7) -0.08109(7) 0.47664(7)
O1GB O 0.41891(7) -0.11336(7) 0.52336(7)
O1HF O 0.38664(7) -0.08109(7) 0.52336(7)
O1VE O 0.41891(7) -0.11336(7) 0.47664(7)
O1VD_2 O 0.11336(7) -0.47664(7) 0.41891(7)
O1RA O 0.11336(7) -0.41891(7) 0.47664(7)
O1FA O 0.08109(7) -0.38664(7) 0.52336(7)
O1ME O 0.11336(7) -0.41891(7) 0.52336(7)
O1AE O 0.08109(7) -0.38664(7) 0.47664(7)
O1NA O 0.02336(7) -0.38664(7) 0.41891(7)
O1Z O -0.02336(7) -0.41891(7) 0.38664(7)
O1IE O -0.02336(7) -0.38664(7) 0.41891(7)
O1QD O 0.02336(7) -0.41891(7) 0.38664(7)
O1AD O 0.08109(7) -0.11336(7) 0.02336(7)
O1ND O 0.11336(7) -0.08109(7) -0.02336(7)
O1J O 0.08109(7) -0.11336(7) -0.02336(7)
O1U O 0.11336(7) -0.08109(7) 0.02336(7)
O1KC O 0.47664(7) -0.38664(7) 0.08109(7)
O1VF O 0.41891(7) -0.38664(7) 0.02336(7)
O1GG O 0.38664(7) -0.41891(7) -0.02336(7)
O1CC O 0.41891(7) -0.38664(7) -0.02336(7)
O1PC O 0.38664(7) -0.41891(7) 0.02336(7)
O1EG O 0.47664(7) -0.38664(7) -0.08109(7)
O1QF O 0.38664(7) -0.47664(7) 0.08109(7)
O1XF O 0.41891(7) -0.52336(7) 0.11336(7)
O1ZB O 0.38664(7) -0.52336(7) 0.08109(7)
O1IC O 0.41891(7) -0.47664(7) 0.11336(7)
O1FG O 0.38664(7) -0.58109(7) 0.02336(7)
O1OF O 0.47664(7) -0.41891(7) 0.11336(7)
O1ID O 0.02336(7) -0.11336(7) -0.08109(7)
O1RC O -0.02336(7) -0.08109(7) -0.11336(7)
O1R O -0.02336(7) -0.11336(7) -0.08109(7)
O1C O 0.02336(7) -0.08109(7) -0.11336(7)
O1M O -0.08109(7) -0.02336(7) -0.11336(7)
O1S O 0.02336(7) -0.11336(7) 0.08109(7)
O1JA_2 O 0.08109(7) -0.47664(7) 0.38664(7)
O1BA O 0.11336(7) -0.47664(7) 0.58109(7)
O1TC O 0.02336(7) -0.08109(7) 0.11336(7)
O1D O 0.11336(7) 0.02336(7) 0.08109(7)
O1LA O 0.08109(7) -0.52336(7) 0.61336(7)
O1WD O 0.11336(7) -0.52336(7) 0.58109(7)
O1CE O 0.08109(7) -0.47664(7) 0.61336(7)
O1DF O 0.47664(7) -0.11336(7) 0.58109(7)
O1HE O 0.02336(7) -0.38664(7) 0.58109(7)
O1DE O -0.08109(7) -0.47664(7) 0.38664(7)
O1E O 0.11336(7) -0.02336(7) -0.08109(7)
O1AC O 0.38664(7) -0.47664(7) -0.08109(7)
O1UB_2 O 0.47664(7) -0.58109(7) 0.11336(7)
O1ZC O -0.08109(7) -0.11336(7) -0.02336(7)
O1GD O 0.08109(7) -0.02336(7) -0.11336(7)
O2Q O -0.02332(7) 0.13976(7) 0.10686(8)
O2UC O -0.02332(7) 0.10686(8) 0.13976(7)
O2JD O 0.02332(7) 0.13976(7) 0.10686(8)
O2EE O 0.10686(8) 0.47668(7) 0.36024(7)
O2VD O 0.13976(7) 0.52332(7) 0.39314(8)
O2JA O 0.10686(8) 0.52332(7) 0.36024(7)
O2CA O 0.13976(7) 0.47668(7) 0.39314(8)
O2UB O 0.47668(7) 0.39314(8) 0.13976(7)
O2MC O 0.52332(7) 0.36024(7) 0.10686(8)
O2NF O 0.52332(7) 0.39314(8) 0.13976(7)
O2BG O 0.47668(7) 0.36024(7) 0.10686(8)
O2BF O 0.39314(8) 0.02332(7) 0.36024(7)
O2RE O 0.36024(7) -0.02332(7) 0.39314(8)
O2IB O 0.39314(8) -0.02332(7) 0.36024(7)
O2CB O 0.36024(7) 0.02332(7) 0.39314(8)
O2ED O 0.10686(8) 0.02332(7) 0.13976(7)
O2YC O 0.13976(7) -0.02332(7) 0.10686(8)
O2N O 0.10686(8) -0.02332(7) 0.13976(7)
O2SB O 0.36024(7) -0.10686(8) 0.47668(7)
O2HF O 0.36024(7) -0.10686(8) 0.52332(7)
O2GB O 0.39314(8) -0.13976(7) 0.52332(7)
O2VE O 0.39314(8) -0.13976(7) 0.47668(7)
O2VD_2 O 0.13976(7) -0.47668(7) 0.39314(8)
O2RA O 0.13976(7) -0.39314(8) 0.47668(7)
O2ME O 0.13976(7) -0.39314(8) 0.52332(7)
O2FA O 0.10686(8) -0.36024(7) 0.52332(7)
O2AE O 0.10686(8) -0.36024(7) 0.47668(7)
O2NA O 0.02332(7) -0.36024(7) 0.39314(8)
O2IE O -0.02332(7) -0.36024(7) 0.39314(8)
O2Z O -0.02332(7) -0.39314(8) 0.36024(7)
O2QD O 0.02332(7) -0.39314(8) 0.36024(7)
O2AD O 0.10686(8) -0.13976(7) 0.02332(7)
O2J O 0.10686(8) -0.13976(7) -0.02332(7)
O2ND O 0.13976(7) -0.10686(8) -0.02332(7)
O2U O 0.13976(7) -0.10686(8) 0.02332(7)
O2KC O 0.47668(7) -0.36024(7) 0.10686(8)
O2VF O 0.39314(8) -0.36024(7) 0.02332(7)
O2PC O 0.36024(7) -0.39314(8) 0.02332(7)
O2GG O 0.36024(7) -0.39314(8) -0.02332(7)
O2CC O 0.39314(8) -0.36024(7) -0.02332(7)
O2EG O 0.47668(7) -0.36024(7) -0.10686(8)
O2QF O 0.36024(7) -0.47668(7) 0.10686(8)
O2XF O 0.39314(8) -0.52332(7) 0.13976(7)
O2ZB O 0.36024(7) -0.52332(7) 0.10686(8)
O2FG O 0.36024(7) -0.60686(8) 0.02332(7)
O2IC O 0.39314(8) -0.47668(7) 0.13976(7)
O2OF O 0.47668(7) -0.39314(8) 0.13976(7)
O2ID O 0.02332(7) -0.13976(7) -0.10686(8)
O2RC O -0.02332(7) -0.10686(8) -0.13976(7)
O2M O -0.10686(8) -0.02332(7) -0.13976(7)
O2R O -0.02332(7) -0.13976(7) -0.10686(8)
O2C O 0.02332(7) -0.10686(8) -0.13976(7)
O2S O 0.02332(7) -0.13976(7) 0.10686(8)
O2JA_2 O 0.10686(8) -0.47668(7) 0.36024(7)
O2BA O 0.13976(7) -0.47668(7) 0.60686(8)
O2LA O 0.10686(8) -0.52332(7) 0.63976(7)
O2WD O 0.13976(7) -0.52332(7) 0.60686(8)
O2CE O 0.10686(8) -0.47668(7) 0.63976(7)
O2TC O 0.02332(7) -0.10686(8) 0.13976(7)
O2D O 0.13976(7) 0.02332(7) 0.10686(8)
O2DF O 0.47668(7) -0.13976(7) 0.60686(8)
O2HE O 0.02332(7) -0.36024(7) 0.60686(8)
O2DE O -0.10686(8) -0.47668(7) 0.36024(7)
O2E O 0.13976(7) -0.02332(7) -0.10686(8)
O2AC O 0.36024(7) -0.47668(7) -0.10686(8)
O2UB_2 O 0.47668(7) -0.60686(8) 0.13976(7)
O2ZC O -0.10686(8) -0.13976(7) -0.02332(7)
O2GD O 0.10686(8) -0.02332(7) -0.13976(7)
O3CA O 0.06936(13) 0.5000 0.43064(13)
O3UB O 0.5000 0.43064(13) 0.06936(13)
O3CB O 0.43064(13) 0.0000 0.43064(13)
O3GB O 0.43064(13) -0.06936(13) 0.5000
O3FA O 0.06936(13) -0.43064(13) 0.5000
O3ZB O 0.43064(13) -0.5000 0.06936(13)
O3CC O 0.43064(13) -0.43064(13) 0.0000
O3C O 0.0000 -0.06936(13) -0.06936(13)
O3J O 0.06936(13) -0.06936(13) 0.0000
O3Z O 0.0000 -0.43064(13) 0.43064(13)
O3D O 0.06936(13) 0.0000 0.06936(13)
O3BA O 0.06936(13) -0.5000 0.56936(13)
O4CC O 0.34888(14) -0.34888(14) 0.0000
O4ZB O 0.34888(14) -0.5000 0.15112(14)
O4J O 0.15112(14) -0.15112(14) 0.0000
O4C O 0.0000 -0.15112(14) -0.15112(14)
O4Z O 0.0000 -0.34888(14) 0.34888(14)
O4FA O 0.15112(14) -0.34888(14) 0.5000
O4BA O 0.15112(14) -0.5000 0.65112(14)
O4GB O 0.34888(14) -0.15112(14) 0.5000
O4D O 0.15112(14) 0.0000 0.15112(14)
O4CB O 0.34888(14) 0.0000 0.34888(14)
O4UB O 0.5000 0.34888(14) 0.15112(14)
O4CA O 0.15112(14) 0.5000 0.34888(14)
C1Q C -0.03068(9) 0.13304(9) 0.08834(9)
C1UC C -0.03068(9) 0.08834(9) 0.13304(9)
C1JD C 0.03068(9) 0.13304(9) 0.08834(9)
C1EE C 0.08834(9) 0.46932(9) 0.36696(9)
C1VD C 0.13304(9) 0.53068(9) 0.41166(9)
C1JA C 0.08834(9) 0.53068(9) 0.36696(9)
C1CA C 0.13304(9) 0.46932(9) 0.41166(9)
C1UB C 0.46932(9) 0.41166(9) 0.13304(9)
C1MC C 0.53068(9) 0.36696(9) 0.08834(9)
C1NF C 0.53068(9) 0.41166(9) 0.13304(9)
C1BG C 0.46932(9) 0.36696(9) 0.08834(9)
C1BF C 0.41166(9) 0.03068(9) 0.36696(9)
C1RE C 0.36696(9) -0.03068(9) 0.41166(9)
C1IB C 0.41166(9) -0.03068(9) 0.36696(9)
C1CB C 0.36696(9) 0.03068(9) 0.41166(9)
C1ED C 0.08834(9) 0.03068(9) 0.13304(9)
C1YC C 0.13304(9) -0.03068(9) 0.08834(9)
C1N C 0.08834(9) -0.03068(9) 0.13304(9)
C1SB C 0.36696(9) -0.08834(9) 0.46932(9)
C1GB C 0.41166(9) -0.13304(9) 0.53068(9)
C1HF C 0.36696(9) -0.08834(9) 0.53068(9)
C1DF C 0.46932(9) -0.13304(9) 0.58834(9)
C1VE C 0.41166(9) -0.13304(9) 0.46932(9)
C1VD_2 C 0.13304(9) -0.46932(9) 0.41166(9)
C1RA C 0.13304(9) -0.41166(9) 0.46932(9)
C1FA C 0.08834(9) -0.36696(9) 0.53068(9)
C1ME C 0.13304(9) -0.41166(9) 0.53068(9)
C1HE C 0.03068(9) -0.36696(9) 0.58834(9)
C1AE C 0.08834(9) -0.36696(9) 0.46932(9)
C1NA C 0.03068(9) -0.36696(9) 0.41166(9)
C1Z C -0.03068(9) -0.41166(9) 0.36696(9)
C1IE C -0.03068(9) -0.36696(9) 0.41166(9)
C1DE C -0.08834(9) -0.46932(9) 0.36696(9)
C1QD C 0.03068(9) -0.41166(9) 0.36696(9)
C1AD C 0.08834(9) -0.13304(9) 0.03068(9)
C1ND C 0.13304(9) -0.08834(9) -0.03068(9)
C1J C 0.08834(9) -0.13304(9) -0.03068(9)
C1E C 0.13304(9) -0.03068(9) -0.08834(9)
C1U C 0.13304(9) -0.08834(9) 0.03068(9)
C1KC C 0.46932(9) -0.36696(9) 0.08834(9)
C1VF C 0.41166(9) -0.36696(9) 0.03068(9)
C1GG C 0.36696(9) -0.41166(9) -0.03068(9)
C1CC C 0.41166(9) -0.36696(9) -0.03068(9)
C1PC C 0.36696(9) -0.41166(9) 0.03068(9)
C1AC C 0.36696(9) -0.46932(9) -0.08834(9)
C1EG C 0.46932(9) -0.36696(9) -0.08834(9)
C1QF C 0.36696(9) -0.46932(9) 0.08834(9)
C1XF C 0.41166(9) -0.53068(9) 0.13304(9)
C1ZB C 0.36696(9) -0.53068(9) 0.08834(9)
C1IC C 0.41166(9) -0.46932(9) 0.13304(9)
C1UB_2 C 0.46932(9) -0.58834(9) 0.13304(9)
C1FG C 0.36696(9) -0.58834(9) 0.03068(9)
C1OF C 0.46932(9) -0.41166(9) 0.13304(9)
C1ID C 0.03068(9) -0.13304(9) -0.08834(9)
C1RC C -0.03068(9) -0.08834(9) -0.13304(9)
C1R C -0.03068(9) -0.13304(9) -0.08834(9)
C1C C 0.03068(9) -0.08834(9) -0.13304(9)
C1M C -0.08834(9) -0.03068(9) -0.13304(9)
C1ZC C -0.08834(9) -0.13304(9) -0.03068(9)
C1GD C 0.08834(9) -0.03068(9) -0.13304(9)
C1S C 0.03068(9) -0.13304(9) 0.08834(9)
C1JA_2 C 0.08834(9) -0.46932(9) 0.36696(9)
C1BA C 0.13304(9) -0.46932(9) 0.58834(9)
C1TC C 0.03068(9) -0.08834(9) 0.13304(9)
C1D C 0.13304(9) 0.03068(9) 0.08834(9)
C1H C 0.08834(9) 0.13304(9) 0.03068(9)
C1LE C 0.13304(9) 0.41166(9) 0.46932(9)
C1EC C 0.41166(9) 0.36696(9) 0.03068(9)
C1IF C 0.36696(9) 0.08834(9) 0.46932(9)
C1NB C 0.46932(9) -0.13304(9) 0.41166(9)
C1LA C 0.08834(9) -0.53068(9) 0.63304(9)
C1WD C 0.13304(9) -0.53068(9) 0.58834(9)
C1CE C 0.08834(9) -0.46932(9) 0.63304(9)
C2JD C 0.04935(10) 0.14192(10) 0.07797(10)
C2H C 0.07797(10) 0.14192(10) 0.04935(10)
C2EE C 0.07797(10) 0.45065(10) 0.35808(10)
C2CA C 0.14192(10) 0.45065(10) 0.42203(10)
C2LE C 0.14192(10) 0.42203(10) 0.45065(10)
C2UB C 0.45065(10) 0.42203(10) 0.14192(10)
C2BG C 0.45065(10) 0.35808(10) 0.07797(10)
C2EC C 0.42203(10) 0.35808(10) 0.04935(10)
C2BF C 0.42203(10) 0.04935(10) 0.35808(10)
C2CB C 0.35808(10) 0.04935(10) 0.42203(10)
C2IF C 0.35808(10) 0.07797(10) 0.45065(10)
C2ED C 0.07797(10) 0.04935(10) 0.14192(10)
C2N C 0.07797(10) -0.04935(10) 0.14192(10)
C2TC C 0.04935(10) -0.07797(10) 0.14192(10)
C2SB C 0.35808(10) -0.07797(10) 0.45065(10)
C2GB C 0.42203(10) -0.14192(10) 0.54935(10)
C2DF C 0.45065(10) -0.14192(10) 0.57797(10)
C2VE C 0.42203(10) -0.14192(10) 0.45065(10)
C2NB C 0.45065(10) -0.14192(10) 0.42203(10)
C2VD C 0.14192(10) -0.45065(10) 0.42203(10)
C2RA C 0.14192(10) -0.42203(10) 0.45065(10)
C2FA C 0.07797(10) -0.35808(10) 0.54935(10)
C2HE C 0.04935(10) -0.35808(10) 0.57797(10)
C2AE C 0.07797(10) -0.35808(10) 0.45065(10)
C2NA C 0.04935(10) -0.35808(10) 0.42203(10)
C2Z C -0.04935(10) -0.42203(10) 0.35808(10)
C2DE C -0.07797(10) -0.45065(10) 0.35808(10)
C2QD C 0.04935(10) -0.42203(10) 0.35808(10)
C2JA C 0.07797(10) -0.45065(10) 0.35808(10)
C2AD C 0.07797(10) -0.14192(10) 0.04935(10)
C2ND C 0.14192(10) -0.07797(10) -0.04935(10)
C2E C 0.14192(10) -0.04935(10) -0.07797(10)
C2U C 0.14192(10) -0.07797(10) 0.04935(10)
C2YC C 0.14192(10) -0.04935(10) 0.07797(10)
C2KC C 0.45065(10) -0.35808(10) 0.07797(10)
C2VF C 0.42203(10) -0.35808(10) 0.04935(10)
C2GG C 0.35808(10) -0.42203(10) -0.04935(10)
C2AC C 0.35808(10) -0.45065(10) -0.07797(10)
C2CC C 0.42203(10) -0.35808(10) -0.04935(10)
C2EG C 0.45065(10) -0.35808(10) -0.07797(10)
C2PC C 0.35808(10) -0.42203(10) 0.04935(10)
C2QF C 0.35808(10) -0.45065(10) 0.07797(10)
C2XF C 0.42203(10) -0.54935(10) 0.14192(10)
C2UB_2 C 0.45065(10) -0.57797(10) 0.14192(10)
C2ZB C 0.35808(10) -0.54935(10) 0.07797(10)
C2FG C 0.35808(10) -0.57797(10) 0.04935(10)
C2IC C 0.42203(10) -0.45065(10) 0.14192(10)
C2OF C 0.45065(10) -0.42203(10) 0.14192(10)
C2J C 0.07797(10) -0.14192(10) -0.04935(10)
C2ID C 0.04935(10) -0.14192(10) -0.07797(10)
C2RC C -0.04935(10) -0.07797(10) -0.14192(10)
C2M C -0.07797(10) -0.04935(10) -0.14192(10)
C2R C -0.04935(10) -0.14192(10) -0.07797(10)
C2ZC C -0.07797(10) -0.14192(10) -0.04935(10)
C2C C 0.04935(10) -0.07797(10) -0.14192(10)
C2GD C 0.07797(10) -0.04935(10) -0.14192(10)
C2S C 0.04935(10) -0.14192(10) 0.07797(10)
C2IE C -0.04935(10) -0.35808(10) 0.42203(10)
C2ME C 0.14192(10) -0.42203(10) 0.54935(10)
C2BA C 0.14192(10) -0.45065(10) 0.57797(10)
C2HF C 0.35808(10) -0.07797(10) 0.54935(10)
C2RE C 0.35808(10) -0.04935(10) 0.42203(10)
C2IB C 0.42203(10) -0.04935(10) 0.35808(10)
C2NF C 0.54935(10) 0.42203(10) 0.14192(10)
C2MC C 0.54935(10) 0.35808(10) 0.07797(10)
C2JA_2 C 0.07797(10) 0.54935(10) 0.35808(10)
C2VD_2 C 0.14192(10) 0.54935(10) 0.42203(10)
C2UC C -0.04935(10) 0.07797(10) 0.14192(10)
C2Q C -0.04935(10) 0.14192(10) 0.07797(10)
C2D C 0.14192(10) 0.04935(10) 0.07797(10)
C2NE C 0.45065(10) -0.07797(10) 0.35808(10)
C3JD C 0.05733(10) 0.16238(13) 0.08587(13)
C3H C 0.08587(13) 0.16238(13) 0.05733(10)
C3EE C 0.08587(13) 0.44267(10) 0.33762(13)
C3CA C 0.16238(13) 0.44267(10) 0.41413(13)
C3LE C 0.16238(13) 0.41413(13) 0.44267(10)
C3UB C 0.44267(10) 0.41413(13) 0.16238(13)
C3BG C 0.44267(10) 0.33762(13) 0.08587(13)
C3EC C 0.41413(13) 0.33762(13) 0.05733(10)
C3BF C 0.41413(13) 0.05733(10) 0.33762(13)
C3CB C 0.33762(13) 0.05733(10) 0.41413(13)
C3IF C 0.33762(13) 0.08587(13) 0.44267(10)
C3N C 0.08587(13) -0.05733(10) 0.16238(13)
C3TC C 0.05733(10) -0.08587(13) 0.16238(13)
C3SB C 0.33762(13) -0.08587(13) 0.44267(10)
C3GB C 0.41413(13) -0.16238(13) 0.55733(10)
C3VE C 0.41413(13) -0.16238(13) 0.44267(10)
C3NB C 0.44267(10) -0.16238(13) 0.41413(13)
C3VD C 0.16238(13) -0.44267(10) 0.41413(13)
C3FA C 0.08587(13) -0.33762(13) 0.55733(10)
C3AE C 0.08587(13) -0.33762(13) 0.44267(10)
C3Z C -0.05733(10) -0.41413(13) 0.33762(13)
C3DE C -0.08587(13) -0.44267(10) 0.33762(13)
C3QD C 0.05733(10) -0.41413(13) 0.33762(13)
C3JA C 0.08587(13) -0.44267(10) 0.33762(13)
C3AD C 0.08587(13) -0.16238(13) 0.05733(10)
C3ND C 0.16238(13) -0.08587(13) -0.05733(10)
C3U C 0.16238(13) -0.08587(13) 0.05733(10)
C3YC C 0.16238(13) -0.05733(10) 0.08587(13)
C3KC C 0.44267(10) -0.33762(13) 0.08587(13)
C3GG C 0.33762(13) -0.41413(13) -0.05733(10)
C3CC C 0.41413(13) -0.33762(13) -0.05733(10)
C3EG C 0.44267(10) -0.33762(13) -0.08587(13)
C3PC C 0.33762(13) -0.41413(13) 0.05733(10)
C3XF C 0.41413(13) -0.55733(10) 0.16238(13)
C3UB_2 C 0.44267(10) -0.58587(13) 0.16238(13)
C3ZB C 0.33762(13) -0.55733(10) 0.08587(13)
C3FG C 0.33762(13) -0.58587(13) 0.05733(10)
C3IC C 0.41413(13) -0.44267(10) 0.16238(13)
C3OF C 0.44267(10) -0.41413(13) 0.16238(13)
C3QF C 0.33762(13) -0.44267(10) 0.08587(13)
C3VF C 0.41413(13) -0.33762(13) 0.05733(10)
C3IB C 0.41413(13) -0.05733(10) 0.33762(13)
C3NE C 0.44267(10) -0.08587(13) 0.33762(13)
C3J C 0.08587(13) -0.16238(13) -0.05733(10)
C3RC C -0.05733(10) -0.08587(13) -0.16238(13)
C3M C -0.08587(13) -0.05733(10) -0.16238(13)
C3R C -0.05733(10) -0.16238(13) -0.08587(13)
C3C C 0.05733(10) -0.08587(13) -0.16238(13)
C3GD C 0.08587(13) -0.05733(10) -0.16238(13)
C3ID C 0.05733(10) -0.16238(13) -0.08587(13)
C3S C 0.05733(10) -0.16238(13) 0.08587(13)
C3NA C 0.05733(10) -0.33762(13) 0.41413(13)
C3ME C 0.16238(13) -0.41413(13) 0.55733(10)
C3BA C 0.16238(13) -0.44267(10) 0.58587(13)
C3RA C 0.16238(13) -0.41413(13) 0.44267(10)
C3RE C 0.33762(13) -0.05733(10) 0.41413(13)
C3ED C 0.08587(13) 0.05733(10) 0.16238(13)
C3HA C 0.08587(13) 0.33762(13) 0.44267(10)
C3GE C 0.05733(10) 0.33762(13) 0.41413(13)
C3XA C 0.44267(10) 0.08587(13) 0.33762(13)
C3OD C 0.16238(13) 0.08587(13) 0.05733(10)
C3D C 0.16238(13) 0.05733(10) 0.08587(13)
C3XF_2 C 0.41413(13) 0.44267(10) 0.16238(13)
C3EB C 0.41413(13) 0.16238(13) 0.44267(10)
C3GF C 0.44267(10) 0.16238(13) 0.41413(13)
C3AA C 0.05733(10) 0.41413(13) 0.33762(13)
C3FG_2 C 0.33762(13) 0.41413(13) 0.05733(10)
C3ZB_2 C 0.33762(13) 0.44267(10) 0.08587(13)
C3DF C 0.44267(10) -0.16238(13) 0.58587(13)
C3HE C 0.05733(10) -0.33762(13) 0.58587(13)
C3E C 0.16238(13) -0.05733(10) -0.08587(13)
C3AC C 0.33762(13) -0.44267(10) -0.08587(13)
C3ZC C -0.08587(13) -0.16238(13) -0.05733(10)
C3IE C -0.05733(10) -0.33762(13) 0.41413(13)
C3HF C 0.33762(13) -0.08587(13) 0.55733(10)
H1JD H 0.0506 0.1691 0.0986
H1H H 0.0986 0.1691 0.0506
H1CA H 0.1691 0.4494 0.4014
H1LE H 0.1691 0.4014 0.4494
H1BG H 0.4494 0.3309 0.0986
H1EC H 0.4014 0.3309 0.0506
H1CB H 0.3309 0.0506 0.4014
H1IF H 0.3309 0.0986 0.4494
H1N H 0.0986 -0.0506 0.1691
H1TC H 0.0506 -0.0986 0.1691
H1VE H 0.4014 -0.1691 0.4494
H1NB H 0.4494 -0.1691 0.4014
H1AE H 0.0986 -0.3309 0.4494
H1QD H 0.0506 -0.4014 0.3309
H1JA H 0.0986 -0.4494 0.3309
H1U H 0.1691 -0.0986 0.0506
H1YC H 0.1691 -0.0506 0.0986
H1CC H 0.4014 -0.3309 -0.0506
H1PC H 0.3309 -0.4014 0.0506
H1ZB H 0.3309 -0.5506 0.0986
H1IC H 0.4014 -0.4494 0.1691
H1KC H 0.4494 -0.3309 0.0986
H1J H 0.0986 -0.1691 -0.0506
H1RC H -0.0506 -0.0986 -0.1691
H1AD H 0.0986 -0.1691 0.0506
H1ME H 0.1691 -0.4014 0.5506
H1VD H 0.1691 -0.4494 0.4014
H1SB H 0.3309 -0.0986 0.4494
H1BF H 0.4014 0.0506 0.3309
H1UB H 0.4494 0.4014 0.1691
H1EE H 0.0986 0.4494 0.3309
H1EG H 0.4494 -0.3309 -0.0986
H1FG H 0.3309 -0.5986 0.0506
H1IB H 0.4014 -0.0506 0.3309
H1ID H 0.0506 -0.1691 -0.0986
H1M H -0.0986 -0.0506 -0.1691
H1BA H 0.1691 -0.4494 0.5986
H1D H 0.1691 0.0506 0.0986
H1GB H 0.4014 -0.1691 0.5506
H1FA H 0.0986 -0.3309 0.5506
H1Z H -0.0506 -0.4014 0.3309
H1DE H -0.0986 -0.4494 0.3309
H1ND H 0.1691 -0.0986 -0.0506
H1GG H 0.3309 -0.4014 -0.0506
H1XF H 0.4014 -0.5506 0.1691
H1UB_2 H 0.4494 -0.5986 0.1691
H1OF H 0.4494 -0.4014 0.1691
H1QF H 0.3309 -0.4494 0.0986
H1VF H 0.4014 -0.3309 0.0506
H1NE H 0.4494 -0.0986 0.3309
H1R H -0.0506 -0.1691 -0.0986
H1C H 0.0506 -0.0986 -0.1691
H1GD H 0.0986 -0.0506 -0.1691
H1S H 0.0506 -0.1691 0.0986
H1NA H 0.0506 -0.3309 0.4014
H1RA H 0.1691 -0.4014 0.4494
H1RE H 0.3309 -0.0506 0.4014
H1ED H 0.0986 0.0506 0.1691
C4JD C 0.0918(3) 0.2397(3) 0.1195(3)
C4H C 0.1195(3) 0.2397(3) 0.0918(3)
C4EE C 0.1195(3) 0.4082(3) 0.2603(3)
C4AA C 0.0918(3) 0.3805(3) 0.2603(3)
C4CA C 0.2397(3) 0.4082(3) 0.3805(3)
C4LE C 0.2397(3) 0.3805(3) 0.4082(3)
C4UB C 0.4082(3) 0.3805(3) 0.2397(3)
C4XF C 0.3805(3) 0.4082(3) 0.2397(3)
C4BG C 0.4082(3) 0.2603(3) 0.1195(3)
C4EC C 0.3805(3) 0.2603(3) 0.0918(3)
C4BF C 0.3805(3) 0.0918(3) 0.2603(3)
C4XA C 0.4082(3) 0.1195(3) 0.2603(3)
C4CB C 0.2603(3) 0.0918(3) 0.3805(3)
C4IF C 0.2603(3) 0.1195(3) 0.4082(3)
C4ED C 0.1195(3) 0.0918(3) 0.2397(3)
C4N C 0.1195(3) -0.0918(3) 0.2397(3)
C4TC C 0.0918(3) -0.1195(3) 0.2397(3)
C4SB C 0.2603(3) -0.1195(3) 0.4082(3)
C4RE C 0.2603(3) -0.0918(3) 0.3805(3)
C4VE C 0.3805(3) -0.2397(3) 0.4082(3)
C4NB C 0.4082(3) -0.2397(3) 0.3805(3)
C4VD C 0.2397(3) -0.4082(3) 0.3805(3)
C4RA C 0.2397(3) -0.3805(3) 0.4082(3)
C4QD C 0.0918(3) -0.3805(3) 0.2603(3)
C4JA C 0.1195(3) -0.4082(3) 0.2603(3)
C4AD C 0.1195(3) -0.2397(3) 0.0918(3)
C4S C 0.0918(3) -0.2397(3) 0.1195(3)
C4U C 0.2397(3) -0.1195(3) 0.0918(3)
C4YC C 0.2397(3) -0.0918(3) 0.1195(3)
C4KC C 0.4082(3) -0.2603(3) 0.1195(3)
C4VF C 0.3805(3) -0.2603(3) 0.0918(3)
C4IB C 0.3805(3) -0.0918(3) 0.2603(3)
C4NE C 0.4082(3) -0.1195(3) 0.2603(3)
C4QF C 0.2603(3) -0.4082(3) 0.1195(3)
C4PC C 0.2603(3) -0.3805(3) 0.0918(3)
C4OF C 0.4082(3) -0.3805(3) 0.2397(3)
C4IC C 0.3805(3) -0.4082(3) 0.2397(3)
C4NA C 0.0918(3) -0.2603(3) 0.3805(3)
C4AE C 0.1195(3) -0.2603(3) 0.4082(3)
C4HA C 0.1195(3) 0.2603(3) 0.4082(3)
C4GE C 0.0918(3) 0.2603(3) 0.3805(3)
C4OD C 0.2397(3) 0.1195(3) 0.0918(3)
C4D C 0.2397(3) 0.0918(3) 0.1195(3)
C4EB C 0.3805(3) 0.2397(3) 0.4082(3)
C4GF C 0.4082(3) 0.2397(3) 0.3805(3)
C4FG C 0.2603(3) 0.3805(3) 0.0918(3)
C4ZB C 0.2603(3) 0.4082(3) 0.1195(3)
H2JD H 0.0798 0.2322 0.1266
H2EE H 0.1266 0.4202 0.2678
H2AA H 0.0798 0.3734 0.2678
H2CA H 0.2322 0.4202 0.3734
H2UB H 0.4202 0.3734 0.2322
H2XF H 0.3734 0.4202 0.2322
H2BG H 0.4202 0.2678 0.1266
H2BF H 0.3734 0.0798 0.2678
H2XA H 0.4202 0.1266 0.2678
H2CB H 0.2678 0.0798 0.3734
H2ED H 0.1266 0.0798 0.2322
H2N H 0.1266 -0.0798 0.2322
H2SB H 0.2678 -0.1266 0.4202
H2RE H 0.2678 -0.0798 0.3734
H2VE H 0.3734 -0.2322 0.4202
H2VD H 0.2322 -0.4202 0.3734
H2RA H 0.2322 -0.3734 0.4202
H2QD H 0.0798 -0.3734 0.2678
H2AD H 0.1266 -0.2322 0.0798
H2S H 0.0798 -0.2322 0.1266
H2U H 0.2322 -0.1266 0.0798
H2KC H 0.4202 -0.2678 0.1266
H2VF H 0.3734 -0.2678 0.0798
H2IB H 0.3734 -0.0798 0.2678
H2NE H 0.4202 -0.1266 0.2678
H2YC H 0.2322 -0.0798 0.1266
H2QF H 0.2678 -0.4202 0.1266
H2PC H 0.2678 -0.3734 0.0798
H2JA H 0.1266 -0.4202 0.2678
H2OF H 0.4202 -0.3734 0.2322
H2IC H 0.3734 -0.4202 0.2322
H2NB H 0.4202 -0.2322 0.3734
H2NA H 0.0798 -0.2678 0.3734
H2AE H 0.1266 -0.2678 0.4202
H2TC H 0.0798 -0.1266 0.2322
H2HA H 0.1266 0.2678 0.4202
H2GE H 0.0798 0.2678 0.3734
H2IF H 0.2678 0.1266 0.4202
H2OD H 0.2322 0.1266 0.0798
H2D H 0.2322 0.0798 0.1266
H2EC H 0.3734 0.2678 0.0798
H2EB H 0.3734 0.2322 0.4202
H2GF H 0.4202 0.2322 0.3734
H2LE H 0.2322 0.3734 0.4202
H2FG H 0.2678 0.3734 0.0798
H2ZB H 0.2678 0.4202 0.1266
H2H H 0.1266 0.2322 0.0798
C5JD C 0.1004(2) 0.2599(3) 0.1281(3)
C5H C 0.1281(3) 0.2599(3) 0.1004(2)
C5EE C 0.1281(3) 0.3996(2) 0.2401(3)
C5AA C 0.1004(2) 0.3719(3) 0.2401(3)
C5CA C 0.2599(3) 0.3996(2) 0.3719(3)
C5LE C 0.2599(3) 0.3719(3) 0.3996(2)
C5UB C 0.3996(2) 0.3719(3) 0.2599(3)
C5XF C 0.3719(3) 0.3996(2) 0.2599(3)
C5BG C 0.3996(2) 0.2401(3) 0.1281(3)
C5EC C 0.3719(3) 0.2401(3) 0.1004(2)
C5BF C 0.3719(3) 0.1004(2) 0.2401(3)
C5XA C 0.3996(2) 0.1281(3) 0.2401(3)
C5CB C 0.2401(3) 0.1004(2) 0.3719(3)
C5IF C 0.2401(3) 0.1281(3) 0.3996(2)
C5ED C 0.1281(3) 0.1004(2) 0.2599(3)
C5N C 0.1281(3) -0.1004(2) 0.2599(3)
C5TC C 0.1004(2) -0.1281(3) 0.2599(3)
C5SB C 0.2401(3) -0.1281(3) 0.3996(2)
C5RE C 0.2401(3) -0.1004(2) 0.3719(3)
C5VE C 0.3719(3) -0.2599(3) 0.3996(2)
C5NB C 0.3996(2) -0.2599(3) 0.3719(3)
C5VD C 0.2599(3) -0.3996(2) 0.3719(3)
C5RA C 0.2599(3) -0.3719(3) 0.3996(2)
C5QD C 0.1004(2) -0.3719(3) 0.2401(3)
C5JA C 0.1281(3) -0.3996(2) 0.2401(3)
C5AD C 0.1281(3) -0.2599(3) 0.1004(2)
C5S C 0.1004(2) -0.2599(3) 0.1281(3)
C5U C 0.2599(3) -0.1281(3) 0.1004(2)
C5YC C 0.2599(3) -0.1004(2) 0.1281(3)
C5KC C 0.3996(2) -0.2401(3) 0.1281(3)
C5VF C 0.3719(3) -0.2401(3) 0.1004(2)
C5IB C 0.3719(3) -0.1004(2) 0.2401(3)
C5NE C 0.3996(2) -0.1281(3) 0.2401(3)
C5QF C 0.2401(3) -0.3996(2) 0.1281(3)
C5PC C 0.2401(3) -0.3719(3) 0.1004(2)
C5OF C 0.3996(2) -0.3719(3) 0.2599(3)
C5IC C 0.3719(3) -0.3996(2) 0.2599(3)
C5NA C 0.1004(2) -0.2401(3) 0.3719(3)
C5AE C 0.1281(3) -0.2401(3) 0.3996(2)
C5HA C 0.1281(3) 0.2401(3) 0.3996(2)
C5GE C 0.1004(2) 0.2401(3) 0.3719(3)
C5OD C 0.2599(3) 0.1281(3) 0.1004(2)
C5D C 0.2599(3) 0.1004(2) 0.1281(3)
C5EB C 0.3719(3) 0.2599(3) 0.3996(2)
C5GF C 0.3996(2) 0.2599(3) 0.3719(3)
C5FG C 0.2401(3) 0.3719(3) 0.1004(2)
C5ZB C 0.2401(3) 0.3996(2) 0.1281(3)
H3JD H 0.0941 0.2664 0.1412
H3H H 0.1412 0.2664 0.0941
H3CA H 0.2664 0.4059 0.3588
H3LE H 0.2664 0.3588 0.4059
H3BG H 0.4059 0.2336 0.1412
H3EC H 0.3588 0.2336 0.0941
H3CB H 0.2336 0.0941 0.3588
H3IF H 0.2336 0.1412 0.4059
H3N H 0.1412 -0.0941 0.2664
H3TC H 0.0941 -0.1412 0.2664
H3VE H 0.3588 -0.2664 0.4059
H3NB H 0.4059 -0.2664 0.3588
H3QD H 0.0941 -0.3588 0.2336
H3JA H 0.1412 -0.4059 0.2336
H3U H 0.2664 -0.1412 0.0941
H3YC H 0.2664 -0.0941 0.1412
H3KC H 0.4059 -0.2336 0.1412
H3VF H 0.3588 -0.2336 0.0941
H3IB H 0.3588 -0.0941 0.2336
H3NE H 0.4059 -0.1412 0.2336
H3AD H 0.1412 -0.2664 0.0941
H3S H 0.0941 -0.2664 0.1412
H3QF H 0.2336 -0.4059 0.1412
H3PC H 0.2336 -0.3588 0.0941
H3VD H 0.2664 -0.4059 0.3588
H3RA H 0.2664 -0.3588 0.4059
H3OF H 0.4059 -0.3588 0.2664
H3IC H 0.3588 -0.4059 0.2664
H3SB H 0.2336 -0.1412 0.4059
H3RE H 0.2336 -0.0941 0.3588
H3NA H 0.0941 -0.2336 0.3588
H3AE H 0.1412 -0.2336 0.4059
H3ED H 0.1412 0.0941 0.2664
H3HA H 0.1412 0.2336 0.4059
H3GE H 0.0941 0.2336 0.3588
H3BF H 0.3588 0.0941 0.2336
H3XA H 0.4059 0.1412 0.2336
H3OD H 0.2664 0.1412 0.0941
H3D H 0.2664 0.0941 0.1412
H3UB H 0.4059 0.3588 0.2664
H3XF H 0.3588 0.4059 0.2664
H3EB H 0.3588 0.2664 0.4059
H3GF H 0.4059 0.2664 0.3588
H3EE H 0.1412 0.4059 0.2336
H3AA H 0.0941 0.3588 0.2336
H3FG H 0.2336 0.3588 0.0941
H3ZB H 0.2336 0.4059 0.1412
C6GB C 0.44043(10) -0.13253(15) 0.55957(10)
C6RA C 0.13253(15) -0.44043(10) 0.44043(10)
C6FA C 0.05957(10) -0.36747(15) 0.55957(10)
C6NA C 0.05957(10) -0.36747(15) 0.44043(10)
C6Z C -0.05957(10) -0.44043(10) 0.36747(15)
C6E C 0.13253(15) -0.05957(10) -0.05957(10)
C6KC C 0.44043(10) -0.36747(15) 0.05957(10)
C6AC C 0.36747(15) -0.44043(10) -0.05957(10)
C6CC C 0.44043(10) -0.36747(15) -0.05957(10)
C6PC C 0.36747(15) -0.44043(10) 0.05957(10)
C6UB C 0.44043(10) -0.55957(10) 0.13253(15)
C6ZB C 0.36747(15) -0.55957(10) 0.05957(10)
C6IC C 0.44043(10) -0.44043(10) 0.13253(15)
C6U C 0.13253(15) -0.05957(10) 0.05957(10)
C6J C 0.05957(10) -0.13253(15) -0.05957(10)
C6M C -0.05957(10) -0.05957(10) -0.13253(15)
C6R C -0.05957(10) -0.13253(15) -0.05957(10)
C6C C 0.05957(10) -0.05957(10) -0.13253(15)
C6S C 0.05957(10) -0.13253(15) 0.05957(10)
C6JA C 0.05957(10) -0.44043(10) 0.36747(15)
C6BA C 0.13253(15) -0.44043(10) 0.55957(10)
C6NB C 0.44043(10) -0.13253(15) 0.44043(10)
C6SB C 0.36747(15) -0.05957(10) 0.44043(10)
C6N C 0.05957(10) -0.05957(10) 0.13253(15)
C6CB C 0.36747(15) 0.05957(10) 0.44043(10)
C6XA C 0.44043(10) 0.05957(10) 0.36747(15)
C6EC C 0.44043(10) 0.36747(15) 0.05957(10)
C6UB_2 C 0.44043(10) 0.44043(10) 0.13253(15)
C6CA C 0.13253(15) 0.44043(10) 0.44043(10)
C6AA C 0.05957(10) 0.44043(10) 0.36747(15)
C6H C 0.05957(10) 0.13253(15) 0.05957(10)
C6IB C 0.44043(10) -0.05957(10) 0.36747(15)
C6D C 0.13253(15) 0.05957(10) 0.05957(10)
C6GA C -0.05957(10) -0.36747(15) 0.44043(10)
C6BB C 0.36747(15) -0.05957(10) 0.55957(10)
H4GB H 0.4463 -0.1190 0.5537
H4FA H 0.0537 -0.3810 0.5537
H4Z H -0.0537 -0.4463 0.3810
H4E H 0.1190 -0.0537 -0.0537
H4AC H 0.3810 -0.4463 -0.0537
H4CC H 0.4463 -0.3810 -0.0537
H4UB H 0.4463 -0.5537 0.1190
H4ZB H 0.3810 -0.5537 0.0537
H4IC H 0.4463 -0.4463 0.1190
H4PC H 0.3810 -0.4463 0.0537
H4KC H 0.4463 -0.3810 0.0537
H4U H 0.1190 -0.0537 0.0537
H4M H -0.0537 -0.0537 -0.1190
H4R H -0.0537 -0.1190 -0.0537
H4C H 0.0537 -0.0537 -0.1190
H4J H 0.0537 -0.1190 -0.0537
H4S H 0.0537 -0.1190 0.0537
H4JA H 0.0537 -0.4463 0.3810
H4NA H 0.0537 -0.3810 0.4463
H4BA H 0.1190 -0.4463 0.5537
H4RA H 0.1190 -0.4463 0.4463
H4SB H 0.3810 -0.0537 0.4463
H4N H 0.0537 -0.0537 0.1190
H4H H 0.0537 0.1190 0.0537
H4CA H 0.1190 0.4463 0.4463
H4EC H 0.4463 0.3810 0.0537
H4CB H 0.3810 0.0537 0.4463
H4NB H 0.4463 -0.1190 0.4463
C7H C 0.07521(8) 0.17303(19) 0.07521(8)
C7AA C 0.07521(8) 0.42479(8) 0.32697(19)
C7CA C 0.17303(19) 0.42479(8) 0.42479(8)
C7UB C 0.42479(8) 0.42479(8) 0.17303(19)
C7EC C 0.42479(8) 0.32697(19) 0.07521(8)
C7XA C 0.42479(8) 0.07521(8) 0.32697(19)
C7CB C 0.32697(19) 0.07521(8) 0.42479(8)
C7N C 0.07521(8) -0.07521(8) 0.17303(19)
C7SB C 0.32697(19) -0.07521(8) 0.42479(8)
C7NB C 0.42479(8) -0.17303(19) 0.42479(8)
C7RA C 0.17303(19) -0.42479(8) 0.42479(8)
C7NA C 0.07521(8) -0.32697(19) 0.42479(8)
C7JA C 0.07521(8) -0.42479(8) 0.32697(19)
C7S C 0.07521(8) -0.17303(19) 0.07521(8)
C7U C 0.17303(19) -0.07521(8) 0.07521(8)
C7KC C 0.42479(8) -0.32697(19) 0.07521(8)
C7CC C 0.42479(8) -0.32697(19) -0.07521(8)
C7PC C 0.32697(19) -0.42479(8) 0.07521(8)
C7ZB C 0.32697(19) -0.57521(8) 0.07521(8)
C7IC C 0.42479(8) -0.42479(8) 0.17303(19)
C7IB C 0.42479(8) -0.07521(8) 0.32697(19)
C7J C 0.07521(8) -0.17303(19) -0.07521(8)
C7M C -0.07521(8) -0.07521(8) -0.17303(19)
C7BA C 0.17303(19) -0.42479(8) 0.57521(8)
C7HA C 0.07521(8) 0.32697(19) 0.42479(8)
C7D C 0.17303(19) 0.07521(8) 0.07521(8)
C7EB C 0.42479(8) 0.17303(19) 0.42479(8)
C7ZB_2 C 0.32697(19) 0.42479(8) 0.07521(8)
C7GB C 0.42479(8) -0.17303(19) 0.57521(8)
C7FA C 0.07521(8) -0.32697(19) 0.57521(8)
C7Z C -0.07521(8) -0.42479(8) 0.32697(19)
C7E C 0.17303(19) -0.07521(8) -0.07521(8)
C7AC C 0.32697(19) -0.42479(8) -0.07521(8)
C7UB_2 C 0.42479(8) -0.57521(8) 0.17303(19)
C7R C -0.07521(8) -0.17303(19) -0.07521(8)
C7C C 0.07521(8) -0.07521(8) -0.17303(19)
C8H C 0.08428(10) 0.1936(2) 0.08428(10)
C8AA C 0.08428(10) 0.41572(10) 0.3064(2)
C8CA C 0.1936(2) 0.41572(10) 0.41572(10)
C8UB C 0.41572(10) 0.41572(10) 0.1936(2)
C8EC C 0.41572(10) 0.3064(2) 0.08428(10)
C8XA C 0.41572(10) 0.08428(10) 0.3064(2)
C8CB C 0.3064(2) 0.08428(10) 0.41572(10)
C8N C 0.08428(10) -0.08428(10) 0.1936(2)
C8SB C 0.3064(2) -0.08428(10) 0.41572(10)
C8NB C 0.41572(10) -0.1936(2) 0.41572(10)
C8RA C 0.1936(2) -0.41572(10) 0.41572(10)
C8JA C 0.08428(10) -0.41572(10) 0.3064(2)
C8S C 0.08428(10) -0.1936(2) 0.08428(10)
C8U C 0.1936(2) -0.08428(10) 0.08428(10)
C8KC C 0.41572(10) -0.3064(2) 0.08428(10)
C8IB C 0.41572(10) -0.08428(10) 0.3064(2)
C8PC C 0.3064(2) -0.41572(10) 0.08428(10)
C8IC C 0.41572(10) -0.41572(10) 0.1936(2)
C8NA C 0.08428(10) -0.3064(2) 0.41572(10)
C8HA C 0.08428(10) 0.3064(2) 0.41572(10)
C8D C 0.1936(2) 0.08428(10) 0.08428(10)
C8EB C 0.41572(10) 0.1936(2) 0.41572(10)
C8ZB C 0.3064(2) 0.41572(10) 0.08428(10)
C8CC C 0.41572(10) -0.3064(2) -0.08428(10)
C8ZB_2 C 0.3064(2) -0.58428(10) 0.08428(10)
C8J C 0.08428(10) -0.1936(2) -0.08428(10)
C8M C -0.08428(10) -0.08428(10) -0.1936(2)
C8BA C 0.1936(2) -0.41572(10) 0.58428(10)
C9H C 0.09141(14) 0.2098(3) 0.09141(14)
C9AA C 0.09141(14) 0.40859(14) 0.2902(3)
C9CA C 0.2098(3) 0.40859(14) 0.40859(14)
C9UB C 0.40859(14) 0.40859(14) 0.2098(3)
C9EC C 0.40859(14) 0.2902(3) 0.09141(14)
C9XA C 0.40859(14) 0.09141(14) 0.2902(3)
C9CB C 0.2902(3) 0.09141(14) 0.40859(14)
C9N C 0.09141(14) -0.09141(14) 0.2098(3)
C9SB C 0.2902(3) -0.09141(14) 0.40859(14)
C9NB C 0.40859(14) -0.2098(3) 0.40859(14)
C9RA C 0.2098(3) -0.40859(14) 0.40859(14)
C9JA C 0.09141(14) -0.40859(14) 0.2902(3)
C9S C 0.09141(14) -0.2098(3) 0.09141(14)
C9U C 0.2098(3) -0.09141(14) 0.09141(14)
C9KC C 0.40859(14) -0.2902(3) 0.09141(14)
C9IB C 0.40859(14) -0.09141(14) 0.2902(3)
C9PC C 0.2902(3) -0.40859(14) 0.09141(14)
C9IC C 0.40859(14) -0.40859(14) 0.2098(3)
C9NA C 0.09141(14) -0.2902(3) 0.40859(14)
C9HA C 0.09141(14) 0.2902(3) 0.40859(14)
C9D C 0.2098(3) 0.09141(14) 0.09141(14)
C9EB C 0.40859(14) 0.2098(3) 0.40859(14)
C9ZB C 0.2902(3) 0.40859(14) 0.09141(14)
C10H C 0.10107(14) 0.2318(3) 0.10107(14)
C10AA C 0.10107(14) 0.39893(14) 0.2682(3)
C10CA C 0.2318(3) 0.39893(14) 0.39893(14)
C10UB C 0.39893(14) 0.39893(14) 0.2318(3)
C10EC C 0.39893(14) 0.2682(3) 0.10107(14)
C10XA C 0.39893(14) 0.10107(14) 0.2682(3)
C10CB C 0.2682(3) 0.10107(14) 0.39893(14)
C10N C 0.10107(14) -0.10107(14) 0.2318(3)
C10SB C 0.2682(3) -0.10107(14) 0.39893(14)
C10NB C 0.39893(14) -0.2318(3) 0.39893(14)
C10RA C 0.2318(3) -0.39893(14) 0.39893(14)
C10JA C 0.10107(14) -0.39893(14) 0.2682(3)
C10S C 0.10107(14) -0.2318(3) 0.10107(14)
C10U C 0.2318(3) -0.10107(14) 0.10107(14)
C10KC C 0.39893(14) -0.2682(3) 0.10107(14)
C10IB C 0.39893(14) -0.10107(14) 0.2682(3)
C10PC C 0.2682(3) -0.39893(14) 0.10107(14)
C10IC C 0.39893(14) -0.39893(14) 0.2318(3)
C10NA C 0.10107(14) -0.2682(3) 0.39893(14)
C10HA C 0.10107(14) 0.2682(3) 0.39893(14)
C10D C 0.2318(3) 0.10107(14) 0.10107(14)
C10EB C 0.39893(14) 0.2318(3) 0.39893(14)
C10ZB C 0.2682(3) 0.39893(14) 0.10107(14)
C11H C 0.11774(11) 0.2700(3) 0.11774(11)
C11AA C 0.11774(11) 0.38226(11) 0.2300(3)
C11CA C 0.2700(3) 0.38226(11) 0.38226(11)
C11UB C 0.38226(11) 0.38226(11) 0.2700(3)
C11EC C 0.38226(11) 0.2300(3) 0.11774(11)
C11XA C 0.38226(11) 0.11774(11) 0.2300(3)
C11CB C 0.2300(3) 0.11774(11) 0.38226(11)
C11N C 0.11774(11) -0.11774(11) 0.2700(3)
C11SB C 0.2300(3) -0.11774(11) 0.38226(11)
C11NB C 0.38226(11) -0.2700(3) 0.38226(11)
C11RA C 0.2700(3) -0.38226(11) 0.38226(11)
C11JA C 0.11774(11) -0.38226(11) 0.2300(3)
C11S C 0.11774(11) -0.2700(3) 0.11774(11)
C11U C 0.2700(3) -0.11774(11) 0.11774(11)
C11KC C 0.38226(11) -0.2300(3) 0.11774(11)
C11IB C 0.38226(11) -0.11774(11) 0.2300(3)
C11PC C 0.2300(3) -0.38226(11) 0.11774(11)
C11IC C 0.38226(11) -0.38226(11) 0.2700(3)
C11NA C 0.11774(11) -0.2300(3) 0.38226(11)
C11HA C 0.11774(11) 0.2300(3) 0.38226(11)
C11D C 0.2700(3) 0.11774(11) 0.11774(11)
C11EB C 0.38226(11) 0.2700(3) 0.38226(11)
C11ZB C 0.2300(3) 0.38226(11) 0.11774(11)
C12H C 0.12742(18) 0.2906(4) 0.12742(18)
C12AA C 0.12742(18) 0.37258(18) 0.2094(4)
C12CA C 0.2906(4) 0.37258(18) 0.37258(18)
C12UB C 0.37258(18) 0.37258(18) 0.2906(4)
C12EC C 0.37258(18) 0.2094(4) 0.12742(18)
C12XA C 0.37258(18) 0.12742(18) 0.2094(4)
C12CB C 0.2094(4) 0.12742(18) 0.37258(18)
C12N C 0.12742(18) -0.12742(18) 0.2906(4)
C12SB C 0.2094(4) -0.12742(18) 0.37258(18)
C12NB C 0.37258(18) -0.2906(4) 0.37258(18)
C12RA C 0.2906(4) -0.37258(18) 0.37258(18)
C12JA C 0.12742(18) -0.37258(18) 0.2094(4)
C12S C 0.12742(18) -0.2906(4) 0.12742(18)
C12U C 0.2906(4) -0.12742(18) 0.12742(18)
C12KC C 0.37258(18) -0.2094(4) 0.12742(18)
C12IB C 0.37258(18) -0.12742(18) 0.2094(4)
C12PC C 0.2094(4) -0.37258(18) 0.12742(18)
C12IC C 0.37258(18) -0.37258(18) 0.2906(4)
C12NA C 0.12742(18) -0.2094(4) 0.37258(18)
C12HA C 0.12742(18) 0.2094(4) 0.37258(18)
C12D C 0.2906(4) 0.12742(18) 0.12742(18)
C12EB C 0.37258(18) 0.2906(4) 0.37258(18)
C12ZB C 0.2094(4) 0.37258(18) 0.12742(18)
C13H C 0.13566(17) 0.3081(3) 0.13566(17)
C13AA C 0.13566(17) 0.36434(17) 0.1919(3)
C13CA C 0.3081(3) 0.36434(17) 0.36434(17)
C13UB C 0.36434(17) 0.36434(17) 0.3081(3)
C13EC C 0.36434(17) 0.1919(3) 0.13566(17)
C13XA C 0.36434(17) 0.13566(17) 0.1919(3)
C13CB C 0.1919(3) 0.13566(17) 0.36434(17)
C13N C 0.13566(17) -0.13566(17) 0.3081(3)
C13SB C 0.1919(3) -0.13566(17) 0.36434(17)
C13NB C 0.36434(17) -0.3081(3) 0.36434(17)
C13RA C 0.3081(3) -0.36434(17) 0.36434(17)
C13JA C 0.13566(17) -0.36434(17) 0.1919(3)
C13S C 0.13566(17) -0.3081(3) 0.13566(17)
C13U C 0.3081(3) -0.13566(17) 0.13566(17)
C13KC C 0.36434(17) -0.1919(3) 0.13566(17)
C13IB C 0.36434(17) -0.13566(17) 0.1919(3)
C13PC C 0.1919(3) -0.36434(17) 0.13566(17)
C13IC C 0.36434(17) -0.36434(17) 0.3081(3)
C13NA C 0.13566(17) -0.1919(3) 0.36434(17)
C13HA C 0.13566(17) 0.1919(3) 0.36434(17)
C13D C 0.3081(3) 0.13566(17) 0.13566(17)
C13EB C 0.36434(17) 0.3081(3) 0.36434(17)
C13ZB C 0.1919(3) 0.36434(17) 0.13566(17)
C14H C 0.14475(16) 0.3275(3) 0.14475(16)
C14AA C 0.14475(16) 0.35525(16) 0.1725(3)
C14CA C 0.3275(3) 0.35525(16) 0.35525(16)
C14UB C 0.35525(16) 0.35525(16) 0.3275(3)
C14EC C 0.35525(16) 0.1725(3) 0.14475(16)
C14XA C 0.35525(16) 0.14475(16) 0.1725(3)
C14CB C 0.1725(3) 0.14475(16) 0.35525(16)
C14N C 0.14475(16) -0.14475(16) 0.3275(3)
C14SB C 0.1725(3) -0.14475(16) 0.35525(16)
C14NB C 0.35525(16) -0.3275(3) 0.35525(16)
C14RA C 0.3275(3) -0.35525(16) 0.35525(16)
C14JA C 0.14475(16) -0.35525(16) 0.1725(3)
C14S C 0.14475(16) -0.3275(3) 0.14475(16)
C14U C 0.3275(3) -0.14475(16) 0.14475(16)
C14KC C 0.35525(16) -0.1725(3) 0.14475(16)
C14IB C 0.35525(16) -0.14475(16) 0.1725(3)
C14PC C 0.1725(3) -0.35525(16) 0.14475(16)
C14IC C 0.35525(16) -0.35525(16) 0.3275(3)
C14NA C 0.14475(16) -0.1725(3) 0.35525(16)
C14HA C 0.14475(16) 0.1725(3) 0.35525(16)
C14D C 0.3275(3) 0.14475(16) 0.14475(16)
C14EB C 0.35525(16) 0.3275(3) 0.35525(16)
C14ZB C 0.1725(3) 0.35525(16) 0.14475(16)
C15AA C 0.1360(3) 0.33598(18) 0.16402(18)
C15CA C 0.33598(18) 0.3640(3) 0.33598(18)
C15XA C 0.3640(3) 0.16402(18) 0.16402(18)
C15CB C 0.16402(18) 0.1360(3) 0.33598(18)
C15N C 0.16402(18) -0.1360(3) 0.33598(18)
C15RA C 0.33598(18) -0.33598(18) 0.3640(3)
C15S C 0.1360(3) -0.33598(18) 0.16402(18)
C15U C 0.33598(18) -0.16402(18) 0.1360(3)
C15KC C 0.3640(3) -0.16402(18) 0.16402(18)
C15IB C 0.33598(18) -0.1360(3) 0.16402(18)
C15PC C 0.16402(18) -0.33598(18) 0.1360(3)
C15JA C 0.16402(18) -0.3640(3) 0.16402(18)
C15IC C 0.33598(18) -0.3640(3) 0.33598(18)
C15NB C 0.3640(3) -0.33598(18) 0.33598(18)
C15SB C 0.16402(18) -0.16402(18) 0.3640(3)
C15NA C 0.1360(3) -0.16402(18) 0.33598(18)
C15HA C 0.16402(18) 0.16402(18) 0.3640(3)
C15D C 0.33598(18) 0.1360(3) 0.16402(18)
C15EC C 0.33598(18) 0.16402(18) 0.1360(3)
C15UB C 0.3640(3) 0.33598(18) 0.33598(18)
C15EB C 0.33598(18) 0.33598(18) 0.3640(3)
C15ZB C 0.16402(18) 0.3640(3) 0.16402(18)
C15H C 0.16402(18) 0.33598(18) 0.1360(3)
H5IB H 0.3286 -0.1240 0.1714
H5KC H 0.3760 -0.1714 0.1714
H5U H 0.3286 -0.1714 0.1240
H5JA H 0.1714 -0.3760 0.1714
H5PC H 0.1714 -0.3286 0.1240
H5S H 0.1240 -0.3286 0.1714
H5NB H 0.3760 -0.3286 0.3286
H5IC H 0.3286 -0.3760 0.3286
H5RA H 0.3286 -0.3286 0.3760
H5NA H 0.1240 -0.1714 0.3286
H5SB H 0.1714 -0.1714 0.3760
H5N H 0.1714 -0.1240 0.3286
H5HA H 0.1714 0.1714 0.3760
H5CB H 0.1714 0.1240 0.3286
H5EC H 0.3286 0.1714 0.1240
H5D H 0.3286 0.1240 0.1714
H5XA H 0.3760 0.1714 0.1714
H5EB H 0.3286 0.3286 0.3760
H5UB H 0.3760 0.3286 0.3286
H5CA H 0.3286 0.3760 0.3286
H5H H 0.1714 0.3286 0.1240
H5ZB H 0.1714 0.3760 0.1714
H5AA H 0.1240 0.3286 0.1714
C2HA C 0.07797(10) 0.35808(10) 0.45065(10)
loop_
_geom_bond_atom_site_label_1
_geom_bond_atom_site_label_2
_geom_bond_site_symmetry_1
_geom_bond_site_symmetry_2
Cu1 Cu2 1_555 1_555
Cu2 O2 1_555 1_555
O1 Cu1 1_555 1_555
O2 C1 1_555 1_555
O3 Cu1 1_555 1_555
O4 Cu2 1_555 1_555
C1 O1 1_555 1_555
C2 C1 1_555 1_555
C3 C2 1_555 1_555
H1 C3 1_555 1_555
C4 H2 1_555 1_555
C5 C4 1_555 1_555
H3 C5 1_555 1_555
C6 C2 1_555 1_555
H4 C6 1_555 1_555
C7 C3 1_555 1_555
C8 C7 1_555 1_555
C9 C8 1_555 1_555
C10 C4 1_555 1_555
C11 C5 1_555 1_555
C12 C11 1_555 1_555
C13 C12 1_555 1_555
C14 C13 1_555 1_555
C15 C14 1_555 1_555
H5 C15 1_555 1_555
Cu1CA Cu2CA 1_555 1_555
Cu1UB Cu2UB 1_555 1_555
Cu1CB Cu2CB 1_555 1_555
Cu1D Cu2D 1_555 1_555
Cu1GB Cu2GB 1_555 1_555
Cu1FA Cu2FA 1_555 1_555
Cu1Z Cu2Z 1_555 1_555
Cu1J Cu2J 1_555 1_555
Cu1CC Cu2CC 1_555 1_555
Cu1ZB Cu2ZB 1_555 1_555
Cu1C Cu2C 1_555 1_555
Cu1BA Cu2BA 1_555 1_555
Cu1CA_2 O1VD_2 1_555 1_555
Cu1TB O1KC 1_555 1_555
Cu1VB O1EG 1_555 1_555
Cu1EC O1FG 1_555 1_555
Cu1G O1M 1_555 1_555
Cu1A O1S 1_555 1_555
Cu2CA O2EE 1_555 1_555
Cu2UB O2UB 1_555 1_555
Cu2CB O2BF 1_555 1_555
Cu2D O2ED 1_555 1_555
Cu2GB O2SB 1_555 1_555
Cu2FA O2RA 1_555 1_555
Cu2Z O2NA 1_555 1_555
Cu2J O2AD 1_555 1_555
Cu2CC O2VF 1_555 1_555
Cu2ZB O2QF 1_555 1_555
Cu2C O2ID 1_555 1_555
Cu2BA O2BA 1_555 1_555
Cu2CA_2 O2VD_2 1_555 1_555
Cu2TB O2KC 1_555 1_555
Cu2VB O2EG 1_555 1_555
Cu2EC O2FG 1_555 1_555
Cu2G O2M 1_555 1_555
Cu2A O2S 1_555 1_555
O1Q Cu1 1_555 1_555
O1UC Cu1 1_555 1_555
O1JD Cu1 1_555 1_555
O1EE Cu1CA 1_555 1_555
O1VD Cu1CA 1_555 1_555
O1JA Cu1CA 1_555 1_555
O1CA Cu1CA 1_555 1_555
O1UB Cu1UB 1_555 1_555
O1MC Cu1UB 1_555 1_555
O1NF Cu1UB 1_555 1_555
O1BG Cu1UB 1_555 1_555
O1BF Cu1CB 1_555 1_555
O1RE Cu1CB 1_555 1_555
O1IB Cu1CB 1_555 1_555
O1CB Cu1CB 1_555 1_555
O1ED Cu1D 1_555 1_555
O1YC Cu1D 1_555 1_555
O1N Cu1D 1_555 1_555
O1SB Cu1GB 1_555 1_555
O1GB Cu1GB 1_555 1_555
O1HF Cu1GB 1_555 1_555
O1VE Cu1GB 1_555 1_555
O1VD_2 C1VD_2 1_555 1_555
O1RA Cu1FA 1_555 1_555
O1FA Cu1FA 1_555 1_555
O1ME Cu1FA 1_555 1_555
O1AE Cu1FA 1_555 1_555
O1NA Cu1Z 1_555 1_555
O1Z Cu1Z 1_555 1_555
O1IE Cu1Z 1_555 1_555
O1QD Cu1Z 1_555 1_555
O1AD Cu1J 1_555 1_555
O1ND Cu1J 1_555 1_555
O1J Cu1J 1_555 1_555
O1U Cu1J 1_555 1_555
O1KC C1KC 1_555 1_555
O1VF Cu1CC 1_555 1_555
O1GG Cu1CC 1_555 1_555
O1CC Cu1CC 1_555 1_555
O1PC Cu1CC 1_555 1_555
O1EG C1EG 1_555 1_555
O1QF Cu1ZB 1_555 1_555
O1XF Cu1ZB 1_555 1_555
O1ZB Cu1ZB 1_555 1_555
O1IC Cu1ZB 1_555 1_555
O1FG C1FG 1_555 1_555
O1OF Cu1TB 1_555 1_555
O1ID Cu1C 1_555 1_555
O1RC Cu1C 1_555 1_555
O1R Cu1C 1_555 1_555
O1C Cu1C 1_555 1_555
O1M C1M 1_555 1_555
O1S C1S 1_555 1_555
O1JA_2 Cu1CA_2 1_555 1_555
O1BA Cu1BA 1_555 1_555
O1TC Cu1A 1_555 1_555
O1D Cu1D 1_555 1_555
O1LA Cu1BA 1_555 1_555
O1WD Cu1BA 1_555 1_555
O1CE Cu1BA 1_555 1_555
O1DF C1DF 1_555 1_555
O1HE C1HE 1_555 1_555
O1DE C1DE 1_555 1_555
O1E C1E 1_555 1_555
O1AC C1AC 1_555 1_555
O1UB_2 C1UB_2 1_555 1_555
O1ZC C1ZC 1_555 1_555
O1GD C1GD 1_555 1_555
O2Q Cu2 1_555 1_555
O2UC Cu2 1_555 1_555
O2JD Cu2 1_555 1_555
O2EE C1EE 1_555 1_555
O2VD Cu2CA 1_555 1_555
O2JA Cu2CA 1_555 1_555
O2CA Cu2CA 1_555 1_555
O2UB C1UB 1_555 1_555
O2MC Cu2UB 1_555 1_555
O2NF Cu2UB 1_555 1_555
O2BG Cu2UB 1_555 1_555
O2BF C1BF 1_555 1_555
O2RE Cu2CB 1_555 1_555
O2IB Cu2CB 1_555 1_555
O2CB Cu2CB 1_555 1_555
O2ED C1ED 1_555 1_555
O2YC Cu2D 1_555 1_555
O2N Cu2D 1_555 1_555
O2SB C1SB 1_555 1_555
O2HF Cu2GB 1_555 1_555
O2GB Cu2GB 1_555 1_555
O2VE Cu2GB 1_555 1_555
O2VD_2 C1VD_2 1_555 1_555
O2RA C1RA 1_555 1_555
O2ME Cu2FA 1_555 1_555
O2FA Cu2FA 1_555 1_555
O2AE Cu2FA 1_555 1_555
O2NA C1NA 1_555 1_555
O2IE Cu2Z 1_555 1_555
O2Z Cu2Z 1_555 1_555
O2QD Cu2Z 1_555 1_555
O2AD C1AD 1_555 1_555
O2J Cu2J 1_555 1_555
O2ND Cu2J 1_555 1_555
O2U Cu2J 1_555 1_555
O2KC C1KC 1_555 1_555
O2VF C1VF 1_555 1_555
O2PC Cu2CC 1_555 1_555
O2GG Cu2CC 1_555 1_555
O2CC Cu2CC 1_555 1_555
O2EG C1EG 1_555 1_555
O2QF C1QF 1_555 1_555
O2XF Cu2ZB 1_555 1_555
O2ZB Cu2ZB 1_555 1_555
O2FG C1FG 1_555 1_555
O2IC Cu2ZB 1_555 1_555
O2OF Cu2TB 1_555 1_555
O2ID C1ID 1_555 1_555
O2RC Cu2C 1_555 1_555
O2M C1M 1_555 1_555
O2R Cu2C 1_555 1_555
O2C Cu2C 1_555 1_555
O2S C1S 1_555 1_555
O2JA_2 Cu2CA_2 1_555 1_555
O2BA C1BA 1_555 1_555
O2LA Cu2BA 1_555 1_555
O2WD Cu2BA 1_555 1_555
O2CE Cu2BA 1_555 1_555
O2TC Cu2A 1_555 1_555
O2D Cu2D 1_555 1_555
O2DF C1DF 1_555 1_555
O2HE C1HE 1_555 1_555
O2DE C1DE 1_555 1_555
O2E C1E 1_555 1_555
O2AC C1AC 1_555 1_555
O2UB_2 C1UB_2 1_555 1_555
O2ZC C1ZC 1_555 1_555
O2GD C1GD 1_555 1_555
O3CA Cu1CA 1_555 1_555
O3UB Cu1UB 1_555 1_555
O3CB Cu1CB 1_555 1_555
O3GB Cu1GB 1_555 1_555
O3FA Cu1FA 1_555 1_555
O3ZB Cu1ZB 1_555 1_555
O3CC Cu1CC 1_555 1_555
O3C Cu1C 1_555 1_555
O3J Cu1J 1_555 1_555
O3Z Cu1Z 1_555 1_555
O3D Cu1D 1_555 1_555
O3BA Cu1BA 1_555 1_555
O4CC Cu2CC 1_555 1_555
O4ZB Cu2ZB 1_555 1_555
O4J Cu2J 1_555 1_555
O4C Cu2C 1_555 1_555
O4Z Cu2Z 1_555 1_555
O4FA Cu2FA 1_555 1_555
O4BA Cu2BA 1_555 1_555
O4GB Cu2GB 1_555 1_555
O4D Cu2D 1_555 1_555
O4CB Cu2CB 1_555 1_555
O4UB Cu2UB 1_555 1_555
O4CA Cu2CA 1_555 1_555
C1Q O1Q 1_555 1_555
C1UC O1UC 1_555 1_555
C1JD O1JD 1_555 1_555
C1EE O1EE 1_555 1_555
C1VD O1VD 1_555 1_555
C1JA O1JA 1_555 1_555
C1CA O1CA 1_555 1_555
C1UB O1UB 1_555 1_555
C1MC O1MC 1_555 1_555
C1NF O1NF 1_555 1_555
C1BG O1BG 1_555 1_555
C1BF O1BF 1_555 1_555
C1RE O1RE 1_555 1_555
C1IB O1IB 1_555 1_555
C1CB O1CB 1_555 1_555
C1ED O1ED 1_555 1_555
C1YC O1YC 1_555 1_555
C1N O1N 1_555 1_555
C1SB O1SB 1_555 1_555
C1GB O1GB 1_555 1_555
C1HF O1HF 1_555 1_555
C1DF C2DF 1_555 1_555
C1VE O1VE 1_555 1_555
C1VD_2 C2VD 1_555 1_555
C1RA O1RA 1_555 1_555
C1FA O1FA 1_555 1_555
C1ME O1ME 1_555 1_555
C1HE C2HE 1_555 1_555
C1AE O1AE 1_555 1_555
C1NA O1NA 1_555 1_555
C1Z O1Z 1_555 1_555
C1IE O1IE 1_555 1_555
C1DE C2DE 1_555 1_555
C1QD O1QD 1_555 1_555
C1AD O1AD 1_555 1_555
C1ND O1ND 1_555 1_555
C1J O1J 1_555 1_555
C1E C2E 1_555 1_555
C1U O1U 1_555 1_555
C1KC C2KC 1_555 1_555
C1VF O1VF 1_555 1_555
C1GG O1GG 1_555 1_555
C1CC O1CC 1_555 1_555
C1PC O1PC 1_555 1_555
C1AC C2AC 1_555 1_555
C1EG C2EG 1_555 1_555
C1QF O1QF 1_555 1_555
C1XF O1XF 1_555 1_555
C1ZB O1ZB 1_555 1_555
C1IC O1IC 1_555 1_555
C1UB_2 C2UB_2 1_555 1_555
C1FG C2FG 1_555 1_555
C1OF O1OF 1_555 1_555
C1ID O1ID 1_555 1_555
C1RC O1RC 1_555 1_555
C1R O1R 1_555 1_555
C1C O1C 1_555 1_555
C1M C2M 1_555 1_555
C1ZC C2ZC 1_555 1_555
C1GD C2GD 1_555 1_555
C1S C2S 1_555 1_555
C1JA_2 O1JA_2 1_555 1_555
C1BA O1BA 1_555 1_555
C1TC O1TC 1_555 1_555
C1D O1D 1_555 1_555
C1H C2H 1_555 1_555
C1LE C2LE 1_555 1_555
C1EC C2EC 1_555 1_555
C1IF C2IF 1_555 1_555
C1NB C2NB 1_555 1_555
C1LA O2LA 1_555 1_555
C1WD O2WD 1_555 1_555
C1CE O2CE 1_555 1_555
C2JD C1JD 1_555 1_555
C2H C3H 1_555 1_555
C2EE C1EE 1_555 1_555
C2CA C1CA 1_555 1_555
C2LE C3LE 1_555 1_555
C2UB C1UB 1_555 1_555
C2BG C1BG 1_555 1_555
C2EC C3EC 1_555 1_555
C2BF C1BF 1_555 1_555
C2CB C1CB 1_555 1_555
C2IF C3IF 1_555 1_555
C2ED C6 1_555 1_555
C2N C1N 1_555 1_555
C2TC C1TC 1_555 1_555
C2SB C1SB 1_555 1_555
C2GB C1GB 1_555 1_555
C2DF C3DF 1_555 1_555
C2VE C1VE 1_555 1_555
C2NB C3NB 1_555 1_555
C2VD C3VD 1_555 1_555
C2RA C1RA 1_555 1_555
C2FA C1FA 1_555 1_555
C2HE C3HE 1_555 1_555
C2AE C1AE 1_555 1_555
C2NA C1NA 1_555 1_555
C2Z C1Z 1_555 1_555
C2DE C3DE 1_555 1_555
C2QD C1QD 1_555 1_555
C2JA C1JA_2 1_555 1_555
C2AD C1AD 1_555 1_555
C2ND C1ND 1_555 1_555
C2E C3E 1_555 1_555
C2U C1U 1_555 1_555
C2YC C1YC 1_555 1_555
C2KC C3KC 1_555 1_555
C2VF C1VF 1_555 1_555
C2GG C1GG 1_555 1_555
C2AC C3AC 1_555 1_555
C2CC C1CC 1_555 1_555
C2EG C3EG 1_555 1_555
C2PC C1PC 1_555 1_555
C2QF C1QF 1_555 1_555
C2XF C1XF 1_555 1_555
C2UB_2 C3UB_2 1_555 1_555
C2ZB C1ZB 1_555 1_555
C2FG C3FG 1_555 1_555
C2IC C1IC 1_555 1_555
C2OF C1OF 1_555 1_555
C2J C1J 1_555 1_555
C2ID C1ID 1_555 1_555
C2RC C1RC 1_555 1_555
C2M C3M 1_555 1_555
C2R C1R 1_555 1_555
C2ZC C3ZC 1_555 1_555
C2C C1C 1_555 1_555
C2GD C3GD 1_555 1_555
C2S C3S 1_555 1_555
C2IE C1IE 1_555 1_555
C2ME C1ME 1_555 1_555
C2BA C1BA 1_555 1_555
C2HF C1HF 1_555 1_555
C2RE C1RE 1_555 1_555
C2IB C1IB 1_555 1_555
C2NF C1NF 1_555 1_555
C2MC C1MC 1_555 1_555
C2JA_2 C1JA 1_555 1_555
C2VD_2 C1VD 1_555 1_555
C2UC C1UC 1_555 1_555
C2Q C1Q 1_555 1_555
C2D C1D 1_555 1_555
C2NE C3NE 1_555 1_555
C3JD C2JD 1_555 1_555
C3H H1H 1_555 1_555
C3EE C2EE 1_555 1_555
C3CA C2CA 1_555 1_555
C3LE H1LE 1_555 1_555
C3UB C2UB 1_555 1_555
C3BG C2BG 1_555 1_555
C3EC H1EC 1_555 1_555
C3BF C2BF 1_555 1_555
C3CB C2CB 1_555 1_555
C3IF H1IF 1_555 1_555
C3N C2N 1_555 1_555
C3TC C2TC 1_555 1_555
C3SB C2SB 1_555 1_555
C3GB C2GB 1_555 1_555
C3VE C2VE 1_555 1_555
C3NB H1NB 1_555 1_555
C3VD H1VD 1_555 1_555
C3FA C2FA 1_555 1_555
C3AE C2AE 1_555 1_555
C3Z C2Z 1_555 1_555
C3DE H1DE 1_555 1_555
C3QD C2QD 1_555 1_555
C3JA C2JA 1_555 1_555
C3AD C2AD 1_555 1_555
C3ND C2ND 1_555 1_555
C3U C2U 1_555 1_555
C3YC C2YC 1_555 1_555
C3KC H1KC 1_555 1_555
C3GG C2GG 1_555 1_555
C3CC C2CC 1_555 1_555
C3EG H1EG 1_555 1_555
C3PC C2PC 1_555 1_555
C3XF C2XF 1_555 1_555
C3UB_2 H1UB_2 1_555 1_555
C3ZB C2ZB 1_555 1_555
C3FG H1FG 1_555 1_555
C3IC C2IC 1_555 1_555
C3OF C2OF 1_555 1_555
C3QF C2QF 1_555 1_555
C3VF C2VF 1_555 1_555
C3IB C2IB 1_555 1_555
C3NE H1NE 1_555 1_555
C3J C2J 1_555 1_555
C3RC C2RC 1_555 1_555
C3M H1M 1_555 1_555
C3R C2R 1_555 1_555
C3C C2C 1_555 1_555
C3GD H1GD 1_555 1_555
C3ID C2ID 1_555 1_555
C3S H1S 1_555 1_555
C3NA C2NA 1_555 1_555
C3ME C2ME 1_555 1_555
C3BA C2BA 1_555 1_555
C3RA C2RA 1_555 1_555
C3RE C2RE 1_555 1_555
C3ED C7 1_555 1_555
C3HA C7HA 1_555 1_555
C3GE C7HA 1_555 1_555
C3XA C7XA 1_555 1_555
C3OD C7D 1_555 1_555
C3D C2D 1_555 1_555
C3XF_2 C7UB 1_555 1_555
C3EB C7EB 1_555 1_555
C3GF C7EB 1_555 1_555
C3AA C7AA 1_555 1_555
C3FG_2 C7ZB_2 1_555 1_555
C3ZB_2 C7ZB_2 1_555 1_555
C3IE C2IE 1_555 1_555
C3HF C2HF 1_555 1_555
H1JD C3JD 1_555 1_555
H1CA C3CA 1_555 1_555
H1BG C3BG 1_555 1_555
H1CB C3CB 1_555 1_555
H1N C3N 1_555 1_555
H1TC C3TC 1_555 1_555
H1VE C3VE 1_555 1_555
H1AE C3AE 1_555 1_555
H1QD C3QD 1_555 1_555
H1JA C3JA 1_555 1_555
H1U C3U 1_555 1_555
H1YC C3YC 1_555 1_555
H1CC C3CC 1_555 1_555
H1PC C3PC 1_555 1_555
H1ZB C3ZB 1_555 1_555
H1IC C3IC 1_555 1_555
H1J C3J 1_555 1_555
H1RC C3RC 1_555 1_555
H1AD C3AD 1_555 1_555
H1ME C3ME 1_555 1_555
H1SB C3SB 1_555 1_555
H1BF C3BF 1_555 1_555
H1UB C3UB 1_555 1_555
H1EE C3EE 1_555 1_555
H1IB C3IB 1_555 1_555
H1ID C3ID 1_555 1_555
H1BA C3BA 1_555 1_555
H1D C3D 1_555 1_555
H1GB C3GB 1_555 1_555
H1FA C3FA 1_555 1_555
H1Z C3Z 1_555 1_555
H1ND C3ND 1_555 1_555
H1GG C3GG 1_555 1_555
H1XF C3XF 1_555 1_555
H1OF C3OF 1_555 1_555
H1QF C3QF 1_555 1_555
H1VF C3VF 1_555 1_555
H1R C3R 1_555 1_555
H1C C3C 1_555 1_555
H1NA C3NA 1_555 1_555
H1RA C3RA 1_555 1_555
H1RE C3RE 1_555 1_555
H1ED C3ED 1_555 1_555
C4JD H2JD 1_555 1_555
C4H H2H 1_555 1_555
C4EE H2EE 1_555 1_555
C4AA H2AA 1_555 1_555
C4CA H2CA 1_555 1_555
C4LE H2LE 1_555 1_555
C4UB H2UB 1_555 1_555
C4XF H2XF 1_555 1_555
C4BG H2BG 1_555 1_555
C4EC H2EC 1_555 1_555
C4BF H2BF 1_555 1_555
C4XA H2XA 1_555 1_555
C4CB H2CB 1_555 1_555
C4IF H2IF 1_555 1_555
C4ED C10 1_555 1_555
C4N H2N 1_555 1_555
C4TC H2TC 1_555 1_555
C4SB H2SB 1_555 1_555
C4RE H2RE 1_555 1_555
C4VE H2VE 1_555 1_555
C4NB H2NB 1_555 1_555
C4VD H2VD 1_555 1_555
C4RA H2RA 1_555 1_555
C4QD H2QD 1_555 1_555
C4JA H2JA 1_555 1_555
C4AD H2AD 1_555 1_555
C4S H2S 1_555 1_555
C4U H2U 1_555 1_555
C4YC H2YC 1_555 1_555
C4KC H2KC 1_555 1_555
C4VF H2VF 1_555 1_555
C4IB H2IB 1_555 1_555
C4NE H2NE 1_555 1_555
C4QF H2QF 1_555 1_555
C4PC H2PC 1_555 1_555
C4OF H2OF 1_555 1_555
C4IC H2IC 1_555 1_555
C4NA H2NA 1_555 1_555
C4AE H2AE 1_555 1_555
C4HA H2HA 1_555 1_555
C4GE H2GE 1_555 1_555
C4OD H2OD 1_555 1_555
C4D H2D 1_555 1_555
C4EB H2EB 1_555 1_555
C4GF H2GF 1_555 1_555
C4FG H2FG 1_555 1_555
C4ZB H2ZB 1_555 1_555
H2ED C4ED 1_555 1_555
C5JD C4JD 1_555 1_555
C5H C4H 1_555 1_555
C5EE C4EE 1_555 1_555
C5AA C4AA 1_555 1_555
C5CA C4CA 1_555 1_555
C5LE C4LE 1_555 1_555
C5UB C4UB 1_555 1_555
C5XF C4XF 1_555 1_555
C5BG C4BG 1_555 1_555
C5EC C4EC 1_555 1_555
C5BF C4BF 1_555 1_555
C5XA C4XA 1_555 1_555
C5CB C4CB 1_555 1_555
C5IF C4IF 1_555 1_555
C5ED C11 1_555 1_555
C5N C4N 1_555 1_555
C5TC C4TC 1_555 1_555
C5SB C4SB 1_555 1_555
C5RE C4RE 1_555 1_555
C5VE C4VE 1_555 1_555
C5NB C4NB 1_555 1_555
C5VD C4VD 1_555 1_555
C5RA C4RA 1_555 1_555
C5QD C4QD 1_555 1_555
C5JA C4JA 1_555 1_555
C5AD C4AD 1_555 1_555
C5S C4S 1_555 1_555
C5U C4U 1_555 1_555
C5YC C4YC 1_555 1_555
C5KC C4KC 1_555 1_555
C5VF C4VF 1_555 1_555
C5IB C4IB 1_555 1_555
C5NE C4NE 1_555 1_555
C5QF C4QF 1_555 1_555
C5PC C4PC 1_555 1_555
C5OF C4OF 1_555 1_555
C5IC C4IC 1_555 1_555
C5NA C4NA 1_555 1_555
C5AE C4AE 1_555 1_555
C5HA C4HA 1_555 1_555
C5GE C4GE 1_555 1_555
C5OD C4OD 1_555 1_555
C5D C4D 1_555 1_555
C5EB C4EB 1_555 1_555
C5GF C4GF 1_555 1_555
C5FG C4FG 1_555 1_555
C5ZB C4ZB 1_555 1_555
H3JD C5JD 1_555 1_555
H3H C5H 1_555 1_555
H3CA C5CA 1_555 1_555
H3LE C5LE 1_555 1_555
H3BG C5BG 1_555 1_555
H3EC C5EC 1_555 1_555
H3CB C5CB 1_555 1_555
H3IF C5IF 1_555 1_555
H3N C5N 1_555 1_555
H3TC C5TC 1_555 1_555
H3VE C5VE 1_555 1_555
H3NB C5NB 1_555 1_555
H3QD C5QD 1_555 1_555
H3JA C5JA 1_555 1_555
H3U C5U 1_555 1_555
H3YC C5YC 1_555 1_555
H3KC C5KC 1_555 1_555
H3VF C5VF 1_555 1_555
H3IB C5IB 1_555 1_555
H3NE C5NE 1_555 1_555
H3AD C5AD 1_555 1_555
H3S C5S 1_555 1_555
H3QF C5QF 1_555 1_555
H3PC C5PC 1_555 1_555
H3VD C5VD 1_555 1_555
H3RA C5RA 1_555 1_555
H3OF C5OF 1_555 1_555
H3IC C5IC 1_555 1_555
H3SB C5SB 1_555 1_555
H3RE C5RE 1_555 1_555
H3NA C5NA 1_555 1_555
H3AE C5AE 1_555 1_555
H3ED C5ED 1_555 1_555
H3HA C5HA 1_555 1_555
H3GE C5GE 1_555 1_555
H3BF C5BF 1_555 1_555
H3XA C5XA 1_555 1_555
H3OD C5OD 1_555 1_555
H3D C5D 1_555 1_555
H3UB C5UB 1_555 1_555
H3XF C5XF 1_555 1_555
H3EB C5EB 1_555 1_555
H3GF C5GF 1_555 1_555
H3EE C5EE 1_555 1_555
H3AA C5AA 1_555 1_555
H3FG C5FG 1_555 1_555
H3ZB C5ZB 1_555 1_555
C6GB C2GB 1_555 1_555
C6RA C2VD 1_555 1_555
C6FA C2FA 1_555 1_555
C6NA C2AE 1_555 1_555
C6Z C2Z 1_555 1_555
C6E C2ND 1_555 1_555
C6KC C2KC 1_555 1_555
C6AC C2GG 1_555 1_555
C6CC C2CC 1_555 1_555
C6PC C2PC 1_555 1_555
C6UB C2XF 1_555 1_555
C6ZB C2ZB 1_555 1_555
C6IC C2IC 1_555 1_555
C6U C2U 1_555 1_555
C6J C2J 1_555 1_555
C6M C2RC 1_555 1_555
C6R C2R 1_555 1_555
C6C C2C 1_555 1_555
C6S C2AD 1_555 1_555
C6JA C2QD 1_555 1_555
C6BA C2ME 1_555 1_555
C6NB C2VE 1_555 1_555
C6SB C2SB 1_555 1_555
C6N C2N 1_555 1_555
C6CB C2CB 1_555 1_555
C6XA C2BF 1_555 1_555
C6EC C2BG 1_555 1_555
C6UB_2 C2UB 1_555 1_555
C6CA C2CA 1_555 1_555
C6AA C2EE 1_555 1_555
C6H C2JD 1_555 1_555
C6IB C2IB 1_555 1_555
C6D C2D 1_555 1_555
C6GA C2IE 1_555 1_555
C6BB C2HF 1_555 1_555
H4GB C6GB 1_555 1_555
H4FA C6FA 1_555 1_555
H4Z C6Z 1_555 1_555
H4E C6E 1_555 1_555
H4AC C6AC 1_555 1_555
H4CC C6CC 1_555 1_555
H4UB C6UB 1_555 1_555
H4ZB C6ZB 1_555 1_555
H4IC C6IC 1_555 1_555
H4PC C6PC 1_555 1_555
H4KC C6KC 1_555 1_555
H4U C6U 1_555 1_555
H4M C6M 1_555 1_555
H4R C6R 1_555 1_555
H4C C6C 1_555 1_555
H4J C6J 1_555 1_555
H4S C6S 1_555 1_555
H4JA C6JA 1_555 1_555
H4NA C6NA 1_555 1_555
H4BA C6BA 1_555 1_555
H4RA C6RA 1_555 1_555
H4SB C6SB 1_555 1_555
H4N C6N 1_555 1_555
H4H C6H 1_555 1_555
H4CA C6CA 1_555 1_555
H4EC C6EC 1_555 1_555
H4CB C6CB 1_555 1_555
H4NB C6NB 1_555 1_555
C7H C3JD 1_555 1_555
C7AA C3EE 1_555 1_555
C7CA C3CA 1_555 1_555
C7UB C3UB 1_555 1_555
C7EC C3BG 1_555 1_555
C7XA C3BF 1_555 1_555
C7CB C3CB 1_555 1_555
C7N C3N 1_555 1_555
C7SB C3SB 1_555 1_555
C7NB C3VE 1_555 1_555
C7RA C3VD 1_555 1_555
C7NA C3AE 1_555 1_555
C7JA C3QD 1_555 1_555
C7S C3AD 1_555 1_555
C7U C3U 1_555 1_555
C7KC C3KC 1_555 1_555
C7CC C3CC 1_555 1_555
C7PC C3PC 1_555 1_555
C7ZB C3ZB 1_555 1_555
C7IC C3IC 1_555 1_555
C7IB C3IB 1_555 1_555
C7J C3J 1_555 1_555
C7M C3RC 1_555 1_555
C7BA C3ME 1_555 1_555
C7HA C8HA 1_555 1_555
C7D C3D 1_555 1_555
C7EB C8EB 1_555 1_555
C7ZB_2 C8ZB 1_555 1_555
C7GB C3GB 1_555 1_555
C7FA C3FA 1_555 1_555
C7Z C3Z 1_555 1_555
C7E C3ND 1_555 1_555
C7AC C3GG 1_555 1_555
C7UB_2 C3XF 1_555 1_555
C7R C3R 1_555 1_555
C7C C3C 1_555 1_555
C8H C7H 1_555 1_555
C8AA C7AA 1_555 1_555
C8CA C7CA 1_555 1_555
C8UB C7UB 1_555 1_555
C8EC C7EC 1_555 1_555
C8XA C7XA 1_555 1_555
C8CB C7CB 1_555 1_555
C8N C7N 1_555 1_555
C8SB C7SB 1_555 1_555
C8NB C7NB 1_555 1_555
C8RA C7RA 1_555 1_555
C8JA C7JA 1_555 1_555
C8S C7S 1_555 1_555
C8U C7U 1_555 1_555
C8KC C7KC 1_555 1_555
C8IB C7IB 1_555 1_555
C8PC C7PC 1_555 1_555
C8IC C7IC 1_555 1_555
C8NA C7NA 1_555 1_555
C8HA C9HA 1_555 1_555
C8D C7D 1_555 1_555
C8EB C9EB 1_555 1_555
C8ZB C9ZB 1_555 1_555
C8CC C7CC 1_555 1_555
C8ZB_2 C7ZB 1_555 1_555
C8J C7J 1_555 1_555
C8M C7M 1_555 1_555
C8BA C7BA 1_555 1_555
C9H C8H 1_555 1_555
C9AA C8AA 1_555 1_555
C9CA C8CA 1_555 1_555
C9UB C8UB 1_555 1_555
C9EC C8EC 1_555 1_555
C9XA C8XA 1_555 1_555
C9CB C8CB 1_555 1_555
C9N C8N 1_555 1_555
C9SB C8SB 1_555 1_555
C9NB C8NB 1_555 1_555
C9RA C8RA 1_555 1_555
C9JA C8JA 1_555 1_555
C9S C8S 1_555 1_555
C9U C8U 1_555 1_555
C9KC C8KC 1_555 1_555
C9IB C8IB 1_555 1_555
C9PC C8PC 1_555 1_555
C9IC C8IC 1_555 1_555
C9NA C8NA 1_555 1_555
C9HA C10HA 1_555 1_555
C9D C8D 1_555 1_555
C9EB C10EB 1_555 1_555
C9ZB C10ZB 1_555 1_555
C10H C4JD 1_555 1_555
C10AA C4EE 1_555 1_555
C10CA C4CA 1_555 1_555
C10UB C4UB 1_555 1_555
C10EC C4BG 1_555 1_555
C10XA C4BF 1_555 1_555
C10CB C4CB 1_555 1_555
C10N C4N 1_555 1_555
C10SB C4SB 1_555 1_555
C10NB C4VE 1_555 1_555
C10RA C4VD 1_555 1_555
C10JA C4QD 1_555 1_555
C10S C4AD 1_555 1_555
C10U C4U 1_555 1_555
C10KC C4KC 1_555 1_555
C10IB C4IB 1_555 1_555
C10PC C4QF 1_555 1_555
C10IC C4OF 1_555 1_555
C10NA C4NA 1_555 1_555
C10HA C4HA 1_555 1_555
C10D C4OD 1_555 1_555
C10EB C4EB 1_555 1_555
C10ZB C4FG 1_555 1_555
C11H C5JD 1_555 1_555
C11AA C5EE 1_555 1_555
C11CA C5CA 1_555 1_555
C11UB C5UB 1_555 1_555
C11EC C5BG 1_555 1_555
C11XA C5BF 1_555 1_555
C11CB C5CB 1_555 1_555
C11N C5N 1_555 1_555
C11SB C5SB 1_555 1_555
C11NB C5VE 1_555 1_555
C11RA C5VD 1_555 1_555
C11JA C5QD 1_555 1_555
C11S C5AD 1_555 1_555
C11U C5U 1_555 1_555
C11KC C5KC 1_555 1_555
C11IB C5IB 1_555 1_555
C11PC C5QF 1_555 1_555
C11IC C5OF 1_555 1_555
C11NA C5NA 1_555 1_555
C11HA C5HA 1_555 1_555
C11D C5OD 1_555 1_555
C11EB C5EB 1_555 1_555
C11ZB C5FG 1_555 1_555
C12H C11H 1_555 1_555
C12AA C11AA 1_555 1_555
C12CA C11CA 1_555 1_555
C12UB C11UB 1_555 1_555
C12EC C11EC 1_555 1_555
C12XA C11XA 1_555 1_555
C12CB C11CB 1_555 1_555
C12N C11N 1_555 1_555
C12SB C11SB 1_555 1_555
C12NB C11NB 1_555 1_555
C12RA C11RA 1_555 1_555
C12JA C11JA 1_555 1_555
C12S C11S 1_555 1_555
C12U C11U 1_555 1_555
C12KC C11KC 1_555 1_555
C12IB C11IB 1_555 1_555
C12PC C11PC 1_555 1_555
C12IC C11IC 1_555 1_555
C12NA C11NA 1_555 1_555
C12HA C11HA 1_555 1_555
C12D C11D 1_555 1_555
C12EB C11EB 1_555 1_555
C12ZB C11ZB 1_555 1_555
C13H C12H 1_555 1_555
C13AA C12AA 1_555 1_555
C13CA C12CA 1_555 1_555
C13UB C12UB 1_555 1_555
C13EC C12EC 1_555 1_555
C13XA C12XA 1_555 1_555
C13CB C12CB 1_555 1_555
C13N C12N 1_555 1_555
C13SB C12SB 1_555 1_555
C13NB C12NB 1_555 1_555
C13RA C12RA 1_555 1_555
C13JA C12JA 1_555 1_555
C13S C12S 1_555 1_555
C13U C12U 1_555 1_555
C13KC C12KC 1_555 1_555
C13IB C12IB 1_555 1_555
C13PC C12PC 1_555 1_555
C13IC C12IC 1_555 1_555
C13NA C12NA 1_555 1_555
C13HA C12HA 1_555 1_555
C13D C12D 1_555 1_555
C13EB C12EB 1_555 1_555
C13ZB C12ZB 1_555 1_555
C14H C13H 1_555 1_555
C14AA C13AA 1_555 1_555
C14CA C13CA 1_555 1_555
C14UB C13UB 1_555 1_555
C14EC C13EC 1_555 1_555
C14XA C13XA 1_555 1_555
C14CB C13CB 1_555 1_555
C14N C13N 1_555 1_555
C14SB C13SB 1_555 1_555
C14NB C13NB 1_555 1_555
C14RA C13RA 1_555 1_555
C14JA C13JA 1_555 1_555
C14S C13S 1_555 1_555
C14U C13U 1_555 1_555
C14KC C13KC 1_555 1_555
C14IB C13IB 1_555 1_555
C14PC C13PC 1_555 1_555
C14IC C13IC 1_555 1_555
C14NA C13NA 1_555 1_555
C14HA C15 1_555 1_555
C14D C13D 1_555 1_555
C14EB C13EB 1_555 1_555
C14ZB C13ZB 1_555 1_555
C15AA C14H 1_555 1_555
C15CA C14CA 1_555 1_555
C15XA C14EC 1_555 1_555
C15CB C14 1_555 1_555
C15N C14N 1_555 1_555
C15RA C14NB 1_555 1_555
C15S C14JA 1_555 1_555
C15U C14U 1_555 1_555
C15KC C14KC 1_555 1_555
C15IB C14U 1_555 1_555
C15PC C14S 1_555 1_555
C15JA C14JA 1_555 1_555
C15IC C14RA 1_555 1_555
C15NB C14NB 1_555 1_555
C15SB C14SB 1_555 1_555
C15NA C14N 1_555 1_555
C15HA C14CB 1_555 1_555
C15D C14XA 1_555 1_555
C15EC C14EC 1_555 1_555
C15UB C14UB 1_555 1_555
C15EB C14CA 1_555 1_555
C15ZB C14AA 1_555 1_555
C15H C14H 1_555 1_555
H5IB C15IB 1_555 1_555
H5KC C15KC 1_555 1_555
H5U C15U 1_555 1_555
H5JA C15JA 1_555 1_555
H5PC C15PC 1_555 1_555
H5S C15S 1_555 1_555
H5NB C15NB 1_555 1_555
H5IC C15IC 1_555 1_555
H5RA C15RA 1_555 1_555
H5NA C15NA 1_555 1_555
H5SB C15SB 1_555 1_555
H5N C15N 1_555 1_555
H5HA C15HA 1_555 1_555
H5CB C15CB 1_555 1_555
H5EC C15EC 1_555 1_555
H5D C15D 1_555 1_555
H5XA C15XA 1_555 1_555
H5EB C15EB 1_555 1_555
H5UB C15UB 1_555 1_555
H5CA C15CA 1_555 1_555
H5H C15H 1_555 1_555
H5ZB C15ZB 1_555 1_555
H5AA C15AA 1_555 1_555
C9 C10 1_555 1_555
O2Q C1Q 1_555 1_555
O2UC C1UC 1_555 1_555
O2JD C1JD 1_555 1_555
O2VD C1VD 1_555 1_555
O2JA C1JA 1_555 1_555
O2CA C1CA 1_555 1_555
O2MC C1MC 1_555 1_555
O2NF C1NF 1_555 1_555
O2BG C1BG 1_555 1_555
O2RE C1RE 1_555 1_555
O2IB C1IB 1_555 1_555
O2CB C1CB 1_555 1_555
O2YC C1YC 1_555 1_555
O2N C1N 1_555 1_555
O2HF C1HF 1_555 1_555
O2GB C1GB 1_555 1_555
O2VE C1VE 1_555 1_555
O2ME C1ME 1_555 1_555
O2FA C1FA 1_555 1_555
O2AE C1AE 1_555 1_555
O2IE C1IE 1_555 1_555
O2Z C1Z 1_555 1_555
O2QD C1QD 1_555 1_555
O2J C1J 1_555 1_555
O2ND C1ND 1_555 1_555
O2U C1U 1_555 1_555
O2PC C1PC 1_555 1_555
O2GG C1GG 1_555 1_555
O2CC C1CC 1_555 1_555
O2XF C1XF 1_555 1_555
O2ZB C1ZB 1_555 1_555
O2IC C1IC 1_555 1_555
O2OF C1OF 1_555 1_555
O2RC C1RC 1_555 1_555
O2R C1R 1_555 1_555
O2C C1C 1_555 1_555
O2JA_2 C1JA_2 1_555 1_555
O2TC C1TC 1_555 1_555
O2D C1D 1_555 1_555
C1ED C2ED 1_555 1_555
C2H C6H 1_555 1_555
C2LE C6CA 1_555 1_555
C2EC C6EC 1_555 1_555
C2IF C6CB 1_555 1_555
C2ED C3ED 1_555 1_555
C2TC C6N 1_555 1_555
C2DF C6GB 1_555 1_555
C2NB C6NB 1_555 1_555
C2RA C6RA 1_555 1_555
C2HE C6FA 1_555 1_555
C2NA C6NA 1_555 1_555
C2DE C6Z 1_555 1_555
C2JA C6JA 1_555 1_555
C2E C6E 1_555 1_555
C2YC C6U 1_555 1_555
C2VF C6KC 1_555 1_555
C2AC C6AC 1_555 1_555
C2EG C6CC 1_555 1_555
C2QF C6PC 1_555 1_555
C2UB_2 C6UB 1_555 1_555
C2FG C6ZB 1_555 1_555
C2OF C6IC 1_555 1_555
C2ID C6J 1_555 1_555
C2M C6M 1_555 1_555
C2ZC C6R 1_555 1_555
C2GD C6C 1_555 1_555
C2S C6S 1_555 1_555
C2BA C6BA 1_555 1_555
C2RE C6SB 1_555 1_555
C3H C7H 1_555 1_555
C3LE C7CA 1_555 1_555
C3EC C7EC 1_555 1_555
C3IF C7CB 1_555 1_555
C3TC C7N 1_555 1_555
C3NB C7NB 1_555 1_555
C3DE C7Z 1_555 1_555
C3JA C7JA 1_555 1_555
C3YC C7U 1_555 1_555
C3EG C7CC 1_555 1_555
C3UB_2 C7UB_2 1_555 1_555
C3FG C7ZB 1_555 1_555
C3OF C7IC 1_555 1_555
C3QF C7PC 1_555 1_555
C3VF C7KC 1_555 1_555
C3NE C7IB 1_555 1_555
C3M C7M 1_555 1_555
C3GD C7C 1_555 1_555
C3ID C7J 1_555 1_555
C3S C7S 1_555 1_555
C3NA C7NA 1_555 1_555
C3BA C7BA 1_555 1_555
C3RA C7RA 1_555 1_555
C3RE C7SB 1_555 1_555
C4H C10H 1_555 1_555
C4AA C10AA 1_555 1_555
C4LE C10CA 1_555 1_555
C4XF C10UB 1_555 1_555
C4EC C10EC 1_555 1_555
C4XA C10XA 1_555 1_555
C4IF C10CB 1_555 1_555
C4ED C5ED 1_555 1_555
C4TC C10N 1_555 1_555
C4RE C10SB 1_555 1_555
C4NB C10NB 1_555 1_555
C4RA C10RA 1_555 1_555
C4JA C10JA 1_555 1_555
C4S C10S 1_555 1_555
C4YC C10U 1_555 1_555
C4VF C10KC 1_555 1_555
C4NE C10IB 1_555 1_555
C4PC C10PC 1_555 1_555
C4IC C10IC 1_555 1_555
C4AE C10NA 1_555 1_555
C4GE C10HA 1_555 1_555
C4D C10D 1_555 1_555
C4GF C10EB 1_555 1_555
C4ZB C10ZB 1_555 1_555
C5H C11H 1_555 1_555
C5AA C11AA 1_555 1_555
C5LE C11CA 1_555 1_555
C5XF C11UB 1_555 1_555
C5EC C11EC 1_555 1_555
C5XA C11XA 1_555 1_555
C5IF C11CB 1_555 1_555
C5TC C11N 1_555 1_555
C5RE C11SB 1_555 1_555
C5NB C11NB 1_555 1_555
C5RA C11RA 1_555 1_555
C5JA C11JA 1_555 1_555
C5S C11S 1_555 1_555
C5YC C11U 1_555 1_555
C5VF C11KC 1_555 1_555
C5NE C11IB 1_555 1_555
C5PC C11PC 1_555 1_555
C5IC C11IC 1_555 1_555
C5AE C11NA 1_555 1_555
C5GE C11HA 1_555 1_555
C5D C11D 1_555 1_555
C5GF C11EB 1_555 1_555
C5ZB C11ZB 1_555 1_555
C9H C10H 1_555 1_555
C9AA C10AA 1_555 1_555
C9CA C10CA 1_555 1_555
C9UB C10UB 1_555 1_555
C9EC C10EC 1_555 1_555
C9XA C10XA 1_555 1_555
C9CB C10CB 1_555 1_555
C9N C10N 1_555 1_555
C9SB C10SB 1_555 1_555
C9NB C10NB 1_555 1_555
C9RA C10RA 1_555 1_555
C9JA C10JA 1_555 1_555
C9S C10S 1_555 1_555
C9U C10U 1_555 1_555
C9KC C10KC 1_555 1_555
C9IB C10IB 1_555 1_555
C9PC C10PC 1_555 1_555
C9IC C10IC 1_555 1_555
C9NA C10NA 1_555 1_555
C9D C10D 1_555 1_555
C13HA C14HA 1_555 1_555
C14AA C15AA 1_555 1_555
C14UB C15CA 1_555 1_555
C14XA C15XA 1_555 1_555
C14CB C15CB 1_555 1_555
C14SB C15N 1_555 1_555
C14RA C15RA 1_555 1_555
C14S C15S 1_555 1_555
C14KC C15U 1_555 1_555
C14IB C15KC 1_555 1_555
C14IB C15IB 1_555 1_555
C14PC C15PC 1_555 1_555
C14PC C15JA 1_555 1_555
C14IC C15IC 1_555 1_555
C14IC C15NB 1_555 1_555
C14NA C15SB 1_555 1_555
C14NA C15NA 1_555 1_555
C14HA C15HA 1_555 1_555
C14D C15D 1_555 1_555
C14D C15EC 1_555 1_555
C14EB C15UB 1_555 1_555
C14EB C15EB 1_555 1_555
C14ZB C15ZB 1_555 1_555
C14ZB C15H 1_555 1_555

#END
