
#######################################################################
#
#                 Cambridge Crystallographic Data Centre
#                                CCDC 
#
#######################################################################
#
# If this CIF has been generated from an entry in the Cambridge 
# Structural Database, then it will include bibliographic, chemical, 
# crystal, experimental, refinement or atomic coordinate data resulting 
# from the CCDC's data processing and validation procedures.
#
#######################################################################

data_COKNIB01
_chemical_name_common            CPO-27-Cu
_chemical_formula_moiety         '(C8 H2 Cu2 O6)n'
_chemical_name_systematic        
catena-((\m-2,5-dioxido-1,4-benzenedicarboxylate)-di-copper(ii))
_symmetry_cell_setting           rhombohedral
_symmetry_space_group_name_H-M   'R -3'
_symmetry_Int_Tables_number      148
_space_group_name_Hall           '-R 3'
loop_
_symmetry_equiv_pos_site_id
_symmetry_equiv_pos_as_xyz
1 x,y,z
2 -y,x-y,z
3 -x+y,-x,z
4 2/3+x,1/3+y,1/3+z
5 2/3-y,1/3+x-y,1/3+z
6 2/3-x+y,1/3-x,1/3+z
7 1/3+x,2/3+y,2/3+z
8 1/3-y,2/3+x-y,2/3+z
9 1/3-x+y,2/3-x,2/3+z
10 -x,-y,-z
11 y,-x+y,-z
12 x-y,x,-z
13 1/3-x,2/3-y,2/3-z
14 1/3+y,2/3-x+y,2/3-z
15 1/3+x-y,2/3+x,2/3-z
16 2/3-x,1/3-y,1/3-z
17 2/3+y,1/3-x+y,1/3-z
18 2/3+x-y,1/3+x,1/3-z
_cell_length_a                   25.8868(3)
_cell_length_b                   25.8868(3)
_cell_length_c                   6.26433(11)
_cell_angle_alpha                90
_cell_angle_beta                 90
_cell_angle_gamma                120
_cell_volume                     3635.48
_cell_formula_units_Z            9
loop_
_atom_site_label
_atom_site_type_symbol
_atom_site_fract_x
_atom_site_fract_y
_atom_site_fract_z
Cu1 Cu 0.94631(18) 0.62885(19) -0.0115(7)
C1 C 1.0104(2) 0.5906(3) -0.2929(9)
C2 C 1.0059(2) 0.5449(3) -0.1374(9)
C3 C 0.9869(3) 0.5449(3) 0.0741(8)
C4 C 0.9796(2) 0.4969(2) 0.2021(9)
H1 H 0.9640(5) 0.4954(5) 0.3766(19)
O1 O 1.0430(3) 0.5996(4) -0.4561(9)
O2 O 0.9781(3) 0.6147(3) -0.2712(9)
O3 O 0.9734(3) 0.5838(2) 0.1588(9)
C3I C 1.0131(3) 0.4551(3) -0.0741(8)
C4I C 1.0204(2) 0.5031(2) -0.2021(9)
H1I H 1.0360(5) 0.5046(5) -0.3766(19)
O3I O 1.0266(3) 0.4162(2) -0.1588(9)
C1I C 0.9896(2) 0.4094(3) 0.2929(9)
C2I C 0.9941(2) 0.4551(3) 0.1374(9)
O1I O 0.9570(3) 0.4004(4) 0.4561(9)
O2I O 1.0219(3) 0.3853(3) 0.2712(9)
Cu1I Cu 1.05369(18) 0.37115(19) 0.0115(7)
Cu1D Cu 1.03782(19) 0.65079(26) -0.6782(7)
Cu1D_2 Cu 1.03782(19) 0.65079(26) 0.3218(7)
Cu1Q Cu 0.98413(26) 0.27964(18) 0.3448(7)
Cu1H Cu 1.01587(26) 0.72036(18) -0.3448(7)
Cu1M Cu 0.96218(19) 0.34921(26) -0.3218(7)
Cu1M_2 Cu 0.96218(19) 0.34921(26) 0.6782(7)
O1Q O 1.1101(5) 0.3763(3) -0.2106(9)
O1H O 0.8899(5) 0.6237(3) 0.2106(9)
O2D O 1.0520(3) 0.6967(4) 0.0621(9)
O2M O 0.9480(3) 0.3033(4) -0.0621(9)
O3Q O 1.0563(4) 0.3067(3) 0.1745(9)
O3H O 0.9437(4) 0.6933(3) -0.1745(9)
loop_
_geom_bond_atom_site_label_1
_geom_bond_atom_site_label_2
_geom_bond_site_symmetry_1
_geom_bond_site_symmetry_2
Cu1 O2 1_555 1_555
C1 C2 1_555 1_555
C2 C3 1_555 1_555
C3 C4 1_555 1_555
C4 H1 1_555 1_555
O1 C1 1_555 1_555
O2 C1 1_555 1_555
O3 Cu1 1_555 1_555
C3I C4I 1_555 1_555
C4I C2 1_555 1_555
H1I C4I 1_555 1_555
O3I C3I 1_555 1_555
C1I C2I 1_555 1_555
C2I C4 1_555 1_555
O1I C1I 1_555 1_555
O2I C1I 1_555 1_555
Cu1I O3I 1_555 1_555
Cu1D O1 1_555 1_555
Cu1D_2 O3 1_555 1_555
Cu1Q O2I 1_555 1_555
Cu1H O2 1_555 1_555
Cu1M O3I 1_555 1_555
Cu1M_2 O1I 1_555 1_555
O1Q Cu1I 1_555 1_555
O1H Cu1 1_555 1_555
O2D Cu1 1_555 1_555
O2M Cu1I 1_555 1_555
O3Q Cu1I 1_555 1_555
O3H Cu1 1_555 1_555
C3 O3 1_555 1_555
C3I C2I 1_555 1_555
O2I Cu1I 1_555 1_555
Cu1D_2 O2D 1_555 1_555
Cu1Q O3Q 1_555 1_555
Cu1H O3H 1_555 1_555
Cu1M O2M 1_555 1_555

#END
