
#######################################################################
#
#                 Cambridge Crystallographic Data Centre
#                                CCDC 
#
#######################################################################
#
# If this CIF has been generated from an entry in the Cambridge 
# Structural Database, then it will include bibliographic, chemical, 
# crystal, experimental, refinement or atomic coordinate data resulting 
# from the CCDC's data processing and validation procedures.
#
#######################################################################

data_COKNUN02
_chemical_name_common            CPO-27-Mn
_chemical_formula_moiety         '(C8 H2 Mn2 O6)n'
_chemical_name_systematic        
catena-((\m-2,5-dioxido-1,4-benzenedicarboxylate)-di-manganese(ii))
_symmetry_cell_setting           rhombohedral
_symmetry_space_group_name_H-M   'R -3'
_symmetry_Int_Tables_number      148
_space_group_name_Hall           '-R 3'
loop_
_symmetry_equiv_pos_site_id
_symmetry_equiv_pos_as_xyz
1 x,y,z
2 -y,x-y,z
3 -x+y,-x,z
4 2/3+x,1/3+y,1/3+z
5 2/3-y,1/3+x-y,1/3+z
6 2/3-x+y,1/3-x,1/3+z
7 1/3+x,2/3+y,2/3+z
8 1/3-y,2/3+x-y,2/3+z
9 1/3-x+y,2/3-x,2/3+z
10 -x,-y,-z
11 y,-x+y,-z
12 x-y,x,-z
13 1/3-x,2/3-y,2/3-z
14 1/3+y,2/3-x+y,2/3-z
15 1/3+x-y,2/3+x,2/3-z
16 2/3-x,1/3-y,1/3-z
17 2/3+y,1/3-x+y,1/3-z
18 2/3+x-y,1/3+x,1/3-z
_cell_length_a                   26.2950(8)
_cell_length_b                   26.2950(8)
_cell_length_c                   7.0514(3)
_cell_angle_alpha                90
_cell_angle_beta                 90
_cell_angle_gamma                120
_cell_volume                     4222.33
_cell_formula_units_Z            9
loop_
_atom_site_label
_atom_site_type_symbol
_atom_site_fract_x
_atom_site_fract_y
_atom_site_fract_z
Mn1 Mn 0.9545(14) 0.6441(15) 0.019(4)
C1 C 1.0156(9) 0.5931(11) -0.239(3)
C2 C 1.0062(9) 0.5450(19) -0.117(7)
C3 C 0.9884(9) 0.5442(14) 0.077(8)
C4 C 0.9839(7) 0.4977(20) 0.192(2)
H1 H 0.97257 0.49750 0.33724
O1 O 1.0286(10) 0.5916(13) -0.415(3)
O2 O 1.0041(9) 0.6349(7) -0.211(3)
O3 O 0.9783(9) 0.5841(8) 0.150(4)
C1I C 0.9844(9) 0.4069(11) 0.239(3)
C2I C 0.9938(9) 0.4550(19) 0.117(7)
C3I C 1.0116(9) 0.4558(14) -0.077(8)
C4I C 1.0161(7) 0.5023(20) -0.192(2)
H1I H 1.02743 0.50250 -0.33724
O1I O 0.9714(10) 0.4084(13) 0.415(3)
O2I O 0.9959(9) 0.3651(7) 0.211(3)
O3I O 1.0217(9) 0.4159(8) -0.150(4)
Mn1I Mn 1.0455(14) 0.3559(15) -0.019(4)
Mn1D Mn 1.0226(15) 0.6437(21) -0.648(4)
Mn1D_2 Mn 1.0226(15) 0.6437(21) 0.352(4)
Mn1Q Mn 0.9771(21) 0.2878(14) 0.314(4)
Mn1H Mn 1.0229(21) 0.7122(14) -0.314(4)
Mn1M Mn 0.9774(15) 0.3563(21) -0.352(4)
Mn1M_2 Mn 0.9774(15) 0.3563(21) 0.648(4)
O1Q O 1.1037(16) 0.3619(10) -0.252(3)
O1H O 0.8963(16) 0.6381(10) 0.252(3)
O2D O 1.0318(7) 0.7025(11) 0.122(3)
O2M O 0.9682(7) 0.2975(11) -0.122(3)
O3Q O 1.0609(12) 0.3116(9) 0.183(4)
O3H O 0.9391(12) 0.6884(9) -0.183(4)
loop_
_geom_bond_atom_site_label_1
_geom_bond_atom_site_label_2
_geom_bond_site_symmetry_1
_geom_bond_site_symmetry_2
Mn1 O2 1_555 1_555
C1 C2 1_555 1_555
C2 C3 1_555 1_555
C3 C4 1_555 1_555
C4 H1 1_555 1_555
O1 C1 1_555 1_555
O2 C1 1_555 1_555
O3 Mn1 1_555 1_555
C1I C2I 1_555 1_555
C2I C4 1_555 1_555
C3I C2I 1_555 1_555
C4I C2 1_555 1_555
H1I C4I 1_555 1_555
O1I C1I 1_555 1_555
O2I C1I 1_555 1_555
O3I C3I 1_555 1_555
Mn1I O2I 1_555 1_555
Mn1D O1 1_555 1_555
Mn1D_2 O3 1_555 1_555
Mn1Q O2I 1_555 1_555
Mn1H O2 1_555 1_555
Mn1M O3I 1_555 1_555
Mn1M_2 O1I 1_555 1_555
O1Q Mn1I 1_555 1_555
O1H Mn1 1_555 1_555
O2D Mn1 1_555 1_555
O2M Mn1I 1_555 1_555
O3Q Mn1I 1_555 1_555
O3H Mn1 1_555 1_555
C3 O3 1_555 1_555
C3I C4I 1_555 1_555
O3I Mn1I 1_555 1_555
Mn1D_2 O2D 1_555 1_555
Mn1Q O3Q 1_555 1_555
Mn1H O3H 1_555 1_555
Mn1M O2M 1_555 1_555

#END
