
#######################################################################
#
#                 Cambridge Crystallographic Data Centre
#                                CCDC 
#
#######################################################################
#
# If this CIF has been generated from an entry in the Cambridge 
# Structural Database, then it will include bibliographic, chemical, 
# crystal, experimental, refinement or atomic coordinate data resulting 
# from the CCDC's data processing and validation procedures.
#
#######################################################################

data_OZUKUR01
_chemical_formula_moiety         '(C8 H2 Mn2 O6)n,2n(D2)'
_chemical_name_systematic        
'catena-((\m-2,5-dioxido-1,4-benzenedicarboxylate)-di-manganese(ii) bis(di-deuterium))'
_symmetry_cell_setting           rhombohedral
_symmetry_space_group_name_H-M   'R -3'
_symmetry_Int_Tables_number      148
_space_group_name_Hall           '-R 3'
loop_
_symmetry_equiv_pos_site_id
_symmetry_equiv_pos_as_xyz
1 x,y,z
2 -y,x-y,z
3 -x+y,-x,z
4 2/3+x,1/3+y,1/3+z
5 2/3-y,1/3+x-y,1/3+z
6 2/3-x+y,1/3-x,1/3+z
7 1/3+x,2/3+y,2/3+z
8 1/3-y,2/3+x-y,2/3+z
9 1/3-x+y,2/3-x,2/3+z
10 -x,-y,-z
11 y,-x+y,-z
12 x-y,x,-z
13 1/3-x,2/3-y,2/3-z
14 1/3+y,2/3-x+y,2/3-z
15 1/3+x-y,2/3+x,2/3-z
16 2/3-x,1/3-y,1/3-z
17 2/3+y,1/3-x+y,1/3-z
18 2/3+x-y,1/3+x,1/3-z
_cell_length_a                   26.4363(18)
_cell_length_b                   26.4363(18)
_cell_length_c                   7.1068(5)
_cell_angle_alpha                90
_cell_angle_beta                 90
_cell_angle_gamma                120
_cell_volume                     4301.36
_cell_formula_units_Z            9
loop_
_atom_site_label
_atom_site_type_symbol
_atom_site_fract_x
_atom_site_fract_y
_atom_site_fract_z
D1 D 0.2104(5) 0.0137(7) 0.4713(19)
Mn1 Mn 0.9629(18) 0.643(2) -0.004(7)
C1 C 1.0195(17) 0.5979(21) -0.233(3)
C2 C 0.9998(16) 0.5494(26) -0.081(5)
C3 C 0.9883(11) 0.5380(13) 0.110(6)
C4 C 0.9856(8) 0.4937(14) 0.177(5)
H1 H 0.9732(15) 0.5073(19) 0.346(6)
O1 O 1.0261(13) 0.5859(18) -0.401(4)
O2 O 1.0013(16) 0.6358(12) -0.204(4)
O3 O 0.9794(11) 0.5862(12) 0.160(5)
C1I C 0.9805(17) 0.4021(21) 0.233(3)
C2I C 1.0002(16) 0.4506(26) 0.081(5)
C3I C 1.0117(11) 0.4620(13) -0.110(6)
C4I C 1.0144(8) 0.5063(14) -0.177(5)
H1I H 1.0268(15) 0.4927(19) -0.346(6)
O1I O 0.9739(13) 0.4141(18) 0.401(4)
O2I O 0.9987(16) 0.3642(12) 0.204(4)
O3I O 1.0206(11) 0.4138(12) -0.160(5)
Mn1I Mn 1.0371(18) 0.357(2) 0.004(7)
Mn1D Mn 1.024(2) 0.6532(27) 0.329(7)
Mn1Q Mn 0.9866(27) 0.2962(18) 0.337(7)
Mn1H Mn 1.0134(27) 0.7038(18) -0.337(7)
Mn1M Mn 0.976(2) 0.3468(27) -0.329(7)
O2D O 1.0309(12) 0.6988(20) 0.129(4)
O2M O 0.9691(12) 0.3012(20) -0.129(4)
O3Q O 1.0599(16) 0.3127(11) 0.173(5)
O3H O 0.9401(16) 0.6873(11) -0.173(5)
loop_
_geom_bond_atom_site_label_1
_geom_bond_atom_site_label_2
_geom_bond_site_symmetry_1
_geom_bond_site_symmetry_2
Mn1 O2 1_555 1_555
C1 C2 1_555 1_555
C2 C3 1_555 1_555
C3 C4 1_555 1_555
C4 H1 1_555 1_555
O1 C1 1_555 1_555
O2 C1 1_555 1_555
O3 Mn1 1_555 1_555
C1I C2I 1_555 1_555
C2I C4 1_555 1_555
C3I C2I 1_555 1_555
C4I C2 1_555 1_555
H1I C4I 1_555 1_555
O1I C1I 1_555 1_555
O2I C1I 1_555 1_555
O3I C3I 1_555 1_555
Mn1I O2I 1_555 1_555
Mn1D O3 1_555 1_555
Mn1Q O2I 1_555 1_555
Mn1H O2 1_555 1_555
Mn1M O3I 1_555 1_555
O2D Mn1 1_555 1_555
O2M Mn1I 1_555 1_555
O3Q Mn1I 1_555 1_555
O3H Mn1 1_555 1_555
C3 O3 1_555 1_555
C3I C4I 1_555 1_555
O3I Mn1I 1_555 1_555
Mn1D O2D 1_555 1_555
Mn1Q O3Q 1_555 1_555
Mn1H O3H 1_555 1_555
Mn1M O2M 1_555 1_555

#END
