
#######################################################################
#
#                 Cambridge Crystallographic Data Centre
#                                CCDC 
#
#######################################################################
#
# If this CIF has been generated from an entry in the Cambridge 
# Structural Database, then it will include bibliographic, chemical, 
# crystal, experimental, refinement or atomic coordinate data resulting 
# from the CCDC's data processing and validation procedures.
#
#######################################################################

data_OZUKUR
_chemical_formula_moiety         '(C8 H2 Mn2 O6)n,2n(D2)'
_chemical_name_systematic        
'catena-((\m-2,5-dioxido-1,4-benzenedicarboxylate)-di-manganese(ii) bis(di-deuterium))'
_symmetry_cell_setting           rhombohedral
_symmetry_space_group_name_H-M   'R -3'
_symmetry_Int_Tables_number      148
_space_group_name_Hall           '-R 3'
loop_
_symmetry_equiv_pos_site_id
_symmetry_equiv_pos_as_xyz
1 x,y,z
2 -y,x-y,z
3 -x+y,-x,z
4 2/3+x,1/3+y,1/3+z
5 2/3-y,1/3+x-y,1/3+z
6 2/3-x+y,1/3-x,1/3+z
7 1/3+x,2/3+y,2/3+z
8 1/3-y,2/3+x-y,2/3+z
9 1/3-x+y,2/3-x,2/3+z
10 -x,-y,-z
11 y,-x+y,-z
12 x-y,x,-z
13 1/3-x,2/3-y,2/3-z
14 1/3+y,2/3-x+y,2/3-z
15 1/3+x-y,2/3+x,2/3-z
16 2/3-x,1/3-y,1/3-z
17 2/3+y,1/3-x+y,1/3-z
18 2/3+x-y,1/3+x,1/3-z
_cell_length_a                   26.2903(7)
_cell_length_b                   26.2903(7)
_cell_length_c                   7.0676(3)
_cell_angle_alpha                90
_cell_angle_beta                 90
_cell_angle_gamma                120
_cell_volume                     4230.52
_cell_formula_units_Z            9
loop_
_atom_site_label
_atom_site_type_symbol
_atom_site_fract_x
_atom_site_fract_y
_atom_site_fract_z
D1 D 0.2107(4) 0.0158(5) 0.4682(16)
D2 D 0.84043 0.29954 0.19044
Mn1 Mn 0.9525(14) 0.6368(15) 0.027(5)
C1 C 1.0128(10) 0.5917(13) -0.242(2)
C2 C 1.0069(10) 0.5452(21) -0.105(8)
C3 C 0.9902(10) 0.5441(16) 0.087(8)
C4 C 0.9843(6) 0.497(2) 0.1894(19)
H1 H 0.97257 0.49750 0.33724
O1 O 1.0303(9) 0.5923(12) -0.408(3)
O2 O 1.0067(9) 0.6353(8) -0.200(2)
O3 O 0.9777(9) 0.5853(10) 0.145(3)
C1I C 0.9872(10) 0.4083(13) 0.242(2)
C2I C 0.9931(10) 0.4548(21) 0.105(8)
C3I C 1.0098(10) 0.4559(16) -0.087(8)
C4I C 1.0157(6) 0.503(2) -0.1894(19)
H1I H 1.02743 0.50250 -0.33724
O1I O 0.9697(9) 0.4077(12) 0.408(3)
O2I O 0.9933(9) 0.3647(8) 0.200(2)
O3I O 1.0223(9) 0.4147(10) -0.145(3)
Mn1I Mn 1.0475(14) 0.3632(15) -0.027(5)
Mn1D Mn 1.0299(15) 0.6490(21) -0.640(5)
Mn1D_2 Mn 1.0299(15) 0.6490(21) 0.360(5)
Mn1Q Mn 0.9824(21) 0.2858(14) 0.306(5)
Mn1H Mn 1.0176(21) 0.7142(14) -0.306(5)
Mn1M Mn 0.9701(15) 0.3510(21) -0.360(5)
Mn1M_2 Mn 0.9701(15) 0.3510(21) 0.640(5)
O1Q O 1.1047(15) 0.3636(9) -0.259(3)
O1H O 0.8953(15) 0.6364(9) 0.259(3)
O2D O 1.0314(8) 0.7047(12) 0.133(2)
O2M O 0.9686(8) 0.2953(12) -0.133(2)
O3Q O 1.0591(13) 0.3110(9) 0.188(3)
O3H O 0.9409(13) 0.6890(9) -0.188(3)
loop_
_geom_bond_atom_site_label_1
_geom_bond_atom_site_label_2
_geom_bond_site_symmetry_1
_geom_bond_site_symmetry_2
Mn1 O2 1_555 1_555
C1 C2 1_555 1_555
C2 C3 1_555 1_555
C3 C4 1_555 1_555
C4 H1 1_555 1_555
O1 C1 1_555 1_555
O2 C1 1_555 1_555
O3 Mn1 1_555 1_555
C1I C2I 1_555 1_555
C2I C4 1_555 1_555
C3I C2I 1_555 1_555
C4I C2 1_555 1_555
H1I C4I 1_555 1_555
O1I C1I 1_555 1_555
O2I C1I 1_555 1_555
O3I C3I 1_555 1_555
Mn1I O2I 1_555 1_555
Mn1D O1 1_555 1_555
Mn1D_2 O3 1_555 1_555
Mn1Q O2I 1_555 1_555
Mn1H O2 1_555 1_555
Mn1M O3I 1_555 1_555
Mn1M_2 O1I 1_555 1_555
O1Q Mn1I 1_555 1_555
O1H Mn1 1_555 1_555
O2D Mn1 1_555 1_555
O2M Mn1I 1_555 1_555
O3Q Mn1I 1_555 1_555
O3H Mn1 1_555 1_555
C3 O3 1_555 1_555
C3I C4I 1_555 1_555
O3I Mn1I 1_555 1_555
Mn1D_2 O2D 1_555 1_555
Mn1Q O3Q 1_555 1_555
Mn1H O3H 1_555 1_555
Mn1M O2M 1_555 1_555

#END
