
#######################################################################
#
#                 Cambridge Crystallographic Data Centre
#                                CCDC 
#
#######################################################################
#
# If this CIF has been generated from an entry in the Cambridge 
# Structural Database, then it will include bibliographic, chemical, 
# crystal, experimental, refinement or atomic coordinate data resulting 
# from the CCDC's data processing and validation procedures.
#
#######################################################################

data_OZUKOL
_chemical_formula_moiety         '(C8 H2 Mn2 O6)n,n(D2)'
_chemical_name_systematic        
'catena-((\m-2,5-dioxido-1,4-benzenedicarboxylate)-di-manganese(ii) di-deuterium)'
_symmetry_cell_setting           rhombohedral
_symmetry_space_group_name_H-M   'R -3'
_symmetry_Int_Tables_number      148
_space_group_name_Hall           '-R 3'
loop_
_symmetry_equiv_pos_site_id
_symmetry_equiv_pos_as_xyz
1 x,y,z
2 -y,x-y,z
3 -x+y,-x,z
4 2/3+x,1/3+y,1/3+z
5 2/3-y,1/3+x-y,1/3+z
6 2/3-x+y,1/3-x,1/3+z
7 1/3+x,2/3+y,2/3+z
8 1/3-y,2/3+x-y,2/3+z
9 1/3-x+y,2/3-x,2/3+z
10 -x,-y,-z
11 y,-x+y,-z
12 x-y,x,-z
13 1/3-x,2/3-y,2/3-z
14 1/3+y,2/3-x+y,2/3-z
15 1/3+x-y,2/3+x,2/3-z
16 2/3-x,1/3-y,1/3-z
17 2/3+y,1/3-x+y,1/3-z
18 2/3+x-y,1/3+x,1/3-z
_cell_length_a                   26.2885(8)
_cell_length_b                   26.2885(8)
_cell_length_c                   7.0608(3)
_cell_angle_alpha                90
_cell_angle_beta                 90
_cell_angle_gamma                120
_cell_volume                     4225.87
_cell_formula_units_Z            9
loop_
_atom_site_label
_atom_site_type_symbol
_atom_site_fract_x
_atom_site_fract_y
_atom_site_fract_z
D1 D 0.2125(8) 0.0175(9) 0.460(3)
Mn1 Mn 0.9509(16) 0.6346(17) 0.022(5)
C1 C 1.0156(10) 0.5928(13) -0.241(3)
C2 C 1.0069(10) 0.5457(21) -0.110(7)
C3 C 0.9879(10) 0.5421(16) 0.087(8)
C4 C 0.9833(6) 0.495(2) 0.190(2)
H1 H 0.97257 0.49750 0.33724
O1 O 1.0286(10) 0.5924(13) -0.414(3)
O2 O 1.0045(8) 0.6346(7) -0.199(3)
O3 O 0.9773(9) 0.5834(8) 0.139(4)
C1I C 0.9844(10) 0.4072(13) 0.241(3)
C2I C 0.9931(10) 0.4543(21) 0.110(7)
C3I C 1.0121(10) 0.4579(16) -0.087(8)
C4I C 1.0167(6) 0.505(2) -0.190(2)
H1I H 1.02743 0.50250 -0.33724
O1I O 0.9714(10) 0.4076(13) 0.414(3)
O2I O 0.9955(8) 0.3654(7) 0.199(3)
O3I O 1.0227(9) 0.4166(8) -0.139(4)
Mn1I Mn 1.0491(16) 0.3654(17) -0.022(5)
Mn1D Mn 1.0321(17) 0.6496(23) -0.645(5)
Mn1D_2 Mn 1.0321(17) 0.6496(23) 0.355(5)
Mn1Q Mn 0.9830(23) 0.2842(16) 0.311(5)
Mn1H Mn 1.0170(23) 0.7158(16) -0.311(5)
Mn1M Mn 0.9679(17) 0.3504(23) -0.355(5)
Mn1M_2 Mn 0.9679(17) 0.3504(23) 0.645(5)
O1Q O 1.1029(16) 0.3619(10) -0.253(3)
O1H O 0.8971(16) 0.6381(10) 0.253(3)
O2D O 1.0321(7) 0.7032(11) 0.134(3)
O2M O 0.9679(7) 0.2968(11) -0.134(3)
O3Q O 1.0606(12) 0.3106(9) 0.194(4)
O3H O 0.9394(12) 0.6894(9) -0.194(4)
loop_
_geom_bond_atom_site_label_1
_geom_bond_atom_site_label_2
_geom_bond_site_symmetry_1
_geom_bond_site_symmetry_2
Mn1 O2 1_555 1_555
C1 C2 1_555 1_555
C2 C3 1_555 1_555
C3 C4 1_555 1_555
C4 H1 1_555 1_555
O1 C1 1_555 1_555
O2 C1 1_555 1_555
O3 Mn1 1_555 1_555
C1I C2I 1_555 1_555
C2I C4 1_555 1_555
C3I C2I 1_555 1_555
C4I C2 1_555 1_555
H1I C4I 1_555 1_555
O1I C1I 1_555 1_555
O2I C1I 1_555 1_555
O3I C3I 1_555 1_555
Mn1I O2I 1_555 1_555
Mn1D O1 1_555 1_555
Mn1D_2 O3 1_555 1_555
Mn1Q O2I 1_555 1_555
Mn1H O2 1_555 1_555
Mn1M O3I 1_555 1_555
Mn1M_2 O1I 1_555 1_555
O1Q Mn1I 1_555 1_555
O1H Mn1 1_555 1_555
O2D Mn1 1_555 1_555
O2M Mn1I 1_555 1_555
O3Q Mn1I 1_555 1_555
O3H Mn1 1_555 1_555
C3 O3 1_555 1_555
C3I C4I 1_555 1_555
O3I Mn1I 1_555 1_555
Mn1D_2 O2D 1_555 1_555
Mn1Q O3Q 1_555 1_555
Mn1H O3H 1_555 1_555
Mn1M O2M 1_555 1_555

#END
