
#######################################################################
#
#                 Cambridge Crystallographic Data Centre
#                                CCDC 
#
#######################################################################
#
# If this CIF has been generated from an entry in the Cambridge 
# Structural Database, then it will include bibliographic, chemical, 
# crystal, experimental, refinement or atomic coordinate data resulting 
# from the CCDC's data processing and validation procedures.
#
#######################################################################

data_OZULUS
_chemical_formula_moiety         '(C8 H2 Cu2 O6)n,n(D2)'
_chemical_name_systematic        
'catena-((\m-2,5-dioxido-1,4-benzenedicarboxylate)-di-copper(ii) di-deuterium)'
_symmetry_cell_setting           rhombohedral
_symmetry_space_group_name_H-M   'R -3'
_symmetry_Int_Tables_number      148
_space_group_name_Hall           '-R 3'
loop_
_symmetry_equiv_pos_site_id
_symmetry_equiv_pos_as_xyz
1 x,y,z
2 -y,x-y,z
3 -x+y,-x,z
4 2/3+x,1/3+y,1/3+z
5 2/3-y,1/3+x-y,1/3+z
6 2/3-x+y,1/3-x,1/3+z
7 1/3+x,2/3+y,2/3+z
8 1/3-y,2/3+x-y,2/3+z
9 1/3-x+y,2/3-x,2/3+z
10 -x,-y,-z
11 y,-x+y,-z
12 x-y,x,-z
13 1/3-x,2/3-y,2/3-z
14 1/3+y,2/3-x+y,2/3-z
15 1/3+x-y,2/3+x,2/3-z
16 2/3-x,1/3-y,1/3-z
17 2/3+y,1/3-x+y,1/3-z
18 2/3+x-y,1/3+x,1/3-z
_cell_length_a                   25.8776(7)
_cell_length_b                   25.8776(7)
_cell_length_c                   6.2623(3)
_cell_angle_alpha                90
_cell_angle_beta                 90
_cell_angle_gamma                120
_cell_volume                     3631.72
_cell_formula_units_Z            9
loop_
_atom_site_label
_atom_site_type_symbol
_atom_site_fract_x
_atom_site_fract_y
_atom_site_fract_z
D1 D 0.1990(12) 0.0380(14) 0.496(6)
Cu1 Cu 0.9463(7) 0.6315(10) -0.021(2)
C1 C 1.0064(7) 0.5856(11) -0.289(3)
C2 C 1.0236(8) 0.5062(22) -0.212(2)
C3 C 1.0039(12) 0.5432(11) -0.127(6)
C4 C 0.9848(9) 0.5428(13) 0.087(8)
H1 H 1.0383(12) 0.512(2) -0.364(3)
O1 O 1.0406(7) 0.6020(10) -0.458(4)
O2 O 0.9786(12) 0.6153(12) -0.274(4)
O3 O 0.9694(9) 0.5854(9) 0.147(5)
C3I C 0.9961(12) 0.4568(11) 0.127(6)
C4I C 1.0152(9) 0.4572(13) -0.087(8)
O3I O 1.0306(9) 0.4146(9) -0.147(5)
C1I C 0.9936(7) 0.4144(11) 0.289(3)
O1I O 0.9594(7) 0.3980(10) 0.458(4)
C2I C 0.9764(8) 0.4938(22) 0.212(2)
O2I O 1.0214(12) 0.3847(12) 0.274(4)
H1I H 0.9617(12) 0.488(2) 0.364(3)
Cu1I Cu 1.0537(7) 0.3685(10) 0.021(2)
Cu1D Cu 1.0352(10) 0.6481(12) -0.688(2)
Cu1D_2 Cu 1.0352(10) 0.6481(12) 0.312(2)
Cu1Q Cu 0.9815(12) 0.2796(7) 0.354(2)
Cu1H Cu 1.0185(12) 0.7204(7) -0.354(2)
Cu1M Cu 0.9648(10) 0.3519(12) -0.312(2)
Cu1M_2 Cu 0.9648(10) 0.3519(12) 0.688(2)
O1Q O 1.1053(12) 0.3739(7) -0.209(4)
O1H O 0.8947(12) 0.6261(7) 0.209(4)
O2D O 1.0514(12) 0.6966(17) 0.059(4)
O2M O 0.9486(12) 0.3034(17) -0.059(4)
O3Q O 1.0507(13) 0.3027(9) 0.186(5)
O3H O 0.9493(13) 0.6973(9) -0.186(5)
loop_
_geom_bond_atom_site_label_1
_geom_bond_atom_site_label_2
_geom_bond_site_symmetry_1
_geom_bond_site_symmetry_2
Cu1 O2 1_555 1_555
C1 C3 1_555 1_555
C2 C3 1_555 1_555
C3 C4 1_555 1_555
C4 O3 1_555 1_555
H1 C2 1_555 1_555
O1 C1 1_555 1_555
O2 C1 1_555 1_555
O3 Cu1 1_555 1_555
C3I C4I 1_555 1_555
C4I C2 1_555 1_555
O3I C4I 1_555 1_555
C1I C3I 1_555 1_555
O1I C1I 1_555 1_555
C2I C4 1_555 1_555
O2I C1I 1_555 1_555
H1I C2I 1_555 1_555
Cu1I O3I 1_555 1_555
Cu1D O1 1_555 1_555
Cu1D_2 O3 1_555 1_555
Cu1Q O2I 1_555 1_555
Cu1H O2 1_555 1_555
Cu1M O3I 1_555 1_555
Cu1M_2 O1I 1_555 1_555
O1Q Cu1I 1_555 1_555
O1H Cu1 1_555 1_555
O2D Cu1 1_555 1_555
O2M Cu1I 1_555 1_555
O3Q Cu1I 1_555 1_555
O3H Cu1 1_555 1_555
C3I C2I 1_555 1_555
O2I Cu1I 1_555 1_555
Cu1D_2 O2D 1_555 1_555
Cu1Q O3Q 1_555 1_555
Cu1H O3H 1_555 1_555
Cu1M O2M 1_555 1_555

#END
