
#######################################################################
#
#                 Cambridge Crystallographic Data Centre
#                                CCDC 
#
#######################################################################
#
# If this CIF has been generated from an entry in the Cambridge 
# Structural Database, then it will include bibliographic, chemical, 
# crystal, experimental, refinement or atomic coordinate data resulting 
# from the CCDC's data processing and validation procedures.
#
#######################################################################

data_OZUMIH
_chemical_formula_moiety         '(C8 H2 Cu2 O6)n,4n(D2)'
_chemical_name_systematic        
'catena-((\m-2,5-dioxido-1,4-benzenedicarboxylate)-di-copper(ii) tetrakis(di-deuterium))'
_symmetry_cell_setting           rhombohedral
_symmetry_space_group_name_H-M   'R -3'
_symmetry_Int_Tables_number      148
_space_group_name_Hall           '-R 3'
loop_
_symmetry_equiv_pos_site_id
_symmetry_equiv_pos_as_xyz
1 x,y,z
2 -y,x-y,z
3 -x+y,-x,z
4 2/3+x,1/3+y,1/3+z
5 2/3-y,1/3+x-y,1/3+z
6 2/3-x+y,1/3-x,1/3+z
7 1/3+x,2/3+y,2/3+z
8 1/3-y,2/3+x-y,2/3+z
9 1/3-x+y,2/3-x,2/3+z
10 -x,-y,-z
11 y,-x+y,-z
12 x-y,x,-z
13 1/3-x,2/3-y,2/3-z
14 1/3+y,2/3-x+y,2/3-z
15 1/3+x-y,2/3+x,2/3-z
16 2/3-x,1/3-y,1/3-z
17 2/3+y,1/3-x+y,1/3-z
18 2/3+x-y,1/3+x,1/3-z
_cell_length_a                   25.8592(7)
_cell_length_b                   25.8592(7)
_cell_length_c                   6.2696(3)
_cell_angle_alpha                90
_cell_angle_beta                 90
_cell_angle_gamma                120
_cell_volume                     3630.79
_cell_formula_units_Z            9
loop_
_atom_site_label
_atom_site_type_symbol
_atom_site_fract_x
_atom_site_fract_y
_atom_site_fract_z
D1 D 0.2007(6) 0.0509(7) 0.483(2)
D2 D 0.6900(16) 0.5192(14) 0.225(6)
Cu1 Cu 0.9459(8) 0.6295(9) -0.014(3)
C1 C 1.0050(12) 0.5873(16) -0.290(6)
C2 C 1.0223(16) 0.5019(34) -0.208(4)
C3 C 1.0072(16) 0.5432(20) -0.144(8)
C4 C 0.9876(15) 0.5451(17) 0.072(9)
H1 H 1.0349(18) 0.507(2) -0.366(5)
O1 O 1.0387(14) 0.5977(18) -0.451(5)
O2 O 0.9816(13) 0.6171(14) -0.262(5)
O3 O 0.9700(18) 0.5830(14) 0.152(5)
C3I C 0.9928(16) 0.4568(20) 0.144(8)
C4I C 1.0124(15) 0.4549(17) -0.072(9)
O3I O 1.0300(18) 0.4170(14) -0.152(5)
C1I C 0.9950(12) 0.4127(16) 0.290(6)
O1I O 0.9613(14) 0.4023(18) 0.451(5)
C2I C 0.9777(16) 0.4981(34) 0.208(4)
O2I O 1.0184(13) 0.3829(14) 0.262(5)
H1I H 0.9651(18) 0.493(2) 0.366(5)
Cu1I Cu 1.0541(8) 0.3705(9) 0.014(3)
Cu1D Cu 1.0372(9) 0.6497(12) -0.681(3)
Cu1D_2 Cu 1.0372(9) 0.6497(12) 0.319(3)
Cu1Q Cu 0.9831(12) 0.2792(8) 0.347(3)
Cu1H Cu 1.0169(12) 0.7208(8) -0.347(3)
Cu1M Cu 0.9628(9) 0.3503(12) -0.319(3)
Cu1M_2 Cu 0.9628(9) 0.3503(12) 0.681(3)
O1Q O 1.1077(23) 0.3720(14) -0.216(5)
O1H O 0.8923(23) 0.6280(14) 0.216(5)
O2D O 1.0496(14) 0.6978(19) 0.071(5)
O2M O 0.9504(14) 0.3022(19) -0.071(5)
O3Q O 1.0537(23) 0.3033(18) 0.181(5)
O3H O 0.9463(23) 0.6967(18) -0.181(5)
loop_
_geom_bond_atom_site_label_1
_geom_bond_atom_site_label_2
_geom_bond_site_symmetry_1
_geom_bond_site_symmetry_2
Cu1 O2 1_555 1_555
C1 C3 1_555 1_555
C2 C3 1_555 1_555
C3 C4 1_555 1_555
C4 O3 1_555 1_555
H1 C2 1_555 1_555
O1 C1 1_555 1_555
O2 C1 1_555 1_555
O3 Cu1 1_555 1_555
C3I C4I 1_555 1_555
C4I C2 1_555 1_555
O3I C4I 1_555 1_555
C1I C3I 1_555 1_555
O1I C1I 1_555 1_555
C2I C4 1_555 1_555
O2I C1I 1_555 1_555
H1I C2I 1_555 1_555
Cu1I O3I 1_555 1_555
Cu1D O1 1_555 1_555
Cu1D_2 O3 1_555 1_555
Cu1Q O2I 1_555 1_555
Cu1H O2 1_555 1_555
Cu1M O3I 1_555 1_555
Cu1M_2 O1I 1_555 1_555
O1Q Cu1I 1_555 1_555
O1H Cu1 1_555 1_555
O2D Cu1 1_555 1_555
O2M Cu1I 1_555 1_555
O3Q Cu1I 1_555 1_555
O3H Cu1 1_555 1_555
C3I C2I 1_555 1_555
O2I Cu1I 1_555 1_555
Cu1D_2 O2D 1_555 1_555
Cu1Q O3Q 1_555 1_555
Cu1H O3H 1_555 1_555
Cu1M O2M 1_555 1_555

#END
