
#######################################################################
#
#                 Cambridge Crystallographic Data Centre
#                                CCDC 
#
#######################################################################
#
# If this CIF has been generated from an entry in the Cambridge 
# Structural Database, then it will include bibliographic, chemical, 
# crystal, experimental, refinement or atomic coordinate data resulting 
# from the CCDC's data processing and validation procedures.
#
#######################################################################

data_OZUMAZ01
_chemical_formula_moiety         '(C8 H2 Cu2 O6)n,2n(D2)'
_chemical_name_systematic        
'catena-((\m-2,5-dioxido-1,4-benzenedicarboxylate)-di-copper(ii) bis(di-deuterium))'
_symmetry_cell_setting           rhombohedral
_symmetry_space_group_name_H-M   'R -3'
_symmetry_Int_Tables_number      148
_space_group_name_Hall           '-R 3'
loop_
_symmetry_equiv_pos_site_id
_symmetry_equiv_pos_as_xyz
1 x,y,z
2 -y,x-y,z
3 -x+y,-x,z
4 2/3+x,1/3+y,1/3+z
5 2/3-y,1/3+x-y,1/3+z
6 2/3-x+y,1/3-x,1/3+z
7 1/3+x,2/3+y,2/3+z
8 1/3-y,2/3+x-y,2/3+z
9 1/3-x+y,2/3-x,2/3+z
10 -x,-y,-z
11 y,-x+y,-z
12 x-y,x,-z
13 1/3-x,2/3-y,2/3-z
14 1/3+y,2/3-x+y,2/3-z
15 1/3+x-y,2/3+x,2/3-z
16 2/3-x,1/3-y,1/3-z
17 2/3+y,1/3-x+y,1/3-z
18 2/3+x-y,1/3+x,1/3-z
_cell_length_a                   25.8761(7)
_cell_length_b                   25.8761(7)
_cell_length_c                   6.2626(3)
_cell_angle_alpha                90
_cell_angle_beta                 90
_cell_angle_gamma                120
_cell_volume                     3631.47
_cell_formula_units_Z            9
loop_
_atom_site_label
_atom_site_type_symbol
_atom_site_fract_x
_atom_site_fract_y
_atom_site_fract_z
D1 D 0.1963(14) 0.0403(17) 0.495(7)
D2 D 0.668(5) 0.507(6) 0.11(3)
Cu1 Cu 0.9473(8) 0.6298(12) -0.016(3)
C1 C 1.0072(13) 0.5892(16) -0.289(5)
C2 C 1.0203(16) 0.5019(34) -0.205(4)
C3 C 1.0053(16) 0.5444(14) -0.141(7)
C4 C 0.9850(12) 0.5430(15) 0.071(9)
H1 H 1.0365(18) 0.505(3) -0.371(5)
O1 O 1.0409(11) 0.5991(16) -0.453(5)
O2 O 0.9796(13) 0.6153(13) -0.276(5)
O3 O 0.9687(13) 0.5820(11) 0.165(7)
C3I C 0.9947(16) 0.4556(14) 0.141(7)
C4I C 1.0150(12) 0.4570(15) -0.071(9)
O3I O 1.0313(13) 0.4180(11) -0.165(7)
C1I C 0.9928(13) 0.4108(16) 0.289(5)
O1I O 0.9591(11) 0.4009(16) 0.453(5)
C2I C 0.9797(16) 0.4981(34) 0.205(4)
O2I O 1.0204(13) 0.3847(13) 0.276(5)
H1I H 0.9635(18) 0.495(3) 0.371(5)
Cu1I Cu 1.0527(8) 0.3702(12) 0.016(3)
Cu1D Cu 1.0369(12) 0.6508(14) -0.683(3)
Cu1D_2 Cu 1.0369(12) 0.6508(14) 0.317(3)
Cu1Q Cu 0.9842(14) 0.2806(8) 0.349(3)
Cu1H Cu 1.0158(14) 0.7194(8) -0.349(3)
Cu1M Cu 0.9631(12) 0.3492(14) -0.317(3)
Cu1M_2 Cu 0.9631(12) 0.3492(14) 0.683(3)
O1Q O 1.1085(19) 0.3742(11) -0.214(5)
O1H O 0.8915(19) 0.6258(11) 0.214(5)
O2D O 1.0514(13) 0.6976(18) 0.057(5)
O2M O 0.9486(13) 0.3024(18) -0.057(5)
O3Q O 1.0534(17) 0.3020(13) 0.168(7)
O3H O 0.9466(17) 0.6980(13) -0.168(7)
loop_
_geom_bond_atom_site_label_1
_geom_bond_atom_site_label_2
_geom_bond_site_symmetry_1
_geom_bond_site_symmetry_2
Cu1 O2 1_555 1_555
C1 C3 1_555 1_555
C2 C3 1_555 1_555
C3 C4 1_555 1_555
C4 O3 1_555 1_555
H1 C2 1_555 1_555
O1 C1 1_555 1_555
O2 C1 1_555 1_555
O3 Cu1 1_555 1_555
C3I C4I 1_555 1_555
C4I C2 1_555 1_555
O3I C4I 1_555 1_555
C1I C3I 1_555 1_555
O1I C1I 1_555 1_555
C2I C4 1_555 1_555
O2I C1I 1_555 1_555
H1I C2I 1_555 1_555
Cu1I O3I 1_555 1_555
Cu1D O1 1_555 1_555
Cu1D_2 O3 1_555 1_555
Cu1Q O2I 1_555 1_555
Cu1H O2 1_555 1_555
Cu1M O3I 1_555 1_555
Cu1M_2 O1I 1_555 1_555
O1Q Cu1I 1_555 1_555
O1H Cu1 1_555 1_555
O2D Cu1 1_555 1_555
O2M Cu1I 1_555 1_555
O3Q Cu1I 1_555 1_555
O3H Cu1 1_555 1_555
C3I C2I 1_555 1_555
O2I Cu1I 1_555 1_555
Cu1D_2 O2D 1_555 1_555
Cu1Q O3Q 1_555 1_555
Cu1H O3H 1_555 1_555
Cu1M O2M 1_555 1_555

#END
