
#######################################################################
#
#                 Cambridge Crystallographic Data Centre
#                                CCDC 
#
#######################################################################
#
# If this CIF has been generated from an entry in the Cambridge 
# Structural Database, then it will include bibliographic, chemical, 
# crystal, experimental, refinement or atomic coordinate data resulting 
# from the CCDC's data processing and validation procedures.
#
#######################################################################

data_OZUMAZ
_chemical_formula_moiety         '(C8 H2 Cu2 O6)n,2n(D2)'
_chemical_name_systematic        
'catena-((\m-2,5-dioxido-1,4-benzenedicarboxylate)-di-copper(ii) bis(di-deuterium))'
_symmetry_cell_setting           rhombohedral
_symmetry_space_group_name_H-M   'R -3'
_symmetry_Int_Tables_number      148
_space_group_name_Hall           '-R 3'
loop_
_symmetry_equiv_pos_site_id
_symmetry_equiv_pos_as_xyz
1 x,y,z
2 -y,x-y,z
3 -x+y,-x,z
4 2/3+x,1/3+y,1/3+z
5 2/3-y,1/3+x-y,1/3+z
6 2/3-x+y,1/3-x,1/3+z
7 1/3+x,2/3+y,2/3+z
8 1/3-y,2/3+x-y,2/3+z
9 1/3-x+y,2/3-x,2/3+z
10 -x,-y,-z
11 y,-x+y,-z
12 x-y,x,-z
13 1/3-x,2/3-y,2/3-z
14 1/3+y,2/3-x+y,2/3-z
15 1/3+x-y,2/3+x,2/3-z
16 2/3-x,1/3-y,1/3-z
17 2/3+y,1/3-x+y,1/3-z
18 2/3+x-y,1/3+x,1/3-z
_cell_length_a                   25.8717(6)
_cell_length_b                   25.8717(6)
_cell_length_c                   6.2631(3)
_cell_angle_alpha                90
_cell_angle_beta                 90
_cell_angle_gamma                120
_cell_volume                     3630.53
_cell_formula_units_Z            9
loop_
_atom_site_label
_atom_site_type_symbol
_atom_site_fract_x
_atom_site_fract_y
_atom_site_fract_z
D1 D 0.1976(6) 0.0370(6) 0.499(2)
D2 D 0.66838 0.50654 0.11374
Cu1 Cu 0.9468(7) 0.6317(8) -0.0141(20)
C1 C 1.0062(8) 0.5866(12) -0.304(4)
C2 C 1.0220(8) 0.5056(31) -0.201(3)
C3 C 1.0047(10) 0.5454(13) -0.134(8)
C4 C 0.9884(12) 0.5432(15) 0.083(9)
H1 H 1.0380(12) 0.5093(18) -0.370(3)
O1 O 1.0424(8) 0.6019(11) -0.461(3)
O2 O 0.9780(10) 0.6152(10) -0.257(4)
O3 O 0.9708(9) 0.5836(8) 0.145(3)
C3I C 0.9953(10) 0.4546(13) 0.134(8)
C4I C 1.0116(12) 0.4568(15) -0.083(9)
O3I O 1.0292(9) 0.4164(8) -0.145(3)
C1I C 0.9938(8) 0.4134(12) 0.304(4)
O1I O 0.9576(8) 0.3981(11) 0.461(3)
C2I C 0.9780(8) 0.4944(31) 0.201(3)
O2I O 1.0220(10) 0.3848(10) 0.257(4)
H1I H 0.9620(12) 0.4907(18) 0.370(3)
Cu1I Cu 1.0532(7) 0.3683(8) 0.0141(20)
Cu1D Cu 1.0350(8) 0.6484(11) -0.6808(20)
Cu1D_2 Cu 1.0350(8) 0.6484(11) 0.3192(20)
Cu1Q Cu 0.9818(11) 0.2801(7) 0.3474(20)
Cu1H Cu 1.0182(11) 0.7199(7) -0.3474(20)
Cu1M Cu 0.9650(8) 0.3516(11) -0.3192(20)
Cu1M_2 Cu 0.9650(8) 0.3516(11) 0.6808(20)
O1Q O 1.1072(14) 0.3757(8) -0.206(3)
O1H O 0.8928(14) 0.6243(8) 0.206(3)
O2D O 1.0515(10) 0.6961(14) 0.076(4)
O2M O 0.9485(10) 0.3039(14) -0.076(4)
O3Q O 1.0539(12) 0.3041(9) 0.188(3)
O3H O 0.9461(12) 0.6959(9) -0.188(3)
loop_
_geom_bond_atom_site_label_1
_geom_bond_atom_site_label_2
_geom_bond_site_symmetry_1
_geom_bond_site_symmetry_2
Cu1 O2 1_555 1_555
C1 C3 1_555 1_555
C2 C3 1_555 1_555
C3 C4 1_555 1_555
C4 O3 1_555 1_555
H1 C2 1_555 1_555
O1 C1 1_555 1_555
O2 C1 1_555 1_555
O3 Cu1 1_555 1_555
C3I C4I 1_555 1_555
C4I C2 1_555 1_555
O3I C4I 1_555 1_555
C1I C3I 1_555 1_555
O1I C1I 1_555 1_555
C2I C4 1_555 1_555
O2I C1I 1_555 1_555
H1I C2I 1_555 1_555
Cu1I O3I 1_555 1_555
Cu1D O1 1_555 1_555
Cu1D_2 O3 1_555 1_555
Cu1Q O2I 1_555 1_555
Cu1H O2 1_555 1_555
Cu1M O3I 1_555 1_555
Cu1M_2 O1I 1_555 1_555
O1Q Cu1I 1_555 1_555
O1H Cu1 1_555 1_555
O2D Cu1 1_555 1_555
O2M Cu1I 1_555 1_555
O3Q Cu1I 1_555 1_555
O3H Cu1 1_555 1_555
C3I C2I 1_555 1_555
O2I Cu1I 1_555 1_555
Cu1D_2 O2D 1_555 1_555
Cu1Q O3Q 1_555 1_555
Cu1H O3H 1_555 1_555
Cu1M O2M 1_555 1_555

#END
