
#######################################################################
#
#                 Cambridge Crystallographic Data Centre
#                                CCDC 
#
#######################################################################
#
# If this CIF has been generated from an entry in the Cambridge 
# Structural Database, then it will include bibliographic, chemical, 
# crystal, experimental, refinement or atomic coordinate data resulting 
# from the CCDC's data processing and validation procedures.
#
#######################################################################

data_REWNEO
_chemical_name_common            NU-125
_chemical_formula_moiety         '(C72 H42 Cu6 N18 O30)n'
_chemical_name_systematic        
catena-(bis(\m~12~-1,3,5-tris(N-(3,5-dicarboxyphenyl)-1,2,3-triazen-4-yl)benzene)-hexa-aqua-hexa-copper)
_symmetry_cell_setting           tetragonal
_symmetry_space_group_name_H-M   'I 4/m'
_symmetry_Int_Tables_number      87
_space_group_name_Hall           '-I 4'
loop_
_symmetry_equiv_pos_site_id
_symmetry_equiv_pos_as_xyz
1 x,y,z
2 -y,x,z
3 -x,-y,z
4 y,-x,z
5 1/2+x,1/2+y,1/2+z
6 1/2-y,1/2+x,1/2+z
7 1/2-x,1/2-y,1/2+z
8 1/2+y,1/2-x,1/2+z
9 -x,-y,-z
10 y,-x,-z
11 x,y,-z
12 -y,x,-z
13 1/2-x,1/2-y,1/2-z
14 1/2+y,1/2-x,1/2-z
15 1/2+x,1/2+y,1/2-z
16 1/2-y,1/2+x,1/2-z
_cell_length_a                   31.3109(11)
_cell_length_b                   31.3109(11)
_cell_length_c                   44.807(3)
_cell_angle_alpha                90
_cell_angle_beta                 90
_cell_angle_gamma                90
_cell_volume                     43927.5
_exptl_crystal_colour            blue
_exptl_crystal_description       prism
_cell_formula_units_Z            8
loop_
_atom_site_label
_atom_site_type_symbol
_atom_site_fract_x
_atom_site_fract_y
_atom_site_fract_z
_atom_site_U_iso_or_equiv
_atom_site_thermal_displace_type
Cu1 Cu 0.64495(4) 0.39505(4) 0.12720(3) 0.0519 Uani
Cu2 Cu 0.69391(4) 0.35868(4) 0.16816(3) 0.0517 Uani
Cu3 Cu 0.53852(5) 0.25052(5) 0.0000 0.0486 Uani
Cu4 Cu 0.55021(5) 0.16650(5) 0.0000 0.0485 Uani
O1 O 0.8734(2) -0.09874(17) 0.34842(15) 0.0670 Uani
O2 O 0.8482(2) -0.13928(18) 0.31220(12) 0.0623 Uani
O3 O 0.64814(18) 0.33936(18) 0.10668(14) 0.0617 Uani
O4 O 0.6871(2) 0.30753(18) 0.14342(14) 0.0707 Uani
O5 O 0.58932(19) -0.30332(19) 0.10981(14) 0.0660 Uani
O6 O 0.6249(2) -0.25991(19) 0.14197(15) 0.0757 Uani
O7 O 0.85044(17) 0.05590(17) 0.34765(14) 0.0587 Uani
O8 O 0.8058(2) 0.08476(19) 0.31253(14) 0.0707 Uani
O9 O 0.6048(3) 0.4251(3) 0.09514(16) 0.1223 Uani
H1 H 0.6199 0.4400 0.0793 0.1840 Uiso
H2 H 0.5855 0.4064 0.0842 0.1840 Uiso
O10 O 0.7321(3) 0.3235(2) 0.2011(2) 0.1160 Uani
H3 H 0.7166 0.3038 0.2093 0.1740 Uiso
H4 H 0.7538 0.3116 0.1924 0.1740 Uiso
O11 O 0.5836(2) 0.25202(18) 0.03033(14) 0.0697 Uani
O12 O 0.5925(2) 0.1790(2) 0.03090(14) 0.0703 Uani
O13 O 0.50335(19) -0.2377(2) 0.03027(14) 0.0683 Uani
O14 O 0.49468(18) -0.16577(18) 0.02982(14) 0.0630 Uani
O15 O 0.5282(3) 0.3213(3) 0.0000 0.1077 Uani
H5 H 0.5328 0.3309 0.0170 0.1620 Uiso
O16 O 0.5614(3) 0.0983(3) 0.0000 0.1197 Uani
H6 H 0.5495 0.0874 -0.0147 0.1790 Uiso
N1 N 0.7744(4) -0.0354(3) 0.2410(2) 0.1437 Uani
N2 N 0.7534(6) -0.0762(3) 0.2369(3) 0.2007 Uani
N3 N 0.7422(6) -0.0660(3) 0.2077(3) 0.2100 Uani
N4 N 0.6314(6) -0.0485(4) 0.0886(3) 0.2187 Uani
N5 N 0.6151(6) -0.0831(4) 0.0762(3) 0.1983 Uani
N6 N 0.6124(4) -0.1121(3) 0.0985(3) 0.1380 Uani
N7 N 0.6894(4) 0.1514(3) 0.1160(3) 0.1517 Uani
N8 N 0.7209(5) 0.1563(4) 0.1368(3) 0.1727 Uani
N9 N 0.7282(5) 0.1137(3) 0.1443(3) 0.1567 Uani
C1 C 0.8548(3) -0.1030(3) 0.3257(2) 0.0550 Uani
C2 C 0.8342(4) -0.0639(3) 0.3084(2) 0.0877 Uani
C3 C 0.8160(3) -0.0689(3) 0.2830(2) 0.0687 Uani
H7 H 0.8142 -0.0960 0.2740 0.0820 Uiso
C4 C 0.7994(5) -0.0342(4) 0.2696(3) 0.1113 Uani
C5 C 0.7626(4) -0.0079(3) 0.2237(2) 0.1027 Uani
H8 H 0.7668 0.0218 0.2251 0.1230 Uiso
C6 C 0.7404(5) -0.0315(3) 0.2001(3) 0.1320 Uani
C7 C 0.7237(6) -0.0143(4) 0.1728(3) 0.1520 Uani
C8 C 0.7180(5) 0.0304(4) 0.1678(3) 0.1630 Uani
H9 H 0.7252 0.0498 0.1830 0.1950 Uiso
C9 C 0.7037(7) 0.0441(4) 0.1440(4) 0.1887 Uani
C10 C 0.6707(7) 0.0127(4) 0.1276(3) 0.1767 Uani
H10 H 0.6534 0.0240 0.1124 0.2100 Uiso
C11 C 0.6665(7) -0.0275(4) 0.1341(3) 0.1600 Uani
C12 C 0.6972(4) -0.0431(3) 0.1565(3) 0.1267 Uani
H11 H 0.6993 -0.0726 0.1602 0.1520 Uiso
C13 C 0.6443(5) -0.0535(4) 0.1155(4) 0.1537 Uani
C14 C 0.6368(5) -0.1026(4) 0.1205(3) 0.1317 Uani
H12 H 0.6475 -0.1203 0.1357 0.1580 Uiso
C15 C 0.5930(4) -0.1493(3) 0.0900(3) 0.1043 Uani
C16 C 0.6073(3) -0.1881(3) 0.1081(3) 0.0897 Uani
H13 H 0.6282 -0.1856 0.1230 0.1080 Uiso
C17 C 0.5877(3) -0.2286(3) 0.1015(2) 0.0637 Uani
C18 C 0.5616(3) -0.2293(3) 0.0790(2) 0.0750 Uani
H14 H 0.5554 -0.2566 0.0715 0.0900 Uiso
C19 C 0.5412(4) -0.1953(3) 0.0643(2) 0.0783 Uani
C20 C 0.5650(4) -0.1558(3) 0.0687(3) 0.0950 Uani
H15 H 0.5600 -0.1333 0.0553 0.1140 Uiso
C21 C 0.5102(3) -0.1999(3) 0.0407(2) 0.0633 Uani
C22 C 0.6611(4) 0.3076(3) 0.1196(2) 0.0787 Uani
C23 C 0.6596(3) 0.2651(3) 0.1050(2) 0.0660 Uani
C24 C 0.6359(3) 0.2616(3) 0.0802(2) 0.0577 Uani
H16 H 0.6245 0.2863 0.0713 0.0690 Uiso
C25 C 0.6277(3) 0.2205(3) 0.0670(2) 0.0673 Uani
C26 C 0.6471(3) 0.1874(3) 0.0790(3) 0.0867 Uani
H17 H 0.6466 0.1614 0.0684 0.1040 Uiso
C27 C 0.6680(5) 0.1884(3) 0.1060(3) 0.1207 Uani
C28 C 0.6781(5) 0.2303(3) 0.1169(3) 0.1140 Uani
H18 H 0.6978 0.2335 0.1326 0.1370 Uiso
C29 C 0.6025(3) 0.2155(3) 0.0417(2) 0.0723 Uani
C30 C 0.6718(6) 0.1112(3) 0.1162(3) 0.1693 Uani
H19 H 0.6466 0.1006 0.1075 0.2030 Uiso
C31 C 0.6001(3) -0.2627(3) 0.1181(2) 0.0737 Uani
C32 C 0.7040(6) 0.0903(4) 0.1339(4) 0.1723 Uani
C33 C 0.8431(4) -0.0228(3) 0.3210(3) 0.1057 Uani
H20 H 0.8623 -0.0196 0.3369 0.1270 Uiso
C34 C 0.8229(3) 0.0111(3) 0.3091(2) 0.0703 Uani
C35 C 0.8022(4) 0.0084(4) 0.2822(3) 0.0990 Uani
H21 H 0.7906 0.0324 0.2726 0.1190 Uiso
C36 C 0.8274(3) 0.0518(3) 0.3241(2) 0.0720 Uani
H5J H 0.5328 0.3309 -0.0170 0.1620 Uiso
H6J H 0.5495 0.0874 0.0147 0.1790 Uiso
Cu1A Cu 0.60495(4) -0.35505(4) 0.12720(3) 0.0519 Uani
Cu2A Cu 0.64132(4) -0.30609(4) 0.16816(3) 0.0517 Uani
O1A O 1.09874(17) -0.1266(2) 0.34842(15) 0.0670 Uani
O2A O 1.13928(18) -0.1518(2) 0.31220(12) 0.0623 Uani
O3A O 0.66064(18) -0.35186(18) 0.10668(14) 0.0617 Uani
O4A O 0.69247(18) -0.3129(2) 0.14342(14) 0.0707 Uani
O5A O 1.30332(19) -0.41068(19) 0.10981(14) 0.0660 Uani
O6A O 1.25991(19) -0.3751(2) 0.14197(15) 0.0757 Uani
O7A O 0.94410(17) -0.14956(17) 0.34765(14) 0.0587 Uani
O8A O 0.91524(19) -0.1942(2) 0.31253(14) 0.0707 Uani
O9A O 0.5749(3) -0.3952(3) 0.09514(16) 0.1223 Uani
H1A H 0.5600 -0.3801 0.0793 0.1840 Uiso
H2A H 0.5936 -0.4145 0.0842 0.1840 Uiso
O10A O 0.6765(2) -0.2679(3) 0.2011(2) 0.1160 Uani
H3A H 0.6962 -0.2834 0.2093 0.1740 Uiso
H4A H 0.6884 -0.2462 0.1924 0.1740 Uiso
O11A O 0.74798(18) -0.4164(2) 0.03033(14) 0.0697 Uani
O12A O 0.8210(2) -0.4075(2) 0.03090(14) 0.0703 Uani
O13A O 1.2377(2) -0.49665(19) 0.03027(14) 0.0683 Uani
O14A O 1.16577(18) -0.50532(18) 0.02982(14) 0.0630 Uani
N1A N 1.0354(3) -0.2256(4) 0.2410(2) 0.1437 Uani
N2A N 1.0762(3) -0.2466(6) 0.2369(3) 0.2007 Uani
N3A N 1.0660(3) -0.2578(6) 0.2077(3) 0.2100 Uani
N4A N 1.0485(4) -0.3686(6) 0.0886(3) 0.2187 Uani
N5A N 1.0831(4) -0.3849(6) 0.0762(3) 0.1983 Uani
N6A N 1.1121(3) -0.3876(4) 0.0985(3) 0.1380 Uani
N7A N 0.8486(3) -0.3106(4) 0.1160(3) 0.1517 Uani
N8A N 0.8437(4) -0.2791(5) 0.1368(3) 0.1727 Uani
N9A N 0.8863(3) -0.2718(5) 0.1443(3) 0.1567 Uani
C1A C 1.1030(3) -0.1452(3) 0.3257(2) 0.0550 Uani
C2A C 1.0639(3) -0.1658(4) 0.3084(2) 0.0877 Uani
C3A C 1.0689(3) -0.1840(3) 0.2830(2) 0.0687 Uani
H7A H 1.0960 -0.1858 0.2740 0.0820 Uiso
C4A C 1.0342(4) -0.2006(5) 0.2696(3) 0.1113 Uani
C5A C 1.0079(3) -0.2374(4) 0.2237(2) 0.1027 Uani
H8A H 0.9782 -0.2332 0.2251 0.1230 Uiso
C6A C 1.0315(3) -0.2596(5) 0.2001(3) 0.1320 Uani
C7A C 1.0143(4) -0.2763(6) 0.1728(3) 0.1520 Uani
C8A C 0.9696(4) -0.2820(5) 0.1678(3) 0.1630 Uani
H9A H 0.9502 -0.2748 0.1830 0.1950 Uiso
C9A C 0.9559(4) -0.2963(7) 0.1440(4) 0.1887 Uani
C10A C 0.9873(4) -0.3293(7) 0.1276(3) 0.1767 Uani
H10A H 0.9760 -0.3466 0.1124 0.2100 Uiso
C11A C 1.0275(4) -0.3335(7) 0.1341(3) 0.1600 Uani
C12A C 1.0431(3) -0.3028(4) 0.1565(3) 0.1267 Uani
H11A H 1.0726 -0.3007 0.1602 0.1520 Uiso
C13A C 1.0535(4) -0.3557(5) 0.1155(4) 0.1537 Uani
C14A C 1.1026(4) -0.3632(5) 0.1205(3) 0.1317 Uani
H12A H 1.1203 -0.3525 0.1357 0.1580 Uiso
C15A C 1.1493(3) -0.4070(4) 0.0900(3) 0.1043 Uani
C16A C 1.1881(3) -0.3927(3) 0.1081(3) 0.0897 Uani
H13A H 1.1856 -0.3718 0.1230 0.1080 Uiso
C17A C 1.2286(3) -0.4123(3) 0.1015(2) 0.0637 Uani
C18A C 1.2293(3) -0.4384(3) 0.0790(2) 0.0750 Uani
H14A H 1.2566 -0.4446 0.0715 0.0900 Uiso
C19A C 1.1953(3) -0.4588(4) 0.0643(2) 0.0783 Uani
C20A C 1.1558(3) -0.4350(4) 0.0687(3) 0.0950 Uani
H15A H 1.1333 -0.4400 0.0553 0.1140 Uiso
C21A C 1.1999(3) -0.4898(3) 0.0407(2) 0.0633 Uani
C22A C 0.6924(3) -0.3389(4) 0.1196(2) 0.0787 Uani
C23A C 0.7349(3) -0.3404(3) 0.1050(2) 0.0660 Uani
C24A C 0.7384(3) -0.3641(3) 0.0802(2) 0.0577 Uani
H16A H 0.7137 -0.3755 0.0713 0.0690 Uiso
C25A C 0.7795(3) -0.3723(3) 0.0670(2) 0.0673 Uani
C26A C 0.8126(3) -0.3529(3) 0.0790(3) 0.0867 Uani
H17A H 0.8386 -0.3534 0.0684 0.1040 Uiso
C27A C 0.8116(3) -0.3320(5) 0.1060(3) 0.1207 Uani
C28A C 0.7697(3) -0.3219(5) 0.1169(3) 0.1140 Uani
H18A H 0.7665 -0.3022 0.1326 0.1370 Uiso
C29A C 0.7845(3) -0.3975(3) 0.0417(2) 0.0723 Uani
C30A C 0.8888(3) -0.3282(6) 0.1162(3) 0.1693 Uani
H19A H 0.8994 -0.3534 0.1075 0.2030 Uiso
C31A C 1.2627(3) -0.3999(3) 0.1181(2) 0.0737 Uani
C32A C 0.9097(4) -0.2960(6) 0.1339(4) 0.1723 Uani
C33A C 1.0228(3) -0.1569(4) 0.3210(3) 0.1057 Uani
H20A H 1.0196 -0.1377 0.3369 0.1270 Uiso
C34A C 0.9889(3) -0.1771(3) 0.3091(2) 0.0703 Uani
C35A C 0.9916(4) -0.1978(4) 0.2822(3) 0.0990 Uani
H21A H 0.9676 -0.2094 0.2726 0.1190 Uiso
C36A C 0.9482(3) -0.1726(3) 0.3241(2) 0.0720 Uani
Cu1B Cu 1.35505(4) -0.39505(4) 0.12720(3) 0.0519 Uani
Cu1L Cu 0.85505(4) 0.10495(4) 0.37280(3) 0.0519 Uani
Cu1M Cu 0.89505(4) -0.14495(4) 0.37280(3) 0.0519 Uani
Cu1N Cu 1.14495(4) -0.10495(4) 0.37280(3) 0.0519 Uani
Cu2B Cu 1.30609(4) -0.35868(4) 0.16816(3) 0.0517 Uani
Cu2L Cu 0.80609(4) 0.14132(4) 0.33184(3) 0.0517 Uani
Cu2M Cu 0.85868(4) -0.19391(4) 0.33184(3) 0.0517 Uani
Cu2N Cu 1.19391(4) -0.14132(4) 0.33184(3) 0.0517 Uani
Cu3A Cu 0.74948(5) -0.46148(5) 0.0000 0.0486 Uani
Cu3B Cu 0.46148(5) -0.25052(5) 0.0000 0.0486 Uani
Cu3C Cu 1.25052(5) -0.53852(5) 0.0000 0.0486 Uani
Cu4A Cu 0.83350(5) -0.44979(5) 0.0000 0.0485 Uani
Cu4B Cu 0.44979(5) -0.16650(5) 0.0000 0.0485 Uani
Cu4C Cu 1.16650(5) -0.55021(5) 0.0000 0.0485 Uani
O1L O 0.6266(2) -0.40126(17) 0.15158(15) 0.0670 Uani
O1O O 0.59874(17) 0.3734(2) 0.15158(15) 0.0670 Uani
O2L O 0.6518(2) -0.36072(18) 0.18780(12) 0.0623 Uani
O2O O 0.63928(18) 0.3482(2) 0.18780(12) 0.0623 Uani
O5C O 0.69668(19) 0.41068(19) 0.10981(14) 0.0660 Uani
O6C O 0.74009(19) 0.3751(2) 0.14197(15) 0.0757 Uani
O7L O 0.64956(17) 0.44410(17) 0.15235(14) 0.0587 Uani
O7M O 0.55590(17) -0.35044(17) 0.15235(14) 0.0587 Uani
O8L O 0.6942(2) 0.41524(19) 0.18747(14) 0.0707 Uani
O8M O 0.58476(19) -0.3058(2) 0.18747(14) 0.0707 Uani
O11J O 0.5836(2) 0.25202(18) -0.03033(14) 0.0697 Uani
O12J O 0.5925(2) 0.1790(2) -0.03090(14) 0.0703 Uani
O13B O 0.49665(19) 0.2377(2) 0.03027(14) 0.0683 Uani
O13H O 0.49665(19) 0.2377(2) -0.03027(14) 0.0683 Uani
O14B O 0.50532(18) 0.16577(18) 0.02982(14) 0.0630 Uani
O14H O 0.50532(18) 0.16577(18) -0.02982(14) 0.0630 Uani
loop_
_atom_site_aniso_label
_atom_site_aniso_U_11
_atom_site_aniso_U_22
_atom_site_aniso_U_33
_atom_site_aniso_U_23
_atom_site_aniso_U_13
_atom_site_aniso_U_12
Cu1 0.0514(7) 0.0464(7) 0.0580(7) 0.0078(6) -0.0120(6) -0.0023(5)
Cu2 0.0521(7) 0.0430(7) 0.0599(7) 0.0102(6) -0.0106(6) -0.0043(5)
Cu3 0.0561(10) 0.0384(9) 0.0514(9) 0.000 0.000 0.0002(7)
Cu4 0.0559(10) 0.0380(9) 0.0516(9) 0.000 0.000 -0.0003(7)
O1 0.076 0.039 0.086 -0.013 -0.021 -0.005
O2 0.084 0.048 0.055 -0.01 -0.016 0.001
O3 0.060(4) 0.046(3) 0.079(4) -0.002(3) -0.024(3) -0.001(3)
O4 0.093(5) 0.053(3) 0.066(4) -0.001(3) -0.023(3) 0.005(3)
O5 0.066 0.057 0.075 -0.006 -0.026 0
O6 0.103 0.05 0.074 -0.009 -0.005 -0.008
O7 0.048 0.044 0.084 -0.008 -0.026 0.012
O8 0.074 0.054 0.084 -0.004 -0.026 0.012
O9 0.103(6) 0.195(9) 0.069(4) 0.010(5) -0.038(4) 0.077(6)
O10 0.121(6) 0.093(5) 0.134(7) 0.013(5) -0.079(5) 0.022(5)
O11 0.079(4) 0.056(3) 0.074(4) 0.018(3) -0.013(3) -0.001(3)
O12 0.078(4) 0.063(4) 0.070(4) -0.017(3) -0.019(3) 0.018(3)
O13 0.076 0.062 0.067 0.018 -0.028 0.003
O14 0.064 0.053 0.072 -0.007 -0.002 0.005
O15 0.099(8) 0.055(5) 0.169(11) 0.000 0.000 0.020(5)
O16 0.099(8) 0.034(4) 0.226(14) 0.000 0.000 -0.018(4)
N1 0.252 0.066 0.113 -0.018 -0.128 0.008
N2 0.368 0.04 0.194 -0.006 -0.198 0.013
N3 0.367 0.059 0.204 0.002 -0.224 -0.002
N4 0.367 0.111 0.178 0.037 -0.17 -0.1
N5 0.325 0.094 0.176 0.041 -0.169 -0.069
N6 0.205 0.051 0.158 0.007 -0.112 -0.025
N7 0.213(11) 0.046(4) 0.196(10) 0.027(6) -0.165(9) -0.022(5)
N8 0.210(12) 0.090(6) 0.218(12) 0.041(8) -0.160(10) -0.021(7)
N9 0.263(13) 0.054(5) 0.153(9) 0.002(6) -0.164(9) 0.002(7)
C1 0.039 0.061 0.065 -0.002 -0.002 0
C2 0.136 0.044 0.083 0.005 -0.055 -0.001
C3 0.092 0.038 0.076 -0.007 -0.031 -0.002
C4 0.157 0.092 0.085 -0.003 -0.073 0.006
C5 0.167 0.048 0.093 -0.011 -0.079 0.056
C6 0.199 0.035 0.162 0.004 -0.125 -0.001
C7 0.24 0.056 0.16 -0.018 -0.154 0.025
C8 0.258 0.052 0.179 -0.043 -0.173 0.057
C9 0.33 0.065 0.171 -0.023 -0.2 0.045
C10 0.35 0.069 0.111 -0.033 -0.02 -0.069
C11 0.318 0.042 0.12 -0.009 -0.125 0.013
C12 0.137 0.061 0.182 0.032 -0.124 0.016
C13 0.21 0.065 0.186 0.052 -0.162 -0.04
C14 0.193 0.062 0.14 0.005 -0.113 -0.01
C15 0.132 0.05 0.131 -0.011 -0.067 0.007
C16 0.083 0.066 0.12 0.033 -0.049 -0.009
C17 0.078 0.037 0.076 -0.009 -0.024 0.01
C18 0.075 0.056 0.094 -0.001 -0.009 0.002
C19 0.119 0.048 0.068 0.006 -0.035 -0.008
C20 0.146 0.042 0.097 0.001 -0.062 0.019
C21 0.063 0.071 0.056 0.011 0.003 -0.01
C22 0.101(8) 0.056(4) 0.079(6) 0.011(4) -0.023(5) -0.020(5)
C23 0.088(7) 0.044(4) 0.066(5) 0.010(4) -0.022(5) -0.008(4)
C24 0.043(5) 0.052(4) 0.078(6) 0.013(4) -0.012(4) 0.002(4)
C25 0.093(7) 0.037(4) 0.072(6) 0.019(4) -0.035(5) -0.002(4)
C26 0.103(8) 0.046(5) 0.111(8) -0.007(5) -0.065(6) 0.000(5)
C27 0.172(11) 0.039(4) 0.151(10) -0.004(6) -0.115(9) 0.005(6)
C28 0.191(12) 0.041(4) 0.110(8) 0.010(5) -0.101(8) -0.020(6)
C29 0.063(6) 0.082(6) 0.072(6) -0.006(5) -0.015(4) 0.013(5)
C30 0.311(15) 0.020(4) 0.177(11) -0.017(6) -0.202(11) 0.023(6)
C31 0.082 0.076 0.063 0 0.002 -0.012
C32 0.298(16) 0.051(6) 0.168(11) -0.005(7) -0.196(12) 0.012(8)
C33 0.133 0.069 0.115 0.001 -0.05 0.026
C34 0.078 0.056 0.077 -0.002 -0.021 0.017
C35 0.102 0.091 0.104 -0.005 -0.046 -0.033
C36 0.075 0.066 0.075 -0.004 -0.011 -0.005
Cu1A 0.0464 0.0514 0.058 -0.012 -0.0078 0.0023
Cu2A 0.043 0.0521 0.0599 -0.0106 -0.0102 0.0043
O1A 0.039 0.076 0.086 -0.021 0.013 0.005
O2A 0.048 0.084 0.055 -0.016 0.01 -0.001
O3A 0.046 0.06 0.079 -0.024 0.002 0.001
O4A 0.053 0.093 0.066 -0.023 0.001 -0.005
O5A 0.057 0.066 0.075 -0.026 0.006 0
O6A 0.05 0.103 0.074 -0.005 0.009 0.008
O7A 0.044 0.048 0.084 -0.026 0.008 -0.012
O8A 0.054 0.074 0.084 -0.026 0.004 -0.012
O9A 0.195 0.103 0.069 -0.038 -0.01 -0.077
O10A 0.093 0.121 0.134 -0.079 -0.013 -0.022
O11A 0.056 0.079 0.074 -0.013 -0.018 0.001
O12A 0.063 0.078 0.07 -0.019 0.017 -0.018
O13A 0.062 0.076 0.067 -0.028 -0.018 -0.003
O14A 0.053 0.064 0.072 -0.002 0.007 -0.005
N1A 0.066 0.252 0.113 -0.128 0.018 -0.008
N2A 0.04 0.368 0.194 -0.198 0.006 -0.013
N3A 0.059 0.367 0.204 -0.224 -0.002 0.002
N4A 0.111 0.367 0.178 -0.17 -0.037 0.1
N5A 0.094 0.325 0.176 -0.169 -0.041 0.069
N6A 0.051 0.205 0.158 -0.112 -0.007 0.025
N7A 0.046 0.213 0.196 -0.165 -0.027 0.022
N8A 0.09 0.21 0.218 -0.16 -0.041 0.021
N9A 0.054 0.263 0.153 -0.164 -0.002 -0.002
C1A 0.061 0.039 0.065 -0.002 0.002 0
C2A 0.044 0.136 0.083 -0.055 -0.005 0.001
C3A 0.038 0.092 0.076 -0.031 0.007 0.002
C4A 0.092 0.157 0.085 -0.073 0.003 -0.006
C5A 0.048 0.167 0.093 -0.079 0.011 -0.056
C6A 0.035 0.199 0.162 -0.125 -0.004 0.001
C7A 0.056 0.24 0.16 -0.154 0.018 -0.025
C8A 0.052 0.258 0.179 -0.173 0.043 -0.057
C9A 0.065 0.33 0.171 -0.2 0.023 -0.045
C10A 0.069 0.35 0.111 -0.02 0.033 0.069
C11A 0.042 0.318 0.12 -0.125 0.009 -0.013
C12A 0.061 0.137 0.182 -0.124 -0.032 -0.016
C13A 0.065 0.21 0.186 -0.162 -0.052 0.04
C14A 0.062 0.193 0.14 -0.113 -0.005 0.01
C15A 0.05 0.132 0.131 -0.067 0.011 -0.007
C16A 0.066 0.083 0.12 -0.049 -0.033 0.009
C17A 0.037 0.078 0.076 -0.024 0.009 -0.01
C18A 0.056 0.075 0.094 -0.009 0.001 -0.002
C19A 0.048 0.119 0.068 -0.035 -0.006 0.008
C20A 0.042 0.146 0.097 -0.062 -0.001 -0.019
C21A 0.071 0.063 0.056 0.003 -0.011 0.01
C22A 0.056 0.101 0.079 -0.023 -0.011 0.02
C23A 0.044 0.088 0.066 -0.022 -0.01 0.008
C24A 0.052 0.043 0.078 -0.012 -0.013 -0.002
C25A 0.037 0.093 0.072 -0.035 -0.019 0.002
C26A 0.046 0.103 0.111 -0.065 0.007 0
C27A 0.039 0.172 0.151 -0.115 0.004 -0.005
C28A 0.041 0.191 0.11 -0.101 -0.01 0.02
C29A 0.082 0.063 0.072 -0.015 0.006 -0.013
C30A 0.02 0.311 0.177 -0.202 0.017 -0.023
C31A 0.076 0.082 0.063 0.002 0 0.012
C32A 0.051 0.298 0.168 -0.196 0.005 -0.012
C33A 0.069 0.133 0.115 -0.05 -0.001 -0.026
C34A 0.056 0.078 0.077 -0.021 0.002 -0.017
C35A 0.091 0.102 0.104 -0.046 0.005 0.033
C36A 0.066 0.075 0.075 -0.011 0.004 0.005
Cu1B 0.0514 0.0464 0.058 -0.0078 0.012 -0.0023
Cu1L 0.0514 0.0464 0.058 0.0078 -0.012 -0.0023
Cu1M 0.0464 0.0514 0.058 -0.012 -0.0078 0.0023
Cu1N 0.0514 0.0464 0.058 -0.0078 0.012 -0.0023
Cu2B 0.0521 0.043 0.0599 -0.0102 0.0106 -0.0043
Cu2L 0.0521 0.043 0.0599 0.0102 -0.0106 -0.0043
Cu2M 0.043 0.0521 0.0599 -0.0106 -0.0102 0.0043
Cu2N 0.0521 0.043 0.0599 -0.0102 0.0106 -0.0043
Cu3A 0.0384 0.0561 0.0514 0 0 -0.0002
Cu3B 0.0561 0.0384 0.0514 0 0 0.0002
Cu3C 0.0384 0.0561 0.0514 0 0 -0.0002
Cu4A 0.038 0.0559 0.0516 0 0 0.0003
Cu4B 0.0559 0.038 0.0516 0 0 -0.0003
Cu4C 0.038 0.0559 0.0516 0 0 0.0003
O1L 0.076 0.039 0.086 -0.013 -0.021 -0.005
O1O 0.039 0.076 0.086 0.021 -0.013 0.005
O2L 0.084 0.048 0.055 -0.01 -0.016 0.001
O2O 0.048 0.084 0.055 0.016 -0.01 -0.001
O5C 0.057 0.066 0.075 0.026 -0.006 0
O6C 0.05 0.103 0.074 0.005 -0.009 0.008
O7L 0.048 0.044 0.084 -0.008 -0.026 0.012
O7M 0.044 0.048 0.084 -0.026 0.008 -0.012
O8L 0.074 0.054 0.084 -0.004 -0.026 0.012
O8M 0.054 0.074 0.084 -0.026 0.004 -0.012
O11J 0.079 0.056 0.074 -0.018 0.013 -0.001
O12J 0.078 0.063 0.07 0.017 0.019 0.018
O13B 0.076 0.062 0.067 -0.018 0.028 0.003
O13H 0.076 0.062 0.067 0.018 -0.028 0.003
O14B 0.064 0.053 0.072 0.007 0.002 0.005
O14H 0.064 0.053 0.072 -0.007 -0.002 0.005
loop_
_geom_bond_atom_site_label_1
_geom_bond_atom_site_label_2
_geom_bond_site_symmetry_1
_geom_bond_site_symmetry_2
Cu1 Cu2 1_555 1_555
Cu2 O4 1_555 1_555
Cu3 Cu4 1_555 1_555
Cu4 O12 1_555 1_555
O1 C1 1_555 1_555
O2 C1 1_555 1_555
O3 Cu1 1_555 1_555
O4 C22 1_555 1_555
O5 C31 1_555 1_555
O6 C31 1_555 1_555
O7 C36 1_555 1_555
O8 C36 1_555 1_555
O9 Cu1 1_555 1_555
H1 O9 1_555 1_555
H2 O9 1_555 1_555
O10 Cu2 1_555 1_555
H3 O10 1_555 1_555
H4 O10 1_555 1_555
O11 Cu3 1_555 1_555
O12 C29 1_555 1_555
O13 C21 1_555 1_555
O14 C21 1_555 1_555
O15 Cu3 1_555 1_555
H5 O15 1_555 1_555
O16 Cu4 1_555 1_555
H6 O16 1_555 1_555
N1 N2 1_555 1_555
N2 N3 1_555 1_555
N3 C6 1_555 1_555
N4 N5 1_555 1_555
N5 N6 1_555 1_555
N6 C14 1_555 1_555
N7 N8 1_555 1_555
N8 N9 1_555 1_555
N9 C32 1_555 1_555
C1 C2 1_555 1_555
C2 C3 1_555 1_555
C3 H7 1_555 1_555
C4 N1 1_555 1_555
C5 N1 1_555 1_555
H8 C5 1_555 1_555
C6 C5 1_555 1_555
C7 C6 1_555 1_555
C8 C7 1_555 1_555
H9 C8 1_555 1_555
C9 C8 1_555 1_555
C10 C9 1_555 1_555
H10 C10 1_555 1_555
C11 C10 1_555 1_555
C12 C7 1_555 1_555
H11 C12 1_555 1_555
C13 N4 1_555 1_555
C14 C13 1_555 1_555
H12 C14 1_555 1_555
C15 N6 1_555 1_555
C16 C15 1_555 1_555
H13 C16 1_555 1_555
C17 C16 1_555 1_555
C18 C17 1_555 1_555
H14 C18 1_555 1_555
C19 C18 1_555 1_555
C20 C15 1_555 1_555
H15 C20 1_555 1_555
C21 C19 1_555 1_555
C22 O3 1_555 1_555
C23 C22 1_555 1_555
C24 C23 1_555 1_555
H16 C24 1_555 1_555
C25 C24 1_555 1_555
C26 C25 1_555 1_555
H17 C26 1_555 1_555
C27 N7 1_555 1_555
C28 C23 1_555 1_555
H18 C28 1_555 1_555
C29 O11 1_555 1_555
C30 N7 1_555 1_555
H19 C30 1_555 1_555
C31 C17 1_555 1_555
C32 C9 1_555 1_555
C33 C2 1_555 1_555
H20 C33 1_555 1_555
C34 C33 1_555 1_555
C35 C4 1_555 1_555
H21 C35 1_555 1_555
C36 C34 1_555 1_555
H5J O15 1_555 1_555
H6J O16 1_555 1_555
Cu1A O5 1_555 1_555
Cu2A O6 1_555 1_555
O1A C1A 1_555 1_555
O2A C1A 1_555 1_555
O3A Cu1A 1_555 1_555
O4A Cu2A 1_555 1_555
O5A C31A 1_555 1_555
O6A C31A 1_555 1_555
O7A C36A 1_555 1_555
O8A C36A 1_555 1_555
O9A Cu1A 1_555 1_555
H1A O9A 1_555 1_555
H2A O9A 1_555 1_555
O10A Cu2A 1_555 1_555
H3A O10A 1_555 1_555
H4A O10A 1_555 1_555
O11A C29A 1_555 1_555
O12A C29A 1_555 1_555
O13A C21A 1_555 1_555
O14A C21A 1_555 1_555
N1A N2A 1_555 1_555
N2A N3A 1_555 1_555
N3A C6A 1_555 1_555
N4A N5A 1_555 1_555
N5A N6A 1_555 1_555
N6A C14A 1_555 1_555
N7A N8A 1_555 1_555
N8A N9A 1_555 1_555
N9A C32A 1_555 1_555
C1A C2A 1_555 1_555
C2A C3A 1_555 1_555
C3A H7A 1_555 1_555
C4A N1A 1_555 1_555
C5A N1A 1_555 1_555
H8A C5A 1_555 1_555
C6A C5A 1_555 1_555
C7A C6A 1_555 1_555
C8A C7A 1_555 1_555
H9A C8A 1_555 1_555
C9A C8A 1_555 1_555
C10A C9A 1_555 1_555
H10A C10A 1_555 1_555
C11A C10A 1_555 1_555
C12A C7A 1_555 1_555
H11A C12A 1_555 1_555
C13A N4A 1_555 1_555
C14A C13A 1_555 1_555
H12A C14A 1_555 1_555
C15A N6A 1_555 1_555
C16A C15A 1_555 1_555
H13A C16A 1_555 1_555
C17A C16A 1_555 1_555
C18A C17A 1_555 1_555
H14A C18A 1_555 1_555
C19A C18A 1_555 1_555
C20A C15A 1_555 1_555
H15A C20A 1_555 1_555
C21A C19A 1_555 1_555
C22A O3A 1_555 1_555
C23A C22A 1_555 1_555
C24A C23A 1_555 1_555
H16A C24A 1_555 1_555
C25A C24A 1_555 1_555
C26A C25A 1_555 1_555
H17A C26A 1_555 1_555
C27A N7A 1_555 1_555
C28A C23A 1_555 1_555
H18A C28A 1_555 1_555
C29A C25A 1_555 1_555
C30A N7A 1_555 1_555
H19A C30A 1_555 1_555
C31A C17A 1_555 1_555
C32A C9A 1_555 1_555
C33A C2A 1_555 1_555
H20A C33A 1_555 1_555
C34A C33A 1_555 1_555
C35A C4A 1_555 1_555
H21A C35A 1_555 1_555
C36A C34A 1_555 1_555
Cu1B O5A 1_555 1_555
Cu1L O7 1_555 1_555
Cu1M O1 1_555 1_555
Cu1N O1A 1_555 1_555
Cu2B O6A 1_555 1_555
Cu2L O8 1_555 1_555
Cu2M O2 1_555 1_555
Cu2N O2A 1_555 1_555
Cu3A O11A 1_555 1_555
Cu3B O13 1_555 1_555
Cu3C O13A 1_555 1_555
Cu4A O12A 1_555 1_555
Cu4B O14 1_555 1_555
Cu4C O14A 1_555 1_555
O1L Cu1A 1_555 1_555
O1O Cu1 1_555 1_555
O2L Cu2A 1_555 1_555
O2O Cu2 1_555 1_555
O5C Cu1 1_555 1_555
O6C Cu2 1_555 1_555
O7L Cu1 1_555 1_555
O7M Cu1A 1_555 1_555
O8L Cu2 1_555 1_555
O8M Cu2A 1_555 1_555
O11J Cu3 1_555 1_555
O12J Cu4 1_555 1_555
O13B Cu3 1_555 1_555
O13H Cu3 1_555 1_555
O14B Cu4 1_555 1_555
O14H Cu4 1_555 1_555
C3 C4 1_555 1_555
C11 C12 1_555 1_555
C11 C13 1_555 1_555
C19 C20 1_555 1_555
C25 C29 1_555 1_555
C26 C27 1_555 1_555
C27 C28 1_555 1_555
C30 C32 1_555 1_555
C34 C35 1_555 1_555
Cu1A Cu2A 1_555 1_555
O4A C22A 1_555 1_555
O7A Cu1M 1_555 1_555
O8A Cu2M 1_555 1_555
C3A C4A 1_555 1_555
C11A C12A 1_555 1_555
C11A C13A 1_555 1_555
C19A C20A 1_555 1_555
C26A C27A 1_555 1_555
C27A C28A 1_555 1_555
C30A C32A 1_555 1_555
C34A C35A 1_555 1_555
Cu1B Cu2B 1_555 1_555
Cu1L Cu2L 1_555 1_555
Cu1M Cu2M 1_555 1_555
Cu1N Cu2N 1_555 1_555
Cu3A Cu4A 1_555 1_555
Cu3B Cu4B 1_555 1_555
Cu3C Cu4C 1_555 1_555

#END
