
#######################################################################
#
#                 Cambridge Crystallographic Data Centre
#                                CCDC 
#
#######################################################################
#
# If this CIF has been generated from an entry in the Cambridge 
# Structural Database, then it will include bibliographic, chemical, 
# crystal, experimental, refinement or atomic coordinate data resulting 
# from the CCDC's data processing and validation procedures.
#
#######################################################################

data_NEJSEC
_chemical_formula_moiety         '(C52 H32 Cu4 N4 O16)n,n(C3 H7 N1 O1)'
_chemical_name_systematic        
"catena-(tetrakis(\m~4~-Terephthalato)-bis(\m~2~-4,4'-bipyridine)-tetra-copper dimethylformamide solvate)"
_symmetry_cell_setting           triclinic
_symmetry_space_group_name_H-M   'P -1'
_symmetry_Int_Tables_number      2
_space_group_name_Hall           '-P 1'
loop_
_symmetry_equiv_pos_site_id
_symmetry_equiv_pos_as_xyz
1 x,y,z
2 -x,-y,-z
_cell_length_a                   10.8044(16)
_cell_length_b                   14.053(2)
_cell_length_c                   21.678(3)
_cell_angle_alpha                89.878(3)
_cell_angle_beta                 83.363(4)
_cell_angle_gamma                88.981(4)
_cell_volume                     3268.89
_exptl_crystal_colour            colorless
_exptl_crystal_description       prism
_cell_formula_units_Z            2
loop_
_atom_site_label
_atom_site_type_symbol
_atom_site_fract_x
_atom_site_fract_y
_atom_site_fract_z
C1 C 0.2872(3) 0.7935(2) 0.21117(13)
C2 C -0.4869(2) 0.7984(2) 0.32568(13)
C3 C 0.2658(3) 0.7896(2) 0.44575(14)
C4 C 0.0457(2) 0.7981(2) 0.33143(13)
C5 C 0.2707(2) 0.7942(2) 0.71214(14)
C6 C -0.5005(3) 0.7996(2) 0.82456(13)
C7 C 0.2593(3) 0.7929(2) -0.05361(14)
C8 C 0.0306(3) 0.8040(2) 0.83427(13)
C9 C 0.2803(3) 0.7928(2) 0.14245(14)
C10 C 0.2458(4) 0.7118(3) 0.11304(17)
H1 H 0.2277 0.6561 0.1362
C11 C 0.2380(4) 0.7124(3) 0.04938(17)
H2 H 0.2136 0.657 0.0301
C12 C 0.2649(3) 0.7914(2) 0.01452(14)
C13 C 0.3002(4) 0.8728(3) 0.04399(16)
H3 H 0.3193 0.9282 0.0207
C14 C 0.3074(4) 0.8728(3) 0.10678(16)
H4 H 0.3313 0.9285 0.1259
C15 C -0.3490(3) 0.7988(2) 0.32766(14)
C16 C -0.2840(2) 0.8831(2) 0.31957(14)
H5 H -0.3269 0.9405 0.3135
C17 C -0.1570(3) 0.8828(2) 0.32048(14)
H6 H -0.1132 0.9399 0.3145
C18 C -0.0926(2) 0.7979(2) 0.33019(13)
C19 C -0.1575(3) 0.7135(2) 0.33791(15)
H7 H -0.1145 0.6562 0.3441
C20 C -0.2845(3) 0.7135(2) 0.33646(15)
H8 H -0.328 0.6561 0.3414
C21 C 0.2639(3) 0.7887(2) 0.51479(14)
C22 C 0.2290(4) 0.8690(3) 0.54862(17)
H9 H 0.2022 0.9236 0.5285
C23 C 0.2329(4) 0.8704(3) 0.61173(17)
H10 H 0.2113 0.9269 0.6338
C24 C 0.2674(3) 0.7913(2) 0.64326(14)
C25 C 0.2954(3) 0.7087(3) 0.60976(15)
H11 H 0.3151 0.6524 0.6303
C26 C 0.2946(3) 0.7086(3) 0.54553(16)
H12 H 0.3155 0.6523 0.523
C27 C -0.3634(2) 0.8015(2) 0.82708(13)
C28 C -0.2984(3) 0.8869(2) 0.81889(14)
H13 H -0.3411 0.9437 0.8111
C29 C -0.1726(3) 0.8877(2) 0.82220(14)
H14 H -0.1296 0.9452 0.8171
C30 C -0.1079(3) 0.8037(2) 0.83305(13)
C31 C -0.1721(3) 0.7192(2) 0.84116(15)
H15 H -0.129 0.6624 0.8486
C32 C -0.2984(3) 0.7181(2) 0.83843(15)
H16 H -0.3412 0.6605 0.8443
C33 C 0.1697(3) 0.0956(2) 0.33534(15)
H17 H 0.0942 0.0629 0.3372
C34 C 0.1652(3) 0.1938(2) 0.33565(15)
H18 H 0.0882 0.2264 0.3372
C35 C 0.2753(3) 0.2442(2) 0.33364(14)
C36 C 0.3851(3) 0.1907(2) 0.33153(15)
H19 H 0.4621 0.221 0.3307
C37 C 0.3803(3) 0.0928(2) 0.33060(15)
H20 H 0.4558 0.058 0.3285
C38 C 0.1727(3) 0.5048(2) 0.85921(17)
H21 H 0.107 0.5406 0.8806
C39 C 0.1665(3) 0.4071(2) 0.86182(17)
H22 H 0.0975 0.3776 0.8839
C40 C 0.2631(3) 0.3524(2) 0.83156(15)
C41 C 0.3624(3) 0.4011(2) 0.79962(17)
H23 H 0.4305 0.3675 0.7786
C42 C 0.3588(3) 0.4992(2) 0.79943(17)
H24 H 0.4257 0.5314 0.7776
C43 C 0.3669(3) 0.0951(2) 0.82838(15)
H25 H 0.4425 0.0603 0.8252
C44 C 0.3713(3) 0.1932(2) 0.82870(15)
H26 H 0.4486 0.2234 0.826
C45 C 0.2629(3) 0.2468(2) 0.83299(14)
C46 C 0.1514(3) 0.1964(2) 0.83750(15)
H27 H 0.0743 0.2293 0.8411
C47 C 0.1559(3) 0.0983(2) 0.83654(15)
H28 H 0.0804 0.0655 0.839
N1 N 0.2754(2) 0.04476(17) 0.33251(11)
N2 N 0.2649(2) 0.55069(18) 0.82868(11)
N3 N 0.2617(2) 0.04768(18) 0.83229(11)
O1 O 0.2797(2) 0.71436(16) 0.23821(9)
O2 O 0.29979(19) 0.87271(16) 0.23620(9)
O3 O -0.53635(16) 0.71927(14) 0.31949(10)
O4 O -0.54342(17) 0.87802(15) 0.32984(10)
O5 O 0.28114(19) 0.71038(15) 0.41843(9)
O6 O 0.2531(2) 0.86884(16) 0.41983(9)
O7 O 0.09934(17) 0.71890(15) 0.33775(10)
O8 O 0.09859(17) 0.87754(15) 0.32617(10)
O9 O 0.28439(19) 0.71536(15) 0.73886(9)
O10 O 0.2603(2) 0.87374(15) 0.73793(9)
O11 O -0.55240(17) 0.72037(15) 0.82847(11)
O12 O -0.55595(18) 0.87903(15) 0.81878(10)
O13 O 0.2503(2) 0.71340(16) -0.07971(9)
O14 O 0.2650(2) 0.87220(16) -0.08057(9)
O15 O 0.08615(17) 0.72420(15) 0.83063(10)
O16 O 0.08207(17) 0.88346(15) 0.83790(10)
Cu1 Cu 0.28154(3) 0.70111(2) 0.328346(15)
Cu2 Cu 0.27678(3) -0.10993(2) 0.328360(15)
Cu3 Cu 0.26703(3) 0.70354(2) 0.829530(15)
Cu4 Cu 0.26269(3) 0.89271(2) 0.828741(15)
N4 N 0.2830(2) 0.54772(18) 0.32786(12)
C48 C 0.3649(3) 0.4981(3) 0.3565(2)
H29 H 0.4252 0.5314 0.3753
C49 C 0.3660(3) 0.4007(3) 0.3601(2)
H30 H 0.4258 0.3686 0.381
C50 C 0.2767(3) 0.3492(2) 0.33225(15)
C51 C 0.1927(3) 0.4024(3) 0.3019(2)
H31 H 0.131 0.3718 0.2824
C52 C 0.2000(3) 0.5002(3) 0.3005(2)
H32 H 0.1431 0.5348 0.2791
N3_2 N 0.2617(2) 1.04768(18) 0.83229(11)
O2_2 O 0.29979(19) -0.12729(16) 0.23620(9)
O3_2 O 0.46365(16) 0.71927(14) 0.31949(10)
O4_2 O 0.45658(17) -0.12198(15) 0.32984(10)
O6_2 O 0.2531(2) -0.13116(16) 0.41983(9)
O8_2 O 0.09859(17) -0.12246(15) 0.32617(10)
O11_2 O 0.44760(17) 0.72037(15) 0.82847(11)
O12_2 O 0.44405(18) 0.87903(15) 0.81878(10)
O13_2 O 0.2503(2) 0.71340(16) 0.92029(9)
O14_2 O 0.2650(2) 0.87220(16) 0.91943(9)
Cu1_2 Cu -0.71846(3) 0.70111(2) 0.328346(15)
Cu2_2 Cu 0.27678(3) 0.89007(2) 0.328360(15)
Cu2_3 Cu -0.72322(3) 0.89007(2) 0.328360(15)
Cu3_2 Cu -0.73297(3) 0.70354(2) 0.829530(15)
Cu3_3 Cu 0.26703(3) 0.70354(2) -0.170470(15)
Cu4_2 Cu 0.26269(3) -0.10729(2) 0.828741(15)
Cu4_3 Cu -0.73731(3) 0.89271(2) 0.828741(15)
Cu4_4 Cu 0.26269(3) 0.89271(2) -0.171259(15)
C53? C 0.377(2) 0.4966(17) 0.3058(14)
C54? C 0.385(2) 0.3929(18) 0.3113(15)
C55? C 0.2767(3) 0.3492(2) 0.33225(15)
C56? C 0.174(2) 0.4025(17) 0.3590(14)
C57? C 0.178(2) 0.5011(17) 0.3584(14)
H33? H 0.4455 0.5278 0.2846
H34? H 0.46 0.3586 0.301
H35? H 0.1022 0.3716 0.3772
H36? H 0.1106 0.5371 0.3783
N5? N 0.2830(2) 0.54772(18) 0.32786(12)
loop_
_geom_bond_atom_site_label_1
_geom_bond_atom_site_label_2
_geom_bond_site_symmetry_1
_geom_bond_site_symmetry_2
C1 C9 1_555 1_555
C2 C15 1_555 1_555
C3 C21 1_555 1_555
C4 C18 1_555 1_555
C5 C24 1_555 1_555
C6 C27 1_555 1_555
C7 C12 1_555 1_555
C8 C30 1_555 1_555
C9 C10 1_555 1_555
C10 H1 1_555 1_555
C11 C10 1_555 1_555
H2 C11 1_555 1_555
C12 C11 1_555 1_555
C13 C12 1_555 1_555
H3 C13 1_555 1_555
C14 C9 1_555 1_555
H4 C14 1_555 1_555
C15 C16 1_555 1_555
C16 H5 1_555 1_555
C17 C16 1_555 1_555
H6 C17 1_555 1_555
C18 C17 1_555 1_555
C19 C18 1_555 1_555
H7 C19 1_555 1_555
C20 C15 1_555 1_555
H8 C20 1_555 1_555
C21 C22 1_555 1_555
C22 H9 1_555 1_555
C23 C22 1_555 1_555
H10 C23 1_555 1_555
C24 C23 1_555 1_555
C25 C24 1_555 1_555
H11 C25 1_555 1_555
C26 C21 1_555 1_555
H12 C26 1_555 1_555
C27 C28 1_555 1_555
C28 H13 1_555 1_555
C29 C28 1_555 1_555
H14 C29 1_555 1_555
C30 C29 1_555 1_555
C31 C30 1_555 1_555
H15 C31 1_555 1_555
C32 C27 1_555 1_555
H16 C32 1_555 1_555
C33 H17 1_555 1_555
C34 C33 1_555 1_555
H18 C34 1_555 1_555
C35 C34 1_555 1_555
C36 C35 1_555 1_555
H19 C36 1_555 1_555
C37 C36 1_555 1_555
H20 C37 1_555 1_555
C38 H21 1_555 1_555
C39 C38 1_555 1_555
H22 C39 1_555 1_555
C40 C39 1_555 1_555
C41 C40 1_555 1_555
H23 C41 1_555 1_555
C42 C41 1_555 1_555
H24 C42 1_555 1_555
C43 H25 1_555 1_555
C44 C43 1_555 1_555
H26 C44 1_555 1_555
C45 C40 1_555 1_555
C46 C45 1_555 1_555
H27 C46 1_555 1_555
C47 C46 1_555 1_555
H28 C47 1_555 1_555
N1 C33 1_555 1_555
N2 C38 1_555 1_555
N3 C43 1_555 1_555
O1 C1 1_555 1_555
O2 C1 1_555 1_555
O3 C2 1_555 1_555
O4 C2 1_555 1_555
O5 C3 1_555 1_555
O6 C3 1_555 1_555
O7 C4 1_555 1_555
O8 C4 1_555 1_555
O9 C5 1_555 1_555
O10 C5 1_555 1_555
O11 C6 1_555 1_555
O12 C6 1_555 1_555
O13 C7 1_555 1_555
O14 C7 1_555 1_555
O15 C8 1_555 1_555
O16 C8 1_555 1_555
Cu1 O1 1_555 1_555
Cu2 N1 1_555 1_555
Cu3 N2 1_555 1_555
Cu4 O10 1_555 1_555
N4 Cu1 1_555 1_555
C48 N4 1_555 1_555
H29 C48 1_555 1_555
C49 C48 1_555 1_555
H30 C49 1_555 1_555
C50 C35 1_555 1_555
C51 C50 1_555 1_555
H31 C51 1_555 1_555
C52 N4 1_555 1_555
H32 C52 1_555 1_555
N3_2 Cu4 1_555 1_555
O2_2 Cu2 1_555 1_555
O3_2 Cu1 1_555 1_555
O4_2 Cu2 1_555 1_555
O6_2 Cu2 1_555 1_555
O8_2 Cu2 1_555 1_555
O11_2 Cu3 1_555 1_555
O12_2 Cu4 1_555 1_555
O13_2 Cu3 1_555 1_555
O14_2 Cu4 1_555 1_555
Cu1_2 O3 1_555 1_555
Cu2_2 O2 1_555 1_555
Cu2_3 O4 1_555 1_555
Cu3_2 O11 1_555 1_555
Cu3_3 O13 1_555 1_555
Cu4_2 N3 1_555 1_555
Cu4_3 O12 1_555 1_555
Cu4_4 O14 1_555 1_555
C13 C14 1_555 1_555
C19 C20 1_555 1_555
C25 C26 1_555 1_555
C31 C32 1_555 1_555
C37 N1 1_555 1_555
C42 N2 1_555 1_555
C44 C45 1_555 1_555
C47 N3 1_555 1_555
O5 Cu1 1_555 1_555
O6 Cu2_2 1_555 1_555
O7 Cu1 1_555 1_555
O8 Cu2_2 1_555 1_555
O9 Cu3 1_555 1_555
O15 Cu3 1_555 1_555
O16 Cu4 1_555 1_555
C49 C50 1_555 1_555
C51 C52 1_555 1_555

#END
