
#######################################################################
#
#                 Cambridge Crystallographic Data Centre
#                                CCDC 
#
#######################################################################
#
# If this CIF has been generated from an entry in the Cambridge 
# Structural Database, then it will include bibliographic, chemical, 
# crystal, experimental, refinement or atomic coordinate data resulting 
# from the CCDC's data processing and validation procedures.
#
#######################################################################

data_XITYOP
_chemical_formula_moiety         '(C30 H18 Cu2 O10)n,2n(C3 H7 N1 O1)'
_chemical_name_systematic        
"catena-[(\m~8~-5,5'-(9,10-Anthracenediyl)di-isophthalato)-diaqua-di-copper dimethylformamide solvate]"
_symmetry_cell_setting           rhombohedral
_symmetry_space_group_name_H-M   'R -3 c'
_symmetry_Int_Tables_number      167
_space_group_name_Hall           '-R 3 2"c'
loop_
_symmetry_equiv_pos_site_id
_symmetry_equiv_pos_as_xyz
1 x,y,z
2 -y,x-y,z
3 -x+y,-x,z
4 y,x,1/2-z
5 2/3+x,1/3+y,1/3+z
6 2/3-y,1/3+x-y,1/3+z
7 2/3-x+y,1/3-x,1/3+z
8 2/3+y,1/3+x,5/6-z
9 1/3+x,2/3+y,2/3+z
10 1/3+y,2/3+x,1/6-z
11 x-y,-y,1/2-z
12 -x,-x+y,1/2-z
13 1/3-y,2/3+x-y,2/3+z
14 1/3-x+y,2/3-x,2/3+z
15 1/3+x-y,2/3-y,1/6-z
16 1/3-x,2/3-x+y,1/6-z
17 2/3+x-y,1/3-y,5/6-z
18 2/3-x,1/3-x+y,5/6-z
19 -x,-y,-z
20 y,-x+y,-z
21 x-y,x,-z
22 -y,-x,1/2+z
23 1/3-x,2/3-y,2/3-z
24 1/3+y,2/3-x+y,2/3-z
25 1/3+x-y,2/3+x,2/3-z
26 1/3-y,2/3-x,1/6+z
27 2/3-x,1/3-y,1/3-z
28 2/3-y,1/3-x,5/6+z
29 -x+y,y,1/2+z
30 x,x-y,1/2+z
31 2/3+y,1/3-x+y,1/3-z
32 2/3+x-y,1/3+x,1/3-z
33 2/3-x+y,1/3+y,5/6+z
34 2/3+x,1/3+x-y,5/6+z
35 1/3-x+y,2/3+y,1/6+z
36 1/3+x,2/3+x-y,1/6+z
_cell_length_a                   18.4530(4)
_cell_length_b                   18.4530(4)
_cell_length_c                   76.976(4)
_cell_angle_alpha                90
_cell_angle_beta                 90
_cell_angle_gamma                120
_cell_volume                     22699.7
_exptl_crystal_colour            'blue green'
_exptl_crystal_description       block
_cell_formula_units_Z            18
loop_
_atom_site_label
_atom_site_type_symbol
_atom_site_fract_x
_atom_site_fract_y
_atom_site_fract_z
_atom_site_U_iso_or_equiv
_atom_site_thermal_displace_type
Cu1 Cu 0.13354(2) 0.84812(2) 0.069247(4) 0.0392 Uani
O1 O 0.24483(12) 0.88286(13) 0.06053(2) 0.0525 Uani
O2 O 0.55260(11) 0.85711(12) 0.08527(2) 0.0517 Uani
O3 O 0.28749(12) 0.84696(12) 0.08470(2) 0.0517 Uani
O4 O 0.63651(11) 0.90333(13) 0.06194(2) 0.0552 Uani
C1 C 0.57204(15) 0.88885(17) 0.07044(3) 0.0501 Uani
C2 C 0.46759(16) 0.94892(18) 0.03595(4) 0.0508 Uani
C3 C 0.29686(16) 0.87546(17) 0.06960(3) 0.0468 Uani
C4 C 0.52654(17) 0.93798(18) 0.04487(4) 0.0524 Uani
H1 H 0.5774 0.9504 0.0393 0.0630 Uiso
C5 C 0.43660(17) 0.91771(18) 0.00427(4) 0.0504 Uani
C6 C 0.54493(18) 1.05654(18) 0.01331(4) 0.0490 Uani
C7 C 0.39422(17) 0.93064(17) 0.04421(3) 0.0497 Uani
H2 H 0.3533 0.9378 0.0382 0.0600 Uiso
C8 C 0.37931(16) 0.90172(16) 0.06128(3) 0.0471 Uani
C9 C 0.48297(16) 0.97619(19) 0.01743(4) 0.0486 Uani
O5 O 0.09416(18) 0.8843(2) 0.04659(4) 0.1024 Uani
C10 C 0.43938(16) 0.89132(18) 0.07000(4) 0.0489 Uani
H3 H 0.4299 0.8718 0.0817 0.0590 Uiso
C11 C 0.5918(2) 1.1181(2) 0.02635(4) 0.0617 Uani
H4 H 0.5804 1.1032 0.0383 0.0740 Uiso
C12 C 0.51270(16) 0.90934(18) 0.06172(3) 0.0506 Uani
C13 C 0.37354(18) 0.83488(18) 0.00803(4) 0.0599 Uani
H5 H 0.3613 0.8175 0.0198 0.0720 Uiso
C14 C 0.6512(2) 1.1961(2) 0.02215(4) 0.0690 Uani
H6 H 0.6811 1.2354 0.0311 0.0830 Uiso
C15 C 0.3306(2) 0.7802(2) -0.00463(4) 0.0690 Uani
H7 H 0.2876 0.7252 -0.0018 0.0830 Uiso
Cu1R Cu 0.86646(2) 1.15188(2) -0.069247(4) 0.0392 Uani
Cu1I Cu 0.18145(2) 0.80021(2) 0.097420(4) 0.0392 Uani
Cu1N Cu 0.61875(3) 0.81855(2) 0.097420(4) 0.0392 Uani
Cu1B Cu 0.71458(3) 0.86646(2) 0.069247(4) 0.0392 Uani
Cu1FA Cu 0.38125(3) 1.18145(2) -0.097420(4) 0.0392 Uani
Cu1T Cu 0.28542(3) 1.13354(2) -0.069247(4) 0.0392 Uani
Cu1AA Cu 0.81855(2) 1.19979(2) -0.097420(4) 0.0392 Uani
O1R O 0.75517(12) 1.11714(13) -0.06053(2) 0.0525 Uani
O2R O 0.44740(11) 1.14289(12) -0.08527(2) 0.0517 Uani
O2N O 0.02882(16) 0.80956(12) 0.08140(2) 0.0517 Uani
O2FA O 0.97118(16) 1.19044(12) -0.08140(2) 0.0517 Uani
O3R O 0.71251(12) 1.15304(12) -0.08470(2) 0.0517 Uani
O3I O 0.18029(12) 0.95416(12) 0.08197(2) 0.0517 Uani
O3AA O 0.81971(12) 1.04584(12) -0.08197(2) 0.0517 Uani
O4R O 0.36349(11) 1.09667(13) -0.06194(2) 0.0552 Uani
O4A O 0.09667(13) 0.73318(17) 0.06194(2) 0.0552 Uani
O4S O 0.90333(13) 1.26682(17) -0.06194(2) 0.0552 Uani
C1R C 0.42796(15) 1.11115(17) -0.07044(3) 0.0501 Uani
C2R C 0.53241(16) 1.05108(18) -0.03595(4) 0.0508 Uani
C3R C 0.70314(16) 1.12454(17) -0.06960(3) 0.0468 Uani
C4R C 0.47346(17) 1.06202(18) -0.04487(4) 0.0524 Uani
H1R H 0.4226 1.0496 -0.0393 0.0630 Uiso
C5R C 0.56340(17) 1.08229(18) -0.00427(4) 0.0504 Uani
C6R C 0.45507(18) 0.94346(18) -0.01331(4) 0.0490 Uani
C7R C 0.60578(17) 1.06936(17) -0.04421(3) 0.0497 Uani
H2R H 0.6467 1.0622 -0.0382 0.0600 Uiso
C8R C 0.62069(16) 1.09828(16) -0.06128(3) 0.0471 Uani
C9R C 0.51703(16) 1.02381(19) -0.01743(4) 0.0486 Uani
O5R O 0.90584(18) 1.1157(2) -0.04659(4) 0.1024 Uani
C10R C 0.56062(16) 1.10868(18) -0.07000(4) 0.0489 Uani
H3R H 0.5701 1.1282 -0.0817 0.0590 Uiso
C11R C 0.4082(2) 0.8819(2) -0.02635(4) 0.0617 Uani
H4R H 0.4196 0.8968 -0.0383 0.0740 Uiso
C12R C 0.48730(16) 1.09066(18) -0.06172(3) 0.0506 Uani
C13R C 0.62646(18) 1.16512(18) -0.00803(4) 0.0599 Uani
H5R H 0.6387 1.1825 -0.0198 0.0720 Uiso
C14R C 0.3488(2) 0.8039(2) -0.02215(4) 0.0690 Uani
H6R H 0.3189 0.7646 -0.0311 0.0830 Uiso
C15R C 0.6694(2) 1.2198(2) 0.00463(4) 0.0690 Uani
H7R H 0.7124 1.2748 0.0018 0.0830 Uiso
loop_
_atom_site_aniso_label
_atom_site_aniso_U_11
_atom_site_aniso_U_22
_atom_site_aniso_U_33
_atom_site_aniso_U_23
_atom_site_aniso_U_13
_atom_site_aniso_U_12
Cu1 0.0502(2) 0.0501(3) 0.0300(3) 0.00123(12) -0.00134(12) 0.03454(18)
O1 0.0545(10) 0.0765(13) 0.0411(9) 0.0055(8) 0.0034(7) 0.0437(10)
O2 0.0455(9) 0.0707(11) 0.0405(9) 0.0086(8) 0.0020(7) 0.0303(9)
O3 0.0545(10) 0.0701(11) 0.0403(9) 0.0037(8) 0.0025(7) 0.0385(9)
O4 0.0420(9) 0.0748(12) 0.0500(10) 0.0127(9) 0.0036(7) 0.0301(9)
C1 0.0382(12) 0.0591(15) 0.0482(14) 0.0036(11) -0.0008(10) 0.0208(11)
C2 0.0488(14) 0.0609(16) 0.0469(16) 0.0111(11) 0.0067(10) 0.0305(12)
C3 0.0502(14) 0.0581(14) 0.0435(13) -0.0048(11) 0.0012(10) 0.0356(12)
C4 0.0457(13) 0.0625(16) 0.0531(15) 0.0116(12) 0.0083(11) 0.0301(12)
C5 0.0488(13) 0.0578(15) 0.0543(15) 0.0126(12) 0.0100(11) 0.0339(12)
C6 0.0503 0.0589 0.0481 0.0093 0.0045 0.0351
C7 0.0540(14) 0.0595(15) 0.0459(14) 0.0046(11) 0.0014(11) 0.0362(12)
C8 0.0504(14) 0.0576(14) 0.0423(13) 0.0048(10) 0.0050(10) 0.0338(12)
C9 0.0483(13) 0.0621(16) 0.0473(15) 0.0112(12) 0.0067(10) 0.0366(12)
O5 0.0957(18) 0.130(2) 0.0756(17) 0.0451(16) -0.0183(13) 0.0521(18)
C10 0.0486(13) 0.0567(15) 0.0435(14) 0.0020(11) 0.0012(10) 0.0278(12)
C11 0.0714 0.0656 0.0539 0.0052 0.0031 0.0387
C12 0.0459(13) 0.0626(15) 0.0438(14) 0.0067(11) 0.0022(10) 0.0275(12)
C13 0.0621(16) 0.0540(15) 0.0629(17) 0.0139(13) 0.0077(13) 0.0284(14)
C14 0.079 0.0564 0.067 0.0002 -0.0043 0.0303
C15 0.0731(19) 0.0536(16) 0.077(2) 0.0100(14) 0.0070(16) 0.0293(15)
Cu1R 0.0502 0.0501 0.03 0.00123 -0.00134 0.03454
Cu1I 0.0501 0.0502 0.03 0.00134 -0.00123 0.03454
Cu1N 0.03122 0.0501 0.03 0.00123 0.00257 0.01556
Cu1B 0.03122 0.0502 0.03 0.00134 0.00257 0.01566
Cu1FA 0.03122 0.0501 0.03 0.00123 0.00257 0.01556
Cu1T 0.03122 0.0502 0.03 0.00134 0.00257 0.01566
Cu1AA 0.0501 0.0502 0.03 0.00134 -0.00123 0.03454
O1R 0.0545 0.0765 0.0411 0.0055 0.0034 0.0437
O2R 0.0455 0.0707 0.0405 0.0086 0.002 0.0303
O2N 0.0556 0.0707 0.0405 0.0086 0.0066 0.0404
O2FA 0.0556 0.0707 0.0405 0.0086 0.0066 0.0404
O3R 0.0545 0.0701 0.0403 0.0037 0.0025 0.0385
O3I 0.0701 0.0545 0.0403 -0.0025 -0.0037 0.0385
O3AA 0.0701 0.0545 0.0403 -0.0025 -0.0037 0.0385
O4R 0.042 0.0748 0.05 0.0127 0.0036 0.0301
O4A 0.0748 0.0566 0.05 -0.0091 -0.0127 0.0447
O4S 0.0748 0.0566 0.05 -0.0091 -0.0127 0.0447
C1R 0.0382 0.0591 0.0482 0.0036 -0.0008 0.0208
C2R 0.0488 0.0609 0.0469 0.0111 0.0067 0.0305
C3R 0.0502 0.0581 0.0435 -0.0048 0.0012 0.0356
C4R 0.0457 0.0625 0.0531 0.0116 0.0083 0.0301
C5R 0.0488 0.0578 0.0543 0.0126 0.01 0.0339
C6R 0.0503(13) 0.0589(15) 0.0481(16) 0.0093(11) 0.0045(11) 0.0351(12)
C7R 0.054 0.0595 0.0459 0.0046 0.0014 0.0362
C8R 0.0504 0.0576 0.0423 0.0048 0.005 0.0338
C9R 0.0483 0.0621 0.0473 0.0112 0.0067 0.0366
O5R 0.0957 0.13 0.0756 0.0451 -0.0183 0.0521
C10R 0.0486 0.0567 0.0435 0.002 0.0012 0.0278
C11R 0.0714(18) 0.0656(18) 0.0539(16) 0.0052(13) 0.0031(13) 0.0387(15)
C12R 0.0459 0.0626 0.0438 0.0067 0.0022 0.0275
C13R 0.0621 0.054 0.0629 0.0139 0.0077 0.0284
C14R 0.079(2) 0.0564(17) 0.0670(19) 0.0002(14) -0.0043(15) 0.0303(15)
C15R 0.0731 0.0536 0.077 0.01 0.007 0.0293
loop_
_geom_bond_atom_site_label_1
_geom_bond_atom_site_label_2
_geom_bond_site_symmetry_1
_geom_bond_site_symmetry_2
Cu1 O1 1_555 1_555
O1 C3 1_555 1_555
O2 C1 1_555 1_555
O3 C3 1_555 1_555
O4 C1 1_555 1_555
C1 C12 1_555 1_555
C2 C4 1_555 1_555
C3 C8 1_555 1_555
C4 H1 1_555 1_555
C5 C9 1_555 1_555
C6 C9 1_555 1_555
C7 C2 1_555 1_555
H2 C7 1_555 1_555
C8 C7 1_555 1_555
C9 C2 1_555 1_555
O5 Cu1 1_555 1_555
C10 C8 1_555 1_555
H3 C10 1_555 1_555
C11 C6 1_555 1_555
H4 C11 1_555 1_555
C12 C4 1_555 1_555
C13 C5 1_555 1_555
H5 C13 1_555 1_555
C14 C11 1_555 1_555
H6 C14 1_555 1_555
C15 C13 1_555 1_555
H7 C15 1_555 1_555
Cu1R Cu1AA 1_555 1_555
Cu1I Cu1 1_555 1_555
Cu1N O2 1_555 1_555
Cu1B O4 1_555 1_555
Cu1FA Cu1T 1_555 1_555
Cu1T O4R 1_555 1_555
Cu1AA O3R 1_555 1_555
O1R Cu1R 1_555 1_555
O2R Cu1FA 1_555 1_555
O2N Cu1 1_555 1_555
O2FA Cu1R 1_555 1_555
O3R C3R 1_555 1_555
O3I Cu1 1_555 1_555
O3AA Cu1R 1_555 1_555
O4R C1R 1_555 1_555
O4A Cu1 1_555 1_555
O4S Cu1R 1_555 1_555
C1R O2R 1_555 1_555
C2R C4R 1_555 1_555
C3R O1R 1_555 1_555
C4R H1R 1_555 1_555
C5R C6 1_555 1_555
C6R C5 1_555 1_555
C7R C2R 1_555 1_555
H2R C7R 1_555 1_555
C8R C3R 1_555 1_555
C9R C2R 1_555 1_555
O5R Cu1R 1_555 1_555
C10R C8R 1_555 1_555
H3R C10R 1_555 1_555
C11R C6R 1_555 1_555
H4R C11R 1_555 1_555
C12R C1R 1_555 1_555
C13R C5R 1_555 1_555
H5R C13R 1_555 1_555
C14R C15 1_555 1_555
H6R C14R 1_555 1_555
C15R C14 1_555 1_555
H7R C15R 1_555 1_555
O3 Cu1I 1_555 1_555
C10 C12 1_555 1_555
Cu1N Cu1B 1_555 1_555
C4R C12R 1_555 1_555
C5R C9R 1_555 1_555
C6R C9R 1_555 1_555
C7R C8R 1_555 1_555
C10R C12R 1_555 1_555
C11R C14R 1_555 1_555
C13R C15R 1_555 1_555

#END
