
#######################################################################
#
#                 Cambridge Crystallographic Data Centre
#                                CCDC 
#
#######################################################################
#
# If this CIF has been generated from an entry in the Cambridge 
# Structural Database, then it will include bibliographic, chemical, 
# crystal, experimental, refinement or atomic coordinate data resulting 
# from the CCDC's data processing and validation procedures.
#
#######################################################################

data_TEWFUY
_chemical_formula_moiety         '(C30 H22 Cu1 N4 O10)n,3(H2 O1)'
_chemical_name_systematic        
'catena-(diaqua-(\m~2~-phthalato)-(\m~2~-2-((pyridin-4-yl)methyl)-6-((pyridin-4-yl)methyl)pyrrolo[3,4-f]isoindole-1,3,5,7(2H,6H)-tetrone)-di-copper trihydrate)'
_symmetry_cell_setting           orthorhombic
_symmetry_space_group_name_H-M   'I b c a'
_symmetry_Int_Tables_number      73
_space_group_name_Hall           '-I 2b 2c'
loop_
_symmetry_equiv_pos_site_id
_symmetry_equiv_pos_as_xyz
1 x,y,z
2 1/2-x,-y,1/2+z
3 -x,1/2+y,1/2-z
4 1/2+x,1/2-y,-z
5 1/2+x,1/2+y,1/2+z
6 -x,1/2-y,z
7 1/2-x,y,-z
8 x,-y,1/2-z
9 -x,-y,-z
10 1/2+x,y,1/2-z
11 x,1/2-y,1/2+z
12 1/2-x,1/2+y,z
13 1/2-x,1/2-y,1/2-z
14 x,1/2+y,-z
15 1/2+x,-y,z
16 -x,y,1/2+z
_cell_length_a                   14.9179(19)
_cell_length_b                   16.766(2)
_cell_length_c                   27.650(3)
_cell_angle_alpha                90
_cell_angle_beta                 90
_cell_angle_gamma                90
_cell_volume                     6915.64
_exptl_crystal_colour            blue
_exptl_crystal_description       rodlike
_cell_formula_units_Z            8
loop_
_atom_site_label
_atom_site_type_symbol
_atom_site_fract_x
_atom_site_fract_y
_atom_site_fract_z
_atom_site_U_iso_or_equiv
_atom_site_thermal_displace_type
Cu1 Cu -0.7500 0.2500 0.2500 0.0686 Uani
N1 N -0.7998(4) 0.1493(4) 0.2768(2) 0.0493 Uani
N2 N -0.9386(4) -0.0511(3) 0.38744(18) 0.0427 Uani
C1 C -0.7471(6) 0.0902(5) 0.2935(3) 0.0587 Uani
H1 H -0.6840 0.0974 0.2921 0.0700 Uiso
C2 C -0.7797(5) 0.0190(4) 0.3128(3) 0.0493 Uani
H2 H -0.7396 -0.0214 0.3234 0.0590 Uiso
C3 C -0.8698(5) 0.0086(4) 0.3163(2) 0.0430 Uani
C4 C -0.9249(5) 0.0679(5) 0.2995(2) 0.0470 Uani
H3 H -0.9881 0.0616 0.3013 0.0570 Uiso
C5 C -0.8881(5) 0.1384(4) 0.2796(3) 0.0450 Uani
H4 H -0.9272 0.1789 0.2681 0.0540 Uiso
C6 C -0.9078(5) -0.0661(4) 0.3377(2) 0.0493 Uani
H5 H -0.9588 -0.0848 0.3177 0.0590 Uiso
H6 H -0.8615 -0.1084 0.3378 0.0590 Uiso
C7 C -1.0245(5) -0.0279(5) 0.3998(3) 0.0543 Uani
C8 C -0.8813(6) -0.0513(5) 0.4270(3) 0.0567 Uani
C9 C -0.9359(5) -0.0250(5) 0.4689(2) 0.0520 Uani
C10 C -0.9098(5) -0.0133(5) 0.5168(2) 0.0580 Uani
H7 H -0.8503 -0.0220 0.5278 0.0690 Uiso
C11 C -0.9781(5) 0.0122(5) 0.5468(3) 0.0560 Uani
C12 C -0.5960(5) 0.2260(5) 0.3094(3) 0.0430 Uani
C13 C -0.5450(5) 0.2408(4) 0.3561(2) 0.0430 Uani
C14 C -0.5906(6) 0.2317(5) 0.3993(3) 0.0550 Uani
H8 H -0.6527 0.2194 0.3992 0.0660 Uiso
C15 C -0.5459(6) 0.2406(6) 0.4427(3) 0.0770 Uani
H9 H -0.5770 0.2340 0.4724 0.0930 Uiso
O1 O -0.6720(3) 0.2590(3) 0.30617(18) 0.0530 Uani
O2 O -0.5612(3) 0.1824(3) 0.27838(17) 0.0507 Uani
O3 O -1.0864(4) -0.0229(3) 0.37193(18) 0.0677 Uani
O4 O -0.8026(4) -0.0685(4) 0.42566(19) 0.0673 Uani
O5 O -0.6479(5) 0.1658(4) 0.1928(3) 0.1210 Uani
N1H N -1.2002(4) -0.1493(4) 0.7232(2) 0.0493 Uani
N2H N -1.0614(4) 0.0511(3) 0.61256(18) 0.0427 Uani
C1H C -1.2529(6) -0.0902(5) 0.7065(3) 0.0587 Uani
H1H H -1.3160 -0.0974 0.7079 0.0700 Uiso
C2H C -1.2203(5) -0.0190(4) 0.6872(3) 0.0493 Uani
H2H H -1.2604 0.0214 0.6766 0.0590 Uiso
C3H C -1.1302(5) -0.0086(4) 0.6837(2) 0.0430 Uani
C4H C -1.0751(5) -0.0679(5) 0.7005(2) 0.0470 Uani
H3H H -1.0119 -0.0616 0.6987 0.0570 Uiso
C5H C -1.1119(5) -0.1384(4) 0.7204(3) 0.0450 Uani
H4H H -1.0728 -0.1789 0.7319 0.0540 Uiso
C6H C -1.0922(5) 0.0661(4) 0.6623(2) 0.0493 Uani
H5H H -1.0412 0.0848 0.6823 0.0590 Uiso
H6H H -1.1385 0.1084 0.6622 0.0590 Uiso
C7H C -0.9755(5) 0.0279(5) 0.6002(3) 0.0543 Uani
C8H C -1.1187(6) 0.0513(5) 0.5730(3) 0.0567 Uani
C9H C -1.0641(5) 0.0250(5) 0.5311(2) 0.0520 Uani
C10H C -1.0902(5) 0.0133(5) 0.4832(2) 0.0580 Uani
H7H H -1.1497 0.0220 0.4722 0.0690 Uiso
C11H C -1.0219(5) -0.0122(5) 0.4532(3) 0.0560 Uani
O3H O -0.9136(4) 0.0229(3) 0.62807(18) 0.0677 Uani
O4H O -1.1974(4) 0.0685(4) 0.57434(19) 0.0673 Uani
C12E C -0.4040(5) 0.2740(5) 0.3094(3) 0.0430 Uani
C13E C -0.4550(5) 0.2592(4) 0.3561(2) 0.0430 Uani
C14E C -0.4094(6) 0.2683(5) 0.3993(3) 0.0550 Uani
H8E H -0.3473 0.2806 0.3992 0.0660 Uiso
C15E C -0.4541(6) 0.2594(6) 0.4427(3) 0.0770 Uani
H9E H -0.4230 0.2660 0.4724 0.0930 Uiso
O1E O -0.3280(3) 0.2410(3) 0.30617(18) 0.0530 Uani
O2E O -0.4388(3) 0.3176(3) 0.27838(17) 0.0507 Uani
O5L O -0.8521(5) 0.3342(4) 0.3072(3) 0.1210 Uani
Cu1D Cu -1.2500 -0.2500 0.7500 0.0686 Uani
Cu1E Cu -0.2500 0.2500 0.2500 0.0686 Uani
N1L N -0.7002(4) 0.3507(4) 0.2232(2) 0.0493 Uani
O1L O -0.8280(3) 0.2410(3) 0.19383(18) 0.0530 Uani
O6 O -0.7500 0.1626(12) 0.5000 0.1740 Uani
O7 O -0.6944(12) -0.1949(14) 0.4691(8) 0.2257 Uani
O8 O -0.8222(15) 0.1286(13) 0.4195(7) 0.1890 Uani
loop_
_atom_site_aniso_label
_atom_site_aniso_U_11
_atom_site_aniso_U_22
_atom_site_aniso_U_33
_atom_site_aniso_U_23
_atom_site_aniso_U_13
_atom_site_aniso_U_12
Cu1 0.0488(10) 0.0603(11) 0.0968(13) 0.0364(10) -0.0241(10) -0.0181(10)
N1 0.044(4) 0.047(4) 0.057(4) 0.010(3) -0.011(3) 0.001(3)
N2 0.049(4) 0.047(4) 0.032(3) -0.002(3) -0.003(3) -0.008(3)
C1 0.041(4) 0.068(6) 0.067(5) 0.005(4) -0.008(4) -0.011(5)
C2 0.060(6) 0.039(5) 0.049(4) 0.019(3) -0.008(4) -0.004(4)
C3 0.048(5) 0.045(5) 0.036(4) 0.006(3) -0.005(3) -0.007(4)
C4 0.039(4) 0.060(5) 0.042(4) -0.001(4) 0.001(4) -0.010(4)
C5 0.047(5) 0.040(4) 0.048(5) 0.015(4) -0.002(4) -0.004(4)
C6 0.060(5) 0.057(5) 0.031(4) 0.007(3) 0.000(4) -0.006(4)
C7 0.060(6) 0.058(5) 0.045(5) -0.001(4) -0.002(4) -0.006(4)
C8 0.056(5) 0.069(6) 0.045(4) -0.001(4) -0.001(4) -0.007(5)
C9 0.056(5) 0.063(5) 0.037(4) -0.006(4) 0.007(4) 0.004(4)
C10 0.056(5) 0.079(6) 0.039(4) 0.004(4) -0.009(4) -0.003(5)
C11 0.056(6) 0.076(6) 0.036(4) 0.003(4) -0.006(4) 0.000(5)
C12 0.044(5) 0.048(5) 0.037(4) 0.009(4) 0.004(4) -0.016(4)
C13 0.046(4) 0.042(4) 0.041(4) 0.000(4) 0.002(3) 0.005(4)
C14 0.061(5) 0.064(6) 0.040(4) 0.000(4) 0.001(4) 0.003(5)
C15 0.096(6) 0.078(7) 0.057(5) 0.005(5) 0.012(5) 0.004(7)
O1 0.041(3) 0.050(3) 0.068(3) 0.011(3) -0.007(3) -0.001(3)
O2 0.048(3) 0.061(4) 0.043(3) -0.003(3) 0.005(3) -0.016(3)
O3 0.067(4) 0.090(4) 0.046(3) -0.006(3) -0.014(3) 0.002(3)
O4 0.054(4) 0.092(5) 0.056(3) -0.003(3) -0.003(3) 0.000(3)
O5 0.121(6) 0.096(5) 0.146(7) -0.012(5) -0.015(5) 0.001(5)
N1H 0.044 0.047 0.057 0.01 -0.011 0.001
N2H 0.049 0.047 0.032 -0.002 -0.003 -0.008
C1H 0.041 0.068 0.067 0.005 -0.008 -0.011
C2H 0.06 0.039 0.049 0.019 -0.008 -0.004
C3H 0.048 0.045 0.036 0.006 -0.005 -0.007
C4H 0.039 0.06 0.042 -0.001 0.001 -0.01
C5H 0.047 0.04 0.048 0.015 -0.002 -0.004
C6H 0.06 0.057 0.031 0.007 0 -0.006
C7H 0.06 0.058 0.045 -0.001 -0.002 -0.006
C8H 0.056 0.069 0.045 -0.001 -0.001 -0.007
C9H 0.056 0.063 0.037 -0.006 0.007 0.004
C10H 0.056 0.079 0.039 0.004 -0.009 -0.003
C11H 0.056 0.076 0.036 0.003 -0.006 0
O3H 0.067 0.09 0.046 -0.006 -0.014 0.002
O4H 0.054 0.092 0.056 -0.003 -0.003 0
C12E 0.044 0.048 0.037 -0.009 -0.004 -0.016
C13E 0.046 0.042 0.041 0 -0.002 0.005
C14E 0.061 0.064 0.04 0 -0.001 0.003
C15E 0.096 0.078 0.057 -0.005 -0.012 0.004
O1E 0.041 0.05 0.068 -0.011 0.007 -0.001
O2E 0.048 0.061 0.043 0.003 -0.005 -0.016
O5L 0.121 0.096 0.146 -0.012 -0.015 0.001
Cu1D 0.0488 0.0603 0.0968 0.0364 -0.0241 -0.0181
Cu1E 0.0488 0.0603 0.0968 -0.0364 0.0241 -0.0181
N1L 0.044 0.047 0.057 0.01 -0.011 0.001
O1L 0.041 0.05 0.068 0.011 -0.007 -0.001
O6 0.162(12) 0.187(14) 0.173(13) 0.000 0.049(11) 0.000
O7 0.220(15) 0.222(16) 0.235(17) 0.007(13) -0.067(13) -0.003(13)
O8 0.256(17) 0.177(15) 0.134(13) 0.020(11) 0.010(13) -0.125(13)
loop_
_geom_bond_atom_site_label_1
_geom_bond_atom_site_label_2
_geom_bond_site_symmetry_1
_geom_bond_site_symmetry_2
Cu1 N1 1_555 1_555
N1 C1 1_555 1_555
N2 C6 1_555 1_555
C1 H1 1_555 1_555
C2 C1 1_555 1_555
H2 C2 1_555 1_555
C3 C2 1_555 1_555
C4 C3 1_555 1_555
H3 C4 1_555 1_555
C5 N1 1_555 1_555
H4 C5 1_555 1_555
C6 C3 1_555 1_555
H5 C6 1_555 1_555
H6 C6 1_555 1_555
C7 N2 1_555 1_555
C8 N2 1_555 1_555
C9 C8 1_555 1_555
C10 C9 1_555 1_555
H7 C10 1_555 1_555
C11 C10 1_555 1_555
C12 C13 1_555 1_555
C13 C14 1_555 1_555
C14 H8 1_555 1_555
C15 C14 1_555 1_555
H9 C15 1_555 1_555
O1 Cu1 1_555 1_555
O2 C12 1_555 1_555
O3 C7 1_555 1_555
O4 C8 1_555 1_555
O5 Cu1 1_555 1_555
N1H C1H 1_555 1_555
N2H C6H 1_555 1_555
C1H H1H 1_555 1_555
C2H C1H 1_555 1_555
H2H C2H 1_555 1_555
C3H C2H 1_555 1_555
C4H C3H 1_555 1_555
H3H C4H 1_555 1_555
C5H N1H 1_555 1_555
H4H C5H 1_555 1_555
C6H C3H 1_555 1_555
H5H C6H 1_555 1_555
H6H C6H 1_555 1_555
C7H C11 1_555 1_555
C8H N2H 1_555 1_555
C9H C11 1_555 1_555
C10H C9H 1_555 1_555
H7H C10H 1_555 1_555
C11H C7 1_555 1_555
O3H C7H 1_555 1_555
O4H C8H 1_555 1_555
C12E C13E 1_555 1_555
C13E C13 1_555 1_555
C14E C13E 1_555 1_555
H8E C14E 1_555 1_555
C15E C15 1_555 1_555
H9E C15E 1_555 1_555
O1E C12E 1_555 1_555
O2E C12E 1_555 1_555
O5L Cu1 1_555 1_555
Cu1D N1H 1_555 1_555
Cu1E O1E 1_555 1_555
N1L Cu1 1_555 1_555
O1L Cu1 1_555 1_555
C4 C5 1_555 1_555
C9 C11H 1_555 1_555
C12 O1 1_555 1_555
N2H C7H 1_555 1_555
C4H C5H 1_555 1_555
C8H C9H 1_555 1_555
C10H C11H 1_555 1_555
C14E C15E 1_555 1_555

#END
