
#######################################################################
#
#                 Cambridge Crystallographic Data Centre
#                                CCDC 
#
#######################################################################
#
# If this CIF has been generated from an entry in the Cambridge 
# Structural Database, then it will include bibliographic, chemical, 
# crystal, experimental, refinement or atomic coordinate data resulting 
# from the CCDC's data processing and validation procedures.
#
#######################################################################

data_TEWFOS
_chemical_formula_moiety         '(C30 H22 Cu1 N4 O10)n'
_chemical_name_systematic        
catena-(diaqua-(\m~2~-phthalato)-(\m~2~-2-((pyridin-4-yl)methyl)-6-((pyridin-4-yl)methyl)pyrrolo[3,4-f]isoindole-1,3,5,7(2H,6H)-tetrone)-di-copper)
_symmetry_cell_setting           orthorhombic
_symmetry_space_group_name_H-M   'I b c a'
_symmetry_Int_Tables_number      73
_space_group_name_Hall           '-I 2b 2c'
loop_
_symmetry_equiv_pos_site_id
_symmetry_equiv_pos_as_xyz
1 x,y,z
2 1/2-x,-y,1/2+z
3 -x,1/2+y,1/2-z
4 1/2+x,1/2-y,-z
5 1/2+x,1/2+y,1/2+z
6 -x,1/2-y,z
7 1/2-x,y,-z
8 x,-y,1/2-z
9 -x,-y,-z
10 1/2+x,y,1/2-z
11 x,1/2-y,1/2+z
12 1/2-x,1/2+y,z
13 1/2-x,1/2-y,1/2-z
14 x,1/2+y,-z
15 1/2+x,-y,z
16 -x,y,1/2+z
_cell_length_a                   14.7932(8)
_cell_length_b                   16.7885(7)
_cell_length_c                   27.7725(16)
_cell_angle_alpha                90
_cell_angle_beta                 90
_cell_angle_gamma                90
_cell_volume                     6897.46
_exptl_crystal_colour            blue
_exptl_crystal_description       rodlike
_cell_formula_units_Z            8
loop_
_atom_site_label
_atom_site_type_symbol
_atom_site_fract_x
_atom_site_fract_y
_atom_site_fract_z
_atom_site_U_iso_or_equiv
_atom_site_thermal_displace_type
Cu1 Cu 0.2500 0.2500 0.2500 0.0392 Uani
N1 N 0.4391(2) -0.05077(16) 0.38777(11) 0.0351 Uani
O1 O 0.32461(18) 0.23776(14) 0.19270(10) 0.0431 Uani
O2 O 0.30105(19) -0.06903(16) 0.42549(10) 0.0476 Uani
C1 C 0.3802(3) -0.0515(2) 0.42698(14) 0.0378 Uani
O3 O 0.43497(18) 0.31497(15) 0.22202(10) 0.0453 Uani
N2 N 0.3012(2) 0.14826(16) 0.27694(11) 0.0359 Uani
O4 O 0.58824(19) -0.01866(16) 0.37253(10) 0.0493 Uani
C2 C 0.4028(3) 0.2718(2) 0.19074(15) 0.0375 Uani
C3 C 0.3895(3) 0.1378(2) 0.28023(14) 0.0372 Uani
H1 H 0.4284 0.1789 0.2691 0.0450 Uiso
C4 C 0.4086(3) 0.2649(2) 0.10087(15) 0.0460 Uani
H2 H 0.3453 0.2747 0.1008 0.0550 Uiso
C5 C 0.4538(3) 0.25805(19) 0.14428(13) 0.0354 Uani
C6 C 0.4280(3) 0.0691(2) 0.29938(13) 0.0366 Uani
H3 H 0.4918 0.0635 0.3011 0.0440 Uiso
C7 C 0.4095(3) -0.0160(2) 0.51655(14) 0.0397 Uani
H4 H 0.3498 -0.0261 0.5274 0.0470 Uiso
C8 C 0.5257(3) -0.0258(2) 0.40031(14) 0.0387 Uani
C9 C 0.4352(3) -0.0263(2) 0.46926(14) 0.0380 Uani
C10 C 0.4107(3) -0.06619(19) 0.33845(13) 0.0361 Uani
H5 H 0.3644 -0.1087 0.3382 0.0430 Uiso
H6 H 0.4631 -0.0848 0.3193 0.0430 Uiso
C11 C 0.2805(3) 0.0202(2) 0.31271(14) 0.0387 Uani
H7 H 0.2403 -0.0198 0.3239 0.0460 Uiso
C12 C 0.3719(3) 0.00902(19) 0.31585(12) 0.0328 Uani
C13 C 0.4773(3) 0.0103(2) 0.54702(14) 0.0380 Uani
C14 C 0.2471(3) 0.0897(2) 0.29325(14) 0.0400 Uani
H8 H 0.1834 0.0965 0.2912 0.0480 Uiso
C15 C 0.4538(3) 0.2576(3) 0.05792(16) 0.0590 Uani
H9 H 0.4221 0.2629 0.0283 0.0710 Uiso
O5 O 0.1503(7) 0.1657(6) 0.1965(4) 0.1233 Uani
N1H N 0.5609(2) 0.05077(16) 0.61223(11) 0.0351 Uani
O2H O 0.69895(19) 0.06903(16) 0.57451(10) 0.0476 Uani
C1H C 0.6198(3) 0.0515(2) 0.57302(14) 0.0378 Uani
N2H N 0.6988(2) -0.14826(16) 0.72306(11) 0.0359 Uani
O4H O 0.41176(19) 0.01866(16) 0.62747(10) 0.0493 Uani
C3H C 0.6105(3) -0.1378(2) 0.71977(14) 0.0372 Uani
H1H H 0.5716 -0.1789 0.7309 0.0450 Uiso
C6H C 0.5720(3) -0.0691(2) 0.70062(13) 0.0366 Uani
H3H H 0.5082 -0.0635 0.6989 0.0440 Uiso
C7H C 0.5905(3) 0.0160(2) 0.48345(14) 0.0397 Uani
H4H H 0.6502 0.0261 0.4726 0.0470 Uiso
C8H C 0.4743(3) 0.0258(2) 0.59969(14) 0.0387 Uani
C9H C 0.5648(3) 0.0263(2) 0.53074(14) 0.0380 Uani
C10H C 0.5893(3) 0.06619(19) 0.66155(13) 0.0361 Uani
H5H H 0.6356 0.1087 0.6618 0.0430 Uiso
H6H H 0.5369 0.0848 0.6807 0.0430 Uiso
C11H C 0.7195(3) -0.0202(2) 0.68729(14) 0.0387 Uani
H7H H 0.7597 0.0198 0.6761 0.0460 Uiso
C12H C 0.6281(3) -0.00902(19) 0.68415(12) 0.0328 Uani
C13H C 0.5227(3) -0.0103(2) 0.45298(14) 0.0380 Uani
C14H C 0.7529(3) -0.0897(2) 0.70675(14) 0.0400 Uani
H8H H 0.8166 -0.0965 0.7088 0.0480 Uiso
O1E O 0.67539(18) 0.26224(14) 0.19270(10) 0.0431 Uani
O3E O 0.56503(18) 0.18503(15) 0.22202(10) 0.0453 Uani
C2E C 0.5972(3) 0.2282(2) 0.19074(15) 0.0375 Uani
C4E C 0.5914(3) 0.2351(2) 0.10087(15) 0.0460 Uani
H2E H 0.6547 0.2253 0.1008 0.0550 Uiso
C5E C 0.5462(3) 0.24195(19) 0.14428(13) 0.0354 Uani
C15E C 0.5462(3) 0.2424(3) 0.05792(16) 0.0590 Uani
H9E H 0.5779 0.2371 0.0283 0.0710 Uiso
O5L O 0.3497(7) 0.3343(6) 0.3035(4) 0.1233 Uani
Cu1D Cu 0.7500 -0.2500 0.7500 0.0392 Uani
Cu1E Cu 0.7500 0.2500 0.2500 0.0392 Uani
O1L O 0.17539(18) 0.26224(14) 0.30730(10) 0.0431 Uani
N2L N 0.1988(2) 0.35174(16) 0.22306(11) 0.0359 Uani
loop_
_atom_site_aniso_label
_atom_site_aniso_U_11
_atom_site_aniso_U_22
_atom_site_aniso_U_33
_atom_site_aniso_U_23
_atom_site_aniso_U_13
_atom_site_aniso_U_12
Cu1 0.0367(4) 0.0264(4) 0.0544(5) 0.0102(3) 0.0042(4) 0.0044(3)
N1 0.0435(18) 0.0330(15) 0.0288(17) 0.0012(13) -0.0010(15) 0.0026(14)
O1 0.0460(17) 0.0331(13) 0.0503(17) 0.0055(12) 0.0037(14) 0.0074(12)
O2 0.0436(18) 0.0601(17) 0.0392(16) -0.0019(13) -0.0010(13) -0.0036(14)
C1 0.044(2) 0.0343(19) 0.035(2) 0.0045(16) 0.0007(19) 0.0027(18)
O3 0.0541(18) 0.0414(14) 0.0405(17) -0.0068(13) -0.0055(14) 0.0128(13)
N2 0.0387(19) 0.0285(15) 0.0406(19) 0.0033(14) 0.0000(15) 0.0056(13)
O4 0.0470(17) 0.0656(18) 0.0352(16) -0.0008(13) 0.0071(14) -0.0006(14)
C2 0.046(2) 0.0276(18) 0.039(2) 0.0050(16) -0.0056(19) 0.0113(17)
C3 0.041(2) 0.0315(18) 0.039(2) 0.0045(16) 0.0028(19) -0.0007(16)
C4 0.054(3) 0.043(2) 0.041(3) 0.0035(18) -0.006(2) -0.0011(19)
C5 0.048(2) 0.0233(16) 0.035(2) 0.0008(15) -0.0010(17) -0.0021(16)
C6 0.037(2) 0.0367(19) 0.036(2) 0.0037(16) 0.0006(18) 0.0053(17)
C7 0.037(2) 0.047(2) 0.035(2) 0.0026(16) 0.0018(17) -0.0002(17)
C8 0.043(2) 0.0381(19) 0.035(2) 0.0030(17) -0.0005(19) 0.0053(17)
C9 0.043(2) 0.0381(18) 0.033(2) 0.0031(16) -0.0037(18) 0.0009(17)
C10 0.049(2) 0.0282(17) 0.031(2) 0.0020(15) -0.0025(18) 0.0063(16)
C11 0.046(2) 0.0251(18) 0.045(2) 0.0048(16) 0.0053(19) 0.0020(15)
C12 0.045(2) 0.0276(17) 0.0258(18) -0.0036(15) 0.0012(16) 0.0080(16)
C13 0.041(2) 0.040(2) 0.033(2) 0.0045(16) 0.0023(17) 0.0013(17)
C14 0.037(2) 0.0331(18) 0.050(2) 0.0028(17) 0.002(2) 0.0028(18)
C15 0.080(3) 0.061(3) 0.036(2) 0.003(2) -0.007(2) -0.009(3)
O5 0.118(8) 0.107(6) 0.145(9) -0.002(6) 0.016(6) -0.005(5)
N1H 0.0435 0.033 0.0288 0.0012 -0.001 0.0026
O2H 0.0436 0.0601 0.0392 -0.0019 -0.001 -0.0036
C1H 0.044 0.0343 0.035 0.0045 0.0007 0.0027
N2H 0.0387 0.0285 0.0406 0.0033 0 0.0056
O4H 0.047 0.0656 0.0352 -0.0008 0.0071 -0.0006
C3H 0.041 0.0315 0.039 0.0045 0.0028 -0.0007
C6H 0.037 0.0367 0.036 0.0037 0.0006 0.0053
C7H 0.037 0.047 0.035 0.0026 0.0018 -0.0002
C8H 0.043 0.0381 0.035 0.003 -0.0005 0.0053
C9H 0.043 0.0381 0.033 0.0031 -0.0037 0.0009
C10H 0.049 0.0282 0.031 0.002 -0.0025 0.0063
C11H 0.046 0.0251 0.045 0.0048 0.0053 0.002
C12H 0.045 0.0276 0.0258 -0.0036 0.0012 0.008
C13H 0.041 0.04 0.033 0.0045 0.0023 0.0013
C14H 0.037 0.0331 0.05 0.0028 0.002 0.0028
O1E 0.046 0.0331 0.0503 -0.0055 -0.0037 0.0074
O3E 0.0541 0.0414 0.0405 0.0068 0.0055 0.0128
C2E 0.046 0.0276 0.039 -0.005 0.0056 0.0113
C4E 0.054 0.043 0.041 -0.0035 0.006 -0.0011
C5E 0.048 0.0233 0.035 -0.0008 0.001 -0.0021
C15E 0.08 0.061 0.036 -0.003 0.007 -0.009
O5L 0.118 0.107 0.145 -0.002 0.016 -0.005
Cu1D 0.0367 0.0264 0.0544 0.0102 0.0042 0.0044
Cu1E 0.0367 0.0264 0.0544 -0.0102 -0.0042 0.0044
O1L 0.046 0.0331 0.0503 0.0055 0.0037 0.0074
N2L 0.0387 0.0285 0.0406 0.0033 0 0.0056
loop_
_geom_bond_atom_site_label_1
_geom_bond_atom_site_label_2
_geom_bond_site_symmetry_1
_geom_bond_site_symmetry_2
Cu1 O1 1_555 1_555
N1 C1 1_555 1_555
O1 C2 1_555 1_555
O2 C1 1_555 1_555
C1 C9 1_555 1_555
O3 C2 1_555 1_555
N2 Cu1 1_555 1_555
O4 C8 1_555 1_555
C2 C5 1_555 1_555
C3 N2 1_555 1_555
H1 C3 1_555 1_555
C4 H2 1_555 1_555
C5 C4 1_555 1_555
C6 C3 1_555 1_555
H3 C6 1_555 1_555
C7 H4 1_555 1_555
C8 N1 1_555 1_555
C9 C7 1_555 1_555
C10 N1 1_555 1_555
H5 C10 1_555 1_555
H6 C10 1_555 1_555
C11 H7 1_555 1_555
C12 C6 1_555 1_555
C13 C7 1_555 1_555
C14 N2 1_555 1_555
H8 C14 1_555 1_555
C15 C4 1_555 1_555
H9 C15 1_555 1_555
O5 Cu1 1_555 1_555
N1H C1H 1_555 1_555
O2H C1H 1_555 1_555
C1H C9H 1_555 1_555
N2H C3H 1_555 1_555
O4H C8H 1_555 1_555
C3H H1H 1_555 1_555
C6H C3H 1_555 1_555
H3H C6H 1_555 1_555
C7H H4H 1_555 1_555
C8H C13 1_555 1_555
C9H C13 1_555 1_555
C10H N1H 1_555 1_555
H5H C10H 1_555 1_555
H6H C10H 1_555 1_555
C11H H7H 1_555 1_555
C12H C6H 1_555 1_555
C13H C8 1_555 1_555
C14H N2H 1_555 1_555
H8H C14H 1_555 1_555
O1E C2E 1_555 1_555
O3E C2E 1_555 1_555
C2E C5E 1_555 1_555
C4E H2E 1_555 1_555
C5E C5 1_555 1_555
C15E C15 1_555 1_555
H9E C15E 1_555 1_555
O5L Cu1 1_555 1_555
Cu1D N2H 1_555 1_555
Cu1E O1E 1_555 1_555
O1L Cu1 1_555 1_555
N2L Cu1 1_555 1_555
C9 C13H 1_555 1_555
C10 C12 1_555 1_555
C11 C12 1_555 1_555
C11 C14 1_555 1_555
N1H C8H 1_555 1_555
C7H C9H 1_555 1_555
C7H C13H 1_555 1_555
C10H C12H 1_555 1_555
C11H C12H 1_555 1_555
C11H C14H 1_555 1_555
C4E C5E 1_555 1_555
C4E C15E 1_555 1_555

#END
