
#######################################################################
#
#                 Cambridge Crystallographic Data Centre
#                                CCDC 
#
#######################################################################
#
# If this CIF has been generated from an entry in the Cambridge 
# Structural Database, then it will include bibliographic, chemical, 
# crystal, experimental, refinement or atomic coordinate data resulting 
# from the CCDC's data processing and validation procedures.
#
#######################################################################

data_TEWGEJ01
_chemical_formula_moiety         '(C32 H26 Cu1 N4 O10)n,1.5n(H2 O1)'
_chemical_name_systematic        
'catena-[(\m~2~-2,6-Bis(pyridin-4-ylmethyl)pyrrolo[3,4-f]isoindole-1,3,5,7(2H,6H)-tetrone)-(\m~2~-phthalato)-dimethanol-copper(ii) sesquihydrate]'
_symmetry_cell_setting           orthorhombic
_symmetry_space_group_name_H-M   'I b c a'
_symmetry_Int_Tables_number      73
_space_group_name_Hall           '-I 2b 2c'
loop_
_symmetry_equiv_pos_site_id
_symmetry_equiv_pos_as_xyz
1 x,y,z
2 1/2-x,-y,1/2+z
3 -x,1/2+y,1/2-z
4 1/2+x,1/2-y,-z
5 1/2+x,1/2+y,1/2+z
6 -x,1/2-y,z
7 1/2-x,y,-z
8 x,-y,1/2-z
9 -x,-y,-z
10 1/2+x,y,1/2-z
11 x,1/2-y,1/2+z
12 1/2-x,1/2+y,z
13 1/2-x,1/2-y,1/2-z
14 x,1/2+y,-z
15 1/2+x,-y,z
16 -x,y,1/2+z
_cell_length_a                   15.3107(15)
_cell_length_b                   16.7284(19)
_cell_length_c                   27.412(5)
_cell_angle_alpha                90
_cell_angle_beta                 90
_cell_angle_gamma                90
_cell_volume                     7020.86
_exptl_crystal_colour            blue
_exptl_crystal_description       rodlike
_cell_formula_units_Z            8
loop_
_atom_site_label
_atom_site_type_symbol
_atom_site_fract_x
_atom_site_fract_y
_atom_site_fract_z
_atom_site_U_iso_or_equiv
_atom_site_thermal_displace_type
Cu1 Cu 0.7500 0.2500 0.2500 0.0305 Uani
N1 N 0.7990(2) 0.3517(2) 0.22237(14) 0.0301 Uani
N2 N 0.9347(2) 0.5537(2) 0.11236(14) 0.0310 Uani
C1 C 0.7460(3) 0.4110(3) 0.20627(18) 0.0347 Uani
H1 H 0.6846 0.4037 0.2083 0.0410 Uiso
C2 C 0.7775(3) 0.4817(3) 0.18708(18) 0.0323 Uani
H2 H 0.7381 0.5217 0.1761 0.0390 Uiso
C3 C 0.8668(3) 0.4939(3) 0.18398(16) 0.0297 Uani
C4 C 0.9219(3) 0.4333(3) 0.20082(17) 0.0313 Uani
H3 H 0.9835 0.4397 0.1995 0.0380 Uiso
C5 C 0.8861(3) 0.3643(3) 0.21936(17) 0.0313 Uani
H4 H 0.9243 0.3235 0.2306 0.0380 Uiso
C6 C 0.9037(3) 0.5694(3) 0.16191(17) 0.0320 Uani
H5 H 0.8581 0.6113 0.1611 0.0380 Uiso
H6 H 0.9527 0.5891 0.1822 0.0380 Uiso
C7 C 0.8800(3) 0.5526(3) 0.07184(18) 0.0357 Uani
C8 C 1.0198(3) 0.5295(3) 0.10091(18) 0.0340 Uani
C9 C 0.9357(3) 0.5263(3) 0.02991(17) 0.0340 Uani
C10 C 0.9130(3) 0.5144(3) -0.01836(18) 0.0350 Uani
H7 H 0.8558 0.5238 -0.0305 0.0420 Uiso
C11 C 0.9804(3) 0.4877(3) -0.04742(17) 0.0337 Uani
C12 C 0.9082(3) 0.2239(3) 0.30851(17) 0.0267 Uani
C13 C 0.9555(3) 0.2393(2) 0.35546(16) 0.0270 Uani
C14 C 0.9125(3) 0.2305(3) 0.39967(18) 0.0367 Uani
H8 H 0.8521 0.2175 0.3999 0.0440 Uiso
C15 C 0.9560(3) 0.2404(3) 0.44337(18) 0.0433 Uani
H9 H 0.9257 0.2340 0.4734 0.0520 Uiso
C16 C 0.6329(6) 0.3158(5) 0.3497(3) 0.0920 Uani
H10 H 0.6855 0.3069 0.3693 0.1380 Uiso
H11 H 0.5973 0.2670 0.3495 0.1380 Uiso
H12 H 0.5989 0.3597 0.3638 0.1380 Uiso
O1 O 0.8029(2) 0.5695(2) 0.07202(13) 0.0433 Uani
O2 O 1.0789(2) 0.5234(2) 0.12987(13) 0.0422 Uani
O3 O 0.83240(18) 0.25555(17) 0.30490(12) 0.0303 Uani
O4 O 0.94361(19) 0.17978(18) 0.27732(12) 0.0329 Uani
O5 O 0.6570(2) 0.3354(2) 0.30168(15) 0.0540 Uani
H13 H 0.6594 0.2935 0.2848 0.0810 Uiso
N1H N 1.2010(2) 0.6483(2) -0.22237(14) 0.0301 Uani
N2H N 1.0653(2) 0.4463(2) -0.11236(14) 0.0310 Uani
C1H C 1.2540(3) 0.5890(3) -0.20627(18) 0.0347 Uani
H1H H 1.3154 0.5963 -0.2083 0.0410 Uiso
C2H C 1.2225(3) 0.5183(3) -0.18708(18) 0.0323 Uani
H2H H 1.2619 0.4783 -0.1761 0.0390 Uiso
C3H C 1.1332(3) 0.5061(3) -0.18398(16) 0.0297 Uani
C4H C 1.0781(3) 0.5667(3) -0.20082(17) 0.0313 Uani
H3H H 1.0165 0.5603 -0.1995 0.0380 Uiso
C5H C 1.1139(3) 0.6357(3) -0.21936(17) 0.0313 Uani
H4H H 1.0757 0.6765 -0.2306 0.0380 Uiso
C6H C 1.0963(3) 0.4306(3) -0.16191(17) 0.0320 Uani
H5H H 1.1419 0.3887 -0.1611 0.0380 Uiso
H6H H 1.0473 0.4109 -0.1822 0.0380 Uiso
C7H C 1.1200(3) 0.4474(3) -0.07184(18) 0.0357 Uani
C8H C 0.9802(3) 0.4705(3) -0.10091(18) 0.0340 Uani
C9H C 1.0643(3) 0.4737(3) -0.02991(17) 0.0340 Uani
C10H C 1.0870(3) 0.4856(3) 0.01836(18) 0.0350 Uani
H7H H 1.1442 0.4762 0.0305 0.0420 Uiso
C11H C 1.0196(3) 0.5123(3) 0.04742(17) 0.0337 Uani
O1H O 1.1971(2) 0.4305(2) -0.07202(13) 0.0433 Uani
O2H O 0.9211(2) 0.4766(2) -0.12987(13) 0.0422 Uani
C12E C 1.0918(3) 0.2761(3) 0.30851(17) 0.0267 Uani
C13E C 1.0445(3) 0.2607(2) 0.35546(16) 0.0270 Uani
C14E C 1.0875(3) 0.2695(3) 0.39967(18) 0.0367 Uani
H8E H 1.1479 0.2825 0.3999 0.0440 Uiso
C15E C 1.0440(3) 0.2596(3) 0.44337(18) 0.0433 Uani
H9E H 1.0743 0.2660 0.4734 0.0520 Uiso
O3E O 1.16760(18) 0.24445(17) 0.30490(12) 0.0303 Uani
O4E O 1.05639(19) 0.32022(18) 0.27732(12) 0.0329 Uani
C16L C 0.8671(6) 0.1842(5) 0.1503(3) 0.0920 Uani
H10L H 0.8145 0.1931 0.1307 0.1380 Uiso
H11L H 0.9027 0.2330 0.1505 0.1380 Uiso
H12L H 0.9011 0.1403 0.1362 0.1380 Uiso
O5L O 0.8430(2) 0.1646(2) 0.19832(15) 0.0540 Uani
H13L H 0.8406 0.2065 0.2152 0.0810 Uiso
Cu1D Cu 1.2500 0.7500 -0.2500 0.0305 Uani
Cu1E Cu 1.2500 0.2500 0.2500 0.0305 Uani
N1L N 0.7010(2) 0.1483(2) 0.27763(14) 0.0301 Uani
O3L O 0.66760(18) 0.24445(17) 0.19510(12) 0.0303 Uani
O6 O 0.7501(6) 0.1653(11) 0.5000(3) 0.2133 Uani
O7 O 0.8168(9) 0.3823(9) 0.0841(3) 0.2513 Uani
loop_
_atom_site_aniso_label
_atom_site_aniso_U_11
_atom_site_aniso_U_22
_atom_site_aniso_U_33
_atom_site_aniso_U_23
_atom_site_aniso_U_13
_atom_site_aniso_U_12
Cu1 0.0218(5) 0.0232(5) 0.0466(6) 0.0073(4) -0.0043(4) -0.0039(4)
N1 0.0253(19) 0.027(2) 0.038(2) -0.0013(16) -0.0031(16) -0.0011(16)
N2 0.034(2) 0.0260(19) 0.033(2) 0.0024(16) 0.0031(17) -0.0026(16)
C1 0.025(2) 0.029(2) 0.050(3) 0.002(2) -0.006(2) -0.001(2)
C2 0.031(2) 0.018(2) 0.048(3) 0.007(2) -0.006(2) -0.0011(18)
C3 0.034(2) 0.024(2) 0.031(2) -0.0016(19) -0.0011(19) -0.0031(19)
C4 0.026(2) 0.030(2) 0.038(3) 0.002(2) -0.001(2) -0.0043(19)
C5 0.027(2) 0.031(2) 0.036(3) 0.004(2) -0.0056(19) -0.001(2)
C6 0.041(3) 0.020(2) 0.035(2) 0.0025(19) 0.004(2) -0.0074(19)
C7 0.040(3) 0.029(2) 0.038(3) 0.005(2) 0.001(2) -0.004(2)
C8 0.039(3) 0.025(2) 0.038(3) 0.001(2) 0.004(2) -0.001(2)
C9 0.035(3) 0.029(2) 0.038(3) 0.001(2) 0.003(2) 0.000(2)
C10 0.032(3) 0.034(3) 0.039(3) 0.002(2) -0.001(2) 0.002(2)
C11 0.040(3) 0.028(3) 0.033(3) 0.004(2) -0.004(2) -0.001(2)
C12 0.022(2) 0.017(2) 0.041(3) 0.0006(19) 0.0008(19) -0.0041(17)
C13 0.024(2) 0.020(2) 0.037(2) 0.0025(19) -0.0007(19) 0.0029(17)
C14 0.029(2) 0.036(3) 0.045(3) 0.003(2) 0.007(2) 0.001(2)
C15 0.042(3) 0.051(3) 0.037(3) 0.002(2) 0.002(2) 0.004(2)
C16 0.101(6) 0.089(6) 0.086(6) 0.004(5) 0.013(5) 0.002(5)
O1 0.035(2) 0.049(2) 0.046(2) 0.0002(17) 0.0009(15) 0.0053(16)
O2 0.0386(19) 0.049(2) 0.0391(19) -0.0019(16) -0.0049(16) 0.0041(17)
O3 0.0231(15) 0.0215(15) 0.0464(18) 0.0014(14) 0.0006(13) -0.0004(12)
O4 0.0284(17) 0.0285(17) 0.0417(19) -0.0032(14) 0.0002(14) -0.0008(14)
O5 0.052(2) 0.047(2) 0.063(3) -0.0002(19) -0.001(2) 0.0006(19)
N1H 0.0253 0.027 0.038 -0.0013 -0.0031 -0.0011
N2H 0.034 0.026 0.033 0.0024 0.0031 -0.0026
C1H 0.025 0.029 0.05 0.002 -0.006 -0.001
C2H 0.031 0.018 0.048 0.007 -0.006 -0.0011
C3H 0.034 0.024 0.031 -0.0016 -0.0011 -0.0031
C4H 0.026 0.03 0.038 0.002 -0.001 -0.0043
C5H 0.027 0.031 0.036 0.004 -0.0056 -0.001
C6H 0.041 0.02 0.035 0.0025 0.004 -0.0074
C7H 0.04 0.029 0.038 0.005 0.001 -0.004
C8H 0.039 0.025 0.038 0.001 0.004 -0.001
C9H 0.035 0.029 0.038 0.001 0.003 0
C10H 0.032 0.034 0.039 0.002 -0.001 0.002
C11H 0.04 0.028 0.033 0.004 -0.004 -0.001
O1H 0.035 0.049 0.046 0.0002 0.0009 0.0053
O2H 0.0386 0.049 0.0391 -0.0019 -0.0049 0.0041
C12E 0.022 0.017 0.041 -0.0006 -0.0008 -0.0041
C13E 0.024 0.02 0.037 -0.0025 0.0007 0.0029
C14E 0.029 0.036 0.045 -0.003 -0.007 0.001
C15E 0.042 0.051 0.037 -0.002 -0.002 0.004
O3E 0.0231 0.0215 0.0464 -0.0014 -0.0006 -0.0004
O4E 0.0284 0.0285 0.0417 0.0032 -0.0002 -0.0008
C16L 0.101 0.089 0.086 0.004 0.013 0.002
O5L 0.052 0.047 0.063 -0.0002 -0.001 0.0006
Cu1D 0.0218 0.0232 0.0466 0.0073 -0.0043 -0.0039
Cu1E 0.0218 0.0232 0.0466 -0.0073 0.0043 -0.0039
N1L 0.0253 0.027 0.038 -0.0013 -0.0031 -0.0011
O3L 0.0231 0.0215 0.0464 0.0014 0.0006 -0.0004
O6 0.21(2) 0.21(2) 0.22(2) 0.000 0.010(16) 0.000
O7 0.298(19) 0.224(18) 0.232(18) 0.013(15) -0.011(16) -0.034(15)
loop_
_geom_bond_atom_site_label_1
_geom_bond_atom_site_label_2
_geom_bond_site_symmetry_1
_geom_bond_site_symmetry_2
Cu1 N1 1_555 1_555
N1 C1 1_555 1_555
N2 C6 1_555 1_555
C1 H1 1_555 1_555
C2 C1 1_555 1_555
H2 C2 1_555 1_555
C3 C2 1_555 1_555
C4 C3 1_555 1_555
H3 C4 1_555 1_555
C5 N1 1_555 1_555
H4 C5 1_555 1_555
C6 C3 1_555 1_555
H5 C6 1_555 1_555
H6 C6 1_555 1_555
C7 N2 1_555 1_555
C8 N2 1_555 1_555
C9 C7 1_555 1_555
C10 C9 1_555 1_555
H7 C10 1_555 1_555
C11 C10 1_555 1_555
C12 C13 1_555 1_555
C13 C14 1_555 1_555
C14 H8 1_555 1_555
C15 C14 1_555 1_555
H9 C15 1_555 1_555
C16 H10 1_555 1_555
H11 C16 1_555 1_555
H12 C16 1_555 1_555
O1 C7 1_555 1_555
O2 C8 1_555 1_555
O3 Cu1 1_555 1_555
O4 C12 1_555 1_555
O5 Cu1 1_555 1_555
H13 O5 1_555 1_555
N1H C1H 1_555 1_555
N2H C6H 1_555 1_555
C1H H1H 1_555 1_555
C2H C1H 1_555 1_555
H2H C2H 1_555 1_555
C3H C2H 1_555 1_555
C4H C3H 1_555 1_555
H3H C4H 1_555 1_555
C5H N1H 1_555 1_555
H4H C5H 1_555 1_555
C6H C3H 1_555 1_555
H5H C6H 1_555 1_555
H6H C6H 1_555 1_555
C7H N2H 1_555 1_555
C8H C11 1_555 1_555
C9H C11 1_555 1_555
C10H C9H 1_555 1_555
H7H C10H 1_555 1_555
C11H C8 1_555 1_555
O1H C7H 1_555 1_555
O2H C8H 1_555 1_555
C12E C13E 1_555 1_555
C13E C13 1_555 1_555
C14E C13E 1_555 1_555
H8E C14E 1_555 1_555
C15E C15 1_555 1_555
H9E C15E 1_555 1_555
O3E C12E 1_555 1_555
O4E C12E 1_555 1_555
C16L H10L 1_555 1_555
H11L C16L 1_555 1_555
H12L C16L 1_555 1_555
O5L Cu1 1_555 1_555
H13L O5L 1_555 1_555
Cu1D N1H 1_555 1_555
Cu1E O3E 1_555 1_555
N1L Cu1 1_555 1_555
O3L Cu1 1_555 1_555
C4 C5 1_555 1_555
C9 C11H 1_555 1_555
C12 O3 1_555 1_555
C16 O5 1_555 1_555
N2H C8H 1_555 1_555
C4H C5H 1_555 1_555
C7H C9H 1_555 1_555
C10H C11H 1_555 1_555
C14E C15E 1_555 1_555
C16L O5L 1_555 1_555

#END
