
#######################################################################
#
#                 Cambridge Crystallographic Data Centre
#                                CCDC 
#
#######################################################################
#
# If this CIF has been generated from an entry in the Cambridge 
# Structural Database, then it will include bibliographic, chemical, 
# crystal, experimental, refinement or atomic coordinate data resulting 
# from the CCDC's data processing and validation procedures.
#
#######################################################################

data_LELMEW
_chemical_formula_moiety         '(C18 H32 Cu3 N3 O14 1+)n,n(N1 O3 1-)'
_chemical_name_systematic        
'catena-((\m~6~-Benzene-1,3,5-tricarboxylato)-(\m~3~-cyano)-(\m~2~-1,4-diazabicyclo[2.2.2]octane)-octa-aqua-tri-copper nitrate)'
_symmetry_cell_setting           cubic
_symmetry_space_group_name_H-M   'F m -3 m'
_symmetry_Int_Tables_number      225
_space_group_name_Hall           '-F 4 2 3'
loop_
_symmetry_equiv_pos_site_id
_symmetry_equiv_pos_as_xyz
1 x,y,z
2 -x,-y,z
3 -x,y,-z
4 x,-y,-z
5 z,x,y
6 z,-x,-y
7 -z,-x,y
8 -z,x,-y
9 y,z,x
10 -y,z,-x
11 y,-z,-x
12 -y,-z,x
13 y,x,-z
14 -y,-x,-z
15 y,-x,z
16 -y,x,z
17 x,z,-y
18 -x,z,y
19 -x,-z,-y
20 x,-z,y
21 z,y,-x
22 z,-y,x
23 -z,y,x
24 -z,-y,-x
25 x,1/2+y,1/2+z
26 -x,1/2-y,1/2+z
27 -x,1/2+y,1/2-z
28 x,1/2-y,1/2-z
29 z,1/2+x,1/2+y
30 z,1/2-x,1/2-y
31 -z,1/2-x,1/2+y
32 -z,1/2+x,1/2-y
33 y,1/2+z,1/2+x
34 -y,1/2+z,1/2-x
35 y,1/2-z,1/2-x
36 -y,1/2-z,1/2+x
37 y,1/2+x,1/2-z
38 -y,1/2-x,1/2-z
39 y,1/2-x,1/2+z
40 -y,1/2+x,1/2+z
41 x,1/2+z,1/2-y
42 -x,1/2+z,1/2+y
43 -x,1/2-z,1/2-y
44 x,1/2-z,1/2+y
45 z,1/2+y,1/2-x
46 z,1/2-y,1/2+x
47 -z,1/2+y,1/2+x
48 -z,1/2-y,1/2-x
49 1/2+x,y,1/2+z
50 1/2-x,-y,1/2+z
51 1/2-x,y,1/2-z
52 1/2+x,-y,1/2-z
53 1/2+z,x,1/2+y
54 1/2+z,-x,1/2-y
55 1/2-z,-x,1/2+y
56 1/2-z,x,1/2-y
57 1/2+y,z,1/2+x
58 1/2-y,z,1/2-x
59 1/2+y,-z,1/2-x
60 1/2-y,-z,1/2+x
61 1/2+y,x,1/2-z
62 1/2-y,-x,1/2-z
63 1/2+y,-x,1/2+z
64 1/2-y,x,1/2+z
65 1/2+x,z,1/2-y
66 1/2-x,z,1/2+y
67 1/2-x,-z,1/2-y
68 1/2+x,-z,1/2+y
69 1/2+z,y,1/2-x
70 1/2+z,-y,1/2+x
71 1/2-z,y,1/2+x
72 1/2-z,-y,1/2-x
73 1/2+x,1/2+y,z
74 1/2-x,1/2-y,z
75 1/2-x,1/2+y,-z
76 1/2+x,1/2-y,-z
77 1/2+z,1/2+x,y
78 1/2+z,1/2-x,-y
79 1/2-z,1/2-x,y
80 1/2-z,1/2+x,-y
81 1/2+y,1/2+z,x
82 1/2-y,1/2+z,-x
83 1/2+y,1/2-z,-x
84 1/2-y,1/2-z,x
85 1/2+y,1/2+x,-z
86 1/2-y,1/2-x,-z
87 1/2+y,1/2-x,z
88 1/2-y,1/2+x,z
89 1/2+x,1/2+z,-y
90 1/2-x,1/2+z,y
91 1/2-x,1/2-z,-y
92 1/2+x,1/2-z,y
93 1/2+z,1/2+y,-x
94 1/2+z,1/2-y,x
95 1/2-z,1/2+y,x
96 1/2-z,1/2-y,-x
97 -x,-y,-z
98 x,y,-z
99 x,-y,z
100 -x,y,z
101 -z,-x,-y
102 -z,x,y
103 z,x,-y
104 z,-x,y
105 -y,-z,-x
106 y,-z,x
107 -y,z,x
108 y,z,-x
109 -y,-x,z
110 y,x,z
111 -y,x,-z
112 y,-x,-z
113 -x,-z,y
114 x,-z,-y
115 x,z,y
116 -x,z,-y
117 -z,-y,x
118 -z,y,-x
119 z,-y,-x
120 z,y,x
121 -x,1/2-y,1/2-z
122 x,1/2+y,1/2-z
123 x,1/2-y,1/2+z
124 -x,1/2+y,1/2+z
125 -z,1/2-x,1/2-y
126 -z,1/2+x,1/2+y
127 z,1/2+x,1/2-y
128 z,1/2-x,1/2+y
129 -y,1/2-z,1/2-x
130 y,1/2-z,1/2+x
131 -y,1/2+z,1/2+x
132 y,1/2+z,1/2-x
133 -y,1/2-x,1/2+z
134 y,1/2+x,1/2+z
135 -y,1/2+x,1/2-z
136 y,1/2-x,1/2-z
137 -x,1/2-z,1/2+y
138 x,1/2-z,1/2-y
139 x,1/2+z,1/2+y
140 -x,1/2+z,1/2-y
141 -z,1/2-y,1/2+x
142 -z,1/2+y,1/2-x
143 z,1/2-y,1/2-x
144 z,1/2+y,1/2+x
145 1/2-x,-y,1/2-z
146 1/2+x,y,1/2-z
147 1/2+x,-y,1/2+z
148 1/2-x,y,1/2+z
149 1/2-z,-x,1/2-y
150 1/2-z,x,1/2+y
151 1/2+z,x,1/2-y
152 1/2+z,-x,1/2+y
153 1/2-y,-z,1/2-x
154 1/2+y,-z,1/2+x
155 1/2-y,z,1/2+x
156 1/2+y,z,1/2-x
157 1/2-y,-x,1/2+z
158 1/2+y,x,1/2+z
159 1/2-y,x,1/2-z
160 1/2+y,-x,1/2-z
161 1/2-x,-z,1/2+y
162 1/2+x,-z,1/2-y
163 1/2+x,z,1/2+y
164 1/2-x,z,1/2-y
165 1/2-z,-y,1/2+x
166 1/2-z,y,1/2-x
167 1/2+z,-y,1/2-x
168 1/2+z,y,1/2+x
169 1/2-x,1/2-y,-z
170 1/2+x,1/2+y,-z
171 1/2+x,1/2-y,z
172 1/2-x,1/2+y,z
173 1/2-z,1/2-x,-y
174 1/2-z,1/2+x,y
175 1/2+z,1/2+x,-y
176 1/2+z,1/2-x,y
177 1/2-y,1/2-z,-x
178 1/2+y,1/2-z,x
179 1/2-y,1/2+z,x
180 1/2+y,1/2+z,-x
181 1/2-y,1/2-x,z
182 1/2+y,1/2+x,z
183 1/2-y,1/2+x,-z
184 1/2+y,1/2-x,-z
185 1/2-x,1/2-z,y
186 1/2+x,1/2-z,-y
187 1/2+x,1/2+z,y
188 1/2-x,1/2+z,-y
189 1/2-z,1/2-y,x
190 1/2-z,1/2+y,-x
191 1/2+z,1/2-y,-x
192 1/2+z,1/2+y,x
_cell_length_a                   39.7834(4)
_cell_length_b                   39.7834(4)
_cell_length_c                   39.7834(4)
_cell_angle_alpha                90
_cell_angle_beta                 90
_cell_angle_gamma                90
_cell_volume                     62965.9
_exptl_crystal_colour            blue
_exptl_crystal_description       block
_cell_formula_units_Z            8
loop_
_atom_site_label
_atom_site_type_symbol
_atom_site_fract_x
_atom_site_fract_y
_atom_site_fract_z
_atom_site_U_iso_or_equiv
_atom_site_thermal_displace_type
Cu1 Cu 0.131474(14) 0.086130(19) 0.368526(14) 0.0176 Uani
Cu2 Cu 0.141334(17) 0.0000 0.141334(17) 0.0131 Uani
O1 O 0.12065(8) 0.03440(9) 0.16931(8) 0.0347 Uani
O2 O 0.16000(8) 0.03461(8) 0.20946(8) 0.0292 Uani
O3 O 0.12733(8) 0.08768(8) 0.31795(8) 0.0299 Uani
C1 C 0.11328(11) 0.07034(11) 0.21538(11) 0.0230 Uani
C2 C 0.11961(11) 0.07702(11) 0.24932(11) 0.0217 Uani
H1 H 0.1365 0.0653 0.2605 0.0260 Uiso
C3 C 0.10097(12) 0.10097(12) 0.26657(16) 0.0227 Uani
C4 C 0.08817(12) 0.08817(12) 0.19881(16) 0.0250 Uani
H2 H 0.0833 0.0833 0.1765 0.0300 Uiso
C5 C 0.13292(12) 0.04436(12) 0.19669(12) 0.0213 Uani
C6 C 0.10606(11) 0.10606(11) 0.30346(15) 0.0193 Uani
C7 C 0.09621(13) 0.01919(12) 0.36101(14) 0.0373 Uani
H3 H 0.0901 0.0273 0.3388 0.0450 Uiso
H4 H 0.0795 0.0273 0.3769 0.0450 Uiso
C8 C 0.15450(13) 0.01965(17) 0.34550(13) 0.0403 Uani
H5 H 0.1765 0.0278 0.3510 0.0480 Uiso
C9 C 0.2238(3) 0.0310(4) 0.2471(4) 0.0740 Uiso
C10 C 0.2108(5) 0.0000 0.2605(5) 0.0650 Uiso
N1 N 0.12971(9) 0.03282(13) 0.37029(9) 0.0240 Uani
N2 N 0.22688(12) 0.0000 0.22688(12) 0.0157 Uani
O4 O 0.10319(19) 0.0000 0.10319(19) 0.0920 Uiso
Cu3 Cu 0.188493(17) 0.0000 0.188493(17) 0.0115 Uani
C11 C 0.0982(2) 0.0982(2) 0.4018(2) 0.0230 Uani
N3 N 0.08127(13) 0.08127(13) 0.41873(13) 0.0108 Uani
Cu1HA Cu 0.086130(19) 0.131474(14) 0.368526(14) 0.0176 Uani
Cu1CB Cu 0.131474(14) 0.131474(14) 0.413870(19) 0.0176 Uani
Cu1SB Cu 0.131474(14) -0.086130(19) 0.368526(14) 0.0176 Uani
Cu1N Cu 0.086130(19) -0.131474(14) 0.368526(14) 0.0176 Uani
Cu1NA Cu 0.131474(14) -0.131474(14) 0.413870(19) 0.0176 Uani
Cu1BB Cu 0.131474(14) -0.131474(14) 0.586130(19) 0.0176 Uani
Cu1FA Cu 0.086130(19) -0.131474(14) 0.631474(14) 0.0176 Uani
Cu1C Cu 0.131474(14) -0.086130(19) 0.631474(14) 0.0176 Uani
Cu1RB Cu 0.131474(14) 0.086130(19) 0.631474(14) 0.0176 Uani
Cu1L Cu 0.086130(19) 0.131474(14) 0.631474(14) 0.0176 Uani
Cu1QA Cu 0.131474(14) 0.131474(14) 0.586130(19) 0.0176 Uani
Cu1O Cu -0.086130(19) 0.131474(14) 0.368526(14) 0.0176 Uani
Cu1PB Cu -0.131474(14) 0.086130(19) 0.368526(14) 0.0176 Uani
Cu1PA Cu -0.131474(14) 0.131474(14) 0.413870(19) 0.0176 Uani
Cu1ZA Cu -0.131474(14) 0.131474(14) 0.586130(19) 0.0176 Uani
Cu1IA Cu -0.086130(19) 0.131474(14) 0.631474(14) 0.0176 Uani
Cu1B Cu -0.131474(14) 0.086130(19) 0.631474(14) 0.0176 Uani
Cu1QB Cu -0.131474(14) -0.086130(19) 0.631474(14) 0.0176 Uani
Cu1OA Cu -0.131474(14) -0.131474(14) 0.586130(19) 0.0176 Uani
Cu1M Cu -0.086130(19) -0.131474(14) 0.631474(14) 0.0176 Uani
Cu1AB Cu -0.131474(14) -0.131474(14) 0.413870(19) 0.0176 Uani
Cu1GA Cu -0.086130(19) -0.131474(14) 0.368526(14) 0.0176 Uani
Cu1A Cu -0.131474(14) -0.086130(19) 0.368526(14) 0.0176 Uani
Cu2AB Cu -0.358666(17) -0.141334(17) 0.5000 0.0131 Uani
Cu2EA Cu -0.141334(17) -0.358666(17) 0.5000 0.0131 Uani
Cu2GA Cu 0.0000 -0.358666(17) 0.358666(17) 0.0131 Uani
Cu2K Cu 0.0000 -0.141334(17) 0.141334(17) 0.0131 Uani
Cu2A Cu -0.141334(17) 0.0000 0.141334(17) 0.0131 Uani
Cu2YA Cu -0.358666(17) 0.0000 0.358666(17) 0.0131 Uani
Cu2ZA Cu -0.358666(17) 0.141334(17) 0.5000 0.0131 Uani
Cu2DA Cu -0.141334(17) 0.358666(17) 0.5000 0.0131 Uani
Cu2HA Cu 0.0000 0.358666(17) 0.358666(17) 0.0131 Uani
Cu2H Cu 0.0000 0.141334(17) 0.141334(17) 0.0131 Uani
Cu2XA Cu 0.358666(17) 0.0000 0.358666(17) 0.0131 Uani
O1AB O -0.33069(8) -0.12065(8) 0.46560(9) 0.0347 Uani
O1OB O -0.37935(8) -0.16931(8) 0.53440(9) 0.0347 Uani
O1EF O -0.37935(8) -0.16931(8) 0.46560(9) 0.0347 Uani
O1UE O -0.33069(8) -0.12065(8) 0.53440(9) 0.0347 Uani
O1EA O -0.16931(8) -0.37935(8) 0.46560(9) 0.0347 Uani
O1OA O -0.12065(8) -0.33069(8) 0.53440(9) 0.0347 Uani
O1UD O -0.16931(8) -0.37935(8) 0.53440(9) 0.0347 Uani
O1IE O -0.12065(8) -0.33069(8) 0.46560(9) 0.0347 Uani
O1GA O -0.03440(9) -0.33069(8) 0.37935(8) 0.0347 Uani
O1JA O 0.03440(9) -0.37935(8) 0.33069(8) 0.0347 Uani
O1DE O -0.03440(9) -0.37935(8) 0.33069(8) 0.0347 Uani
O1AE O 0.03440(9) -0.33069(8) 0.37935(8) 0.0347 Uani
O1K O -0.03440(9) -0.16931(8) 0.12065(8) 0.0347 Uani
O1N O 0.03440(9) -0.12065(8) 0.16931(8) 0.0347 Uani
O1AD O 0.03440(9) -0.16931(8) 0.12065(8) 0.0347 Uani
O1DD O -0.03440(9) -0.12065(8) 0.16931(8) 0.0347 Uani
O1A O -0.12065(8) -0.03440(9) 0.16931(8) 0.0347 Uani
O1V O -0.16931(8) 0.03440(9) 0.12065(8) 0.0347 Uani
O1LD O -0.16931(8) -0.03440(9) 0.12065(8) 0.0347 Uani
O1UC O -0.12065(8) 0.03440(9) 0.16931(8) 0.0347 Uani
O1YA O -0.37935(8) -0.03440(9) 0.33069(8) 0.0347 Uani
O1PB O -0.33069(8) 0.03440(9) 0.37935(8) 0.0347 Uani
O1OE O -0.37935(8) 0.03440(9) 0.33069(8) 0.0347 Uani
O1JF O -0.33069(8) -0.03440(9) 0.37935(8) 0.0347 Uani
O1HB O -0.46560(9) 0.12065(8) 0.33069(8) 0.0347 Uani
O1TE O -0.33069(8) 0.12065(8) 0.46560(9) 0.0347 Uani
O1FF O -0.37935(8) 0.16931(8) 0.53440(9) 0.0347 Uani
O1LB O -0.37935(8) 0.16931(8) 0.46560(9) 0.0347 Uani
O1ZA O -0.33069(8) 0.12065(8) 0.53440(9) 0.0347 Uani
O1TD O -0.16931(8) 0.37935(8) 0.46560(9) 0.0347 Uani
O1FE O -0.12065(8) 0.33069(8) 0.53440(9) 0.0347 Uani
O1DA O -0.16931(8) 0.37935(8) 0.53440(9) 0.0347 Uani
O1PA O -0.12065(8) 0.33069(8) 0.46560(9) 0.0347 Uani
O1XD O -0.03440(9) 0.33069(8) 0.37935(8) 0.0347 Uani
O1EE O 0.03440(9) 0.37935(8) 0.33069(8) 0.0347 Uani
O1KA O -0.03440(9) 0.37935(8) 0.33069(8) 0.0347 Uani
O1HA O 0.03440(9) 0.33069(8) 0.37935(8) 0.0347 Uani
O1BD O -0.03440(9) 0.16931(8) 0.12065(8) 0.0347 Uani
O1ED O 0.03440(9) 0.12065(8) 0.16931(8) 0.0347 Uani
O1H O 0.03440(9) 0.16931(8) 0.12065(8) 0.0347 Uani
O1O O -0.03440(9) 0.12065(8) 0.16931(8) 0.0347 Uani
O1JD O 0.12065(8) 0.16931(8) 0.03440(9) 0.0347 Uani
O1U O 0.16931(8) -0.03440(9) 0.12065(8) 0.0347 Uani
O1TC O 0.12065(8) -0.03440(9) 0.16931(8) 0.0347 Uani
O1OD O 0.16931(8) 0.03440(9) 0.12065(8) 0.0347 Uani
O1SB O 0.33069(8) -0.03440(9) 0.37935(8) 0.0347 Uani
O1XA O 0.37935(8) 0.03440(9) 0.33069(8) 0.0347 Uani
O1IF O 0.33069(8) 0.03440(9) 0.37935(8) 0.0347 Uani
O1NE O 0.37935(8) -0.03440(9) 0.33069(8) 0.0347 Uani
O1IB O 0.46560(9) -0.12065(8) 0.33069(8) 0.0347 Uani
O1CB O 0.33069(8) 0.12065(8) 0.46560(9) 0.0347 Uani
O1BF O 0.46560(9) 0.12065(8) 0.33069(8) 0.0347 Uani
O1RE O 0.33069(8) -0.12065(8) 0.46560(9) 0.0347 Uani
O1D O 0.16931(8) 0.12065(8) 0.03440(9) 0.0347 Uani
O1YC O 0.16931(8) -0.12065(8) 0.03440(9) 0.0347 Uani
O1Q O -0.12065(8) 0.16931(8) 0.03440(9) 0.0347 Uani
O1GE O 0.12065(8) 0.33069(8) 0.46560(9) 0.0347 Uani
O1AA O 0.12065(8) 0.46560(9) 0.33069(8) 0.0347 Uani
O1JE O -0.16931(8) 0.46560(9) 0.62065(8) 0.0347 Uani
O1IA O -0.03440(9) 0.33069(8) 0.62065(8) 0.0347 Uani
O1YE O -0.46560(9) 0.16931(8) 0.37935(8) 0.0347 Uani
O1WC O -0.16931(8) 0.12065(8) 0.03440(9) 0.0347 Uani
O1S O 0.12065(8) -0.16931(8) 0.03440(9) 0.0347 Uani
O2OB O -0.34000(8) -0.20946(8) 0.53461(8) 0.0292 Uani
O2AB O -0.29054(8) -0.16000(8) 0.46539(8) 0.0292 Uani
O2EF O -0.34000(8) -0.20946(8) 0.46539(8) 0.0292 Uani
O2UE O -0.29054(8) -0.16000(8) 0.53461(8) 0.0292 Uani
O2EA O -0.20946(8) -0.34000(8) 0.46539(8) 0.0292 Uani
O2OA O -0.16000(8) -0.29054(8) 0.53461(8) 0.0292 Uani
O2UD O -0.20946(8) -0.34000(8) 0.53461(8) 0.0292 Uani
O2IE O -0.16000(8) -0.29054(8) 0.46539(8) 0.0292 Uani
O2JA O 0.03461(8) -0.34000(8) 0.29054(8) 0.0292 Uani
O2GA O -0.03461(8) -0.29054(8) 0.34000(8) 0.0292 Uani
O2DE O -0.03461(8) -0.34000(8) 0.29054(8) 0.0292 Uani
O2AE O 0.03461(8) -0.29054(8) 0.34000(8) 0.0292 Uani
O2K O -0.03461(8) -0.20946(8) 0.16000(8) 0.0292 Uani
O2N O 0.03461(8) -0.16000(8) 0.20946(8) 0.0292 Uani
O2AD O 0.03461(8) -0.20946(8) 0.16000(8) 0.0292 Uani
O2DD O -0.03461(8) -0.16000(8) 0.20946(8) 0.0292 Uani
O2V O -0.20946(8) 0.03461(8) 0.16000(8) 0.0292 Uani
O2A O -0.16000(8) -0.03461(8) 0.20946(8) 0.0292 Uani
O2LD O -0.20946(8) -0.03461(8) 0.16000(8) 0.0292 Uani
O2UC O -0.16000(8) 0.03461(8) 0.20946(8) 0.0292 Uani
O2YA O -0.34000(8) -0.03461(8) 0.29054(8) 0.0292 Uani
O2PB O -0.29054(8) 0.03461(8) 0.34000(8) 0.0292 Uani
O2OE O -0.34000(8) 0.03461(8) 0.29054(8) 0.0292 Uani
O2JF O -0.29054(8) -0.03461(8) 0.34000(8) 0.0292 Uani
O2HB O -0.46539(8) 0.16000(8) 0.29054(8) 0.0292 Uani
O2FF O -0.34000(8) 0.20946(8) 0.53461(8) 0.0292 Uani
O2TE O -0.29054(8) 0.16000(8) 0.46539(8) 0.0292 Uani
O2LB O -0.34000(8) 0.20946(8) 0.46539(8) 0.0292 Uani
O2ZA O -0.29054(8) 0.16000(8) 0.53461(8) 0.0292 Uani
O2TD O -0.20946(8) 0.34000(8) 0.46539(8) 0.0292 Uani
O2FE O -0.16000(8) 0.29054(8) 0.53461(8) 0.0292 Uani
O2DA O -0.20946(8) 0.34000(8) 0.53461(8) 0.0292 Uani
O2PA O -0.16000(8) 0.29054(8) 0.46539(8) 0.0292 Uani
O2EE O 0.03461(8) 0.34000(8) 0.29054(8) 0.0292 Uani
O2XD O -0.03461(8) 0.29054(8) 0.34000(8) 0.0292 Uani
O2KA O -0.03461(8) 0.34000(8) 0.29054(8) 0.0292 Uani
O2HA O 0.03461(8) 0.29054(8) 0.34000(8) 0.0292 Uani
O2BD O -0.03461(8) 0.20946(8) 0.16000(8) 0.0292 Uani
O2ED O 0.03461(8) 0.16000(8) 0.20946(8) 0.0292 Uani
O2H O 0.03461(8) 0.20946(8) 0.16000(8) 0.0292 Uani
O2O O -0.03461(8) 0.16000(8) 0.20946(8) 0.0292 Uani
O2JD O 0.16000(8) 0.20946(8) 0.03461(8) 0.0292 Uani
O2U O 0.20946(8) -0.03461(8) 0.16000(8) 0.0292 Uani
O2TC O 0.16000(8) -0.03461(8) 0.20946(8) 0.0292 Uani
O2OD O 0.20946(8) 0.03461(8) 0.16000(8) 0.0292 Uani
O2SB O 0.29054(8) -0.03461(8) 0.34000(8) 0.0292 Uani
O2XA O 0.34000(8) 0.03461(8) 0.29054(8) 0.0292 Uani
O2IF O 0.29054(8) 0.03461(8) 0.34000(8) 0.0292 Uani
O2NE O 0.34000(8) -0.03461(8) 0.29054(8) 0.0292 Uani
O2IB O 0.46539(8) -0.16000(8) 0.29054(8) 0.0292 Uani
O2CB O 0.29054(8) 0.16000(8) 0.46539(8) 0.0292 Uani
O2BF O 0.46539(8) 0.16000(8) 0.29054(8) 0.0292 Uani
O2RE O 0.29054(8) -0.16000(8) 0.46539(8) 0.0292 Uani
O2D O 0.20946(8) 0.16000(8) 0.03461(8) 0.0292 Uani
O2YC O 0.20946(8) -0.16000(8) 0.03461(8) 0.0292 Uani
O2Q O -0.16000(8) 0.20946(8) 0.03461(8) 0.0292 Uani
O2GE O 0.16000(8) 0.29054(8) 0.46539(8) 0.0292 Uani
O2AA O 0.16000(8) 0.46539(8) 0.29054(8) 0.0292 Uani
O2JE O -0.20946(8) 0.46539(8) 0.66000(8) 0.0292 Uani
O2IA O -0.03461(8) 0.29054(8) 0.66000(8) 0.0292 Uani
O2YE O -0.46539(8) 0.20946(8) 0.34000(8) 0.0292 Uani
O2WC O -0.20946(8) 0.16000(8) 0.03461(8) 0.0292 Uani
O2S O 0.16000(8) -0.20946(8) 0.03461(8) 0.0292 Uani
O3ED O 0.08768(8) 0.12733(8) 0.31795(8) 0.0299 Uani
O3HA O 0.08768(8) 0.18205(8) 0.37267(8) 0.0299 Uani
O3GE O 0.12733(8) 0.18205(8) 0.41232(8) 0.0299 Uani
O3CB O 0.18205(8) 0.12733(8) 0.41232(8) 0.0299 Uani
O3IF O 0.18205(8) 0.08768(8) 0.37267(8) 0.0299 Uani
O3TC O 0.12733(8) -0.08768(8) 0.31795(8) 0.0299 Uani
O3N O 0.08768(8) -0.12733(8) 0.31795(8) 0.0299 Uani
O3AE O 0.08768(8) -0.18205(8) 0.37267(8) 0.0299 Uani
O3NA O 0.12733(8) -0.18205(8) 0.41232(8) 0.0299 Uani
O3RE O 0.18205(8) -0.12733(8) 0.41232(8) 0.0299 Uani
O3SB O 0.18205(8) -0.08768(8) 0.37267(8) 0.0299 Uani
O3HE O 0.12733(8) -0.18205(8) 0.58768(8) 0.0299 Uani
O3FA O 0.08768(8) -0.18205(8) 0.62733(8) 0.0299 Uani
O3GD O 0.08768(8) -0.12733(8) 0.68205(8) 0.0299 Uani
O3C O 0.12733(8) -0.08768(8) 0.68205(8) 0.0299 Uani
O3HF O 0.18205(8) -0.08768(8) 0.62733(8) 0.0299 Uani
O3BB O 0.18205(8) -0.12733(8) 0.58768(8) 0.0299 Uani
O3SC O 0.12733(8) 0.08768(8) 0.68205(8) 0.0299 Uani
O3L O 0.08768(8) 0.12733(8) 0.68205(8) 0.0299 Uani
O3YD O 0.08768(8) 0.18205(8) 0.62733(8) 0.0299 Uani
O3QA O 0.12733(8) 0.18205(8) 0.58768(8) 0.0299 Uani
O3SE O 0.18205(8) 0.12733(8) 0.58768(8) 0.0299 Uani
O3RB O 0.18205(8) 0.08768(8) 0.62733(8) 0.0299 Uani
O3O O -0.08768(8) 0.12733(8) 0.31795(8) 0.0299 Uani
O3UC O -0.12733(8) 0.08768(8) 0.31795(8) 0.0299 Uani
O3PB O -0.18205(8) 0.08768(8) 0.37267(8) 0.0299 Uani
O3TE O -0.18205(8) 0.12733(8) 0.41232(8) 0.0299 Uani
O3PA O -0.12733(8) 0.18205(8) 0.41232(8) 0.0299 Uani
O3XD O -0.08768(8) 0.18205(8) 0.37267(8) 0.0299 Uani
O3FE O -0.12733(8) 0.18205(8) 0.58768(8) 0.0299 Uani
O3IA O -0.08768(8) 0.18205(8) 0.62733(8) 0.0299 Uani
O3FD O -0.08768(8) 0.12733(8) 0.68205(8) 0.0299 Uani
O3B O -0.12733(8) 0.08768(8) 0.68205(8) 0.0299 Uani
O3KF O -0.18205(8) 0.08768(8) 0.62733(8) 0.0299 Uani
O3ZA O -0.18205(8) 0.12733(8) 0.58768(8) 0.0299 Uani
O3QB O -0.18205(8) -0.08768(8) 0.62733(8) 0.0299 Uani
O3UE O -0.18205(8) -0.12733(8) 0.58768(8) 0.0299 Uani
O3OA O -0.12733(8) -0.18205(8) 0.58768(8) 0.0299 Uani
O3ZD O -0.08768(8) -0.18205(8) 0.62733(8) 0.0299 Uani
O3M O -0.08768(8) -0.12733(8) 0.68205(8) 0.0299 Uani
O3RC O -0.12733(8) -0.08768(8) 0.68205(8) 0.0299 Uani
O3IE O -0.12733(8) -0.18205(8) 0.41232(8) 0.0299 Uani
O3GA O -0.08768(8) -0.18205(8) 0.37267(8) 0.0299 Uani
O3DD O -0.08768(8) -0.12733(8) 0.31795(8) 0.0299 Uani
O3A O -0.12733(8) -0.08768(8) 0.31795(8) 0.0299 Uani
O3JF O -0.18205(8) -0.08768(8) 0.37267(8) 0.0299 Uani
O3AB O -0.18205(8) -0.12733(8) 0.41232(8) 0.0299 Uani
O3OE O -0.37267(8) 0.08768(8) 0.18205(8) 0.0299 Uani
O3HB O -0.41232(8) 0.12733(8) 0.18205(8) 0.0299 Uani
O3H O 0.08768(8) 0.31795(8) 0.12733(8) 0.0299 Uani
O3JD O 0.12733(8) 0.31795(8) 0.08768(8) 0.0299 Uani
O3NE O 0.37267(8) -0.08768(8) 0.18205(8) 0.0299 Uani
O3IB O 0.41232(8) -0.12733(8) 0.18205(8) 0.0299 Uani
O3XA O 0.37267(8) 0.08768(8) 0.18205(8) 0.0299 Uani
O3BF O 0.41232(8) 0.12733(8) 0.18205(8) 0.0299 Uani
O3OD O 0.31795(8) 0.08768(8) 0.12733(8) 0.0299 Uani
O3D O 0.31795(8) 0.12733(8) 0.08768(8) 0.0299 Uani
O3U O 0.31795(8) -0.08768(8) 0.12733(8) 0.0299 Uani
O3YC O 0.31795(8) -0.12733(8) 0.08768(8) 0.0299 Uani
O3BD O -0.08768(8) 0.31795(8) 0.12733(8) 0.0299 Uani
O3Q O -0.12733(8) 0.31795(8) 0.08768(8) 0.0299 Uani
O3EE O 0.08768(8) 0.37267(8) 0.18205(8) 0.0299 Uani
O3AA O 0.12733(8) 0.41232(8) 0.18205(8) 0.0299 Uani
O3DA O -0.31795(8) 0.37267(8) 0.58768(8) 0.0299 Uani
O3JE O -0.31795(8) 0.41232(8) 0.62733(8) 0.0299 Uani
O3LB O -0.37267(8) 0.31795(8) 0.41232(8) 0.0299 Uani
O3YE O -0.41232(8) 0.31795(8) 0.37267(8) 0.0299 Uani
O3V O -0.31795(8) 0.08768(8) 0.12733(8) 0.0299 Uani
O3WC O -0.31795(8) 0.12733(8) 0.08768(8) 0.0299 Uani
O3AD O 0.08768(8) -0.31795(8) 0.12733(8) 0.0299 Uani
O3S O 0.12733(8) -0.31795(8) 0.08768(8) 0.0299 Uani
C1JF C -0.28462(11) -0.07034(11) 0.38672(11) 0.0230 Uani
C1AB C -0.28462(11) -0.11328(11) 0.42966(11) 0.0230 Uani
C1IE C -0.11328(11) -0.28462(11) 0.42966(11) 0.0230 Uani
C1GA C -0.07034(11) -0.28462(11) 0.38672(11) 0.0230 Uani
C1DD C -0.07034(11) -0.11328(11) 0.21538(11) 0.0230 Uani
C1A C -0.11328(11) -0.07034(11) 0.21538(11) 0.0230 Uani
C1OE C -0.38672(11) 0.07034(11) 0.28462(11) 0.0230 Uani
C1HB C -0.42966(11) 0.11328(11) 0.28462(11) 0.0230 Uani
C1PB C -0.28462(11) 0.07034(11) 0.38672(11) 0.0230 Uani
C1TE C -0.28462(11) 0.11328(11) 0.42966(11) 0.0230 Uani
C1PA C -0.11328(11) 0.28462(11) 0.42966(11) 0.0230 Uani
C1XD C -0.07034(11) 0.28462(11) 0.38672(11) 0.0230 Uani
C1O C -0.07034(11) 0.11328(11) 0.21538(11) 0.0230 Uani
C1UC C -0.11328(11) 0.07034(11) 0.21538(11) 0.0230 Uani
C1H C 0.07034(11) 0.21538(11) 0.11328(11) 0.0230 Uani
C1JD C 0.11328(11) 0.21538(11) 0.07034(11) 0.0230 Uani
C1ED C 0.07034(11) 0.11328(11) 0.21538(11) 0.0230 Uani
C1NE C 0.38672(11) -0.07034(11) 0.28462(11) 0.0230 Uani
C1IB C 0.42966(11) -0.11328(11) 0.28462(11) 0.0230 Uani
C1IF C 0.28462(11) 0.07034(11) 0.38672(11) 0.0230 Uani
C1CB C 0.28462(11) 0.11328(11) 0.42966(11) 0.0230 Uani
C1XA C 0.38672(11) 0.07034(11) 0.28462(11) 0.0230 Uani
C1BF C 0.42966(11) 0.11328(11) 0.28462(11) 0.0230 Uani
C1SB C 0.28462(11) -0.07034(11) 0.38672(11) 0.0230 Uani
C1RE C 0.28462(11) -0.11328(11) 0.42966(11) 0.0230 Uani
C1OD C 0.21538(11) 0.07034(11) 0.11328(11) 0.0230 Uani
C1D C 0.21538(11) 0.11328(11) 0.07034(11) 0.0230 Uani
C1TC C 0.11328(11) -0.07034(11) 0.21538(11) 0.0230 Uani
C1N C 0.07034(11) -0.11328(11) 0.21538(11) 0.0230 Uani
C1U C 0.21538(11) -0.07034(11) 0.11328(11) 0.0230 Uani
C1YC C 0.21538(11) -0.11328(11) 0.07034(11) 0.0230 Uani
C1BD C -0.07034(11) 0.21538(11) 0.11328(11) 0.0230 Uani
C1Q C -0.11328(11) 0.21538(11) 0.07034(11) 0.0230 Uani
C1HA C 0.07034(11) 0.28462(11) 0.38672(11) 0.0230 Uani
C1GE C 0.11328(11) 0.28462(11) 0.42966(11) 0.0230 Uani
C1KA C -0.07034(11) 0.38672(11) 0.28462(11) 0.0230 Uani
C1EE C 0.07034(11) 0.38672(11) 0.28462(11) 0.0230 Uani
C1AA C 0.11328(11) 0.42966(11) 0.28462(11) 0.0230 Uani
C1DA C -0.21538(11) 0.38672(11) 0.57034(11) 0.0230 Uani
C1JE C -0.21538(11) 0.42966(11) 0.61328(11) 0.0230 Uani
C1FE C -0.11328(11) 0.28462(11) 0.57034(11) 0.0230 Uani
C1IA C -0.07034(11) 0.28462(11) 0.61328(11) 0.0230 Uani
C1TD C -0.21538(11) 0.38672(11) 0.42966(11) 0.0230 Uani
C1ZA C -0.28462(11) 0.11328(11) 0.57034(11) 0.0230 Uani
C1LB C -0.38672(11) 0.21538(11) 0.42966(11) 0.0230 Uani
C1YE C -0.42966(11) 0.21538(11) 0.38672(11) 0.0230 Uani
C1FF C -0.38672(11) 0.21538(11) 0.57034(11) 0.0230 Uani
C1YA C -0.38672(11) -0.07034(11) 0.28462(11) 0.0230 Uani
C1LD C -0.21538(11) -0.07034(11) 0.11328(11) 0.0230 Uani
C1V C -0.21538(11) 0.07034(11) 0.11328(11) 0.0230 Uani
C1WC C -0.21538(11) 0.11328(11) 0.07034(11) 0.0230 Uani
C1AD C 0.07034(11) -0.21538(11) 0.11328(11) 0.0230 Uani
C1S C 0.11328(11) -0.21538(11) 0.07034(11) 0.0230 Uani
C1K C -0.07034(11) -0.21538(11) 0.11328(11) 0.0230 Uani
C1AE C 0.07034(11) -0.28462(11) 0.38672(11) 0.0230 Uani
C1DE C -0.07034(11) -0.38672(11) 0.28462(11) 0.0230 Uani
C1JA C 0.07034(11) -0.38672(11) 0.28462(11) 0.0230 Uani
C1UD C -0.21538(11) -0.38672(11) 0.57034(11) 0.0230 Uani
C1OA C -0.11328(11) -0.28462(11) 0.57034(11) 0.0230 Uani
C1EA C -0.21538(11) -0.38672(11) 0.42966(11) 0.0230 Uani
C1UE C -0.28462(11) -0.11328(11) 0.57034(11) 0.0230 Uani
C1EF C -0.38672(11) -0.21538(11) 0.42966(11) 0.0230 Uani
C1OB C -0.38672(11) -0.21538(11) 0.57034(11) 0.0230 Uani
C2JF C -0.25068(11) -0.07702(11) 0.38039(11) 0.0217 Uani
C2AB C -0.25068(11) -0.11961(11) 0.42298(11) 0.0217 Uani
C2IE C -0.11961(11) -0.25068(11) 0.42298(11) 0.0217 Uani
C2GA C -0.07702(11) -0.25068(11) 0.38039(11) 0.0217 Uani
C2DD C -0.07702(11) -0.11961(11) 0.24932(11) 0.0217 Uani
C2A C -0.11961(11) -0.07702(11) 0.24932(11) 0.0217 Uani
C2OE C -0.38039(11) 0.07702(11) 0.25068(11) 0.0217 Uani
C2HB C -0.42298(11) 0.11961(11) 0.25068(11) 0.0217 Uani
C2PB C -0.25068(11) 0.07702(11) 0.38039(11) 0.0217 Uani
C2TE C -0.25068(11) 0.11961(11) 0.42298(11) 0.0217 Uani
C2PA C -0.11961(11) 0.25068(11) 0.42298(11) 0.0217 Uani
C2XD C -0.07702(11) 0.25068(11) 0.38039(11) 0.0217 Uani
C2O C -0.07702(11) 0.11961(11) 0.24932(11) 0.0217 Uani
C2UC C -0.11961(11) 0.07702(11) 0.24932(11) 0.0217 Uani
C2H C 0.07702(11) 0.24932(11) 0.11961(11) 0.0217 Uani
C2JD C 0.11961(11) 0.24932(11) 0.07702(11) 0.0217 Uani
C2ED C 0.07702(11) 0.11961(11) 0.24932(11) 0.0217 Uani
C2NE C 0.38039(11) -0.07702(11) 0.25068(11) 0.0217 Uani
C2IB C 0.42298(11) -0.11961(11) 0.25068(11) 0.0217 Uani
C2IF C 0.25068(11) 0.07702(11) 0.38039(11) 0.0217 Uani
C2CB C 0.25068(11) 0.11961(11) 0.42298(11) 0.0217 Uani
C2XA C 0.38039(11) 0.07702(11) 0.25068(11) 0.0217 Uani
C2BF C 0.42298(11) 0.11961(11) 0.25068(11) 0.0217 Uani
C2SB C 0.25068(11) -0.07702(11) 0.38039(11) 0.0217 Uani
C2RE C 0.25068(11) -0.11961(11) 0.42298(11) 0.0217 Uani
C2OD C 0.24932(11) 0.07702(11) 0.11961(11) 0.0217 Uani
C2D C 0.24932(11) 0.11961(11) 0.07702(11) 0.0217 Uani
C2TC C 0.11961(11) -0.07702(11) 0.24932(11) 0.0217 Uani
C2N C 0.07702(11) -0.11961(11) 0.24932(11) 0.0217 Uani
C2U C 0.24932(11) -0.07702(11) 0.11961(11) 0.0217 Uani
C2YC C 0.24932(11) -0.11961(11) 0.07702(11) 0.0217 Uani
C2BD C -0.07702(11) 0.24932(11) 0.11961(11) 0.0217 Uani
C2Q C -0.11961(11) 0.24932(11) 0.07702(11) 0.0217 Uani
C2HA C 0.07702(11) 0.25068(11) 0.38039(11) 0.0217 Uani
C2GE C 0.11961(11) 0.25068(11) 0.42298(11) 0.0217 Uani
C2EE C 0.07702(11) 0.38039(11) 0.25068(11) 0.0217 Uani
C2AA C 0.11961(11) 0.42298(11) 0.25068(11) 0.0217 Uani
C2DA C -0.24932(11) 0.38039(11) 0.57702(11) 0.0217 Uani
C2JE C -0.24932(11) 0.42298(11) 0.61961(11) 0.0217 Uani
C2FE C -0.11961(11) 0.25068(11) 0.57702(11) 0.0217 Uani
C2IA C -0.07702(11) 0.25068(11) 0.61961(11) 0.0217 Uani
C2LB C -0.38039(11) 0.24932(11) 0.42298(11) 0.0217 Uani
C2YE C -0.42298(11) 0.24932(11) 0.38039(11) 0.0217 Uani
C2V C -0.24932(11) 0.07702(11) 0.11961(11) 0.0217 Uani
C2WC C -0.24932(11) 0.11961(11) 0.07702(11) 0.0217 Uani
C2AD C 0.07702(11) -0.24932(11) 0.11961(11) 0.0217 Uani
C2S C 0.11961(11) -0.24932(11) 0.07702(11) 0.0217 Uani
H1AB H -0.2395 -0.1365 0.4347 0.0260 Uiso
H1IE H -0.1365 -0.2395 0.4347 0.0260 Uiso
H1DD H -0.0653 -0.1365 0.2605 0.0260 Uiso
H1OE H -0.3635 0.0653 0.2395 0.0260 Uiso
H1HB H -0.4347 0.1365 0.2395 0.0260 Uiso
H1PB H -0.2395 0.0653 0.3635 0.0260 Uiso
H1PA H -0.1365 0.2395 0.4347 0.0260 Uiso
H1O H -0.0653 0.1365 0.2605 0.0260 Uiso
H1UC H -0.1365 0.0653 0.2605 0.0260 Uiso
H1H H 0.0653 0.2605 0.1365 0.0260 Uiso
H1JD H 0.1365 0.2605 0.0653 0.0260 Uiso
H1ED H 0.0653 0.1365 0.2605 0.0260 Uiso
H1NE H 0.3635 -0.0653 0.2395 0.0260 Uiso
H1IB H 0.4347 -0.1365 0.2395 0.0260 Uiso
H1IF H 0.2395 0.0653 0.3635 0.0260 Uiso
H1CB H 0.2395 0.1365 0.4347 0.0260 Uiso
H1XA H 0.3635 0.0653 0.2395 0.0260 Uiso
H1BF H 0.4347 0.1365 0.2395 0.0260 Uiso
H1SB H 0.2395 -0.0653 0.3635 0.0260 Uiso
H1RE H 0.2395 -0.1365 0.4347 0.0260 Uiso
H1OD H 0.2605 0.0653 0.1365 0.0260 Uiso
H1D H 0.2605 0.1365 0.0653 0.0260 Uiso
H1TC H 0.1365 -0.0653 0.2605 0.0260 Uiso
H1N H 0.0653 -0.1365 0.2605 0.0260 Uiso
H1U H 0.2605 -0.0653 0.1365 0.0260 Uiso
H1YC H 0.2605 -0.1365 0.0653 0.0260 Uiso
H1BD H -0.0653 0.2605 0.1365 0.0260 Uiso
H1Q H -0.1365 0.2605 0.0653 0.0260 Uiso
H1HA H 0.0653 0.2395 0.3635 0.0260 Uiso
H1GE H 0.1365 0.2395 0.4347 0.0260 Uiso
H1EE H 0.0653 0.3635 0.2395 0.0260 Uiso
H1AA H 0.1365 0.4347 0.2395 0.0260 Uiso
H1XD H -0.0653 0.2395 0.3635 0.0260 Uiso
H1DA H -0.2605 0.3635 0.5653 0.0260 Uiso
H1JE H -0.2605 0.4347 0.6365 0.0260 Uiso
H1FE H -0.1365 0.2395 0.5653 0.0260 Uiso
H1IA H -0.0653 0.2395 0.6365 0.0260 Uiso
H1LB H -0.3635 0.2605 0.4347 0.0260 Uiso
H1YE H -0.4347 0.2605 0.3635 0.0260 Uiso
H1TE H -0.2395 0.1365 0.4347 0.0260 Uiso
H1V H -0.2605 0.0653 0.1365 0.0260 Uiso
H1WC H -0.2605 0.1365 0.0653 0.0260 Uiso
H1A H -0.1365 -0.0653 0.2605 0.0260 Uiso
H1AD H 0.0653 -0.2605 0.1365 0.0260 Uiso
H1S H 0.1365 -0.2605 0.0653 0.0260 Uiso
H1GA H -0.0653 -0.2395 0.3635 0.0260 Uiso
H1JF H -0.2395 -0.0653 0.3635 0.0260 Uiso
C3AB C -0.23343(16) -0.10097(12) 0.39903(12) 0.0227 Uani
C3GA C -0.10097(12) -0.23343(16) 0.39903(12) 0.0227 Uani
C3A C -0.10097(12) -0.10097(12) 0.26657(16) 0.0227 Uani
C3HB C -0.39903(12) 0.10097(12) 0.23343(16) 0.0227 Uani
C3PB C -0.23343(16) 0.10097(12) 0.39903(12) 0.0227 Uani
C3PA C -0.10097(12) 0.23343(16) 0.39903(12) 0.0227 Uani
C3O C -0.10097(12) 0.10097(12) 0.26657(16) 0.0227 Uani
C3H C 0.10097(12) 0.26657(16) 0.10097(12) 0.0227 Uani
C3IB C 0.39903(12) -0.10097(12) 0.23343(16) 0.0227 Uani
C3CB C 0.23343(16) 0.10097(12) 0.39903(12) 0.0227 Uani
C3XA C 0.39903(12) 0.10097(12) 0.23343(16) 0.0227 Uani
C3SB C 0.23343(16) -0.10097(12) 0.39903(12) 0.0227 Uani
C3D C 0.26657(16) 0.10097(12) 0.10097(12) 0.0227 Uani
C3N C 0.10097(12) -0.10097(12) 0.26657(16) 0.0227 Uani
C3U C 0.26657(16) -0.10097(12) 0.10097(12) 0.0227 Uani
C3Q C -0.10097(12) 0.26657(16) 0.10097(12) 0.0227 Uani
C3HA C 0.10097(12) 0.23343(16) 0.39903(12) 0.0227 Uani
C3AA C 0.10097(12) 0.39903(12) 0.23343(16) 0.0227 Uani
C3DA C -0.26657(16) 0.39903(12) 0.60097(12) 0.0227 Uani
C3IA C -0.10097(12) 0.23343(16) 0.60097(12) 0.0227 Uani
C3LB C -0.39903(12) 0.26657(16) 0.39903(12) 0.0227 Uani
C3V C -0.26657(16) 0.10097(12) 0.10097(12) 0.0227 Uani
C3S C 0.10097(12) -0.26657(16) 0.10097(12) 0.0227 Uani
C3M C -0.10097(12) -0.10097(12) 0.73343(16) 0.0227 Uani
C3OA C -0.10097(12) -0.23343(16) 0.60097(12) 0.0227 Uani
C3QB C -0.23343(16) -0.10097(12) 0.60097(12) 0.0227 Uani
C3ZA C -0.23343(16) 0.10097(12) 0.60097(12) 0.0227 Uani
C3B C -0.10097(12) 0.10097(12) 0.73343(16) 0.0227 Uani
C3RB C 0.23343(16) 0.10097(12) 0.60097(12) 0.0227 Uani
C3QA C 0.10097(12) 0.23343(16) 0.60097(12) 0.0227 Uani
C3L C 0.10097(12) 0.10097(12) 0.73343(16) 0.0227 Uani
C3BB C 0.23343(16) -0.10097(12) 0.60097(12) 0.0227 Uani
C3C C 0.10097(12) -0.10097(12) 0.73343(16) 0.0227 Uani
C3FA C 0.10097(12) -0.23343(16) 0.60097(12) 0.0227 Uani
C3NA C 0.10097(12) -0.23343(16) 0.39903(12) 0.0227 Uani
C4AB C -0.30119(16) -0.08817(12) 0.41183(12) 0.0250 Uani
C4GA C -0.08817(12) -0.30119(16) 0.41183(12) 0.0250 Uani
C4A C -0.08817(12) -0.08817(12) 0.19881(16) 0.0250 Uani
C4HB C -0.41183(12) 0.08817(12) 0.30119(16) 0.0250 Uani
C4PB C -0.30119(16) 0.08817(12) 0.41183(12) 0.0250 Uani
C4PA C -0.08817(12) 0.30119(16) 0.41183(12) 0.0250 Uani
C4O C -0.08817(12) 0.08817(12) 0.19881(16) 0.0250 Uani
C4H C 0.08817(12) 0.19881(16) 0.08817(12) 0.0250 Uani
C4IB C 0.41183(12) -0.08817(12) 0.30119(16) 0.0250 Uani
C4CB C 0.30119(16) 0.08817(12) 0.41183(12) 0.0250 Uani
C4XA C 0.41183(12) 0.08817(12) 0.30119(16) 0.0250 Uani
C4SB C 0.30119(16) -0.08817(12) 0.41183(12) 0.0250 Uani
C4D C 0.19881(16) 0.08817(12) 0.08817(12) 0.0250 Uani
C4N C 0.08817(12) -0.08817(12) 0.19881(16) 0.0250 Uani
C4U C 0.19881(16) -0.08817(12) 0.08817(12) 0.0250 Uani
C4Q C -0.08817(12) 0.19881(16) 0.08817(12) 0.0250 Uani
C4HA C 0.08817(12) 0.30119(16) 0.41183(12) 0.0250 Uani
C4AA C 0.08817(12) 0.41183(12) 0.30119(16) 0.0250 Uani
C4DA C -0.19881(16) 0.41183(12) 0.58817(12) 0.0250 Uani
C4IA C -0.08817(12) 0.30119(16) 0.58817(12) 0.0250 Uani
C4LB C -0.41183(12) 0.19881(16) 0.41183(12) 0.0250 Uani
C4V C -0.19881(16) 0.08817(12) 0.08817(12) 0.0250 Uani
C4S C 0.08817(12) -0.19881(16) 0.08817(12) 0.0250 Uani
H2GA H -0.0833 -0.3235 0.4167 0.0300 Uiso
H2A H -0.0833 -0.0833 0.1765 0.0300 Uiso
H2HB H -0.4167 0.0833 0.3235 0.0300 Uiso
H2PB H -0.3235 0.0833 0.4167 0.0300 Uiso
H2PA H -0.0833 0.3235 0.4167 0.0300 Uiso
H2O H -0.0833 0.0833 0.1765 0.0300 Uiso
H2H H 0.0833 0.1765 0.0833 0.0300 Uiso
H2IB H 0.4167 -0.0833 0.3235 0.0300 Uiso
H2CB H 0.3235 0.0833 0.4167 0.0300 Uiso
H2XA H 0.4167 0.0833 0.3235 0.0300 Uiso
H2SB H 0.3235 -0.0833 0.4167 0.0300 Uiso
H2D H 0.1765 0.0833 0.0833 0.0300 Uiso
H2N H 0.0833 -0.0833 0.1765 0.0300 Uiso
H2U H 0.1765 -0.0833 0.0833 0.0300 Uiso
H2Q H -0.0833 0.1765 0.0833 0.0300 Uiso
H2HA H 0.0833 0.3235 0.4167 0.0300 Uiso
H2AA H 0.0833 0.4167 0.3235 0.0300 Uiso
H2DA H -0.1765 0.4167 0.5833 0.0300 Uiso
H2IA H -0.0833 0.3235 0.5833 0.0300 Uiso
H2LB H -0.4167 0.1765 0.4167 0.0300 Uiso
H2V H -0.1765 0.0833 0.0833 0.0300 Uiso
H2S H 0.0833 -0.1765 0.0833 0.0300 Uiso
H2AB H -0.3235 -0.0833 0.4167 0.0300 Uiso
C5AB C -0.30331(12) -0.13292(12) 0.45564(12) 0.0213 Uani
C5OB C -0.36708(12) -0.19669(12) 0.54436(12) 0.0213 Uani
C5EF C -0.36708(12) -0.19669(12) 0.45564(12) 0.0213 Uani
C5UE C -0.30331(12) -0.13292(12) 0.54436(12) 0.0213 Uani
C5EA C -0.19669(12) -0.36708(12) 0.45564(12) 0.0213 Uani
C5OA C -0.13292(12) -0.30331(12) 0.54436(12) 0.0213 Uani
C5UD C -0.19669(12) -0.36708(12) 0.54436(12) 0.0213 Uani
C5IE C -0.13292(12) -0.30331(12) 0.45564(12) 0.0213 Uani
C5GA C -0.04436(12) -0.30331(12) 0.36708(12) 0.0213 Uani
C5JA C 0.04436(12) -0.36708(12) 0.30331(12) 0.0213 Uani
C5DE C -0.04436(12) -0.36708(12) 0.30331(12) 0.0213 Uani
C5AE C 0.04436(12) -0.30331(12) 0.36708(12) 0.0213 Uani
C5K C -0.04436(12) -0.19669(12) 0.13292(12) 0.0213 Uani
C5N C 0.04436(12) -0.13292(12) 0.19669(12) 0.0213 Uani
C5AD C 0.04436(12) -0.19669(12) 0.13292(12) 0.0213 Uani
C5DD C -0.04436(12) -0.13292(12) 0.19669(12) 0.0213 Uani
C5A C -0.13292(12) -0.04436(12) 0.19669(12) 0.0213 Uani
C5V C -0.19669(12) 0.04436(12) 0.13292(12) 0.0213 Uani
C5LD C -0.19669(12) -0.04436(12) 0.13292(12) 0.0213 Uani
C5UC C -0.13292(12) 0.04436(12) 0.19669(12) 0.0213 Uani
C5YA C -0.36708(12) -0.04436(12) 0.30331(12) 0.0213 Uani
C5PB C -0.30331(12) 0.04436(12) 0.36708(12) 0.0213 Uani
C5OE C -0.36708(12) 0.04436(12) 0.30331(12) 0.0213 Uani
C5JF C -0.30331(12) -0.04436(12) 0.36708(12) 0.0213 Uani
C5HB C -0.45564(12) 0.13292(12) 0.30331(12) 0.0213 Uani
C5TE C -0.30331(12) 0.13292(12) 0.45564(12) 0.0213 Uani
C5FF C -0.36708(12) 0.19669(12) 0.54436(12) 0.0213 Uani
C5LB C -0.36708(12) 0.19669(12) 0.45564(12) 0.0213 Uani
C5ZA C -0.30331(12) 0.13292(12) 0.54436(12) 0.0213 Uani
C5TD C -0.19669(12) 0.36708(12) 0.45564(12) 0.0213 Uani
C5FE C -0.13292(12) 0.30331(12) 0.54436(12) 0.0213 Uani
C5DA C -0.19669(12) 0.36708(12) 0.54436(12) 0.0213 Uani
C5PA C -0.13292(12) 0.30331(12) 0.45564(12) 0.0213 Uani
C5XD C -0.04436(12) 0.30331(12) 0.36708(12) 0.0213 Uani
C5EE C 0.04436(12) 0.36708(12) 0.30331(12) 0.0213 Uani
C5KA C -0.04436(12) 0.36708(12) 0.30331(12) 0.0213 Uani
C5HA C 0.04436(12) 0.30331(12) 0.36708(12) 0.0213 Uani
C5BD C -0.04436(12) 0.19669(12) 0.13292(12) 0.0213 Uani
C5ED C 0.04436(12) 0.13292(12) 0.19669(12) 0.0213 Uani
C5H C 0.04436(12) 0.19669(12) 0.13292(12) 0.0213 Uani
C5O C -0.04436(12) 0.13292(12) 0.19669(12) 0.0213 Uani
C5JD C 0.13292(12) 0.19669(12) 0.04436(12) 0.0213 Uani
C5U C 0.19669(12) -0.04436(12) 0.13292(12) 0.0213 Uani
C5TC C 0.13292(12) -0.04436(12) 0.19669(12) 0.0213 Uani
C5OD C 0.19669(12) 0.04436(12) 0.13292(12) 0.0213 Uani
C5SB C 0.30331(12) -0.04436(12) 0.36708(12) 0.0213 Uani
C5XA C 0.36708(12) 0.04436(12) 0.30331(12) 0.0213 Uani
C5IF C 0.30331(12) 0.04436(12) 0.36708(12) 0.0213 Uani
C5NE C 0.36708(12) -0.04436(12) 0.30331(12) 0.0213 Uani
C5IB C 0.45564(12) -0.13292(12) 0.30331(12) 0.0213 Uani
C5CB C 0.30331(12) 0.13292(12) 0.45564(12) 0.0213 Uani
C5BF C 0.45564(12) 0.13292(12) 0.30331(12) 0.0213 Uani
C5RE C 0.30331(12) -0.13292(12) 0.45564(12) 0.0213 Uani
C5D C 0.19669(12) 0.13292(12) 0.04436(12) 0.0213 Uani
C5YC C 0.19669(12) -0.13292(12) 0.04436(12) 0.0213 Uani
C5Q C -0.13292(12) 0.19669(12) 0.04436(12) 0.0213 Uani
C5GE C 0.13292(12) 0.30331(12) 0.45564(12) 0.0213 Uani
C5AA C 0.13292(12) 0.45564(12) 0.30331(12) 0.0213 Uani
C5JE C -0.19669(12) 0.45564(12) 0.63292(12) 0.0213 Uani
C5IA C -0.04436(12) 0.30331(12) 0.63292(12) 0.0213 Uani
C5YE C -0.45564(12) 0.19669(12) 0.36708(12) 0.0213 Uani
C5WC C -0.19669(12) 0.13292(12) 0.04436(12) 0.0213 Uani
C5S C 0.13292(12) -0.19669(12) 0.04436(12) 0.0213 Uani
C6HA C 0.10606(11) 0.19654(15) 0.39394(11) 0.0193 Uani
C6CB C 0.19654(15) 0.10606(11) 0.39394(11) 0.0193 Uani
C6N C 0.10606(11) -0.10606(11) 0.30346(15) 0.0193 Uani
C6NA C 0.10606(11) -0.19654(15) 0.39394(11) 0.0193 Uani
C6SB C 0.19654(15) -0.10606(11) 0.39394(11) 0.0193 Uani
C6FA C 0.10606(11) -0.19654(15) 0.60606(11) 0.0193 Uani
C6C C 0.10606(11) -0.10606(11) 0.69654(15) 0.0193 Uani
C6BB C 0.19654(15) -0.10606(11) 0.60606(11) 0.0193 Uani
C6L C 0.10606(11) 0.10606(11) 0.69654(15) 0.0193 Uani
C6QA C 0.10606(11) 0.19654(15) 0.60606(11) 0.0193 Uani
C6RB C 0.19654(15) 0.10606(11) 0.60606(11) 0.0193 Uani
C6O C -0.10606(11) 0.10606(11) 0.30346(15) 0.0193 Uani
C6PB C -0.19654(15) 0.10606(11) 0.39394(11) 0.0193 Uani
C6PA C -0.10606(11) 0.19654(15) 0.39394(11) 0.0193 Uani
C6IA C -0.10606(11) 0.19654(15) 0.60606(11) 0.0193 Uani
C6B C -0.10606(11) 0.10606(11) 0.69654(15) 0.0193 Uani
C6ZA C -0.19654(15) 0.10606(11) 0.60606(11) 0.0193 Uani
C6QB C -0.19654(15) -0.10606(11) 0.60606(11) 0.0193 Uani
C6OA C -0.10606(11) -0.19654(15) 0.60606(11) 0.0193 Uani
C6M C -0.10606(11) -0.10606(11) 0.69654(15) 0.0193 Uani
C6GA C -0.10606(11) -0.19654(15) 0.39394(11) 0.0193 Uani
C6A C -0.10606(11) -0.10606(11) 0.30346(15) 0.0193 Uani
C6AB C -0.19654(15) -0.10606(11) 0.39394(11) 0.0193 Uani
C6HB C -0.39394(11) 0.10606(11) 0.19654(15) 0.0193 Uani
C6H C 0.10606(11) 0.30346(15) 0.10606(11) 0.0193 Uani
C6IB C 0.39394(11) -0.10606(11) 0.19654(15) 0.0193 Uani
C6XA C 0.39394(11) 0.10606(11) 0.19654(15) 0.0193 Uani
C6D C 0.30346(15) 0.10606(11) 0.10606(11) 0.0193 Uani
C6U C 0.30346(15) -0.10606(11) 0.10606(11) 0.0193 Uani
C6Q C -0.10606(11) 0.30346(15) 0.10606(11) 0.0193 Uani
C6AA C 0.10606(11) 0.39394(11) 0.19654(15) 0.0193 Uani
C6DA C -0.30346(15) 0.39394(11) 0.60606(11) 0.0193 Uani
C6LB C -0.39394(11) 0.30346(15) 0.39394(11) 0.0193 Uani
C6V C -0.30346(15) 0.10606(11) 0.10606(11) 0.0193 Uani
C6S C 0.10606(11) -0.30346(15) 0.10606(11) 0.0193 Uani
C7TC C 0.09621(13) -0.01919(12) 0.36101(14) 0.0373 Uani
C7NA C 0.09621(13) -0.13899(14) 0.48081(12) 0.0373 Uani
C7HE C 0.09621(13) -0.13899(14) 0.51919(12) 0.0373 Uani
C7C C 0.09621(13) -0.01919(12) 0.63899(14) 0.0373 Uani
C7SC C 0.09621(13) 0.01919(12) 0.63899(14) 0.0373 Uani
C7QA C 0.09621(13) 0.13899(14) 0.51919(12) 0.0373 Uani
C7GE C 0.09621(13) 0.13899(14) 0.48081(12) 0.0373 Uani
C7ED C 0.01919(12) 0.09621(13) 0.36101(14) 0.0373 Uani
C7O C -0.01919(12) 0.09621(13) 0.36101(14) 0.0373 Uani
C7TE C -0.13899(14) 0.09621(13) 0.48081(12) 0.0373 Uani
C7ZA C -0.13899(14) 0.09621(13) 0.51919(12) 0.0373 Uani
C7PA C -0.09621(13) 0.13899(14) 0.48081(12) 0.0373 Uani
C7FE C -0.09621(13) 0.13899(14) 0.51919(12) 0.0373 Uani
C7B C -0.09621(13) 0.01919(12) 0.63899(14) 0.0373 Uani
C7RC C -0.09621(13) -0.01919(12) 0.63899(14) 0.0373 Uani
C7KF C -0.13899(14) 0.01919(12) 0.59621(13) 0.0373 Uani
C7QB C -0.13899(14) -0.01919(12) 0.59621(13) 0.0373 Uani
C7ZD C -0.01919(12) -0.13899(14) 0.59621(13) 0.0373 Uani
C7FA C 0.01919(12) -0.13899(14) 0.59621(13) 0.0373 Uani
C7GD C 0.01919(12) -0.09621(13) 0.63899(14) 0.0373 Uani
C7M C -0.01919(12) -0.09621(13) 0.63899(14) 0.0373 Uani
C7UE C -0.13899(14) -0.09621(13) 0.51919(12) 0.0373 Uani
C7AB C -0.13899(14) -0.09621(13) 0.48081(12) 0.0373 Uani
C7OA C -0.09621(13) -0.13899(14) 0.51919(12) 0.0373 Uani
C7IE C -0.09621(13) -0.13899(14) 0.48081(12) 0.0373 Uani
C7A C -0.09621(13) -0.01919(12) 0.36101(14) 0.0373 Uani
C7UC C -0.09621(13) 0.01919(12) 0.36101(14) 0.0373 Uani
C7JF C -0.13899(14) -0.01919(12) 0.40379(13) 0.0373 Uani
C7PB C -0.13899(14) 0.01919(12) 0.40379(13) 0.0373 Uani
C7GA C -0.01919(12) -0.13899(14) 0.40379(13) 0.0373 Uani
C7AE C 0.01919(12) -0.13899(14) 0.40379(13) 0.0373 Uani
C7DD C -0.01919(12) -0.09621(13) 0.36101(14) 0.0373 Uani
C7N C 0.01919(12) -0.09621(13) 0.36101(14) 0.0373 Uani
C7IA C -0.01919(12) 0.13899(14) 0.59621(13) 0.0373 Uani
C7FD C -0.01919(12) 0.09621(13) 0.63899(14) 0.0373 Uani
C7XD C -0.01919(12) 0.13899(14) 0.40379(13) 0.0373 Uani
C7HA C 0.01919(12) 0.13899(14) 0.40379(13) 0.0373 Uani
C7CB C 0.13899(14) 0.09621(13) 0.48081(12) 0.0373 Uani
C7SE C 0.13899(14) 0.09621(13) 0.51919(12) 0.0373 Uani
C7L C 0.01919(12) 0.09621(13) 0.63899(14) 0.0373 Uani
C7YD C 0.01919(12) 0.13899(14) 0.59621(13) 0.0373 Uani
C7RB C 0.13899(14) 0.01919(12) 0.59621(13) 0.0373 Uani
C7HF C 0.13899(14) -0.01919(12) 0.59621(13) 0.0373 Uani
C7BB C 0.13899(14) -0.09621(13) 0.51919(12) 0.0373 Uani
C7RE C 0.13899(14) -0.09621(13) 0.48081(12) 0.0373 Uani
C7SB C 0.13899(14) -0.01919(12) 0.40379(13) 0.0373 Uani
C7IF C 0.13899(14) 0.01919(12) 0.40379(13) 0.0373 Uani
H3TC H 0.0901 -0.0273 0.3388 0.0450 Uiso
H3HE H 0.0901 -0.1612 0.5273 0.0450 Uiso
H3SC H 0.0901 0.0273 0.6612 0.0450 Uiso
H3GE H 0.0901 0.1612 0.4727 0.0450 Uiso
H3O H -0.0273 0.0901 0.3388 0.0450 Uiso
H3TE H -0.1612 0.0901 0.4727 0.0450 Uiso
H3PA H -0.0901 0.1612 0.4727 0.0450 Uiso
H3B H -0.0901 0.0273 0.6612 0.0450 Uiso
H3KF H -0.1612 0.0273 0.5901 0.0450 Uiso
H3FA H 0.0273 -0.1612 0.5901 0.0450 Uiso
H3GD H 0.0273 -0.0901 0.6612 0.0450 Uiso
H3M H -0.0273 -0.0901 0.6612 0.0450 Uiso
H3ZD H -0.0273 -0.1612 0.5901 0.0450 Uiso
H3UE H -0.1612 -0.0901 0.5273 0.0450 Uiso
H3OA H -0.0901 -0.1612 0.5273 0.0450 Uiso
H3A H -0.0901 -0.0273 0.3388 0.0450 Uiso
H3JF H -0.1612 -0.0273 0.4099 0.0450 Uiso
H3PB H -0.1612 0.0273 0.4099 0.0450 Uiso
H3UC H -0.0901 0.0273 0.3388 0.0450 Uiso
H3GA H -0.0273 -0.1612 0.4099 0.0450 Uiso
H3DD H -0.0273 -0.0901 0.3388 0.0450 Uiso
H3N H 0.0273 -0.0901 0.3388 0.0450 Uiso
H3AE H 0.0273 -0.1612 0.4099 0.0450 Uiso
H3IE H -0.0901 -0.1612 0.4727 0.0450 Uiso
H3AB H -0.1612 -0.0901 0.4727 0.0450 Uiso
H3QB H -0.1612 -0.0273 0.5901 0.0450 Uiso
H3RC H -0.0901 -0.0273 0.6612 0.0450 Uiso
H3IA H -0.0273 0.1612 0.5901 0.0450 Uiso
H3FD H -0.0273 0.0901 0.6612 0.0450 Uiso
H3FE H -0.0901 0.1612 0.5273 0.0450 Uiso
H3ZA H -0.1612 0.0901 0.5273 0.0450 Uiso
H3XD H -0.0273 0.1612 0.4099 0.0450 Uiso
H3ED H 0.0273 0.0901 0.3388 0.0450 Uiso
H3HA H 0.0273 0.1612 0.4099 0.0450 Uiso
H3CB H 0.1612 0.0901 0.4727 0.0450 Uiso
H3QA H 0.0901 0.1612 0.5273 0.0450 Uiso
H3SE H 0.1612 0.0901 0.5273 0.0450 Uiso
H3L H 0.0273 0.0901 0.6612 0.0450 Uiso
H3YD H 0.0273 0.1612 0.5901 0.0450 Uiso
H3RB H 0.1612 0.0273 0.5901 0.0450 Uiso
H3C H 0.0901 -0.0273 0.6612 0.0450 Uiso
H3HF H 0.1612 -0.0273 0.5901 0.0450 Uiso
H3BB H 0.1612 -0.0901 0.5273 0.0450 Uiso
H3NA H 0.0901 -0.1612 0.4727 0.0450 Uiso
H3RE H 0.1612 -0.0901 0.4727 0.0450 Uiso
H3SB H 0.1612 -0.0273 0.4099 0.0450 Uiso
H3IF H 0.1612 0.0273 0.4099 0.0450 Uiso
H4TC H 0.0795 -0.0273 0.3769 0.0450 Uiso
H4HE H 0.0795 -0.1231 0.5273 0.0450 Uiso
H4SC H 0.0795 0.0273 0.6231 0.0450 Uiso
H4GE H 0.0795 0.1231 0.4727 0.0450 Uiso
H4O H -0.0273 0.0795 0.3769 0.0450 Uiso
H4TE H -0.1231 0.0795 0.4727 0.0450 Uiso
H4PA H -0.0795 0.1231 0.4727 0.0450 Uiso
H4B H -0.0795 0.0273 0.6231 0.0450 Uiso
H4KF H -0.1231 0.0273 0.5795 0.0450 Uiso
H4FA H 0.0273 -0.1231 0.5795 0.0450 Uiso
H4GD H 0.0273 -0.0795 0.6231 0.0450 Uiso
H4M H -0.0273 -0.0795 0.6231 0.0450 Uiso
H4ZD H -0.0273 -0.1231 0.5795 0.0450 Uiso
H4UE H -0.1231 -0.0795 0.5273 0.0450 Uiso
H4OA H -0.0795 -0.1231 0.5273 0.0450 Uiso
H4A H -0.0795 -0.0273 0.3769 0.0450 Uiso
H4JF H -0.1231 -0.0273 0.4205 0.0450 Uiso
H4PB H -0.1231 0.0273 0.4205 0.0450 Uiso
H4UC H -0.0795 0.0273 0.3769 0.0450 Uiso
H4GA H -0.0273 -0.1231 0.4205 0.0450 Uiso
H4DD H -0.0273 -0.0795 0.3769 0.0450 Uiso
H4N H 0.0273 -0.0795 0.3769 0.0450 Uiso
H4AE H 0.0273 -0.1231 0.4205 0.0450 Uiso
H4IE H -0.0795 -0.1231 0.4727 0.0450 Uiso
H4AB H -0.1231 -0.0795 0.4727 0.0450 Uiso
H4QB H -0.1231 -0.0273 0.5795 0.0450 Uiso
H4RC H -0.0795 -0.0273 0.6231 0.0450 Uiso
H4IA H -0.0273 0.1231 0.5795 0.0450 Uiso
H4FD H -0.0273 0.0795 0.6231 0.0450 Uiso
H4FE H -0.0795 0.1231 0.5273 0.0450 Uiso
H4ZA H -0.1231 0.0795 0.5273 0.0450 Uiso
H4XD H -0.0273 0.1231 0.4205 0.0450 Uiso
H4ED H 0.0273 0.0795 0.3769 0.0450 Uiso
H4HA H 0.0273 0.1231 0.4205 0.0450 Uiso
H4CB H 0.1231 0.0795 0.4727 0.0450 Uiso
H4QA H 0.0795 0.1231 0.5273 0.0450 Uiso
H4SE H 0.1231 0.0795 0.5273 0.0450 Uiso
H4L H 0.0273 0.0795 0.6231 0.0450 Uiso
H4YD H 0.0273 0.1231 0.5795 0.0450 Uiso
H4RB H 0.1231 0.0273 0.5795 0.0450 Uiso
H4C H 0.0795 -0.0273 0.6231 0.0450 Uiso
H4HF H 0.1231 -0.0273 0.5795 0.0450 Uiso
H4BB H 0.1231 -0.0795 0.5273 0.0450 Uiso
H4NA H 0.0795 -0.1231 0.4727 0.0450 Uiso
H4RE H 0.1231 -0.0795 0.4727 0.0450 Uiso
H4SB H 0.1231 -0.0273 0.4205 0.0450 Uiso
H4IF H 0.1231 0.0273 0.4205 0.0450 Uiso
C8PA C -0.15450(13) 0.15450(13) 0.48035(17) 0.0403 Uani
C8ZA C -0.15450(13) 0.15450(13) 0.51965(17) 0.0403 Uani
C8B C -0.15450(13) 0.01965(17) 0.65450(13) 0.0403 Uani
C8QB C -0.15450(13) -0.01965(17) 0.65450(13) 0.0403 Uani
C8FA C 0.01965(17) -0.15450(13) 0.65450(13) 0.0403 Uani
C8M C -0.01965(17) -0.15450(13) 0.65450(13) 0.0403 Uani
C8OA C -0.15450(13) -0.15450(13) 0.51965(17) 0.0403 Uani
C8AB C -0.15450(13) -0.15450(13) 0.48035(17) 0.0403 Uani
C8A C -0.15450(13) -0.01965(17) 0.34550(13) 0.0403 Uani
C8PB C -0.15450(13) 0.01965(17) 0.34550(13) 0.0403 Uani
C8GA C -0.01965(17) -0.15450(13) 0.34550(13) 0.0403 Uani
C8N C 0.01965(17) -0.15450(13) 0.34550(13) 0.0403 Uani
C8IA C -0.01965(17) 0.15450(13) 0.65450(13) 0.0403 Uani
C8L C 0.01965(17) 0.15450(13) 0.65450(13) 0.0403 Uani
C8O C -0.01965(17) 0.15450(13) 0.34550(13) 0.0403 Uani
C8HA C 0.01965(17) 0.15450(13) 0.34550(13) 0.0403 Uani
C8CB C 0.15450(13) 0.15450(13) 0.48035(17) 0.0403 Uani
C8QA C 0.15450(13) 0.15450(13) 0.51965(17) 0.0403 Uani
C8RB C 0.15450(13) 0.01965(17) 0.65450(13) 0.0403 Uani
C8C C 0.15450(13) -0.01965(17) 0.65450(13) 0.0403 Uani
C8BB C 0.15450(13) -0.15450(13) 0.51965(17) 0.0403 Uani
C8NA C 0.15450(13) -0.15450(13) 0.48035(17) 0.0403 Uani
C8SB C 0.15450(13) -0.01965(17) 0.34550(13) 0.0403 Uani
H5FE H -0.1765 0.1490 0.5278 0.0480 Uiso
H5ZA H -0.1490 0.1765 0.5278 0.0480 Uiso
H5QB H -0.1490 -0.0278 0.6765 0.0480 Uiso
H5RC H -0.1765 -0.0278 0.6490 0.0480 Uiso
H5M H -0.0278 -0.1765 0.6490 0.0480 Uiso
H5ZD H -0.0278 -0.1490 0.6765 0.0480 Uiso
H5FA H 0.0278 -0.1490 0.6765 0.0480 Uiso
H5GD H 0.0278 -0.1765 0.6490 0.0480 Uiso
H5IE H -0.1765 -0.1490 0.4722 0.0480 Uiso
H5AB H -0.1490 -0.1765 0.4722 0.0480 Uiso
H5PB H -0.1490 0.0278 0.3235 0.0480 Uiso
H5UC H -0.1765 0.0278 0.3510 0.0480 Uiso
H5A H -0.1765 -0.0278 0.3510 0.0480 Uiso
H5JF H -0.1490 -0.0278 0.3235 0.0480 Uiso
H5N H 0.0278 -0.1765 0.3510 0.0480 Uiso
H5AE H 0.0278 -0.1490 0.3235 0.0480 Uiso
H5GA H -0.0278 -0.1490 0.3235 0.0480 Uiso
H5DD H -0.0278 -0.1765 0.3510 0.0480 Uiso
H5UE H -0.1490 -0.1765 0.5278 0.0480 Uiso
H5OA H -0.1765 -0.1490 0.5278 0.0480 Uiso
H5B H -0.1765 0.0278 0.6490 0.0480 Uiso
H5KF H -0.1490 0.0278 0.6765 0.0480 Uiso
H5IA H -0.0278 0.1490 0.6765 0.0480 Uiso
H5FD H -0.0278 0.1765 0.6490 0.0480 Uiso
H5TE H -0.1490 0.1765 0.4722 0.0480 Uiso
H5PA H -0.1765 0.1490 0.4722 0.0480 Uiso
H5O H -0.0278 0.1765 0.3510 0.0480 Uiso
H5XD H -0.0278 0.1490 0.3235 0.0480 Uiso
H5HA H 0.0278 0.1490 0.3235 0.0480 Uiso
H5ED H 0.0278 0.1765 0.3510 0.0480 Uiso
H5GE H 0.1765 0.1490 0.4722 0.0480 Uiso
H5CB H 0.1490 0.1765 0.4722 0.0480 Uiso
H5SE H 0.1490 0.1765 0.5278 0.0480 Uiso
H5QA H 0.1765 0.1490 0.5278 0.0480 Uiso
H5L H 0.0278 0.1765 0.6490 0.0480 Uiso
H5YD H 0.0278 0.1490 0.6765 0.0480 Uiso
H5SC H 0.1765 0.0278 0.6490 0.0480 Uiso
H5RB H 0.1490 0.0278 0.6765 0.0480 Uiso
H5HF H 0.1490 -0.0278 0.6765 0.0480 Uiso
H5C H 0.1765 -0.0278 0.6490 0.0480 Uiso
H5HE H 0.1765 -0.1490 0.5278 0.0480 Uiso
H5BB H 0.1490 -0.1765 0.5278 0.0480 Uiso
H5RE H 0.1490 -0.1765 0.4722 0.0480 Uiso
H5NA H 0.1765 -0.1490 0.4722 0.0480 Uiso
H5TC H 0.1765 -0.0278 0.3510 0.0480 Uiso
H5SB H 0.1490 -0.0278 0.3235 0.0480 Uiso
H5IF H 0.1490 0.0278 0.3235 0.0480 Uiso
C9OB C -0.2762(3) -0.2471(4) 0.5310(4) 0.0740 Uiso
C9UE C -0.2529(4) -0.2238(3) 0.5310(4) 0.0740 Uiso
C9OA C -0.2238(3) -0.2529(4) 0.5310(4) 0.0740 Uiso
C9UD C -0.2471(4) -0.2762(3) 0.5310(4) 0.0740 Uiso
C9EF C -0.2762(3) -0.2471(4) 0.4690(4) 0.0740 Uiso
C9AB C -0.2529(4) -0.2238(3) 0.4690(4) 0.0740 Uiso
C9EA C -0.2471(4) -0.2762(3) 0.4690(4) 0.0740 Uiso
C9IE C -0.2238(3) -0.2529(4) 0.4690(4) 0.0740 Uiso
C9JA C 0.0310(4) -0.2762(3) 0.2529(4) 0.0740 Uiso
C9AE C 0.0310(4) -0.2529(4) 0.2762(3) 0.0740 Uiso
C9N C 0.0310(4) -0.2238(3) 0.2471(4) 0.0740 Uiso
C9AD C 0.0310(4) -0.2471(4) 0.2238(3) 0.0740 Uiso
C9DE C -0.0310(4) -0.2762(3) 0.2529(4) 0.0740 Uiso
C9GA C -0.0310(4) -0.2529(4) 0.2762(3) 0.0740 Uiso
C9K C -0.0310(4) -0.2471(4) 0.2238(3) 0.0740 Uiso
C9DD C -0.0310(4) -0.2238(3) 0.2471(4) 0.0740 Uiso
C9V C -0.2471(4) 0.0310(4) 0.2238(3) 0.0740 Uiso
C9UC C -0.2238(3) 0.0310(4) 0.2471(4) 0.0740 Uiso
C9PB C -0.2529(4) 0.0310(4) 0.2762(3) 0.0740 Uiso
C9OE C -0.2762(3) 0.0310(4) 0.2529(4) 0.0740 Uiso
C9LD C -0.2471(4) -0.0310(4) 0.2238(3) 0.0740 Uiso
C9A C -0.2238(3) -0.0310(4) 0.2471(4) 0.0740 Uiso
C9YA C -0.2762(3) -0.0310(4) 0.2529(4) 0.0740 Uiso
C9JF C -0.2529(4) -0.0310(4) 0.2762(3) 0.0740 Uiso
C9FF C -0.2762(3) 0.2471(4) 0.5310(4) 0.0740 Uiso
C9ZA C -0.2529(4) 0.2238(3) 0.5310(4) 0.0740 Uiso
C9FE C -0.2238(3) 0.2529(4) 0.5310(4) 0.0740 Uiso
C9DA C -0.2471(4) 0.2762(3) 0.5310(4) 0.0740 Uiso
C9LB C -0.2762(3) 0.2471(4) 0.4690(4) 0.0740 Uiso
C9TE C -0.2529(4) 0.2238(3) 0.4690(4) 0.0740 Uiso
C9TD C -0.2471(4) 0.2762(3) 0.4690(4) 0.0740 Uiso
C9PA C -0.2238(3) 0.2529(4) 0.4690(4) 0.0740 Uiso
C9EE C 0.0310(4) 0.2762(3) 0.2529(4) 0.0740 Uiso
C9HA C 0.0310(4) 0.2529(4) 0.2762(3) 0.0740 Uiso
C9ED C 0.0310(4) 0.2238(3) 0.2471(4) 0.0740 Uiso
C9H C 0.0310(4) 0.2471(4) 0.2238(3) 0.0740 Uiso
C9KA C -0.0310(4) 0.2762(3) 0.2529(4) 0.0740 Uiso
C9XD C -0.0310(4) 0.2529(4) 0.2762(3) 0.0740 Uiso
C9BD C -0.0310(4) 0.2471(4) 0.2238(3) 0.0740 Uiso
C9O C -0.0310(4) 0.2238(3) 0.2471(4) 0.0740 Uiso
C9OD C 0.2471(4) 0.0310(4) 0.2238(3) 0.0740 Uiso
C9XA C 0.2762(3) 0.0310(4) 0.2529(4) 0.0740 Uiso
C9IF C 0.2529(4) 0.0310(4) 0.2762(3) 0.0740 Uiso
C9TC C 0.2238(3) -0.0310(4) 0.2471(4) 0.0740 Uiso
C9U C 0.2471(4) -0.0310(4) 0.2238(3) 0.0740 Uiso
C9SB C 0.2529(4) -0.0310(4) 0.2762(3) 0.0740 Uiso
C9NE C 0.2762(3) -0.0310(4) 0.2529(4) 0.0740 Uiso
C10OB C -0.2892(5) -0.2605(5) 0.5000 0.0650 Uiso
C10AB C -0.2395(5) -0.2108(5) 0.5000 0.0650 Uiso
C10EA C -0.2605(5) -0.2892(5) 0.5000 0.0650 Uiso
C10OA C -0.2108(5) -0.2395(5) 0.5000 0.0650 Uiso
C10JA C 0.0000 -0.2892(5) 0.2395(5) 0.0650 Uiso
C10GA C 0.0000 -0.2395(5) 0.2892(5) 0.0650 Uiso
C10K C 0.0000 -0.2605(5) 0.2108(5) 0.0650 Uiso
C10N C 0.0000 -0.2108(5) 0.2605(5) 0.0650 Uiso
C10V C -0.2605(5) 0.0000 0.2108(5) 0.0650 Uiso
C10A C -0.2108(5) 0.0000 0.2605(5) 0.0650 Uiso
C10YA C -0.2892(5) 0.0000 0.2395(5) 0.0650 Uiso
C10PB C -0.2395(5) 0.0000 0.2892(5) 0.0650 Uiso
C10LB C -0.2892(5) 0.2605(5) 0.5000 0.0650 Uiso
C10ZA C -0.2395(5) 0.2108(5) 0.5000 0.0650 Uiso
C10DA C -0.2605(5) 0.2892(5) 0.5000 0.0650 Uiso
C10PA C -0.2108(5) 0.2395(5) 0.5000 0.0650 Uiso
C10KA C 0.0000 0.2892(5) 0.2395(5) 0.0650 Uiso
C10HA C 0.0000 0.2395(5) 0.2892(5) 0.0650 Uiso
C10H C 0.0000 0.2605(5) 0.2108(5) 0.0650 Uiso
C10O C 0.0000 0.2108(5) 0.2605(5) 0.0650 Uiso
C10U C 0.2605(5) 0.0000 0.2108(5) 0.0650 Uiso
C10SB C 0.2395(5) 0.0000 0.2892(5) 0.0650 Uiso
C10XA C 0.2892(5) 0.0000 0.2395(5) 0.0650 Uiso
N1SB N 0.12971(9) -0.03282(13) 0.37029(9) 0.0240 Uani
N1NA N 0.12971(9) -0.12971(9) 0.46718(13) 0.0240 Uani
N1BB N 0.12971(9) -0.12971(9) 0.53282(13) 0.0240 Uani
N1C N 0.12971(9) -0.03282(13) 0.62971(9) 0.0240 Uani
N1RB N 0.12971(9) 0.03282(13) 0.62971(9) 0.0240 Uani
N1QA N 0.12971(9) 0.12971(9) 0.53282(13) 0.0240 Uani
N1CB N 0.12971(9) 0.12971(9) 0.46718(13) 0.0240 Uani
N1HA N 0.03282(13) 0.12971(9) 0.37029(9) 0.0240 Uani
N1O N -0.03282(13) 0.12971(9) 0.37029(9) 0.0240 Uani
N1PA N -0.12971(9) 0.12971(9) 0.46718(13) 0.0240 Uani
N1ZA N -0.12971(9) 0.12971(9) 0.53282(13) 0.0240 Uani
N1B N -0.12971(9) 0.03282(13) 0.62971(9) 0.0240 Uani
N1QB N -0.12971(9) -0.03282(13) 0.62971(9) 0.0240 Uani
N1M N -0.03282(13) -0.12971(9) 0.62971(9) 0.0240 Uani
N1FA N 0.03282(13) -0.12971(9) 0.62971(9) 0.0240 Uani
N1OA N -0.12971(9) -0.12971(9) 0.53282(13) 0.0240 Uani
N1AB N -0.12971(9) -0.12971(9) 0.46718(13) 0.0240 Uani
N1A N -0.12971(9) -0.03282(13) 0.37029(9) 0.0240 Uani
N1PB N -0.12971(9) 0.03282(13) 0.37029(9) 0.0240 Uani
N1GA N -0.03282(13) -0.12971(9) 0.37029(9) 0.0240 Uani
N1N N 0.03282(13) -0.12971(9) 0.37029(9) 0.0240 Uani
N1IA N -0.03282(13) 0.12971(9) 0.62971(9) 0.0240 Uani
N1L N 0.03282(13) 0.12971(9) 0.62971(9) 0.0240 Uani
N2AB N -0.27312(12) -0.22688(12) 0.5000 0.0157 Uani
N2EA N -0.22688(12) -0.27312(12) 0.5000 0.0157 Uani
N2GA N 0.0000 -0.27312(12) 0.27312(12) 0.0157 Uani
N2K N 0.0000 -0.22688(12) 0.22688(12) 0.0157 Uani
N2A N -0.22688(12) 0.0000 0.22688(12) 0.0157 Uani
N2YA N -0.27312(12) 0.0000 0.27312(12) 0.0157 Uani
N2ZA N -0.27312(12) 0.22688(12) 0.5000 0.0157 Uani
N2DA N -0.22688(12) 0.27312(12) 0.5000 0.0157 Uani
N2HA N 0.0000 0.27312(12) 0.27312(12) 0.0157 Uani
N2H N 0.0000 0.22688(12) 0.22688(12) 0.0157 Uani
N2XA N 0.27312(12) 0.0000 0.27312(12) 0.0157 Uani
O4YA O -0.39681(19) 0.0000 0.39681(19) 0.0920 Uiso
O4H O 0.0000 0.10319(19) 0.10319(19) 0.0920 Uiso
O4XA O 0.39681(19) 0.0000 0.39681(19) 0.0920 Uiso
O4HA O 0.0000 0.39681(19) 0.39681(19) 0.0920 Uiso
O4DA O -0.10319(19) 0.39681(19) 0.5000 0.0920 Uiso
O4ZA O -0.39681(19) 0.10319(19) 0.5000 0.0920 Uiso
O4A O -0.10319(19) 0.0000 0.10319(19) 0.0920 Uiso
O4K O 0.0000 -0.10319(19) 0.10319(19) 0.0920 Uiso
O4GA O 0.0000 -0.39681(19) 0.39681(19) 0.0920 Uiso
O4EA O -0.10319(19) -0.39681(19) 0.5000 0.0920 Uiso
O4AB O -0.39681(19) -0.10319(19) 0.5000 0.0920 Uiso
Cu3AB Cu -0.311507(17) -0.188493(17) 0.5000 0.0115 Uani
Cu3EA Cu -0.188493(17) -0.311507(17) 0.5000 0.0115 Uani
Cu3GA Cu 0.0000 -0.311507(17) 0.311507(17) 0.0115 Uani
Cu3K Cu 0.0000 -0.188493(17) 0.188493(17) 0.0115 Uani
Cu3A Cu -0.188493(17) 0.0000 0.188493(17) 0.0115 Uani
Cu3YA Cu -0.311507(17) 0.0000 0.311507(17) 0.0115 Uani
Cu3ZA Cu -0.311507(17) 0.188493(17) 0.5000 0.0115 Uani
Cu3DA Cu -0.188493(17) 0.311507(17) 0.5000 0.0115 Uani
Cu3HA Cu 0.0000 0.311507(17) 0.311507(17) 0.0115 Uani
Cu3H Cu 0.0000 0.188493(17) 0.188493(17) 0.0115 Uani
Cu3XA Cu 0.311507(17) 0.0000 0.311507(17) 0.0115 Uani
C11N C 0.0982(2) -0.0982(2) 0.4018(2) 0.0230 Uani
C11C C 0.0982(2) -0.0982(2) 0.5982(2) 0.0230 Uani
C11L C 0.0982(2) 0.0982(2) 0.5982(2) 0.0230 Uani
C11O C -0.0982(2) 0.0982(2) 0.4018(2) 0.0230 Uani
C11B C -0.0982(2) 0.0982(2) 0.5982(2) 0.0230 Uani
C11M C -0.0982(2) -0.0982(2) 0.5982(2) 0.0230 Uani
C11A C -0.0982(2) -0.0982(2) 0.4018(2) 0.0230 Uani
N3C N 0.08127(13) -0.08127(13) 0.58127(13) 0.0108 Uani
N3O N -0.08127(13) 0.08127(13) 0.41873(13) 0.0108 Uani
N3N N 0.08127(13) -0.08127(13) 0.41873(13) 0.0108 Uani
N3A N -0.08127(13) -0.08127(13) 0.41873(13) 0.0108 Uani
N3M N -0.08127(13) -0.08127(13) 0.58127(13) 0.0108 Uani
N3B N -0.08127(13) 0.08127(13) 0.58127(13) 0.0108 Uani
N3L N 0.08127(13) 0.08127(13) 0.58127(13) 0.0108 Uani
loop_
_atom_site_aniso_label
_atom_site_aniso_U_11
_atom_site_aniso_U_22
_atom_site_aniso_U_33
_atom_site_aniso_U_23
_atom_site_aniso_U_13
_atom_site_aniso_U_12
Cu1 0.0176(4) 0.0177(5) 0.0176(4) -0.0028(2) -0.0027(3) 0.0028(2)
Cu2 0.0125(4) 0.0144(6) 0.0125(4) 0.000 -0.0010(4) 0.000
O1 0.034(2) 0.043(2) 0.027(2) -0.0162(17) -0.0128(17) 0.0221(17)
O2 0.027(2) 0.034(2) 0.0267(19) -0.0128(15) -0.0070(15) 0.0202(16)
O3 0.037(2) 0.037(2) 0.0158(18) -0.0053(15) -0.0060(15) 0.0228(17)
C1 0.024(3) 0.027(3) 0.018(3) -0.002(2) 0.000(2) 0.012(2)
C2 0.026(3) 0.021(3) 0.018(3) -0.001(2) -0.004(2) 0.012(2)
C3 0.027(2) 0.027(2) 0.014(4) -0.005(2) -0.005(2) 0.013(3)
C4 0.032(3) 0.032(3) 0.011(4) -0.003(2) -0.003(2) 0.010(3)
C5 0.024(3) 0.022(3) 0.018(3) 0.001(2) 0.003(2) 0.009(2)
C6 0.022(2) 0.022(2) 0.014(4) -0.001(2) -0.001(2) 0.005(3)
C7 0.027(3) 0.026(3) 0.059(4) -0.002(3) -0.015(3) 0.003(2)
C8 0.054(3) 0.013(4) 0.054(3) 0.000(2) 0.022(4) 0.000(2)
N1 0.027(2) 0.018(3) 0.027(2) -0.0023(18) -0.001(3) 0.0023(18)
N2 0.011(2) 0.025(4) 0.011(2) 0.000 0.001(3) 0.000
Cu3 0.0106(4) 0.0132(6) 0.0106(4) 0.000 -0.0014(4) 0.000
C11 0.023(3) 0.023(3) 0.023(3) -0.015(4) -0.015(4) 0.015(4)
N3 0.0108(19) 0.0108(19) 0.0108(19) 0.002(2) 0.002(2) -0.002(2)
Cu1HA 0.0177 0.0176 0.0176 -0.0027 -0.0028 0.0028
Cu1CB 0.0176 0.0176 0.0177 -0.0028 -0.0028 0.0027
Cu1SB 0.0176 0.0177 0.0176 0.0028 -0.0027 -0.0028
Cu1N 0.0177 0.0176 0.0176 0.0027 -0.0028 -0.0028
Cu1NA 0.0176 0.0176 0.0177 0.0028 -0.0028 -0.0027
Cu1BB 0.0176 0.0176 0.0177 -0.0028 0.0028 -0.0027
Cu1FA 0.0177 0.0176 0.0176 -0.0027 0.0028 -0.0028
Cu1C 0.0176 0.0177 0.0176 -0.0028 0.0027 -0.0028
Cu1RB 0.0176 0.0177 0.0176 0.0028 0.0027 0.0028
Cu1L 0.0177 0.0176 0.0176 0.0027 0.0028 0.0028
Cu1QA 0.0176 0.0176 0.0177 0.0028 0.0028 0.0027
Cu1O 0.0177 0.0176 0.0176 -0.0027 0.0028 -0.0028
Cu1PB 0.0176 0.0177 0.0176 -0.0028 0.0027 -0.0028
Cu1PA 0.0176 0.0176 0.0177 -0.0028 0.0028 -0.0027
Cu1ZA 0.0176 0.0176 0.0177 0.0028 -0.0028 -0.0027
Cu1IA 0.0177 0.0176 0.0176 0.0027 -0.0028 -0.0028
Cu1B 0.0176 0.0177 0.0176 0.0028 -0.0027 -0.0028
Cu1QB 0.0176 0.0177 0.0176 -0.0028 -0.0027 0.0028
Cu1OA 0.0176 0.0176 0.0177 -0.0028 -0.0028 0.0027
Cu1M 0.0177 0.0176 0.0176 -0.0027 -0.0028 0.0028
Cu1AB 0.0176 0.0176 0.0177 0.0028 0.0028 0.0027
Cu1GA 0.0177 0.0176 0.0176 0.0027 0.0028 0.0028
Cu1A 0.0176 0.0177 0.0176 0.0028 0.0027 0.0028
Cu2AB 0.0125 0.0125 0.0144 0 0 0.001
Cu2EA 0.0125 0.0125 0.0144 0 0 0.001
Cu2GA 0.0144 0.0125 0.0125 0.001 0 0
Cu2K 0.0144 0.0125 0.0125 0.001 0 0
Cu2A 0.0125 0.0144 0.0125 0 0.001 0
Cu2YA 0.0125 0.0144 0.0125 0 0.001 0
Cu2ZA 0.0125 0.0125 0.0144 0 0 -0.001
Cu2DA 0.0125 0.0125 0.0144 0 0 -0.001
Cu2HA 0.0144 0.0125 0.0125 -0.001 0 0
Cu2H 0.0144 0.0125 0.0125 -0.001 0 0
Cu2XA 0.0125 0.0144 0.0125 0 -0.001 0
O1AB 0.027 0.034 0.043 0.0221 0.0162 0.0128
O1OB 0.034 0.027 0.043 0.0162 0.0221 0.0128
O1EF 0.034 0.027 0.043 -0.0162 -0.0221 0.0128
O1UE 0.027 0.034 0.043 -0.0221 -0.0162 0.0128
O1EA 0.027 0.034 0.043 -0.0221 -0.0162 0.0128
O1OA 0.034 0.027 0.043 -0.0162 -0.0221 0.0128
O1UD 0.027 0.034 0.043 0.0221 0.0162 0.0128
O1IE 0.034 0.027 0.043 0.0162 0.0221 0.0128
O1GA 0.043 0.027 0.034 0.0128 0.0221 0.0162
O1JA 0.043 0.034 0.027 0.0128 0.0162 0.0221
O1DE 0.043 0.034 0.027 0.0128 -0.0162 -0.0221
O1AE 0.043 0.027 0.034 0.0128 -0.0221 -0.0162
O1K 0.043 0.027 0.034 0.0128 -0.0221 -0.0162
O1N 0.043 0.034 0.027 0.0128 -0.0162 -0.0221
O1AD 0.043 0.027 0.034 0.0128 0.0221 0.0162
O1DD 0.043 0.034 0.027 0.0128 0.0162 0.0221
O1A 0.034 0.043 0.027 0.0162 0.0128 0.0221
O1V 0.027 0.043 0.034 0.0221 0.0128 0.0162
O1LD 0.027 0.043 0.034 -0.0221 0.0128 -0.0162
O1UC 0.034 0.043 0.027 -0.0162 0.0128 -0.0221
O1YA 0.034 0.043 0.027 -0.0162 0.0128 -0.0221
O1PB 0.027 0.043 0.034 -0.0221 0.0128 -0.0162
O1OE 0.034 0.043 0.027 0.0162 0.0128 0.0221
O1JF 0.027 0.043 0.034 0.0221 0.0128 0.0162
O1HB 0.043 0.034 0.027 0.0128 0.0162 0.0221
O1TE 0.027 0.034 0.043 -0.0221 0.0162 -0.0128
O1FF 0.034 0.027 0.043 -0.0162 0.0221 -0.0128
O1LB 0.034 0.027 0.043 0.0162 -0.0221 -0.0128
O1ZA 0.027 0.034 0.043 0.0221 -0.0162 -0.0128
O1TD 0.027 0.034 0.043 0.0221 -0.0162 -0.0128
O1FE 0.034 0.027 0.043 0.0162 -0.0221 -0.0128
O1DA 0.027 0.034 0.043 -0.0221 0.0162 -0.0128
O1PA 0.034 0.027 0.043 -0.0162 0.0221 -0.0128
O1XD 0.043 0.027 0.034 -0.0128 0.0221 -0.0162
O1EE 0.043 0.034 0.027 -0.0128 0.0162 -0.0221
O1KA 0.043 0.034 0.027 -0.0128 -0.0162 0.0221
O1HA 0.043 0.027 0.034 -0.0128 -0.0221 0.0162
O1BD 0.043 0.027 0.034 -0.0128 -0.0221 0.0162
O1ED 0.043 0.034 0.027 -0.0128 -0.0162 0.0221
O1H 0.043 0.027 0.034 -0.0128 0.0221 -0.0162
O1O 0.043 0.034 0.027 -0.0128 0.0162 -0.0221
O1JD 0.034 0.027 0.043 -0.0162 0.0221 -0.0128
O1U 0.027 0.043 0.034 -0.0221 -0.0128 0.0162
O1TC 0.034 0.043 0.027 0.0162 -0.0128 -0.0221
O1OD 0.027 0.043 0.034 0.0221 -0.0128 -0.0162
O1SB 0.027 0.043 0.034 0.0221 -0.0128 -0.0162
O1XA 0.034 0.043 0.027 0.0162 -0.0128 -0.0221
O1IF 0.027 0.043 0.034 -0.0221 -0.0128 0.0162
O1NE 0.034 0.043 0.027 -0.0162 -0.0128 0.0221
O1IB 0.043 0.034 0.027 -0.0128 -0.0162 0.0221
O1CB 0.027 0.034 0.043 -0.0221 -0.0162 0.0128
O1BF 0.043 0.034 0.027 0.0128 -0.0162 -0.0221
O1RE 0.027 0.034 0.043 0.0221 -0.0162 -0.0128
O1D 0.027 0.034 0.043 0.0221 -0.0162 -0.0128
O1YC 0.027 0.034 0.043 -0.0221 -0.0162 0.0128
O1Q 0.034 0.027 0.043 -0.0162 -0.0221 0.0128
O1GE 0.034 0.027 0.043 -0.0162 -0.0221 0.0128
O1AA 0.034 0.043 0.027 -0.0162 0.0128 -0.0221
O1JE 0.027 0.043 0.034 -0.0221 0.0128 -0.0162
O1IA 0.043 0.027 0.034 0.0128 -0.0221 -0.0162
O1YE 0.043 0.027 0.034 0.0128 -0.0221 -0.0162
O1WC 0.027 0.034 0.043 0.0221 0.0162 0.0128
O1S 0.034 0.027 0.043 0.0162 0.0221 0.0128
O2OB 0.027 0.0267 0.034 0.0128 0.0202 0.007
O2AB 0.0267 0.027 0.034 0.0202 0.0128 0.007
O2EF 0.027 0.0267 0.034 -0.0128 -0.0202 0.007
O2UE 0.0267 0.027 0.034 -0.0202 -0.0128 0.007
O2EA 0.0267 0.027 0.034 -0.0202 -0.0128 0.007
O2OA 0.027 0.0267 0.034 -0.0128 -0.0202 0.007
O2UD 0.0267 0.027 0.034 0.0202 0.0128 0.007
O2IE 0.027 0.0267 0.034 0.0128 0.0202 0.007
O2JA 0.034 0.027 0.0267 0.007 0.0128 0.0202
O2GA 0.034 0.0267 0.027 0.007 0.0202 0.0128
O2DE 0.034 0.027 0.0267 0.007 -0.0128 -0.0202
O2AE 0.034 0.0267 0.027 0.007 -0.0202 -0.0128
O2K 0.034 0.0267 0.027 0.007 -0.0202 -0.0128
O2N 0.034 0.027 0.0267 0.007 -0.0128 -0.0202
O2AD 0.034 0.0267 0.027 0.007 0.0202 0.0128
O2DD 0.034 0.027 0.0267 0.007 0.0128 0.0202
O2V 0.0267 0.034 0.027 0.0202 0.007 0.0128
O2A 0.027 0.034 0.0267 0.0128 0.007 0.0202
O2LD 0.0267 0.034 0.027 -0.0202 0.007 -0.0128
O2UC 0.027 0.034 0.0267 -0.0128 0.007 -0.0202
O2YA 0.027 0.034 0.0267 -0.0128 0.007 -0.0202
O2PB 0.0267 0.034 0.027 -0.0202 0.007 -0.0128
O2OE 0.027 0.034 0.0267 0.0128 0.007 0.0202
O2JF 0.0267 0.034 0.027 0.0202 0.007 0.0128
O2HB 0.034 0.027 0.0267 0.007 0.0128 0.0202
O2FF 0.027 0.0267 0.034 -0.0128 0.0202 -0.007
O2TE 0.0267 0.027 0.034 -0.0202 0.0128 -0.007
O2LB 0.027 0.0267 0.034 0.0128 -0.0202 -0.007
O2ZA 0.0267 0.027 0.034 0.0202 -0.0128 -0.007
O2TD 0.0267 0.027 0.034 0.0202 -0.0128 -0.007
O2FE 0.027 0.0267 0.034 0.0128 -0.0202 -0.007
O2DA 0.0267 0.027 0.034 -0.0202 0.0128 -0.007
O2PA 0.027 0.0267 0.034 -0.0128 0.0202 -0.007
O2EE 0.034 0.027 0.0267 -0.007 0.0128 -0.0202
O2XD 0.034 0.0267 0.027 -0.007 0.0202 -0.0128
O2KA 0.034 0.027 0.0267 -0.007 -0.0128 0.0202
O2HA 0.034 0.0267 0.027 -0.007 -0.0202 0.0128
O2BD 0.034 0.0267 0.027 -0.007 -0.0202 0.0128
O2ED 0.034 0.027 0.0267 -0.007 -0.0128 0.0202
O2H 0.034 0.0267 0.027 -0.007 0.0202 -0.0128
O2O 0.034 0.027 0.0267 -0.007 0.0128 -0.0202
O2JD 0.027 0.0267 0.034 -0.0128 0.0202 -0.007
O2U 0.0267 0.034 0.027 -0.0202 -0.007 0.0128
O2TC 0.027 0.034 0.0267 0.0128 -0.007 -0.0202
O2OD 0.0267 0.034 0.027 0.0202 -0.007 -0.0128
O2SB 0.0267 0.034 0.027 0.0202 -0.007 -0.0128
O2XA 0.027 0.034 0.0267 0.0128 -0.007 -0.0202
O2IF 0.0267 0.034 0.027 -0.0202 -0.007 0.0128
O2NE 0.027 0.034 0.0267 -0.0128 -0.007 0.0202
O2IB 0.034 0.027 0.0267 -0.007 -0.0128 0.0202
O2CB 0.0267 0.027 0.034 -0.0202 -0.0128 0.007
O2BF 0.034 0.027 0.0267 0.007 -0.0128 -0.0202
O2RE 0.0267 0.027 0.034 0.0202 -0.0128 -0.007
O2D 0.0267 0.027 0.034 0.0202 -0.0128 -0.007
O2YC 0.0267 0.027 0.034 -0.0202 -0.0128 0.007
O2Q 0.027 0.0267 0.034 -0.0128 -0.0202 0.007
O2GE 0.027 0.0267 0.034 -0.0128 -0.0202 0.007
O2AA 0.027 0.034 0.0267 -0.0128 0.007 -0.0202
O2JE 0.0267 0.034 0.027 -0.0202 0.007 -0.0128
O2IA 0.034 0.0267 0.027 0.007 -0.0202 -0.0128
O2YE 0.034 0.0267 0.027 0.007 -0.0202 -0.0128
O2WC 0.0267 0.027 0.034 0.0202 0.0128 0.007
O2S 0.027 0.0267 0.034 0.0128 0.0202 0.007
O3ED 0.037 0.037 0.0158 -0.006 -0.0053 0.0228
O3HA 0.037 0.0158 0.037 -0.006 -0.0228 0.0053
O3GE 0.037 0.0158 0.037 -0.0053 -0.0228 0.006
O3CB 0.0158 0.037 0.037 -0.0228 -0.0053 0.006
O3IF 0.0158 0.037 0.037 -0.0228 -0.006 0.0053
O3TC 0.037 0.037 0.0158 0.0053 -0.006 -0.0228
O3N 0.037 0.037 0.0158 0.006 -0.0053 -0.0228
O3AE 0.037 0.0158 0.037 0.006 -0.0228 -0.0053
O3NA 0.037 0.0158 0.037 0.0053 -0.0228 -0.006
O3RE 0.0158 0.037 0.037 0.0228 -0.0053 -0.006
O3SB 0.0158 0.037 0.037 0.0228 -0.006 -0.0053
O3HE 0.037 0.0158 0.037 -0.0053 0.0228 -0.006
O3FA 0.037 0.0158 0.037 -0.006 0.0228 -0.0053
O3GD 0.037 0.037 0.0158 -0.006 0.0053 -0.0228
O3C 0.037 0.037 0.0158 -0.0053 0.006 -0.0228
O3HF 0.0158 0.037 0.037 -0.0228 0.006 -0.0053
O3BB 0.0158 0.037 0.037 -0.0228 0.0053 -0.006
O3SC 0.037 0.037 0.0158 0.0053 0.006 0.0228
O3L 0.037 0.037 0.0158 0.006 0.0053 0.0228
O3YD 0.037 0.0158 0.037 0.006 0.0228 0.0053
O3QA 0.037 0.0158 0.037 0.0053 0.0228 0.006
O3SE 0.0158 0.037 0.037 0.0228 0.0053 0.006
O3RB 0.0158 0.037 0.037 0.0228 0.006 0.0053
O3O 0.037 0.037 0.0158 -0.006 0.0053 -0.0228
O3UC 0.037 0.037 0.0158 -0.0053 0.006 -0.0228
O3PB 0.0158 0.037 0.037 -0.0228 0.006 -0.0053
O3TE 0.0158 0.037 0.037 -0.0228 0.0053 -0.006
O3PA 0.037 0.0158 0.037 -0.0053 0.0228 -0.006
O3XD 0.037 0.0158 0.037 -0.006 0.0228 -0.0053
O3FE 0.037 0.0158 0.037 0.0053 -0.0228 -0.006
O3IA 0.037 0.0158 0.037 0.006 -0.0228 -0.0053
O3FD 0.037 0.037 0.0158 0.006 -0.0053 -0.0228
O3B 0.037 0.037 0.0158 0.0053 -0.006 -0.0228
O3KF 0.0158 0.037 0.037 0.0228 -0.006 -0.0053
O3ZA 0.0158 0.037 0.037 0.0228 -0.0053 -0.006
O3QB 0.0158 0.037 0.037 -0.0228 -0.006 0.0053
O3UE 0.0158 0.037 0.037 -0.0228 -0.0053 0.006
O3OA 0.037 0.0158 0.037 -0.0053 -0.0228 0.006
O3ZD 0.037 0.0158 0.037 -0.006 -0.0228 0.0053
O3M 0.037 0.037 0.0158 -0.006 -0.0053 0.0228
O3RC 0.037 0.037 0.0158 -0.0053 -0.006 0.0228
O3IE 0.037 0.0158 0.037 0.0053 0.0228 0.006
O3GA 0.037 0.0158 0.037 0.006 0.0228 0.0053
O3DD 0.037 0.037 0.0158 0.006 0.0053 0.0228
O3A 0.037 0.037 0.0158 0.0053 0.006 0.0228
O3JF 0.0158 0.037 0.037 0.0228 0.006 0.0053
O3AB 0.0158 0.037 0.037 0.0228 0.0053 0.006
O3OE 0.037 0.037 0.0158 0.0053 0.006 0.0228
O3HB 0.037 0.037 0.0158 0.006 0.0053 0.0228
O3H 0.037 0.0158 0.037 -0.006 0.0228 -0.0053
O3JD 0.037 0.0158 0.037 -0.0053 0.0228 -0.006
O3NE 0.037 0.037 0.0158 -0.0053 -0.006 0.0228
O3IB 0.037 0.037 0.0158 -0.006 -0.0053 0.0228
O3XA 0.037 0.037 0.0158 0.0053 -0.006 -0.0228
O3BF 0.037 0.037 0.0158 0.006 -0.0053 -0.0228
O3OD 0.0158 0.037 0.037 0.0228 -0.006 -0.0053
O3D 0.0158 0.037 0.037 0.0228 -0.0053 -0.006
O3U 0.0158 0.037 0.037 -0.0228 -0.006 0.0053
O3YC 0.0158 0.037 0.037 -0.0228 -0.0053 0.006
O3BD 0.037 0.0158 0.037 -0.006 -0.0228 0.0053
O3Q 0.037 0.0158 0.037 -0.0053 -0.0228 0.006
O3EE 0.037 0.037 0.0158 -0.006 0.0053 -0.0228
O3AA 0.037 0.037 0.0158 -0.0053 0.006 -0.0228
O3DA 0.0158 0.037 0.037 -0.0228 0.0053 -0.006
O3JE 0.0158 0.037 0.037 -0.0228 0.006 -0.0053
O3LB 0.037 0.0158 0.037 0.0053 -0.0228 -0.006
O3YE 0.037 0.0158 0.037 0.006 -0.0228 -0.0053
O3V 0.0158 0.037 0.037 0.0228 0.006 0.0053
O3WC 0.0158 0.037 0.037 0.0228 0.0053 0.006
O3AD 0.037 0.0158 0.037 0.006 0.0228 0.0053
O3S 0.037 0.0158 0.037 0.0053 0.0228 0.006
C1JF 0.018 0.027 0.024 0.012 0 0.002
C1AB 0.018 0.024 0.027 0.012 0.002 0
C1IE 0.024 0.018 0.027 0.002 0.012 0
C1GA 0.027 0.018 0.024 0 0.012 0.002
C1DD 0.027 0.024 0.018 0 0.002 0.012
C1A 0.024 0.027 0.018 0.002 0 0.012
C1OE 0.024 0.027 0.018 0.002 0 0.012
C1HB 0.027 0.024 0.018 0 0.002 0.012
C1PB 0.018 0.027 0.024 -0.012 0 -0.002
C1TE 0.018 0.024 0.027 -0.012 0.002 0
C1PA 0.024 0.018 0.027 -0.002 0.012 0
C1XD 0.027 0.018 0.024 0 0.012 -0.002
C1O 0.027 0.024 0.018 0 0.002 -0.012
C1UC 0.024 0.027 0.018 -0.002 0 -0.012
C1H 0.027 0.018 0.024 0 0.012 -0.002
C1JD 0.024 0.018 0.027 -0.002 0.012 0
C1ED 0.027 0.024 0.018 0 -0.002 0.012
C1NE 0.024 0.027 0.018 -0.002 0 0.012
C1IB 0.027 0.024 0.018 0 -0.002 0.012
C1IF 0.018 0.027 0.024 -0.012 0 0.002
C1CB 0.018 0.024 0.027 -0.012 -0.002 0
C1XA 0.024 0.027 0.018 0.002 0 -0.012
C1BF 0.027 0.024 0.018 0 -0.002 -0.012
C1SB 0.018 0.027 0.024 0.012 0 -0.002
C1RE 0.018 0.024 0.027 0.012 -0.002 0
C1OD 0.018 0.027 0.024 0.012 0 -0.002
C1D 0.018 0.024 0.027 0.012 -0.002 0
C1TC 0.024 0.027 0.018 0.002 0 -0.012
C1N 0.027 0.024 0.018 0 -0.002 -0.012
C1U 0.018 0.027 0.024 -0.012 0 0.002
C1YC 0.018 0.024 0.027 -0.012 -0.002 0
C1BD 0.027 0.018 0.024 0 -0.012 0.002
C1Q 0.024 0.018 0.027 -0.002 -0.012 0
C1HA 0.027 0.018 0.024 0 -0.012 0.002
C1GE 0.024 0.018 0.027 -0.002 -0.012 0
C1KA 0.027 0.024 0.018 0 -0.002 0.012
C1EE 0.027 0.024 0.018 0 0.002 -0.012
C1AA 0.024 0.027 0.018 -0.002 0 -0.012
C1DA 0.018 0.024 0.027 -0.012 0.002 0
C1JE 0.018 0.027 0.024 -0.012 0 -0.002
C1FE 0.024 0.018 0.027 0.002 -0.012 0
C1IA 0.027 0.018 0.024 0 -0.012 -0.002
C1TD 0.018 0.024 0.027 0.012 -0.002 0
C1ZA 0.018 0.024 0.027 0.012 -0.002 0
C1LB 0.024 0.018 0.027 0.002 -0.012 0
C1YE 0.027 0.018 0.024 0 -0.012 -0.002
C1FF 0.024 0.018 0.027 -0.002 0.012 0
C1YA 0.024 0.027 0.018 -0.002 0 -0.012
C1LD 0.018 0.027 0.024 -0.012 0 -0.002
C1V 0.018 0.027 0.024 0.012 0 0.002
C1WC 0.018 0.024 0.027 0.012 0.002 0
C1AD 0.027 0.018 0.024 0 0.012 0.002
C1S 0.024 0.018 0.027 0.002 0.012 0
C1K 0.027 0.018 0.024 0 -0.012 -0.002
C1AE 0.027 0.018 0.024 0 -0.012 -0.002
C1DE 0.027 0.024 0.018 0 -0.002 -0.012
C1JA 0.027 0.024 0.018 0 0.002 0.012
C1UD 0.018 0.024 0.027 0.012 0.002 0
C1OA 0.024 0.018 0.027 -0.002 -0.012 0
C1EA 0.018 0.024 0.027 -0.012 -0.002 0
C1UE 0.018 0.024 0.027 -0.012 -0.002 0
C1EF 0.024 0.018 0.027 -0.002 -0.012 0
C1OB 0.024 0.018 0.027 0.002 0.012 0
C2JF 0.018 0.021 0.026 0.012 0.004 0.001
C2AB 0.018 0.026 0.021 0.012 0.001 0.004
C2IE 0.026 0.018 0.021 0.001 0.012 0.004
C2GA 0.021 0.018 0.026 0.004 0.012 0.001
C2DD 0.021 0.026 0.018 0.004 0.001 0.012
C2A 0.026 0.021 0.018 0.001 0.004 0.012
C2OE 0.026 0.021 0.018 0.001 0.004 0.012
C2HB 0.021 0.026 0.018 0.004 0.001 0.012
C2PB 0.018 0.021 0.026 -0.012 0.004 -0.001
C2TE 0.018 0.026 0.021 -0.012 0.001 -0.004
C2PA 0.026 0.018 0.021 -0.001 0.012 -0.004
C2XD 0.021 0.018 0.026 -0.004 0.012 -0.001
C2O 0.021 0.026 0.018 -0.004 0.001 -0.012
C2UC 0.026 0.021 0.018 -0.001 0.004 -0.012
C2H 0.021 0.018 0.026 -0.004 0.012 -0.001
C2JD 0.026 0.018 0.021 -0.001 0.012 -0.004
C2ED 0.021 0.026 0.018 -0.004 -0.001 0.012
C2NE 0.026 0.021 0.018 -0.001 -0.004 0.012
C2IB 0.021 0.026 0.018 -0.004 -0.001 0.012
C2IF 0.018 0.021 0.026 -0.012 -0.004 0.001
C2CB 0.018 0.026 0.021 -0.012 -0.001 0.004
C2XA 0.026 0.021 0.018 0.001 -0.004 -0.012
C2BF 0.021 0.026 0.018 0.004 -0.001 -0.012
C2SB 0.018 0.021 0.026 0.012 -0.004 -0.001
C2RE 0.018 0.026 0.021 0.012 -0.001 -0.004
C2OD 0.018 0.021 0.026 0.012 -0.004 -0.001
C2D 0.018 0.026 0.021 0.012 -0.001 -0.004
C2TC 0.026 0.021 0.018 0.001 -0.004 -0.012
C2N 0.021 0.026 0.018 0.004 -0.001 -0.012
C2U 0.018 0.021 0.026 -0.012 -0.004 0.001
C2YC 0.018 0.026 0.021 -0.012 -0.001 0.004
C2BD 0.021 0.018 0.026 -0.004 -0.012 0.001
C2Q 0.026 0.018 0.021 -0.001 -0.012 0.004
C2HA 0.021 0.018 0.026 -0.004 -0.012 0.001
C2GE 0.026 0.018 0.021 -0.001 -0.012 0.004
C2EE 0.021 0.026 0.018 -0.004 0.001 -0.012
C2AA 0.026 0.021 0.018 -0.001 0.004 -0.012
C2DA 0.018 0.026 0.021 -0.012 0.001 -0.004
C2JE 0.018 0.021 0.026 -0.012 0.004 -0.001
C2FE 0.026 0.018 0.021 0.001 -0.012 -0.004
C2IA 0.021 0.018 0.026 0.004 -0.012 -0.001
C2LB 0.026 0.018 0.021 0.001 -0.012 -0.004
C2YE 0.021 0.018 0.026 0.004 -0.012 -0.001
C2V 0.018 0.021 0.026 0.012 0.004 0.001
C2WC 0.018 0.026 0.021 0.012 0.001 0.004
C2AD 0.021 0.018 0.026 0.004 0.012 0.001
C2S 0.026 0.018 0.021 0.001 0.012 0.004
C3AB 0.014 0.027 0.027 0.013 0.005 0.005
C3GA 0.027 0.014 0.027 0.005 0.013 0.005
C3A 0.027 0.027 0.014 0.005 0.005 0.013
C3HB 0.027 0.027 0.014 0.005 0.005 0.013
C3PB 0.014 0.027 0.027 -0.013 0.005 -0.005
C3PA 0.027 0.014 0.027 -0.005 0.013 -0.005
C3O 0.027 0.027 0.014 -0.005 0.005 -0.013
C3H 0.027 0.014 0.027 -0.005 0.013 -0.005
C3IB 0.027 0.027 0.014 -0.005 -0.005 0.013
C3CB 0.014 0.027 0.027 -0.013 -0.005 0.005
C3XA 0.027 0.027 0.014 0.005 -0.005 -0.013
C3SB 0.014 0.027 0.027 0.013 -0.005 -0.005
C3D 0.014 0.027 0.027 0.013 -0.005 -0.005
C3N 0.027 0.027 0.014 0.005 -0.005 -0.013
C3U 0.014 0.027 0.027 -0.013 -0.005 0.005
C3Q 0.027 0.014 0.027 -0.005 -0.013 0.005
C3HA 0.027 0.014 0.027 -0.005 -0.013 0.005
C3AA 0.027 0.027 0.014 -0.005 0.005 -0.013
C3DA 0.014 0.027 0.027 -0.013 0.005 -0.005
C3IA 0.027 0.014 0.027 0.005 -0.013 -0.005
C3LB 0.027 0.014 0.027 0.005 -0.013 -0.005
C3V 0.014 0.027 0.027 0.013 0.005 0.005
C3S 0.027 0.014 0.027 0.005 0.013 0.005
C3M 0.027 0.027 0.014 -0.005 -0.005 0.013
C3OA 0.027 0.014 0.027 -0.005 -0.013 0.005
C3QB 0.014 0.027 0.027 -0.013 -0.005 0.005
C3ZA 0.014 0.027 0.027 0.013 -0.005 -0.005
C3B 0.027 0.027 0.014 0.005 -0.005 -0.013
C3RB 0.014 0.027 0.027 0.013 0.005 0.005
C3QA 0.027 0.014 0.027 0.005 0.013 0.005
C3L 0.027 0.027 0.014 0.005 0.005 0.013
C3BB 0.014 0.027 0.027 -0.013 0.005 -0.005
C3C 0.027 0.027 0.014 -0.005 0.005 -0.013
C3FA 0.027 0.014 0.027 -0.005 0.013 -0.005
C3NA 0.027 0.014 0.027 0.005 -0.013 -0.005
C4AB 0.011 0.032 0.032 0.01 0.003 0.003
C4GA 0.032 0.011 0.032 0.003 0.01 0.003
C4A 0.032 0.032 0.011 0.003 0.003 0.01
C4HB 0.032 0.032 0.011 0.003 0.003 0.01
C4PB 0.011 0.032 0.032 -0.01 0.003 -0.003
C4PA 0.032 0.011 0.032 -0.003 0.01 -0.003
C4O 0.032 0.032 0.011 -0.003 0.003 -0.01
C4H 0.032 0.011 0.032 -0.003 0.01 -0.003
C4IB 0.032 0.032 0.011 -0.003 -0.003 0.01
C4CB 0.011 0.032 0.032 -0.01 -0.003 0.003
C4XA 0.032 0.032 0.011 0.003 -0.003 -0.01
C4SB 0.011 0.032 0.032 0.01 -0.003 -0.003
C4D 0.011 0.032 0.032 0.01 -0.003 -0.003
C4N 0.032 0.032 0.011 0.003 -0.003 -0.01
C4U 0.011 0.032 0.032 -0.01 -0.003 0.003
C4Q 0.032 0.011 0.032 -0.003 -0.01 0.003
C4HA 0.032 0.011 0.032 -0.003 -0.01 0.003
C4AA 0.032 0.032 0.011 -0.003 0.003 -0.01
C4DA 0.011 0.032 0.032 -0.01 0.003 -0.003
C4IA 0.032 0.011 0.032 0.003 -0.01 -0.003
C4LB 0.032 0.011 0.032 0.003 -0.01 -0.003
C4V 0.011 0.032 0.032 0.01 0.003 0.003
C4S 0.032 0.011 0.032 0.003 0.01 0.003
C5AB 0.018 0.024 0.022 0.009 -0.001 -0.003
C5OB 0.024 0.018 0.022 -0.001 0.009 -0.003
C5EF 0.024 0.018 0.022 0.001 -0.009 -0.003
C5UE 0.018 0.024 0.022 -0.009 0.001 -0.003
C5EA 0.018 0.024 0.022 -0.009 0.001 -0.003
C5OA 0.024 0.018 0.022 0.001 -0.009 -0.003
C5UD 0.018 0.024 0.022 0.009 -0.001 -0.003
C5IE 0.024 0.018 0.022 -0.001 0.009 -0.003
C5GA 0.022 0.018 0.024 -0.003 0.009 -0.001
C5JA 0.022 0.024 0.018 -0.003 -0.001 0.009
C5DE 0.022 0.024 0.018 -0.003 0.001 -0.009
C5AE 0.022 0.018 0.024 -0.003 -0.009 0.001
C5K 0.022 0.018 0.024 -0.003 -0.009 0.001
C5N 0.022 0.024 0.018 -0.003 0.001 -0.009
C5AD 0.022 0.018 0.024 -0.003 0.009 -0.001
C5DD 0.022 0.024 0.018 -0.003 -0.001 0.009
C5A 0.024 0.022 0.018 -0.001 -0.003 0.009
C5V 0.018 0.022 0.024 0.009 -0.003 -0.001
C5LD 0.018 0.022 0.024 -0.009 -0.003 0.001
C5UC 0.024 0.022 0.018 0.001 -0.003 -0.009
C5YA 0.024 0.022 0.018 0.001 -0.003 -0.009
C5PB 0.018 0.022 0.024 -0.009 -0.003 0.001
C5OE 0.024 0.022 0.018 -0.001 -0.003 0.009
C5JF 0.018 0.022 0.024 0.009 -0.003 -0.001
C5HB 0.022 0.024 0.018 -0.003 -0.001 0.009
C5TE 0.018 0.024 0.022 -0.009 -0.001 0.003
C5FF 0.024 0.018 0.022 0.001 0.009 0.003
C5LB 0.024 0.018 0.022 -0.001 -0.009 0.003
C5ZA 0.018 0.024 0.022 0.009 0.001 0.003
C5TD 0.018 0.024 0.022 0.009 0.001 0.003
C5FE 0.024 0.018 0.022 -0.001 -0.009 0.003
C5DA 0.018 0.024 0.022 -0.009 -0.001 0.003
C5PA 0.024 0.018 0.022 0.001 0.009 0.003
C5XD 0.022 0.018 0.024 0.003 0.009 0.001
C5EE 0.022 0.024 0.018 0.003 -0.001 -0.009
C5KA 0.022 0.024 0.018 0.003 0.001 0.009
C5HA 0.022 0.018 0.024 0.003 -0.009 -0.001
C5BD 0.022 0.018 0.024 0.003 -0.009 -0.001
C5ED 0.022 0.024 0.018 0.003 0.001 0.009
C5H 0.022 0.018 0.024 0.003 0.009 0.001
C5O 0.022 0.024 0.018 0.003 -0.001 -0.009
C5JD 0.024 0.018 0.022 0.001 0.009 0.003
C5U 0.018 0.022 0.024 -0.009 0.003 -0.001
C5TC 0.024 0.022 0.018 -0.001 0.003 -0.009
C5OD 0.018 0.022 0.024 0.009 0.003 0.001
C5SB 0.018 0.022 0.024 0.009 0.003 0.001
C5XA 0.024 0.022 0.018 -0.001 0.003 -0.009
C5IF 0.018 0.022 0.024 -0.009 0.003 -0.001
C5NE 0.024 0.022 0.018 0.001 0.003 0.009
C5IB 0.022 0.024 0.018 0.003 0.001 0.009
C5CB 0.018 0.024 0.022 -0.009 0.001 -0.003
C5BF 0.022 0.024 0.018 -0.003 0.001 -0.009
C5RE 0.018 0.024 0.022 0.009 0.001 0.003
C5D 0.018 0.024 0.022 0.009 0.001 0.003
C5YC 0.018 0.024 0.022 -0.009 0.001 -0.003
C5Q 0.024 0.018 0.022 0.001 -0.009 -0.003
C5GE 0.024 0.018 0.022 0.001 -0.009 -0.003
C5AA 0.024 0.022 0.018 0.001 -0.003 -0.009
C5JE 0.018 0.022 0.024 -0.009 -0.003 0.001
C5IA 0.022 0.018 0.024 -0.003 -0.009 0.001
C5YE 0.022 0.018 0.024 -0.003 -0.009 0.001
C5WC 0.018 0.024 0.022 0.009 -0.001 -0.003
C5S 0.024 0.018 0.022 -0.001 0.009 -0.003
C6HA 0.022 0.014 0.022 -0.001 -0.005 0.001
C6CB 0.014 0.022 0.022 -0.005 -0.001 0.001
C6N 0.022 0.022 0.014 0.001 -0.001 -0.005
C6NA 0.022 0.014 0.022 0.001 -0.005 -0.001
C6SB 0.014 0.022 0.022 0.005 -0.001 -0.001
C6FA 0.022 0.014 0.022 -0.001 0.005 -0.001
C6C 0.022 0.022 0.014 -0.001 0.001 -0.005
C6BB 0.014 0.022 0.022 -0.005 0.001 -0.001
C6L 0.022 0.022 0.014 0.001 0.001 0.005
C6QA 0.022 0.014 0.022 0.001 0.005 0.001
C6RB 0.014 0.022 0.022 0.005 0.001 0.001
C6O 0.022 0.022 0.014 -0.001 0.001 -0.005
C6PB 0.014 0.022 0.022 -0.005 0.001 -0.001
C6PA 0.022 0.014 0.022 -0.001 0.005 -0.001
C6IA 0.022 0.014 0.022 0.001 -0.005 -0.001
C6B 0.022 0.022 0.014 0.001 -0.001 -0.005
C6ZA 0.014 0.022 0.022 0.005 -0.001 -0.001
C6QB 0.014 0.022 0.022 -0.005 -0.001 0.001
C6OA 0.022 0.014 0.022 -0.001 -0.005 0.001
C6M 0.022 0.022 0.014 -0.001 -0.001 0.005
C6GA 0.022 0.014 0.022 0.001 0.005 0.001
C6A 0.022 0.022 0.014 0.001 0.001 0.005
C6AB 0.014 0.022 0.022 0.005 0.001 0.001
C6HB 0.022 0.022 0.014 0.001 0.001 0.005
C6H 0.022 0.014 0.022 -0.001 0.005 -0.001
C6IB 0.022 0.022 0.014 -0.001 -0.001 0.005
C6XA 0.022 0.022 0.014 0.001 -0.001 -0.005
C6D 0.014 0.022 0.022 0.005 -0.001 -0.001
C6U 0.014 0.022 0.022 -0.005 -0.001 0.001
C6Q 0.022 0.014 0.022 -0.001 -0.005 0.001
C6AA 0.022 0.022 0.014 -0.001 0.001 -0.005
C6DA 0.014 0.022 0.022 -0.005 0.001 -0.001
C6LB 0.022 0.014 0.022 0.001 -0.005 -0.001
C6V 0.014 0.022 0.022 0.005 0.001 0.001
C6S 0.022 0.014 0.022 0.001 0.005 0.001
C7TC 0.027 0.026 0.059 0.002 -0.015 -0.003
C7NA 0.027 0.059 0.026 0.002 -0.003 -0.015
C7HE 0.027 0.059 0.026 -0.002 0.003 -0.015
C7C 0.027 0.026 0.059 -0.002 0.015 -0.003
C7SC 0.027 0.026 0.059 0.002 0.015 0.003
C7QA 0.027 0.059 0.026 0.002 0.003 0.015
C7GE 0.027 0.059 0.026 -0.002 -0.003 0.015
C7ED 0.026 0.027 0.059 -0.015 -0.002 0.003
C7O 0.026 0.027 0.059 -0.015 0.002 -0.003
C7TE 0.059 0.027 0.026 -0.003 0.002 -0.015
C7ZA 0.059 0.027 0.026 0.003 -0.002 -0.015
C7PA 0.027 0.059 0.026 -0.002 0.003 -0.015
C7FE 0.027 0.059 0.026 0.002 -0.003 -0.015
C7B 0.027 0.026 0.059 0.002 -0.015 -0.003
C7RC 0.027 0.026 0.059 -0.002 -0.015 0.003
C7KF 0.059 0.026 0.027 0.003 -0.015 -0.002
C7QB 0.059 0.026 0.027 -0.003 -0.015 0.002
C7ZD 0.026 0.059 0.027 -0.015 -0.003 0.002
C7FA 0.026 0.059 0.027 -0.015 0.003 -0.002
C7GD 0.026 0.027 0.059 -0.015 0.002 -0.003
C7M 0.026 0.027 0.059 -0.015 -0.002 0.003
C7UE 0.059 0.027 0.026 -0.003 -0.002 0.015
C7AB 0.059 0.027 0.026 0.003 0.002 0.015
C7OA 0.027 0.059 0.026 -0.002 -0.003 0.015
C7IE 0.027 0.059 0.026 0.002 0.003 0.015
C7A 0.027 0.026 0.059 0.002 0.015 0.003
C7UC 0.027 0.026 0.059 -0.002 0.015 -0.003
C7JF 0.059 0.026 0.027 0.003 0.015 0.002
C7PB 0.059 0.026 0.027 -0.003 0.015 -0.002
C7GA 0.026 0.059 0.027 0.015 0.003 0.002
C7AE 0.026 0.059 0.027 0.015 -0.003 -0.002
C7DD 0.026 0.027 0.059 0.015 0.002 0.003
C7N 0.026 0.027 0.059 0.015 -0.002 -0.003
C7IA 0.026 0.059 0.027 0.015 -0.003 -0.002
C7FD 0.026 0.027 0.059 0.015 -0.002 -0.003
C7XD 0.026 0.059 0.027 -0.015 0.003 -0.002
C7HA 0.026 0.059 0.027 -0.015 -0.003 0.002
C7CB 0.059 0.027 0.026 -0.003 -0.002 0.015
C7SE 0.059 0.027 0.026 0.003 0.002 0.015
C7L 0.026 0.027 0.059 0.015 0.002 0.003
C7YD 0.026 0.059 0.027 0.015 0.003 0.002
C7RB 0.059 0.026 0.027 0.003 0.015 0.002
C7HF 0.059 0.026 0.027 -0.003 0.015 -0.002
C7BB 0.059 0.027 0.026 -0.003 0.002 -0.015
C7RE 0.059 0.027 0.026 0.003 -0.002 -0.015
C7SB 0.059 0.026 0.027 0.003 -0.015 -0.002
C7IF 0.059 0.026 0.027 -0.003 -0.015 0.002
C8PA 0.054 0.054 0.013 0 0 0.022
C8ZA 0.054 0.054 0.013 0 0 0.022
C8B 0.054 0.013 0.054 0 0.022 0
C8QB 0.054 0.013 0.054 0 0.022 0
C8FA 0.013 0.054 0.054 0.022 0 0
C8M 0.013 0.054 0.054 0.022 0 0
C8OA 0.054 0.054 0.013 0 0 -0.022
C8AB 0.054 0.054 0.013 0 0 -0.022
C8A 0.054 0.013 0.054 0 -0.022 0
C8PB 0.054 0.013 0.054 0 -0.022 0
C8GA 0.013 0.054 0.054 -0.022 0 0
C8N 0.013 0.054 0.054 -0.022 0 0
C8IA 0.013 0.054 0.054 -0.022 0 0
C8L 0.013 0.054 0.054 -0.022 0 0
C8O 0.013 0.054 0.054 0.022 0 0
C8HA 0.013 0.054 0.054 0.022 0 0
C8CB 0.054 0.054 0.013 0 0 -0.022
C8QA 0.054 0.054 0.013 0 0 -0.022
C8RB 0.054 0.013 0.054 0 -0.022 0
C8C 0.054 0.013 0.054 0 -0.022 0
C8BB 0.054 0.054 0.013 0 0 0.022
C8NA 0.054 0.054 0.013 0 0 0.022
C8SB 0.054 0.013 0.054 0 0.022 0
N1SB 0.027 0.018 0.027 0.0023 -0.001 -0.0023
N1NA 0.027 0.027 0.018 0.0023 -0.0023 -0.001
N1BB 0.027 0.027 0.018 -0.0023 0.0023 -0.001
N1C 0.027 0.018 0.027 -0.0023 0.001 -0.0023
N1RB 0.027 0.018 0.027 0.0023 0.001 0.0023
N1QA 0.027 0.027 0.018 0.0023 0.0023 0.001
N1CB 0.027 0.027 0.018 -0.0023 -0.0023 0.001
N1HA 0.018 0.027 0.027 -0.001 -0.0023 0.0023
N1O 0.018 0.027 0.027 -0.001 0.0023 -0.0023
N1PA 0.027 0.027 0.018 -0.0023 0.0023 -0.001
N1ZA 0.027 0.027 0.018 0.0023 -0.0023 -0.001
N1B 0.027 0.018 0.027 0.0023 -0.001 -0.0023
N1QB 0.027 0.018 0.027 -0.0023 -0.001 0.0023
N1M 0.018 0.027 0.027 -0.001 -0.0023 0.0023
N1FA 0.018 0.027 0.027 -0.001 0.0023 -0.0023
N1OA 0.027 0.027 0.018 -0.0023 -0.0023 0.001
N1AB 0.027 0.027 0.018 0.0023 0.0023 0.001
N1A 0.027 0.018 0.027 0.0023 0.001 0.0023
N1PB 0.027 0.018 0.027 -0.0023 0.001 -0.0023
N1GA 0.018 0.027 0.027 0.001 0.0023 0.0023
N1N 0.018 0.027 0.027 0.001 -0.0023 -0.0023
N1IA 0.018 0.027 0.027 0.001 -0.0023 -0.0023
N1L 0.018 0.027 0.027 0.001 0.0023 0.0023
N2AB 0.011 0.011 0.025 0 0 -0.001
N2EA 0.011 0.011 0.025 0 0 -0.001
N2GA 0.025 0.011 0.011 -0.001 0 0
N2K 0.025 0.011 0.011 -0.001 0 0
N2A 0.011 0.025 0.011 0 -0.001 0
N2YA 0.011 0.025 0.011 0 -0.001 0
N2ZA 0.011 0.011 0.025 0 0 0.001
N2DA 0.011 0.011 0.025 0 0 0.001
N2HA 0.025 0.011 0.011 0.001 0 0
N2H 0.025 0.011 0.011 0.001 0 0
N2XA 0.011 0.025 0.011 0 0.001 0
Cu3AB 0.0106 0.0106 0.0132 0 0 0.0014
Cu3EA 0.0106 0.0106 0.0132 0 0 0.0014
Cu3GA 0.0132 0.0106 0.0106 0.0014 0 0
Cu3K 0.0132 0.0106 0.0106 0.0014 0 0
Cu3A 0.0106 0.0132 0.0106 0 0.0014 0
Cu3YA 0.0106 0.0132 0.0106 0 0.0014 0
Cu3ZA 0.0106 0.0106 0.0132 0 0 -0.0014
Cu3DA 0.0106 0.0106 0.0132 0 0 -0.0014
Cu3HA 0.0132 0.0106 0.0106 -0.0014 0 0
Cu3H 0.0132 0.0106 0.0106 -0.0014 0 0
Cu3XA 0.0106 0.0132 0.0106 0 -0.0014 0
C11N 0.023 0.023 0.023 0.015 -0.015 -0.015
C11C 0.023 0.023 0.023 -0.015 0.015 -0.015
C11L 0.023 0.023 0.023 0.015 0.015 0.015
C11O 0.023 0.023 0.023 -0.015 0.015 -0.015
C11B 0.023 0.023 0.023 0.015 -0.015 -0.015
C11M 0.023 0.023 0.023 -0.015 -0.015 0.015
C11A 0.023 0.023 0.023 0.015 0.015 0.015
N3C 0.0108 0.0108 0.0108 0.002 -0.002 0.002
N3O 0.0108 0.0108 0.0108 0.002 -0.002 0.002
N3N 0.0108 0.0108 0.0108 -0.002 0.002 0.002
N3A 0.0108 0.0108 0.0108 -0.002 -0.002 -0.002
N3M 0.0108 0.0108 0.0108 0.002 0.002 -0.002
N3B 0.0108 0.0108 0.0108 -0.002 0.002 0.002
N3L 0.0108 0.0108 0.0108 -0.002 -0.002 -0.002
loop_
_geom_bond_atom_site_label_1
_geom_bond_atom_site_label_2
_geom_bond_site_symmetry_1
_geom_bond_site_symmetry_2
Cu1 O3 1_555 1_555
Cu2 O1 1_555 1_555
O1 C5 1_555 1_555
O2 C5 1_555 1_555
O3 C6 1_555 1_555
C1 C2 1_555 1_555
C2 H1 1_555 1_555
C3 C2 1_555 1_555
C4 C1 1_555 1_555
H2 C4 1_555 1_555
C5 C1 1_555 1_555
C6 C3 1_555 1_555
C7 H3 1_555 1_555
H4 C7 1_555 1_555
C8 H5 1_555 1_555
C9 C10 1_555 1_555
C10 N2 1_555 1_555
N1 Cu1 1_555 1_555
N2 C9 1_555 1_555
O4 Cu2 1_555 1_555
Cu3 O2 1_555 1_555
C11 Cu1 1_555 1_555
N3 C11 1_555 1_555
Cu1HA C11 1_555 1_555
Cu1CB C11 1_555 1_555
Cu1SB O3TC 1_555 1_555
Cu1N O3N 1_555 1_555
Cu1NA O3NA 1_555 1_555
Cu1BB O3HE 1_555 1_555
Cu1FA O3FA 1_555 1_555
Cu1C O3C 1_555 1_555
Cu1RB O3SC 1_555 1_555
Cu1L O3L 1_555 1_555
Cu1QA O3QA 1_555 1_555
Cu1O O3O 1_555 1_555
Cu1PB O3UC 1_555 1_555
Cu1PA O3TE 1_555 1_555
Cu1ZA O3FE 1_555 1_555
Cu1IA O3IA 1_555 1_555
Cu1B O3B 1_555 1_555
Cu1QB O3QB 1_555 1_555
Cu1OA O3UE 1_555 1_555
Cu1M O3ZD 1_555 1_555
Cu1AB O3IE 1_555 1_555
Cu1GA O3GA 1_555 1_555
Cu1A O3A 1_555 1_555
Cu2AB O1AB 1_555 1_555
Cu2EA O1EA 1_555 1_555
Cu2GA O1GA 1_555 1_555
Cu2K O1K 1_555 1_555
Cu2A O1A 1_555 1_555
Cu2YA O1YA 1_555 1_555
Cu2ZA O1TE 1_555 1_555
Cu2DA O1TD 1_555 1_555
Cu2HA O1XD 1_555 1_555
Cu2H O1BD 1_555 1_555
Cu2XA O1SB 1_555 1_555
O1AB C5AB 1_555 1_555
O1OB Cu2AB 1_555 1_555
O1EF Cu2AB 1_555 1_555
O1UE Cu2AB 1_555 1_555
O1EA C5EA 1_555 1_555
O1OA Cu2EA 1_555 1_555
O1UD Cu2EA 1_555 1_555
O1IE Cu2EA 1_555 1_555
O1GA C5GA 1_555 1_555
O1JA Cu2GA 1_555 1_555
O1DE Cu2GA 1_555 1_555
O1AE Cu2GA 1_555 1_555
O1K C5K 1_555 1_555
O1N Cu2K 1_555 1_555
O1AD Cu2K 1_555 1_555
O1DD Cu2K 1_555 1_555
O1A C5A 1_555 1_555
O1V Cu2A 1_555 1_555
O1LD Cu2A 1_555 1_555
O1UC Cu2A 1_555 1_555
O1YA C5YA 1_555 1_555
O1PB Cu2YA 1_555 1_555
O1OE Cu2YA 1_555 1_555
O1JF Cu2YA 1_555 1_555
O1HB C5HB 1_555 1_555
O1TE C5TE 1_555 1_555
O1FF Cu2ZA 1_555 1_555
O1LB Cu2ZA 1_555 1_555
O1ZA Cu2ZA 1_555 1_555
O1TD C5TD 1_555 1_555
O1FE Cu2DA 1_555 1_555
O1DA Cu2DA 1_555 1_555
O1PA Cu2DA 1_555 1_555
O1XD C5XD 1_555 1_555
O1EE Cu2HA 1_555 1_555
O1KA Cu2HA 1_555 1_555
O1HA Cu2HA 1_555 1_555
O1BD C5BD 1_555 1_555
O1ED Cu2H 1_555 1_555
O1H Cu2H 1_555 1_555
O1O Cu2H 1_555 1_555
O1JD C5JD 1_555 1_555
O1U Cu2 1_555 1_555
O1TC Cu2 1_555 1_555
O1OD Cu2 1_555 1_555
O1SB C5SB 1_555 1_555
O1XA Cu2XA 1_555 1_555
O1IF Cu2XA 1_555 1_555
O1NE Cu2XA 1_555 1_555
O1IB C5IB 1_555 1_555
O1CB C5CB 1_555 1_555
O1BF C5BF 1_555 1_555
O1RE C5RE 1_555 1_555
O1D C5D 1_555 1_555
O1YC C5YC 1_555 1_555
O1Q C5Q 1_555 1_555
O1GE C5GE 1_555 1_555
O1AA C5AA 1_555 1_555
O1JE C5JE 1_555 1_555
O1IA C5IA 1_555 1_555
O1YE C5YE 1_555 1_555
O1WC C5WC 1_555 1_555
O1S C5S 1_555 1_555
O2OB C5OB 1_555 1_555
O2AB C5AB 1_555 1_555
O2EF C5EF 1_555 1_555
O2UE C5UE 1_555 1_555
O2EA C5EA 1_555 1_555
O2OA C5OA 1_555 1_555
O2UD C5UD 1_555 1_555
O2IE C5IE 1_555 1_555
O2JA C5JA 1_555 1_555
O2GA C5GA 1_555 1_555
O2DE C5DE 1_555 1_555
O2AE C5AE 1_555 1_555
O2K C5K 1_555 1_555
O2N C5N 1_555 1_555
O2AD C5AD 1_555 1_555
O2DD C5DD 1_555 1_555
O2V C5V 1_555 1_555
O2A C5A 1_555 1_555
O2LD C5LD 1_555 1_555
O2UC C5UC 1_555 1_555
O2YA C5YA 1_555 1_555
O2PB C5PB 1_555 1_555
O2OE C5OE 1_555 1_555
O2JF C5JF 1_555 1_555
O2HB C5HB 1_555 1_555
O2FF C5FF 1_555 1_555
O2TE C5TE 1_555 1_555
O2LB C5LB 1_555 1_555
O2ZA C5ZA 1_555 1_555
O2TD C5TD 1_555 1_555
O2FE C5FE 1_555 1_555
O2DA C5DA 1_555 1_555
O2PA C5PA 1_555 1_555
O2EE C5EE 1_555 1_555
O2XD C5XD 1_555 1_555
O2KA C5KA 1_555 1_555
O2HA C5HA 1_555 1_555
O2BD C5BD 1_555 1_555
O2ED C5ED 1_555 1_555
O2H C5H 1_555 1_555
O2O C5O 1_555 1_555
O2JD C5JD 1_555 1_555
O2U Cu3 1_555 1_555
O2TC Cu3 1_555 1_555
O2OD Cu3 1_555 1_555
O2SB C5SB 1_555 1_555
O2XA C5XA 1_555 1_555
O2IF C5IF 1_555 1_555
O2NE C5NE 1_555 1_555
O2IB C5IB 1_555 1_555
O2CB C5CB 1_555 1_555
O2BF C5BF 1_555 1_555
O2RE C5RE 1_555 1_555
O2D C5D 1_555 1_555
O2YC C5YC 1_555 1_555
O2Q C5Q 1_555 1_555
O2GE C5GE 1_555 1_555
O2AA C5AA 1_555 1_555
O2JE C5JE 1_555 1_555
O2IA C5IA 1_555 1_555
O2YE C5YE 1_555 1_555
O2WC C5WC 1_555 1_555
O2S C5S 1_555 1_555
O3ED C6 1_555 1_555
O3HA Cu1HA 1_555 1_555
O3GE Cu1CB 1_555 1_555
O3CB Cu1CB 1_555 1_555
O3IF Cu1 1_555 1_555
O3TC C6N 1_555 1_555
O3N C6N 1_555 1_555
O3AE Cu1N 1_555 1_555
O3NA C6NA 1_555 1_555
O3RE Cu1NA 1_555 1_555
O3SB Cu1SB 1_555 1_555
O3HE C6FA 1_555 1_555
O3FA C6FA 1_555 1_555
O3GD Cu1FA 1_555 1_555
O3C C6C 1_555 1_555
O3HF Cu1C 1_555 1_555
O3BB Cu1BB 1_555 1_555
O3SC C6L 1_555 1_555
O3L C6L 1_555 1_555
O3YD Cu1L 1_555 1_555
O3QA C6QA 1_555 1_555
O3SE Cu1QA 1_555 1_555
O3RB Cu1RB 1_555 1_555
O3O C6O 1_555 1_555
O3UC C6O 1_555 1_555
O3PB Cu1PB 1_555 1_555
O3TE C6PB 1_555 1_555
O3PA Cu1PA 1_555 1_555
O3XD Cu1O 1_555 1_555
O3FE C6IA 1_555 1_555
O3IA C6IA 1_555 1_555
O3FD Cu1IA 1_555 1_555
O3B C6B 1_555 1_555
O3KF Cu1B 1_555 1_555
O3ZA Cu1ZA 1_555 1_555
O3QB C6QB 1_555 1_555
O3UE C6QB 1_555 1_555
O3OA Cu1OA 1_555 1_555
O3ZD C6OA 1_555 1_555
O3M Cu1M 1_555 1_555
O3RC Cu1QB 1_555 1_555
O3IE C6GA 1_555 1_555
O3GA C6GA 1_555 1_555
O3DD Cu1GA 1_555 1_555
O3A C6A 1_555 1_555
O3JF Cu1A 1_555 1_555
O3AB Cu1AB 1_555 1_555
O3OE C6HB 1_555 1_555
O3HB C6HB 1_555 1_555
O3H C6H 1_555 1_555
O3JD C6H 1_555 1_555
O3NE C6IB 1_555 1_555
O3IB C6IB 1_555 1_555
O3XA C6XA 1_555 1_555
O3BF C6XA 1_555 1_555
O3OD C6D 1_555 1_555
O3D C6D 1_555 1_555
O3U C6U 1_555 1_555
O3YC C6U 1_555 1_555
O3BD C6Q 1_555 1_555
O3Q C6Q 1_555 1_555
O3EE C6AA 1_555 1_555
O3AA C6AA 1_555 1_555
O3DA C6DA 1_555 1_555
O3JE C6DA 1_555 1_555
O3LB C6LB 1_555 1_555
O3YE C6LB 1_555 1_555
O3V C6V 1_555 1_555
O3WC C6V 1_555 1_555
O3AD C6S 1_555 1_555
O3S C6S 1_555 1_555
C1JF C2JF 1_555 1_555
C1AB C2AB 1_555 1_555
C1IE C2IE 1_555 1_555
C1GA C2GA 1_555 1_555
C1DD C2DD 1_555 1_555
C1A C2A 1_555 1_555
C1OE C2OE 1_555 1_555
C1HB C2HB 1_555 1_555
C1PB C2PB 1_555 1_555
C1TE C2TE 1_555 1_555
C1PA C2PA 1_555 1_555
C1XD C2XD 1_555 1_555
C1O C2O 1_555 1_555
C1UC C2UC 1_555 1_555
C1H C2H 1_555 1_555
C1JD C2JD 1_555 1_555
C1ED C4 1_555 1_555
C1NE C2NE 1_555 1_555
C1IB C2IB 1_555 1_555
C1IF C2IF 1_555 1_555
C1CB C2CB 1_555 1_555
C1XA C2XA 1_555 1_555
C1BF C2BF 1_555 1_555
C1SB C2SB 1_555 1_555
C1RE C2RE 1_555 1_555
C1OD C2OD 1_555 1_555
C1D C2D 1_555 1_555
C1TC C2TC 1_555 1_555
C1N C2N 1_555 1_555
C1U C2U 1_555 1_555
C1YC C2YC 1_555 1_555
C1BD C2BD 1_555 1_555
C1Q C2Q 1_555 1_555
C1HA C2HA 1_555 1_555
C1GE C2GE 1_555 1_555
C1KA C5KA 1_555 1_555
C1EE C2EE 1_555 1_555
C1AA C2AA 1_555 1_555
C1DA C2DA 1_555 1_555
C1JE C2JE 1_555 1_555
C1FE C2FE 1_555 1_555
C1IA C2IA 1_555 1_555
C1TD C5TD 1_555 1_555
C1ZA C5ZA 1_555 1_555
C1LB C2LB 1_555 1_555
C1YE C2YE 1_555 1_555
C1FF C5FF 1_555 1_555
C1YA C5YA 1_555 1_555
C1LD C5LD 1_555 1_555
C1V C2V 1_555 1_555
C1WC C2WC 1_555 1_555
C1AD C2AD 1_555 1_555
C1S C2S 1_555 1_555
C1K C5K 1_555 1_555
C1AE C5AE 1_555 1_555
C1DE C5DE 1_555 1_555
C1JA C5JA 1_555 1_555
C1UD C5UD 1_555 1_555
C1OA C5OA 1_555 1_555
C1EA C5EA 1_555 1_555
C1UE C5UE 1_555 1_555
C1EF C5EF 1_555 1_555
C1OB C5OB 1_555 1_555
C2JF H1JF 1_555 1_555
C2AB H1AB 1_555 1_555
C2IE H1IE 1_555 1_555
C2GA H1GA 1_555 1_555
C2DD H1DD 1_555 1_555
C2A H1A 1_555 1_555
C2OE H1OE 1_555 1_555
C2HB H1HB 1_555 1_555
C2PB H1PB 1_555 1_555
C2TE H1TE 1_555 1_555
C2PA H1PA 1_555 1_555
C2XD H1XD 1_555 1_555
C2O H1O 1_555 1_555
C2UC H1UC 1_555 1_555
C2H H1H 1_555 1_555
C2JD H1JD 1_555 1_555
C2ED C3 1_555 1_555
C2NE H1NE 1_555 1_555
C2IB H1IB 1_555 1_555
C2IF H1IF 1_555 1_555
C2CB H1CB 1_555 1_555
C2XA H1XA 1_555 1_555
C2BF H1BF 1_555 1_555
C2SB H1SB 1_555 1_555
C2RE H1RE 1_555 1_555
C2OD H1OD 1_555 1_555
C2D H1D 1_555 1_555
C2TC H1TC 1_555 1_555
C2N H1N 1_555 1_555
C2U H1U 1_555 1_555
C2YC H1YC 1_555 1_555
C2BD H1BD 1_555 1_555
C2Q H1Q 1_555 1_555
C2HA H1HA 1_555 1_555
C2GE H1GE 1_555 1_555
C2EE H1EE 1_555 1_555
C2AA H1AA 1_555 1_555
C2DA H1DA 1_555 1_555
C2JE H1JE 1_555 1_555
C2FE H1FE 1_555 1_555
C2IA H1IA 1_555 1_555
C2LB H1LB 1_555 1_555
C2YE H1YE 1_555 1_555
C2V H1V 1_555 1_555
C2WC H1WC 1_555 1_555
C2AD H1AD 1_555 1_555
C2S H1S 1_555 1_555
H1ED C2ED 1_555 1_555
C3AB C2JF 1_555 1_555
C3GA C2IE 1_555 1_555
C3A C2DD 1_555 1_555
C3HB C2OE 1_555 1_555
C3PB C2PB 1_555 1_555
C3PA C2PA 1_555 1_555
C3O C2O 1_555 1_555
C3H C2H 1_555 1_555
C3IB C2NE 1_555 1_555
C3CB C2IF 1_555 1_555
C3XA C2XA 1_555 1_555
C3SB C2SB 1_555 1_555
C3D C2OD 1_555 1_555
C3N C2TC 1_555 1_555
C3U C2U 1_555 1_555
C3Q C2BD 1_555 1_555
C3HA C2HA 1_555 1_555
C3AA C2EE 1_555 1_555
C3DA C2DA 1_555 1_555
C3IA C2FE 1_555 1_555
C3LB C2LB 1_555 1_555
C3V C2V 1_555 1_555
C3S C2AD 1_555 1_555
C3M C6M 1_555 1_555
C3OA C6OA 1_555 1_555
C3QB C6QB 1_555 1_555
C3ZA C6ZA 1_555 1_555
C3B C6B 1_555 1_555
C3RB C6RB 1_555 1_555
C3QA C6QA 1_555 1_555
C3L C6L 1_555 1_555
C3BB C6BB 1_555 1_555
C3C C6C 1_555 1_555
C3FA C6FA 1_555 1_555
C3NA C6NA 1_555 1_555
C4AB C1JF 1_555 1_555
C4GA C1IE 1_555 1_555
C4A C1DD 1_555 1_555
C4HB C1OE 1_555 1_555
C4PB C1PB 1_555 1_555
C4PA C1PA 1_555 1_555
C4O C1O 1_555 1_555
C4H C1H 1_555 1_555
C4IB C1NE 1_555 1_555
C4CB C1IF 1_555 1_555
C4XA C1XA 1_555 1_555
C4SB C1SB 1_555 1_555
C4D C1OD 1_555 1_555
C4N C1TC 1_555 1_555
C4U C1U 1_555 1_555
C4Q C1BD 1_555 1_555
C4HA C1HA 1_555 1_555
C4AA C1EE 1_555 1_555
C4DA C1DA 1_555 1_555
C4IA C1FE 1_555 1_555
C4LB C1LB 1_555 1_555
C4V C1V 1_555 1_555
C4S C1AD 1_555 1_555
H2GA C4GA 1_555 1_555
H2A C4A 1_555 1_555
H2HB C4HB 1_555 1_555
H2PB C4PB 1_555 1_555
H2PA C4PA 1_555 1_555
H2O C4O 1_555 1_555
H2H C4H 1_555 1_555
H2IB C4IB 1_555 1_555
H2CB C4CB 1_555 1_555
H2XA C4XA 1_555 1_555
H2SB C4SB 1_555 1_555
H2D C4D 1_555 1_555
H2N C4N 1_555 1_555
H2U C4U 1_555 1_555
H2Q C4Q 1_555 1_555
H2HA C4HA 1_555 1_555
H2AA C4AA 1_555 1_555
H2DA C4DA 1_555 1_555
H2IA C4IA 1_555 1_555
H2LB C4LB 1_555 1_555
H2V C4V 1_555 1_555
H2S C4S 1_555 1_555
H2AB C4AB 1_555 1_555
C5AB C1AB 1_555 1_555
C5OB O1OB 1_555 1_555
C5EF O1EF 1_555 1_555
C5UE O1UE 1_555 1_555
C5OA O1OA 1_555 1_555
C5UD O1UD 1_555 1_555
C5IE O1IE 1_555 1_555
C5GA C1GA 1_555 1_555
C5JA O1JA 1_555 1_555
C5DE O1DE 1_555 1_555
C5AE O1AE 1_555 1_555
C5N O1N 1_555 1_555
C5AD O1AD 1_555 1_555
C5DD O1DD 1_555 1_555
C5A C1A 1_555 1_555
C5V O1V 1_555 1_555
C5LD O1LD 1_555 1_555
C5UC O1UC 1_555 1_555
C5PB O1PB 1_555 1_555
C5OE O1OE 1_555 1_555
C5JF O1JF 1_555 1_555
C5HB C1HB 1_555 1_555
C5TE C1TE 1_555 1_555
C5FF O1FF 1_555 1_555
C5LB O1LB 1_555 1_555
C5ZA O1ZA 1_555 1_555
C5FE O1FE 1_555 1_555
C5DA O1DA 1_555 1_555
C5PA O1PA 1_555 1_555
C5XD C1XD 1_555 1_555
C5EE O1EE 1_555 1_555
C5KA O1KA 1_555 1_555
C5HA O1HA 1_555 1_555
C5BD C1BD 1_555 1_555
C5ED O1ED 1_555 1_555
C5H O1H 1_555 1_555
C5O O1O 1_555 1_555
C5JD C1JD 1_555 1_555
C5U O1U 1_555 1_555
C5TC O1TC 1_555 1_555
C5OD O1OD 1_555 1_555
C5SB C1SB 1_555 1_555
C5XA O1XA 1_555 1_555
C5IF O1IF 1_555 1_555
C5NE O1NE 1_555 1_555
C5IB C1IB 1_555 1_555
C5CB C1CB 1_555 1_555
C5BF C1BF 1_555 1_555
C5RE C1RE 1_555 1_555
C5D C1D 1_555 1_555
C5YC C1YC 1_555 1_555
C5Q C1Q 1_555 1_555
C5GE C1GE 1_555 1_555
C5AA C1AA 1_555 1_555
C5JE C1JE 1_555 1_555
C5IA C1IA 1_555 1_555
C5YE C1YE 1_555 1_555
C5WC C1WC 1_555 1_555
C5S C1S 1_555 1_555
C6HA O3HA 1_555 1_555
C6CB O3CB 1_555 1_555
C6N C3N 1_555 1_555
C6NA O3AE 1_555 1_555
C6SB O3RE 1_555 1_555
C6C O3GD 1_555 1_555
C6BB O3HF 1_555 1_555
C6QA O3YD 1_555 1_555
C6RB O3SE 1_555 1_555
C6O C3O 1_555 1_555
C6PB O3PB 1_555 1_555
C6PA O3PA 1_555 1_555
C6IA C3IA 1_555 1_555
C6B O3FD 1_555 1_555
C6ZA O3KF 1_555 1_555
C6OA O3OA 1_555 1_555
C6M O3M 1_555 1_555
C6GA C3GA 1_555 1_555
C6A O3DD 1_555 1_555
C6AB O3JF 1_555 1_555
C6HB C3HB 1_555 1_555
C6H C3H 1_555 1_555
C6IB C3IB 1_555 1_555
C6XA C3XA 1_555 1_555
C6D C3D 1_555 1_555
C6U C3U 1_555 1_555
C6Q C3Q 1_555 1_555
C6AA C3AA 1_555 1_555
C6DA C3DA 1_555 1_555
C6LB C3LB 1_555 1_555
C6V C3V 1_555 1_555
C6S C3S 1_555 1_555
C7TC C7 1_555 1_555
C7NA C7HE 1_555 1_555
C7HE H3HE 1_555 1_555
C7C C7SC 1_555 1_555
C7SC H3SC 1_555 1_555
C7QA C7GE 1_555 1_555
C7GE H3GE 1_555 1_555
C7ED C7O 1_555 1_555
C7O H3O 1_555 1_555
C7TE C7ZA 1_555 1_555
C7ZA H3ZA 1_555 1_555
C7PA C7FE 1_555 1_555
C7FE H3FE 1_555 1_555
C7B C7RC 1_555 1_555
C7RC H3RC 1_555 1_555
C7KF C7QB 1_555 1_555
C7QB H3QB 1_555 1_555
C7ZD C7FA 1_555 1_555
C7FA H3FA 1_555 1_555
C7GD C7M 1_555 1_555
C7M H3M 1_555 1_555
C7UE C7AB 1_555 1_555
C7AB H3AB 1_555 1_555
C7OA C7IE 1_555 1_555
C7IE H3IE 1_555 1_555
C7A C7UC 1_555 1_555
C7UC H3UC 1_555 1_555
C7JF C7PB 1_555 1_555
C7PB H3PB 1_555 1_555
C7GA C7AE 1_555 1_555
C7AE H3AE 1_555 1_555
C7DD C7N 1_555 1_555
C7N H3N 1_555 1_555
C7IA H3IA 1_555 1_555
C7FD H3FD 1_555 1_555
C7XD C7HA 1_555 1_555
C7HA H3HA 1_555 1_555
C7CB H3CB 1_555 1_555
C7SE H3SE 1_555 1_555
C7L H3L 1_555 1_555
C7YD H3YD 1_555 1_555
C7RB H3RB 1_555 1_555
C7HF H3HF 1_555 1_555
C7BB H3BB 1_555 1_555
C7RE H3RE 1_555 1_555
C7SB H3SB 1_555 1_555
C7IF N1 1_555 1_555
H3TC C7TC 1_555 1_555
H3TE C7TE 1_555 1_555
H3PA C7PA 1_555 1_555
H3B C7B 1_555 1_555
H3KF C7KF 1_555 1_555
H3GD C7GD 1_555 1_555
H3ZD C7ZD 1_555 1_555
H3UE C7UE 1_555 1_555
H3OA C7OA 1_555 1_555
H3A C7A 1_555 1_555
H3JF C7JF 1_555 1_555
H3GA C7GA 1_555 1_555
H3DD C7DD 1_555 1_555
H3XD C7XD 1_555 1_555
H3ED C7ED 1_555 1_555
H3QA C7QA 1_555 1_555
H3C C7C 1_555 1_555
H3NA C7NA 1_555 1_555
H3IF C7IF 1_555 1_555
H4TC C7TC 1_555 1_555
H4HE C7HE 1_555 1_555
H4SC C7SC 1_555 1_555
H4GE C7GE 1_555 1_555
H4O C7O 1_555 1_555
H4TE C7TE 1_555 1_555
H4PA C7PA 1_555 1_555
H4B C7B 1_555 1_555
H4KF C7KF 1_555 1_555
H4FA C7FA 1_555 1_555
H4GD C7GD 1_555 1_555
H4M C7M 1_555 1_555
H4ZD C7ZD 1_555 1_555
H4UE C7UE 1_555 1_555
H4OA C7OA 1_555 1_555
H4A C7A 1_555 1_555
H4JF C7JF 1_555 1_555
H4PB C7PB 1_555 1_555
H4UC C7UC 1_555 1_555
H4GA C7GA 1_555 1_555
H4DD C7DD 1_555 1_555
H4N C7N 1_555 1_555
H4AE C7AE 1_555 1_555
H4IE C7IE 1_555 1_555
H4AB C7AB 1_555 1_555
H4QB C7QB 1_555 1_555
H4RC C7RC 1_555 1_555
H4IA C7IA 1_555 1_555
H4FD C7FD 1_555 1_555
H4FE C7FE 1_555 1_555
H4ZA C7ZA 1_555 1_555
H4XD C7XD 1_555 1_555
H4ED C7ED 1_555 1_555
H4HA C7HA 1_555 1_555
H4CB C7CB 1_555 1_555
H4QA C7QA 1_555 1_555
H4SE C7SE 1_555 1_555
H4L C7L 1_555 1_555
H4YD C7YD 1_555 1_555
H4RB C7RB 1_555 1_555
H4C C7C 1_555 1_555
H4HF C7HF 1_555 1_555
H4BB C7BB 1_555 1_555
H4NA C7NA 1_555 1_555
H4RE C7RE 1_555 1_555
H4SB C7SB 1_555 1_555
H4IF C7IF 1_555 1_555
C8PA C8ZA 1_555 1_555
C8ZA H5FE 1_555 1_555
C8B C8QB 1_555 1_555
C8QB H5QB 1_555 1_555
C8FA C8M 1_555 1_555
C8M H5M 1_555 1_555
C8OA C8AB 1_555 1_555
C8AB H5IE 1_555 1_555
C8A C8PB 1_555 1_555
C8PB H5PB 1_555 1_555
C8GA C8N 1_555 1_555
C8N H5N 1_555 1_555
C8IA C8L 1_555 1_555
C8L H5L 1_555 1_555
C8O C8HA 1_555 1_555
C8HA H5HA 1_555 1_555
C8CB C8QA 1_555 1_555
C8QA H5SE 1_555 1_555
C8RB C8C 1_555 1_555
C8C H5HF 1_555 1_555
C8BB C8NA 1_555 1_555
C8NA H5RE 1_555 1_555
C8SB C8 1_555 1_555
H5ZA C8ZA 1_555 1_555
H5RC C8QB 1_555 1_555
H5ZD C8M 1_555 1_555
H5FA C8FA 1_555 1_555
H5GD C8FA 1_555 1_555
H5AB C8AB 1_555 1_555
H5UC C8PB 1_555 1_555
H5A C8A 1_555 1_555
H5JF C8A 1_555 1_555
H5AE C8N 1_555 1_555
H5GA C8GA 1_555 1_555
H5DD C8GA 1_555 1_555
H5UE C8OA 1_555 1_555
H5OA C8OA 1_555 1_555
H5B C8B 1_555 1_555
H5KF C8B 1_555 1_555
H5IA C8IA 1_555 1_555
H5FD C8IA 1_555 1_555
H5TE C8PA 1_555 1_555
H5PA C8PA 1_555 1_555
H5O C8O 1_555 1_555
H5XD C8O 1_555 1_555
H5ED C8HA 1_555 1_555
H5GE C8CB 1_555 1_555
H5CB C8CB 1_555 1_555
H5QA C8QA 1_555 1_555
H5YD C8L 1_555 1_555
H5SC C8RB 1_555 1_555
H5RB C8RB 1_555 1_555
H5C C8C 1_555 1_555
H5HE C8BB 1_555 1_555
H5BB C8BB 1_555 1_555
H5NA C8NA 1_555 1_555
H5TC C8SB 1_555 1_555
H5SB C8SB 1_555 1_555
H5IF C8 1_555 1_555
C9OB C9UE 1_555 1_555
C9UE C9OA 1_555 1_555
C9OA C9UD 1_555 1_555
C9UD C9OB 1_555 1_555
C9EF C9AB 1_555 1_555
C9AB C9IE 1_555 1_555
C9EA C9EF 1_555 1_555
C9IE C9EA 1_555 1_555
C9JA C9AE 1_555 1_555
C9AE C9N 1_555 1_555
C9N C9AD 1_555 1_555
C9AD C9JA 1_555 1_555
C9DE C9GA 1_555 1_555
C9GA C9DD 1_555 1_555
C9K C9DE 1_555 1_555
C9DD C9K 1_555 1_555
C9V C9UC 1_555 1_555
C9UC C9PB 1_555 1_555
C9PB C9OE 1_555 1_555
C9OE C9V 1_555 1_555
C9LD C9A 1_555 1_555
C9A C9JF 1_555 1_555
C9YA C9LD 1_555 1_555
C9JF C9YA 1_555 1_555
C9FF C9ZA 1_555 1_555
C9ZA C9FE 1_555 1_555
C9FE C9DA 1_555 1_555
C9DA C9FF 1_555 1_555
C9LB C9TE 1_555 1_555
C9TE C9PA 1_555 1_555
C9TD C9LB 1_555 1_555
C9PA C9TD 1_555 1_555
C9EE C9HA 1_555 1_555
C9HA C9ED 1_555 1_555
C9ED C9H 1_555 1_555
C9H C9EE 1_555 1_555
C9KA C9XD 1_555 1_555
C9XD C9O 1_555 1_555
C9BD C9KA 1_555 1_555
C9O C9BD 1_555 1_555
C9OD C9 1_555 1_555
C9XA C9OD 1_555 1_555
C9IF C9 1_555 1_555
C9TC C10 1_555 1_555
C9U N2 1_555 1_555
C9SB C9TC 1_555 1_555
C9NE C9U 1_555 1_555
C10OB C9OB 1_555 1_555
C10AB C9UE 1_555 1_555
C10EA C9UD 1_555 1_555
C10OA C9OA 1_555 1_555
C10JA C9JA 1_555 1_555
C10GA C9AE 1_555 1_555
C10K C9AD 1_555 1_555
C10N C9N 1_555 1_555
C10V C9V 1_555 1_555
C10A C9UC 1_555 1_555
C10YA C9OE 1_555 1_555
C10PB C9PB 1_555 1_555
C10LB C9FF 1_555 1_555
C10ZA C9ZA 1_555 1_555
C10DA C9DA 1_555 1_555
C10PA C9FE 1_555 1_555
C10KA C9EE 1_555 1_555
C10HA C9HA 1_555 1_555
C10H C9H 1_555 1_555
C10O C9ED 1_555 1_555
C10U N2 1_555 1_555
C10SB C10 1_555 1_555
C10XA C9XA 1_555 1_555
N1SB Cu1SB 1_555 1_555
N1NA Cu1NA 1_555 1_555
N1BB Cu1BB 1_555 1_555
N1C Cu1C 1_555 1_555
N1RB Cu1RB 1_555 1_555
N1QA Cu1QA 1_555 1_555
N1CB Cu1CB 1_555 1_555
N1HA Cu1HA 1_555 1_555
N1O Cu1O 1_555 1_555
N1PA Cu1PA 1_555 1_555
N1ZA Cu1ZA 1_555 1_555
N1B Cu1B 1_555 1_555
N1QB Cu1QB 1_555 1_555
N1M Cu1M 1_555 1_555
N1FA Cu1FA 1_555 1_555
N1OA Cu1OA 1_555 1_555
N1AB Cu1AB 1_555 1_555
N1A Cu1A 1_555 1_555
N1PB Cu1PB 1_555 1_555
N1GA Cu1GA 1_555 1_555
N1N Cu1N 1_555 1_555
N1IA Cu1IA 1_555 1_555
N1L Cu1L 1_555 1_555
N2AB C9OB 1_555 1_555
N2EA C9OA 1_555 1_555
N2GA C9JA 1_555 1_555
N2K C9N 1_555 1_555
N2A C9V 1_555 1_555
N2YA C9PB 1_555 1_555
N2ZA C9FF 1_555 1_555
N2DA C9FE 1_555 1_555
N2HA C9EE 1_555 1_555
N2H C9ED 1_555 1_555
N2XA C9XA 1_555 1_555
O4YA Cu2YA 1_555 1_555
O4H Cu2H 1_555 1_555
O4XA Cu2XA 1_555 1_555
O4HA Cu2HA 1_555 1_555
O4DA Cu2DA 1_555 1_555
O4ZA Cu2ZA 1_555 1_555
O4A Cu2A 1_555 1_555
O4K Cu2K 1_555 1_555
O4GA Cu2GA 1_555 1_555
O4EA Cu2EA 1_555 1_555
O4AB Cu2AB 1_555 1_555
Cu3AB O2OB 1_555 1_555
Cu3EA O2EA 1_555 1_555
Cu3GA O2JA 1_555 1_555
Cu3K O2K 1_555 1_555
Cu3A O2V 1_555 1_555
Cu3YA O2YA 1_555 1_555
Cu3ZA O2FF 1_555 1_555
Cu3DA O2TD 1_555 1_555
Cu3HA O2EE 1_555 1_555
Cu3H O2BD 1_555 1_555
Cu3XA O2SB 1_555 1_555
C11N Cu1SB 1_555 1_555
C11C Cu1BB 1_555 1_555
C11L Cu1RB 1_555 1_555
C11O Cu1O 1_555 1_555
C11B Cu1ZA 1_555 1_555
C11M Cu1QB 1_555 1_555
C11A Cu1AB 1_555 1_555
N3C C11C 1_555 1_555
N3O C11O 1_555 1_555
N3N C11N 1_555 1_555
N3A C11A 1_555 1_555
N3M C11M 1_555 1_555
N3B C11B 1_555 1_555
N3L C11L 1_555 1_555
C7 N1 1_555 1_555
C8 N1 1_555 1_555
N2 Cu3 1_555 1_555
N2 C9OD 1_555 1_555
N2 C9TC 1_555 1_555
Cu1HA O3ED 1_555 1_555
Cu1N C11N 1_555 1_555
Cu1NA C11N 1_555 1_555
Cu1FA C11C 1_555 1_555
Cu1C C11C 1_555 1_555
Cu1L C11L 1_555 1_555
Cu1QA C11L 1_555 1_555
Cu1PB C11O 1_555 1_555
Cu1PA C11O 1_555 1_555
Cu1IA C11B 1_555 1_555
Cu1B C11B 1_555 1_555
Cu1OA C11M 1_555 1_555
Cu1M C11M 1_555 1_555
Cu1GA C11A 1_555 1_555
Cu1A C11A 1_555 1_555
O2AB Cu3AB 1_555 1_555
O2EF Cu3AB 1_555 1_555
O2UE Cu3AB 1_555 1_555
O2OA Cu3EA 1_555 1_555
O2UD Cu3EA 1_555 1_555
O2IE Cu3EA 1_555 1_555
O2GA Cu3GA 1_555 1_555
O2DE Cu3GA 1_555 1_555
O2AE Cu3GA 1_555 1_555
O2N Cu3K 1_555 1_555
O2AD Cu3K 1_555 1_555
O2DD Cu3K 1_555 1_555
O2A Cu3A 1_555 1_555
O2LD Cu3A 1_555 1_555
O2UC Cu3A 1_555 1_555
O2PB Cu3YA 1_555 1_555
O2OE Cu3YA 1_555 1_555
O2JF Cu3YA 1_555 1_555
O2TE Cu3ZA 1_555 1_555
O2LB Cu3ZA 1_555 1_555
O2ZA Cu3ZA 1_555 1_555
O2FE Cu3DA 1_555 1_555
O2DA Cu3DA 1_555 1_555
O2PA Cu3DA 1_555 1_555
O2XD Cu3HA 1_555 1_555
O2KA Cu3HA 1_555 1_555
O2HA Cu3HA 1_555 1_555
O2ED Cu3H 1_555 1_555
O2H Cu3H 1_555 1_555
O2O Cu3H 1_555 1_555
O2U C5U 1_555 1_555
O2TC C5TC 1_555 1_555
O2OD C5OD 1_555 1_555
O2XA Cu3XA 1_555 1_555
O2IF Cu3XA 1_555 1_555
O2NE Cu3XA 1_555 1_555
O3GE C6HA 1_555 1_555
O3IF C6CB 1_555 1_555
O3SB C6SB 1_555 1_555
O3BB C6BB 1_555 1_555
O3RB C6RB 1_555 1_555
O3XD C6PA 1_555 1_555
O3ZA C6ZA 1_555 1_555
O3RC C6M 1_555 1_555
O3AB C6AB 1_555 1_555
C1JF C5JF 1_555 1_555
C1AB C4AB 1_555 1_555
C1IE C5IE 1_555 1_555
C1GA C4GA 1_555 1_555
C1DD C5DD 1_555 1_555
C1A C4A 1_555 1_555
C1OE C5OE 1_555 1_555
C1HB C4HB 1_555 1_555
C1PB C5PB 1_555 1_555
C1TE C4PB 1_555 1_555
C1PA C5PA 1_555 1_555
C1XD C4PA 1_555 1_555
C1O C5O 1_555 1_555
C1UC C4O 1_555 1_555
C1UC C5UC 1_555 1_555
C1H C5H 1_555 1_555
C1JD C4H 1_555 1_555
C1ED C2ED 1_555 1_555
C1ED C5ED 1_555 1_555
C1NE C5NE 1_555 1_555
C1IB C4IB 1_555 1_555
C1IF C5IF 1_555 1_555
C1CB C4CB 1_555 1_555
C1XA C5XA 1_555 1_555
C1BF C4XA 1_555 1_555
C1RE C4SB 1_555 1_555
C1OD C5OD 1_555 1_555
C1D C4D 1_555 1_555
C1TC C5TC 1_555 1_555
C1N C4N 1_555 1_555
C1N C5N 1_555 1_555
C1U C5U 1_555 1_555
C1YC C4U 1_555 1_555
C1Q C4Q 1_555 1_555
C1HA C5HA 1_555 1_555
C1GE C4HA 1_555 1_555
C1EE C5EE 1_555 1_555
C1AA C4AA 1_555 1_555
C1DA C5DA 1_555 1_555
C1JE C4DA 1_555 1_555
C1FE C5FE 1_555 1_555
C1IA C4IA 1_555 1_555
C1LB C5LB 1_555 1_555
C1YE C4LB 1_555 1_555
C1V C5V 1_555 1_555
C1WC C4V 1_555 1_555
C1AD C5AD 1_555 1_555
C1S C4S 1_555 1_555
C2AB C3AB 1_555 1_555
C2GA C3GA 1_555 1_555
C2A C3A 1_555 1_555
C2HB C3HB 1_555 1_555
C2TE C3PB 1_555 1_555
C2XD C3PA 1_555 1_555
C2UC C3O 1_555 1_555
C2JD C3H 1_555 1_555
C2IB C3IB 1_555 1_555
C2CB C3CB 1_555 1_555
C2BF C3XA 1_555 1_555
C2RE C3SB 1_555 1_555
C2D C3D 1_555 1_555
C2N C3N 1_555 1_555
C2YC C3U 1_555 1_555
C2Q C3Q 1_555 1_555
C2GE C3HA 1_555 1_555
C2AA C3AA 1_555 1_555
C2JE C3DA 1_555 1_555
C2IA C3IA 1_555 1_555
C2YE C3LB 1_555 1_555
C2WC C3V 1_555 1_555
C2S C3S 1_555 1_555
C3AB C6AB 1_555 1_555
C3A C6A 1_555 1_555
C3PB C6PB 1_555 1_555
C3PA C6PA 1_555 1_555
C3CB C6CB 1_555 1_555
C3SB C6SB 1_555 1_555
C3HA C6HA 1_555 1_555
C7TC N1SB 1_555 1_555
C7NA N1NA 1_555 1_555
C7HE N1BB 1_555 1_555
C7C N1C 1_555 1_555
C7SC N1RB 1_555 1_555
C7QA N1QA 1_555 1_555
C7GE N1CB 1_555 1_555
C7ED N1HA 1_555 1_555
C7O N1O 1_555 1_555
C7TE N1PA 1_555 1_555
C7ZA N1ZA 1_555 1_555
C7PA N1PA 1_555 1_555
C7FE N1ZA 1_555 1_555
C7B N1B 1_555 1_555
C7RC N1QB 1_555 1_555
C7KF N1B 1_555 1_555
C7QB N1QB 1_555 1_555
C7ZD N1M 1_555 1_555
C7FA N1FA 1_555 1_555
C7GD N1FA 1_555 1_555
C7M N1M 1_555 1_555
C7UE N1OA 1_555 1_555
C7AB N1AB 1_555 1_555
C7OA N1OA 1_555 1_555
C7IE N1AB 1_555 1_555
C7A N1A 1_555 1_555
C7UC N1PB 1_555 1_555
C7JF N1A 1_555 1_555
C7PB N1PB 1_555 1_555
C7GA N1GA 1_555 1_555
C7AE N1N 1_555 1_555
C7DD N1GA 1_555 1_555
C7N N1N 1_555 1_555
C7IA N1IA 1_555 1_555
C7FD N1IA 1_555 1_555
C7XD N1O 1_555 1_555
C7HA N1HA 1_555 1_555
C7CB N1CB 1_555 1_555
C7SE N1QA 1_555 1_555
C7L N1L 1_555 1_555
C7YD N1L 1_555 1_555
C7RB N1RB 1_555 1_555
C7HF N1C 1_555 1_555
C7BB N1BB 1_555 1_555
C7RE N1NA 1_555 1_555
C7SB N1SB 1_555 1_555
C8PA N1PA 1_555 1_555
C8ZA N1ZA 1_555 1_555
C8B N1B 1_555 1_555
C8QB N1QB 1_555 1_555
C8FA N1FA 1_555 1_555
C8M N1M 1_555 1_555
C8OA N1OA 1_555 1_555
C8AB N1AB 1_555 1_555
C8A N1A 1_555 1_555
C8PB N1PB 1_555 1_555
C8GA N1GA 1_555 1_555
C8N N1N 1_555 1_555
C8IA N1IA 1_555 1_555
C8L N1L 1_555 1_555
C8O N1O 1_555 1_555
C8HA N1HA 1_555 1_555
C8CB N1CB 1_555 1_555
C8QA N1QA 1_555 1_555
C8RB N1RB 1_555 1_555
C8C N1C 1_555 1_555
C8BB N1BB 1_555 1_555
C8NA N1NA 1_555 1_555
C8SB N1SB 1_555 1_555
C9UE N2AB 1_555 1_555
C9UD N2EA 1_555 1_555
C9EF C10OB 1_555 1_555
C9EF N2AB 1_555 1_555
C9AB C10AB 1_555 1_555
C9AB N2AB 1_555 1_555
C9EA C10EA 1_555 1_555
C9EA N2EA 1_555 1_555
C9IE C10OA 1_555 1_555
C9IE N2EA 1_555 1_555
C9AE N2GA 1_555 1_555
C9AD N2K 1_555 1_555
C9DE C10JA 1_555 1_555
C9DE N2GA 1_555 1_555
C9GA C10GA 1_555 1_555
C9GA N2GA 1_555 1_555
C9K C10K 1_555 1_555
C9K N2K 1_555 1_555
C9DD C10N 1_555 1_555
C9DD N2K 1_555 1_555
C9UC N2A 1_555 1_555
C9OE N2YA 1_555 1_555
C9LD C10V 1_555 1_555
C9LD N2A 1_555 1_555
C9A C10A 1_555 1_555
C9A N2A 1_555 1_555
C9YA C10YA 1_555 1_555
C9YA N2YA 1_555 1_555
C9JF C10PB 1_555 1_555
C9JF N2YA 1_555 1_555
C9ZA N2ZA 1_555 1_555
C9DA N2DA 1_555 1_555
C9LB C10LB 1_555 1_555
C9LB N2ZA 1_555 1_555
C9TE C10ZA 1_555 1_555
C9TE N2ZA 1_555 1_555
C9TD C10DA 1_555 1_555
C9TD N2DA 1_555 1_555
C9PA C10PA 1_555 1_555
C9PA N2DA 1_555 1_555
C9HA N2HA 1_555 1_555
C9H N2H 1_555 1_555
C9KA C10KA 1_555 1_555
C9KA N2HA 1_555 1_555
C9XD C10HA 1_555 1_555
C9XD N2HA 1_555 1_555
C9BD C10H 1_555 1_555
C9BD N2H 1_555 1_555
C9O C10O 1_555 1_555
C9O N2H 1_555 1_555
C9OD C10U 1_555 1_555
C9XA C9IF 1_555 1_555
C9IF C10SB 1_555 1_555
C9IF N2XA 1_555 1_555
C9TC C9U 1_555 1_555
C9U C10U 1_555 1_555
C9SB C9NE 1_555 1_555
C9SB C10SB 1_555 1_555
C9SB N2XA 1_555 1_555
C9NE C10XA 1_555 1_555
C9NE N2XA 1_555 1_555
C10OB C10EA 1_555 1_555
C10OB N2AB 1_555 1_555
C10AB C10OA 1_555 1_555
C10AB N2AB 1_555 1_555
C10EA N2EA 1_555 1_555
C10OA N2EA 1_555 1_555
C10JA C10K 1_555 1_555
C10JA N2GA 1_555 1_555
C10GA C10N 1_555 1_555
C10GA N2GA 1_555 1_555
C10K N2K 1_555 1_555
C10N N2K 1_555 1_555
C10V C10YA 1_555 1_555
C10V N2A 1_555 1_555
C10A C10PB 1_555 1_555
C10A N2A 1_555 1_555
C10YA N2YA 1_555 1_555
C10PB N2YA 1_555 1_555
C10LB C10DA 1_555 1_555
C10LB N2ZA 1_555 1_555
C10ZA C10PA 1_555 1_555
C10ZA N2ZA 1_555 1_555
C10DA N2DA 1_555 1_555
C10PA N2DA 1_555 1_555
C10KA C10H 1_555 1_555
C10KA N2HA 1_555 1_555
C10HA C10O 1_555 1_555
C10HA N2HA 1_555 1_555
C10H N2H 1_555 1_555
C10O N2H 1_555 1_555
C10U C10XA 1_555 1_555
C10SB N2XA 1_555 1_555
C10XA N2XA 1_555 1_555
N2AB Cu3AB 1_555 1_555
N2EA Cu3EA 1_555 1_555
N2GA Cu3GA 1_555 1_555
N2K Cu3K 1_555 1_555
N2A Cu3A 1_555 1_555
N2YA Cu3YA 1_555 1_555
N2ZA Cu3ZA 1_555 1_555
N2DA Cu3DA 1_555 1_555
N2HA Cu3HA 1_555 1_555
N2H Cu3H 1_555 1_555
N2XA Cu3XA 1_555 1_555

#END
