
#######################################################################
#
#                 Cambridge Crystallographic Data Centre
#                                CCDC 
#
#######################################################################
#
# If this CIF has been generated from an entry in the Cambridge 
# Structural Database, then it will include bibliographic, chemical, 
# crystal, experimental, refinement or atomic coordinate data resulting 
# from the CCDC's data processing and validation procedures.
#
#######################################################################

data_COKROL
_chemical_name_common            MMPF-7
_chemical_formula_moiety         '(C48 H28 In2 N4 O10)n'
_chemical_name_systematic        
"catena-[(\m~5~-4,4',4'',4'''-Porphyrinato-5,10,15,20-tetrayltetrabenzoato)-diaqua-di-indium unknown solvate]"
_symmetry_cell_setting           monoclinic
_symmetry_space_group_name_H-M   'C 2/c'
_symmetry_Int_Tables_number      15
_space_group_name_Hall           '-C 2yc'
loop_
_symmetry_equiv_pos_site_id
_symmetry_equiv_pos_as_xyz
1 x,y,z
2 -x,y,1/2-z
3 1/2+x,1/2+y,z
4 1/2-x,1/2+y,1/2-z
5 -x,-y,-z
6 x,-y,1/2+z
7 1/2-x,1/2-y,-z
8 1/2+x,1/2-y,1/2+z
_cell_length_a                   7.6333(3)
_cell_length_b                   24.1332(11)
_cell_length_c                   30.5291(14)
_cell_angle_alpha                90
_cell_angle_beta                 93.505(3)
_cell_angle_gamma                90
_cell_volume                     5613.43
_exptl_crystal_colour            red
_exptl_crystal_description       block
_cell_formula_units_Z            4
loop_
_atom_site_label
_atom_site_type_symbol
_atom_site_fract_x
_atom_site_fract_y
_atom_site_fract_z
_atom_site_U_iso_or_equiv
_atom_site_thermal_displace_type
In1 In -0.5000 -0.15117(2) 0.2500 0.0469 Uani
In2 In 0.5000 0.0000 0.0000 0.0569 Uani
O1 O -0.4611(5) -0.08559(19) 0.19453(13) 0.0683 Uani
O2 O -0.2436(4) -0.12114(19) 0.23327(12) 0.0580 Uani
O3 O 1.0902(9) 0.2708(3) 0.2045(2) 0.1239 Uani
O4 O 0.8353(9) 0.3085(2) 0.19777(16) 0.1044 Uani
N1 N 0.2811(5) -0.05044(19) 0.00132(14) 0.0479 Uani
N2 N 0.4450(5) 0.03346(18) 0.06024(13) 0.0417 Uani
C1 C 0.9408(14) 0.2723(4) 0.1875(3) 0.0932 Uani
C2 C 0.7595(7) 0.1464(3) 0.09650(19) 0.0556 Uani
C3 C 0.9881(10) 0.1831(3) 0.1462(2) 0.0841 Uani
H1 H 1.1003 0.1794 0.1604 0.1010 Uiso
C4 C 0.8854(11) 0.2301(3) 0.1541(2) 0.0752 Uani
C5 C 0.3102(7) 0.0160(2) 0.08561(17) 0.0477 Uani
C6 C 0.7257(12) 0.2345(3) 0.1321(2) 0.0901 Uani
H2 H 0.6566 0.2659 0.1368 0.1080 Uiso
C7 C 0.9240(9) 0.1422(3) 0.1177(2) 0.0759 Uani
H3 H 0.9937 0.1110 0.1127 0.0910 Uiso
C8 C 0.5371(7) 0.0741(2) 0.08213(18) 0.0495 Uani
C9 C -0.1753(6) -0.0710(2) 0.16951(17) 0.0463 Uani
C10 C 0.0616(7) -0.0389(2) 0.10877(18) 0.0493 Uani
C11 C 0.1733(7) -0.0555(2) 0.03609(18) 0.0513 Uani
C12 C -0.1149(7) -0.0261(3) 0.10216(19) 0.0561 Uani
H4 H -0.1552 -0.0069 0.0767 0.0680 Uiso
C13 C 0.0032(7) -0.0831(3) 0.17663(17) 0.0523 Uani
H5 H 0.0442 -0.1024 0.2020 0.0630 Uiso
C14 C -0.2328(7) -0.0416(3) 0.13293(18) 0.0585 Uani
H6 H -0.3519 -0.0320 0.1286 0.0700 Uiso
C15 C 0.6866(7) 0.1017(2) 0.06771(18) 0.0508 Uani
C16 C 0.6612(10) 0.1942(3) 0.1032(2) 0.0729 Uani
H7 H 0.5513 0.1990 0.0881 0.0870 Uiso
C17 C 0.4607(7) 0.0831(3) 0.12355(19) 0.0596 Uani
H8 H 0.4986 0.1087 0.1453 0.0710 Uiso
C18 C 0.1881(6) -0.0247(2) 0.07453(17) 0.0474 Uani
C19 C 0.2327(7) -0.0908(3) -0.02832(18) 0.0542 Uani
C20 C 0.3238(7) 0.0475(3) 0.12507(18) 0.0543 Uani
H9 H 0.2496 0.0443 0.1484 0.0650 Uiso
C21 C 0.0847(8) -0.1209(3) -0.0133(2) 0.0711 Uani
H10 H 0.0241 -0.1501 -0.0280 0.0850 Uiso
C22 C 0.0506(8) -0.0992(3) 0.0257(2) 0.0752 Uani
H11 H -0.0392 -0.1108 0.0434 0.0900 Uiso
C23 C 0.1192(7) -0.0665(3) 0.14602(18) 0.0562 Uani
H12 H 0.2394 -0.0743 0.1509 0.0670 Uiso
C24 C -0.3027(7) -0.0926(3) 0.20137(17) 0.0482 Uani
O5 O 0.376(2) 0.0885(8) -0.0296(6) 0.0960 Uiso
O1D O 1.4611(5) 0.08559(19) -0.19453(13) 0.0683 Uani
O2D O 1.2436(4) 0.12114(19) -0.23327(12) 0.0580 Uani
O3D O -0.0902(9) -0.2708(3) -0.2045(2) 0.1239 Uani
O4D O 0.1647(9) -0.3085(2) -0.19777(16) 0.1044 Uani
N1D N 0.7189(5) 0.05044(19) -0.00132(14) 0.0479 Uani
N2D N 0.5550(5) -0.03346(18) -0.06024(13) 0.0417 Uani
C1D C 0.0592(14) -0.2723(4) -0.1875(3) 0.0932 Uani
C2D C 0.2405(7) -0.1464(3) -0.09650(19) 0.0556 Uani
C3D C 0.0119(10) -0.1831(3) -0.1462(2) 0.0841 Uani
H1D H -0.1003 -0.1794 -0.1604 0.1010 Uiso
C4D C 0.1146(11) -0.2301(3) -0.1541(2) 0.0752 Uani
C5D C 0.6898(7) -0.0160(2) -0.08561(17) 0.0477 Uani
C6D C 0.2743(12) -0.2345(3) -0.1321(2) 0.0901 Uani
H2D H 0.3434 -0.2659 -0.1368 0.1080 Uiso
C7D C 0.0760(9) -0.1422(3) -0.1177(2) 0.0759 Uani
H3D H 0.0063 -0.1110 -0.1127 0.0910 Uiso
C8D C 0.4629(7) -0.0741(2) -0.08213(18) 0.0495 Uani
C9D C 1.1753(6) 0.0710(2) -0.16951(17) 0.0463 Uani
C10D C 0.9384(7) 0.0389(2) -0.10877(18) 0.0493 Uani
C11D C 0.8267(7) 0.0555(2) -0.03609(18) 0.0513 Uani
C12D C 1.1149(7) 0.0261(3) -0.10216(19) 0.0561 Uani
H4D H 1.1552 0.0069 -0.0767 0.0680 Uiso
C13D C 0.9968(7) 0.0831(3) -0.17663(17) 0.0523 Uani
H5D H 0.9558 0.1024 -0.2020 0.0630 Uiso
C14D C 1.2328(7) 0.0416(3) -0.13293(18) 0.0585 Uani
H6D H 1.3519 0.0320 -0.1286 0.0700 Uiso
C15D C 0.3134(7) -0.1017(2) -0.06771(18) 0.0508 Uani
C16D C 0.3388(10) -0.1942(3) -0.1032(2) 0.0729 Uani
H7D H 0.4487 -0.1990 -0.0881 0.0870 Uiso
C17D C 0.5393(7) -0.0831(3) -0.12355(19) 0.0596 Uani
H8D H 0.5014 -0.1087 -0.1453 0.0710 Uiso
C18D C 0.8119(6) 0.0247(2) -0.07453(17) 0.0474 Uani
C19D C 0.7673(7) 0.0908(3) 0.02832(18) 0.0542 Uani
C20D C 0.6762(7) -0.0475(3) -0.12507(18) 0.0543 Uani
H9D H 0.7504 -0.0443 -0.1484 0.0650 Uiso
C21D C 0.9153(8) 0.1209(3) 0.0133(2) 0.0711 Uani
H10D H 0.9759 0.1501 0.0280 0.0850 Uiso
C22D C 0.9494(8) 0.0992(3) -0.0257(2) 0.0752 Uani
H11D H 1.0392 0.1108 -0.0434 0.0900 Uiso
C23D C 0.8808(7) 0.0665(3) -0.14602(18) 0.0562 Uani
H12D H 0.7606 0.0743 -0.1509 0.0670 Uiso
C24D C 1.3027(7) 0.0926(3) -0.20137(17) 0.0482 Uani
O5D O 0.624(2) -0.0885(8) 0.0296(6) 0.0960 Uiso
In1B In 1.0000 0.34883(2) 0.2500 0.0469 Uani
In1D In 1.5000 0.15117(2) -0.2500 0.0469 Uani
In1F In 0.0000 -0.34883(2) -0.2500 0.0469 Uani
O1A O -0.5389(5) -0.08559(19) 0.30547(13) 0.0683 Uani
O2A O -0.7564(4) -0.12114(19) 0.26673(12) 0.0580 Uani
O3B O -0.4098(9) -0.2292(3) 0.2045(2) 0.1239 Uani
O3C O -0.5902(9) -0.2292(3) 0.2955(2) 0.1239 Uani
O4B O -0.6647(9) -0.1915(2) 0.19777(16) 0.1044 Uani
O4C O -0.3353(9) -0.1915(2) 0.30223(16) 0.1044 Uani
loop_
_atom_site_aniso_label
_atom_site_aniso_U_11
_atom_site_aniso_U_22
_atom_site_aniso_U_33
_atom_site_aniso_U_23
_atom_site_aniso_U_13
_atom_site_aniso_U_12
In1 0.0490(3) 0.0510(4) 0.0432(3) 0.000 0.0236(2) 0.000
In2 0.0573(12) 0.0766(17) 0.0395(12) -0.0086(10) 0.0257(9) -0.0251(10)
O1 0.045(2) 0.095(4) 0.068(3) 0.031(3) 0.0275(19) 0.007(2)
O2 0.045(2) 0.090(3) 0.040(2) 0.013(2) 0.0112(17) -0.010(2)
O3 0.126(5) 0.140(6) 0.108(5) -0.073(4) 0.027(4) -0.046(5)
O4 0.185(6) 0.070(4) 0.058(3) -0.021(3) 0.005(3) -0.012(4)
N1 0.059(3) 0.050(3) 0.037(2) -0.005(2) 0.022(2) -0.009(2)
N2 0.048(2) 0.043(3) 0.036(2) 0.001(2) 0.0169(19) -0.004(2)
C1 0.125(7) 0.098(7) 0.060(5) -0.008(5) 0.033(5) -0.051(6)
C2 0.064(4) 0.055(4) 0.050(3) -0.013(3) 0.021(3) -0.012(3)
C3 0.075(4) 0.093(6) 0.085(5) -0.024(5) 0.011(4) -0.017(4)
C4 0.100(5) 0.070(5) 0.057(4) -0.018(4) 0.016(4) -0.027(4)
C5 0.049(3) 0.058(4) 0.038(3) 0.003(3) 0.019(2) 0.004(3)
C6 0.130(7) 0.064(5) 0.077(5) -0.028(4) 0.011(5) 0.004(5)
C7 0.071(4) 0.072(5) 0.085(5) -0.025(4) 0.008(4) 0.006(4)
C8 0.056(3) 0.051(4) 0.043(3) -0.004(3) 0.016(3) -0.001(3)
C9 0.046(3) 0.054(4) 0.041(3) -0.001(3) 0.019(2) -0.001(3)
C10 0.050(3) 0.056(4) 0.044(3) 0.001(3) 0.021(3) -0.006(3)
C11 0.056(3) 0.052(4) 0.048(3) 0.006(3) 0.020(3) -0.011(3)
C12 0.049(3) 0.074(4) 0.047(3) 0.011(3) 0.017(3) 0.009(3)
C13 0.049(3) 0.076(4) 0.033(3) 0.017(3) 0.011(2) 0.001(3)
C14 0.039(3) 0.088(5) 0.050(3) 0.019(3) 0.016(3) 0.003(3)
C15 0.052(3) 0.053(4) 0.049(3) -0.003(3) 0.016(3) -0.005(3)
C16 0.091(5) 0.063(5) 0.065(4) -0.017(4) 0.007(4) 0.001(4)
C17 0.060(3) 0.072(5) 0.049(3) -0.014(3) 0.022(3) -0.005(3)
C18 0.046(3) 0.057(4) 0.041(3) 0.003(3) 0.017(2) -0.002(3)
C19 0.063(3) 0.055(4) 0.047(3) -0.004(3) 0.023(3) -0.011(3)
C20 0.051(3) 0.069(4) 0.045(3) 0.003(3) 0.021(3) 0.002(3)
C21 0.080(4) 0.071(5) 0.065(4) -0.018(4) 0.026(3) -0.044(4)
C22 0.073(4) 0.089(5) 0.068(4) -0.012(4) 0.040(3) -0.032(4)
C23 0.038(3) 0.086(5) 0.046(3) 0.016(3) 0.013(2) 0.000(3)
C24 0.051(3) 0.064(4) 0.031(3) 0.000(3) 0.013(3) -0.009(3)
O1D 0.045 0.095 0.068 0.031 0.0275 0.007
O2D 0.045 0.09 0.04 0.013 0.0112 -0.01
O3D 0.126 0.14 0.108 -0.073 0.027 -0.046
O4D 0.185 0.07 0.058 -0.021 0.005 -0.012
N1D 0.059 0.05 0.037 -0.005 0.022 -0.009
N2D 0.048 0.043 0.036 0.001 0.0169 -0.004
C1D 0.125 0.098 0.06 -0.008 0.033 -0.051
C2D 0.064 0.055 0.05 -0.013 0.021 -0.012
C3D 0.075 0.093 0.085 -0.024 0.011 -0.017
C4D 0.1 0.07 0.057 -0.018 0.016 -0.027
C5D 0.049 0.058 0.038 0.003 0.019 0.004
C6D 0.13 0.064 0.077 -0.028 0.011 0.004
C7D 0.071 0.072 0.085 -0.025 0.008 0.006
C8D 0.056 0.051 0.043 -0.004 0.016 -0.001
C9D 0.046 0.054 0.041 -0.001 0.019 -0.001
C10D 0.05 0.056 0.044 0.001 0.021 -0.006
C11D 0.056 0.052 0.048 0.006 0.02 -0.011
C12D 0.049 0.074 0.047 0.011 0.017 0.009
C13D 0.049 0.076 0.033 0.017 0.011 0.001
C14D 0.039 0.088 0.05 0.019 0.016 0.003
C15D 0.052 0.053 0.049 -0.003 0.016 -0.005
C16D 0.091 0.063 0.065 -0.017 0.007 0.001
C17D 0.06 0.072 0.049 -0.014 0.022 -0.005
C18D 0.046 0.057 0.041 0.003 0.017 -0.002
C19D 0.063 0.055 0.047 -0.004 0.023 -0.011
C20D 0.051 0.069 0.045 0.003 0.021 0.002
C21D 0.08 0.071 0.065 -0.018 0.026 -0.044
C22D 0.073 0.089 0.068 -0.012 0.04 -0.032
C23D 0.038 0.086 0.046 0.016 0.013 0
C24D 0.051 0.064 0.031 0 0.013 -0.009
In1B 0.049 0.051 0.0432 0 0.0236 0
In1D 0.049 0.051 0.0432 0 0.0236 0
In1F 0.049 0.051 0.0432 0 0.0236 0
O1A 0.045 0.095 0.068 -0.031 0.0275 -0.007
O2A 0.045 0.09 0.04 -0.013 0.0112 0.01
O3B 0.126 0.14 0.108 -0.073 0.027 -0.046
O3C 0.126 0.14 0.108 0.073 0.027 0.046
O4B 0.185 0.07 0.058 -0.021 0.005 -0.012
O4C 0.185 0.07 0.058 0.021 0.005 0.012
loop_
_geom_bond_atom_site_label_1
_geom_bond_atom_site_label_2
_geom_bond_site_symmetry_1
_geom_bond_site_symmetry_2
In1 O1 1_555 1_555
In2 N1 1_555 1_555
O1 C24 1_555 1_555
O2 In1 1_555 1_555
O3 C1 1_555 1_555
O4 C1 1_555 1_555
N1 C11 1_555 1_555
N2 In2 1_555 1_555
C1 C4 1_555 1_555
C2 C7 1_555 1_555
C3 H1 1_555 1_555
C4 C3 1_555 1_555
C5 N2 1_555 1_555
C6 C4 1_555 1_555
H2 C6 1_555 1_555
C7 C3 1_555 1_555
H3 C7 1_555 1_555
C8 N2 1_555 1_555
C9 C13 1_555 1_555
C10 C12 1_555 1_555
C11 C18 1_555 1_555
C12 H4 1_555 1_555
C13 H5 1_555 1_555
C14 C9 1_555 1_555
H6 C14 1_555 1_555
C15 C2 1_555 1_555
C16 C2 1_555 1_555
H7 C16 1_555 1_555
C17 C8 1_555 1_555
H8 C17 1_555 1_555
C18 C5 1_555 1_555
C19 N1 1_555 1_555
C20 C5 1_555 1_555
H9 C20 1_555 1_555
C21 C19 1_555 1_555
H10 C21 1_555 1_555
C22 C11 1_555 1_555
H11 C22 1_555 1_555
C23 C10 1_555 1_555
H12 C23 1_555 1_555
C24 O2 1_555 1_555
O5 In2 1_555 1_555
O1D C24D 1_555 1_555
O2D C24D 1_555 1_555
O3D C1D 1_555 1_555
O4D C1D 1_555 1_555
N1D In2 1_555 1_555
N2D In2 1_555 1_555
C1D C4D 1_555 1_555
C2D C7D 1_555 1_555
C3D H1D 1_555 1_555
C4D C3D 1_555 1_555
C5D N2D 1_555 1_555
C6D C4D 1_555 1_555
H2D C6D 1_555 1_555
C7D C3D 1_555 1_555
H3D C7D 1_555 1_555
C8D N2D 1_555 1_555
C9D C13D 1_555 1_555
C10D C12D 1_555 1_555
C11D N1D 1_555 1_555
C12D H4D 1_555 1_555
C13D H5D 1_555 1_555
C14D C9D 1_555 1_555
H6D C14D 1_555 1_555
C15D C19 1_555 1_555
C16D C2D 1_555 1_555
H7D C16D 1_555 1_555
C17D C8D 1_555 1_555
H8D C17D 1_555 1_555
C18D C5D 1_555 1_555
C19D C15 1_555 1_555
C20D C5D 1_555 1_555
H9D C20D 1_555 1_555
C21D C19D 1_555 1_555
H10D C21D 1_555 1_555
C22D C11D 1_555 1_555
H11D C22D 1_555 1_555
C23D C10D 1_555 1_555
H12D C23D 1_555 1_555
C24D C9D 1_555 1_555
O5D In2 1_555 1_555
In1B O3 1_555 1_555
In1D O1D 1_555 1_555
In1F O3D 1_555 1_555
O1A In1 1_555 1_555
O2A In1 1_555 1_555
O3B In1 1_555 1_555
O3C In1 1_555 1_555
O4B In1 1_555 1_555
O4C In1 1_555 1_555
O4 In1B 1_555 1_555
C6 C16 1_555 1_555
C8 C15 1_555 1_555
C9 C24 1_555 1_555
C10 C18 1_555 1_555
C12 C14 1_555 1_555
C13 C23 1_555 1_555
C17 C20 1_555 1_555
C21 C22 1_555 1_555
O2D In1D 1_555 1_555
O4D In1F 1_555 1_555
N1D C19D 1_555 1_555
C2D C15D 1_555 1_555
C6D C16D 1_555 1_555
C8D C15D 1_555 1_555
C10D C18D 1_555 1_555
C11D C18D 1_555 1_555
C12D C14D 1_555 1_555
C13D C23D 1_555 1_555
C17D C20D 1_555 1_555
C21D C22D 1_555 1_555

#END
