
#######################################################################
#
#                 Cambridge Crystallographic Data Centre
#                                CCDC 
#
#######################################################################
#
# If this CIF has been generated from an entry in the Cambridge 
# Structural Database, then it will include bibliographic, chemical, 
# crystal, experimental, refinement or atomic coordinate data resulting 
# from the CCDC's data processing and validation procedures.
#
#######################################################################

data_COKRUR
_chemical_name_common            MMPF-8
_chemical_formula_moiety         '(C72 H44 In2 N4 O10)n'
_chemical_name_systematic        
"catena-[(\m~5~-4',4'',4''',4''''-Porphyrinato-5,10,15,20-tetrayltetrabiphenyl-4-carboxylato)-diaqua-di-indium unknown solvate]"
_symmetry_cell_setting           monoclinic
_symmetry_space_group_name_H-M   'C c'
_symmetry_Int_Tables_number      9
_space_group_name_Hall           'C -2yc'
loop_
_symmetry_equiv_pos_site_id
_symmetry_equiv_pos_as_xyz
1 x,y,z
2 x,-y,1/2+z
3 1/2+x,1/2+y,z
4 1/2+x,1/2-y,1/2+z
_cell_length_a                   41.982(2)
_cell_length_b                   21.5588(12)
_cell_length_c                   43.755(2)
_cell_angle_alpha                90
_cell_angle_beta                 92.6350(10)
_cell_angle_gamma                90
_cell_volume                     39560
_exptl_crystal_colour            red
_exptl_crystal_description       block
_cell_formula_units_Z            16
loop_
_atom_site_label
_atom_site_type_symbol
_atom_site_fract_x
_atom_site_fract_y
_atom_site_fract_z
_atom_site_U_iso_or_equiv
_atom_site_thermal_displace_type
In1 In 0.70749(3) 1.05183(5) 0.50499(2) 0.0763 Uani
In2 In 0.46020(3) 0.74095(8) 0.25595(3) 0.1245 Uani
O1 O 0.2470(3) 0.4344(5) 0.0442(3) 0.1033 Uani
O2 O 0.6713(3) 0.9535(6) 0.0397(2) 0.1007 Uani
N1 N 0.4625(3) 0.7304(5) 0.2095(2) 0.0647 Uani
O3 O 0.6679(2) 1.0656(5) 0.4661(2) 0.0724 Uani
N2 N 0.4600(3) 0.7539(5) 0.3031(3) 0.0770 Uani
C1 C 0.6657(4) 0.8947(8) 0.0396(3) 0.0758 Uani
N3 N 0.4144(2) 0.7064(4) 0.2558(2) 0.0536 Uani
O4 O 0.2461(3) 0.5448(6) 0.4733(3) 0.1011 Uani
O5 O 0.6810(3) 0.8578(5) 0.0260(3) 0.1041 Uani
C2 C 0.5238(4) 0.7854(7) 0.2290(3) 0.0890 Uani
C3 C 0.2490(4) 0.5992(9) 0.4693(3) 0.0761 Uani
C4 C 0.5504(4) 0.8227(9) 0.2395(3) 0.1218 Uani
H1 H 0.5651 0.8416 0.2265 0.1460 Uiso
C5 C 0.3968(3) 0.6842(6) 0.2314(3) 0.0545 Uani
C6 C 0.4857(3) 0.7445(6) 0.1903(3) 0.0618 Uani
C7 C 0.4044(3) 0.6853(6) 0.2006(3) 0.0593 Uani
C8 C 0.6241(2) 0.8822(3) 0.4173(2) 0.0734 Uani
H2 H 0.6243 0.8383 0.4158 0.0880 Uiso
C9 C 0.64508(19) 0.9121(4) 0.43798(18) 0.0709 Uani
H3 H 0.6596 0.8886 0.4506 0.0850 Uiso
C10 C 0.64477(19) 0.9764(4) 0.44021(17) 0.0556 Uani
C11 C 0.6235(2) 1.0108(3) 0.4218(2) 0.0804 Uani
H4 H 0.6233 1.0548 0.4233 0.0960 Uiso
C12 C 0.6025(2) 0.9810(5) 0.40115(18) 0.0953 Uani
H5 H 0.5880 1.0045 0.3886 0.1140 Uiso
C13 C 0.6028(2) 0.9167(5) 0.39892(18) 0.0766 Uani
C14 C 0.4351(3) 0.7059(8) 0.1906(3) 0.0924 Uani
C15 C 0.3820(2) 0.6588(4) 0.17723(18) 0.0697 Uani
C16 C 0.3526(2) 0.6866(3) 0.1706(2) 0.0688 Uani
H6 H 0.3470 0.7238 0.1807 0.0830 Uiso
C17 C 0.33130(18) 0.6600(4) 0.1491(2) 0.0897 Uani
H7 H 0.3112 0.6790 0.1446 0.1080 Uiso
C18 C 0.3394(2) 0.6057(4) 0.13428(19) 0.0750 Uani
C19 C 0.3688(2) 0.5778(4) 0.1409(2) 0.0865 Uani
H8 H 0.3743 0.5407 0.1308 0.1040 Uiso
C20 C 0.39005(18) 0.6044(5) 0.1624(2) 0.0941 Uani
H9 H 0.4101 0.5854 0.1669 0.1130 Uiso
C21 C 0.3158(2) 0.5761(5) 0.1112(2) 0.0828 Uani
C22 C 0.2950(2) 0.6138(4) 0.0939(2) 0.0754 Uani
H10 H 0.2959 0.6576 0.0963 0.0910 Uiso
C23 C 0.2729(2) 0.5875(5) 0.0732(2) 0.0785 Uani
H11 H 0.2587 0.6132 0.0613 0.0940 Uiso
C24 C 0.2716(2) 0.5234(5) 0.0697(2) 0.0739 Uani
C25 C 0.2923(3) 0.4857(4) 0.0869(2) 0.1041 Uani
H12 H 0.2914 0.4419 0.0846 0.1250 Uiso
C26 C 0.3145(2) 0.5120(5) 0.1077(2) 0.0872 Uani
H13 H 0.3287 0.4863 0.1195 0.1050 Uiso
O6 O 0.6845(2) 0.9756(4) 0.4811(2) 0.0718 Uani
O7 O 0.2311(3) 0.6333(6) 0.4796(3) 0.1174 Uani
N4 N 0.5059(3) 0.7725(6) 0.2566(3) 0.0795 Uani
C27 C 0.3667(3) 0.6677(6) 0.2720(3) 0.0741 Uani
H14 H 0.3502 0.6560 0.2850 0.0890 Uiso
C28 C 0.4837(4) 0.7838(7) 0.3196(3) 0.0856 Uani
C29 C 0.6667(3) 1.0112(6) 0.4638(3) 0.0653 Uani
C30 C 0.3664(3) 0.6605(6) 0.2411(3) 0.0635 Uani
H15 H 0.3497 0.6433 0.2284 0.0760 Uiso
C31 C 0.4746(3) 0.7772(7) 0.3517(3) 0.0836 Uani
H16 H 0.4871 0.7906 0.3691 0.1010 Uiso
C32 C 0.5132(3) 0.7717(7) 0.2002(3) 0.0706 Uani
C33 C 0.4363(3) 0.7367(6) 0.3221(3) 0.0697 Uani
C34 C 0.3819(3) 0.6977(6) 0.3342(2) 0.1240 Uani
C35 C 0.3557(3) 0.7347(5) 0.3400(3) 0.1443 Uani
H17 H 0.3516 0.7710 0.3282 0.1740 Uiso
C36 C 0.3356(2) 0.7185(6) 0.3631(3) 0.1474 Uani
H18 H 0.3177 0.7438 0.3670 0.1770 Uiso
C37 C 0.3416(2) 0.6654(6) 0.3804(2) 0.1428 Uani
C38 C 0.3678(3) 0.6284(5) 0.3746(3) 0.1554 Uani
H19 H 0.3719 0.5921 0.3864 0.1860 Uiso
C39 C 0.3879(2) 0.6445(6) 0.3515(3) 0.1459 Uani
H20 H 0.4058 0.6192 0.3475 0.1750 Uiso
C40 C 0.4076(3) 0.7114(6) 0.3111(3) 0.0655 Uani
C41 C 0.5216(4) 0.7972(8) 0.2788(3) 0.0910 Uani
C42 C 0.5763(3) 0.8238(6) 0.1305(2) 0.1269 Uani
C43 C 0.5506(3) 0.8619(5) 0.1367(3) 0.1365 Uani
H21 H 0.5472 0.8993 0.1256 0.1640 Uiso
C44 C 0.5300(2) 0.8452(5) 0.1592(3) 0.1384 Uani
H22 H 0.5124 0.8712 0.1634 0.1660 Uiso
C45 C 0.5349(2) 0.7904(5) 0.1755(2) 0.0834 Uani
C46 C 0.5605(3) 0.7523(4) 0.1693(2) 0.1233 Uani
H23 H 0.5639 0.7149 0.1804 0.1480 Uiso
C47 C 0.5812(2) 0.7691(5) 0.1468(3) 0.1084 Uani
H24 H 0.5987 0.7430 0.1425 0.1300 Uiso
C48 C 0.5517(4) 0.8272(8) 0.2713(3) 0.1222 Uani
H25 H 0.5677 0.8450 0.2846 0.1470 Uiso
C49 C 0.3973(3) 0.6972(5) 0.2818(3) 0.0455 Uani
C50 C 0.4454(3) 0.7093(7) 0.1593(3) 0.0789 Uani
H26 H 0.4334 0.6959 0.1416 0.0940 Uiso
C51 C 0.4453(3) 0.7490(7) 0.3527(3) 0.0850 Uani
H27 H 0.4337 0.7398 0.3703 0.1020 Uiso
C52 C 0.5793(2) 0.8831(5) 0.37647(19) 0.0847 Uani
C53 C 0.5494(2) 0.9090(4) 0.3704(2) 0.0928 Uani
H28 H 0.5435 0.9460 0.3805 0.1110 Uiso
C54 C 0.52809(17) 0.8810(4) 0.3494(2) 0.0744 Uani
H29 H 0.5076 0.8987 0.3453 0.0890 Uiso
C55 C 0.5367(2) 0.8269(4) 0.33456(18) 0.0746 Uani
C56 C 0.5666(2) 0.8010(4) 0.3407(2) 0.0866 Uani
H30 H 0.5725 0.7641 0.3305 0.1040 Uiso
C57 C 0.58795(17) 0.8291(5) 0.3616(2) 0.0949 Uani
H31 H 0.6084 0.8113 0.3658 0.1140 Uiso
C58 C 0.5147(3) 0.7975(6) 0.3105(3) 0.0662 Uani
C59 C 0.6272(3) 0.9199(4) 0.0806(2) 0.1036 Uani
H32 H 0.6307 0.9628 0.0770 0.1240 Uiso
C60 C 0.6438(2) 0.8756(6) 0.0648(2) 0.0854 Uani
C61 C 0.6387(3) 0.8129(5) 0.0701(2) 0.1327 Uani
H33 H 0.6501 0.7826 0.0592 0.1590 Uiso
C62 C 0.6169(3) 0.7945(4) 0.0912(3) 0.1379 Uani
H34 H 0.6134 0.7517 0.0948 0.1650 Uiso
C63 C 0.6002(3) 0.8389(6) 0.1071(3) 0.1288 Uani
C64 C 0.6053(3) 0.9016(5) 0.1018(2) 0.1255 Uani
H35 H 0.5939 0.9319 0.1126 0.1510 Uiso
C65 C 0.2975(3) 0.6970(4) 0.4165(2) 0.1051 Uani
H36 H 0.2985 0.7385 0.4095 0.1260 Uiso
C66 C 0.3175(2) 0.6522(5) 0.4050(2) 0.0940 Uani
C67 C 0.3160(2) 0.5913(5) 0.4153(2) 0.1095 Uani
H37 H 0.3297 0.5607 0.4075 0.1320 Uiso
C68 C 0.2944(2) 0.5752(4) 0.4371(2) 0.1035 Uani
H38 H 0.2934 0.5336 0.4442 0.1240 Uiso
C69 C 0.2744(2) 0.6200(5) 0.4486(2) 0.0861 Uani
C70 C 0.2759(2) 0.6809(4) 0.4383(2) 0.1114 Uani
H39 H 0.2622 0.7115 0.4462 0.1340 Uiso
C71 C 0.4741(3) 0.7340(6) 0.1597(3) 0.0720 Uani
H40 H 0.4854 0.7434 0.1420 0.0870 Uiso
C72 C 0.2476(3) 0.4946(7) 0.0477(3) 0.0689 Uani
O8 O 0.2297(2) 0.5306(5) 0.0323(2) 0.0779 Uani
O9 O 0.4424(3) 0.8574(5) 0.2462(3) 0.1180 Uani
O10 O 0.4792(3) 0.6300(5) 0.2689(2) 0.1160 Uani
In1A In 0.70749(3) 0.94817(5) 0.00499(2) 0.0763 Uani
In1B In 0.20749(3) 0.55183(5) 0.50499(2) 0.0763 Uani
In1C In 0.20749(3) 0.44817(5) 0.00499(2) 0.0763 Uani
O1C O 0.7470(3) 1.0656(5) 0.5442(3) 0.1033 Uani
O2A O 0.6713(3) 1.0465(6) 0.5397(2) 0.1007 Uani
O4B O 0.7461(3) 1.0448(6) 0.4733(3) 0.1011 Uani
O5A O 0.6810(3) 1.1422(5) 0.5260(3) 0.1041 Uani
O7B O 0.7311(3) 1.1333(6) 0.4796(3) 0.1174 Uani
O8C O 0.7297(2) 0.9694(5) 0.5323(2) 0.0779 Uani
In3 In 0.45741(2) 0.54375(5) 0.63047(2) 0.0637 Uani
In4 In 0.20736(3) 0.24726(7) 0.38160(3) 0.1052 Uani
O11 O 0.4181(2) 0.5596(5) 0.5913(2) 0.0725 Uani
N5 N 0.1610(3) 0.2160(5) 0.3827(2) 0.0713 Uani
O12 O -0.0024(2) 0.0304(5) 0.5979(2) 0.0766 Uani
O13 O 0.4186(2) 0.4704(5) 0.1623(2) 0.0732 Uani
C73 C 0.2269(3) 0.3051(5) 0.4457(2) 0.0442 Uani
O14 O -0.0217(2) 0.0440(4) 0.1569(2) 0.0828 Uani
O15 O 0.4338(2) 0.4689(4) 0.6038(2) 0.0713 Uani
C74 C 0.2300(3) 0.2607(7) 0.3152(3) 0.0689 Uani
O16 O -0.0177(2) 0.1237(4) 0.6076(2) 0.0716 Uani
C75 C 0.12875(19) 0.2103(4) 0.46121(17) 0.0525 Uani
C76 C 0.13888(17) 0.1769(4) 0.4871(2) 0.0714 Uani
H41 H 0.1605 0.1643 0.4897 0.0860 Uiso
C77 C 0.1173(2) 0.1620(4) 0.50909(16) 0.0881 Uani
H42 H 0.1243 0.1392 0.5268 0.1060 Uiso
C78 C 0.0857(2) 0.1803(4) 0.50528(19) 0.0608 Uani
C79 C 0.07554(16) 0.2137(4) 0.4794(2) 0.0930 Uani
H43 H 0.0539 0.2263 0.4768 0.1120 Uiso
C80 C 0.0971(2) 0.2286(4) 0.45740(18) 0.1003 Uani
H44 H 0.0902 0.2514 0.4397 0.1200 Uiso
N6 N 0.2055(2) 0.2740(5) 0.4291(2) 0.0535 Uani
C81 C 0.1802(3) 0.2576(5) 0.4469(3) 0.0490 Uani
N7 N 0.2482(3) 0.2990(5) 0.3806(2) 0.0642 Uani
N8 N 0.2054(3) 0.2457(5) 0.3340(2) 0.0650 Uani
O17 O -0.0057(2) -0.0483(5) 0.1689(2) 0.0867 Uani
O18 O 0.4342(2) 0.3706(5) 0.1590(2) 0.0761 Uani
C82 C -0.0047(3) 0.0101(8) 0.1721(3) 0.0764 Uani
C83 C 0.1512(3) 0.2267(7) 0.4369(3) 0.0715 Uani
C84 C 0.2669(3) 0.3250(7) 0.4051(3) 0.0792 Uani
C85 C 0.2939(3) 0.3503(6) 0.3638(3) 0.0629 Uani
H45 H 0.3097 0.3645 0.3506 0.0750 Uiso
C86 C 0.2936(3) 0.3590(6) 0.3945(3) 0.0587 Uani
H46 H 0.3082 0.3832 0.4066 0.0710 Uiso
C87 C 0.1424(3) 0.2022(6) 0.4071(3) 0.0517 Uani
C88 C 0.2659(3) 0.3155(7) 0.3549(3) 0.0708 Uani
C89 C 0.3735(2) 0.5172(3) 0.5478(2) 0.0892 Uani
H47 H 0.3763 0.5608 0.5496 0.1070 Uiso
C90 C 0.3509(2) 0.4933(4) 0.5268(2) 0.0871 Uani
H48 H 0.3383 0.5205 0.5142 0.1050 Uiso
C91 C 0.3468(2) 0.4295(5) 0.52413(18) 0.0664 Uani
C92 C 0.3653(2) 0.3896(3) 0.5426(2) 0.0761 Uani
H49 H 0.3625 0.3460 0.5408 0.0920 Uiso
C93 C 0.3878(2) 0.4135(4) 0.56363(18) 0.0672 Uani
H50 H 0.4004 0.3863 0.5762 0.0800 Uiso
C94 C 0.39193(19) 0.4773(5) 0.56627(18) 0.0560 Uani
C95 C 0.1152(3) 0.1604(6) 0.3682(3) 0.0675 Uani
H51 H 0.0993 0.1400 0.3557 0.0810 Uiso
C96 C 0.2562(3) 0.3240(5) 0.4353(3) 0.0562 Uani
C97 C 0.1438(3) 0.1882(6) 0.3571(3) 0.0679 Uani
C98 C 0.2157(3) 0.3124(5) 0.4767(2) 0.0506 Uani
H52 H 0.2268 0.3307 0.4938 0.0610 Uiso
C99 C 0.1861(3) 0.2873(6) 0.4756(3) 0.0684 Uani
H53 H 0.1716 0.2893 0.4916 0.0820 Uiso
C100 C 0.0645(2) 0.0190(5) 0.2301(3) 0.1434 Uani
H54 H 0.0806 -0.0066 0.2393 0.1720 Uiso
C101 C 0.0634(2) 0.0818(5) 0.2372(2) 0.1145 Uani
C102 C 0.0397(2) 0.1192(4) 0.2237(2) 0.0963 Uani
H55 H 0.0390 0.1621 0.2286 0.1150 Uiso
C103 C 0.0172(2) 0.0940(4) 0.2031(2) 0.0995 Uani
H56 H 0.0011 0.1196 0.1938 0.1190 Uiso
C104 C 0.0183(2) 0.0312(5) 0.1959(2) 0.0950 Uani
C105 C 0.0419(3) -0.0063(4) 0.2094(3) 0.1311 Uani
H57 H 0.0427 -0.0491 0.2045 0.1570 Uiso
C106 C 0.0655(2) 0.1564(5) 0.52981(18) 0.0678 Uani
C107 C 0.0423(2) 0.1961(3) 0.5404(2) 0.0716 Uani
H58 H 0.0412 0.2378 0.5335 0.0860 Uiso
C108 C 0.02084(19) 0.1747(4) 0.5613(2) 0.0746 Uani
H59 H 0.0050 0.2018 0.5685 0.0890 Uiso
C109 C 0.0225(2) 0.1137(4) 0.57144(19) 0.0771 Uani
C110 C 0.0456(2) 0.0740(4) 0.5608(2) 0.0868 Uani
H60 H 0.0467 0.0323 0.5678 0.1040 Uiso
C111 C 0.0671(2) 0.0954(4) 0.5400(2) 0.0873 Uani
H61 H 0.0829 0.0683 0.5327 0.1050 Uiso
C112 C 0.1815(3) 0.2184(7) 0.3153(3) 0.0798 Uani
C113 C 0.2584(3) 0.2902(7) 0.3238(3) 0.0724 Uani
C114 C 0.32388(17) 0.4029(4) 0.50116(16) 0.0571 Uani
C115 C 0.2955(2) 0.4344(3) 0.49434(17) 0.0554 Uani
H62 H 0.2915 0.4728 0.5041 0.0670 Uiso
C116 C 0.27320(15) 0.4097(4) 0.47329(18) 0.0539 Uani
H63 H 0.2538 0.4312 0.4686 0.0650 Uiso
C117 C 0.27919(18) 0.3535(4) 0.45907(16) 0.0613 Uani
C118 C 0.3075(2) 0.3220(3) 0.46589(19) 0.0835 Uani
H64 H 0.3116 0.2836 0.4562 0.1000 Uiso
C119 C 0.32987(16) 0.3467(4) 0.4869(2) 0.0767 Uani
H65 H 0.3492 0.3252 0.4916 0.0920 Uiso
C120 C 0.33245(17) 0.2995(4) 0.2787(2) 0.0995 Uani
H66 H 0.3531 0.2816 0.2794 0.1190 Uiso
C121 C 0.3108(2) 0.2834(4) 0.30042(18) 0.0814 Uani
H67 H 0.3167 0.2545 0.3160 0.0970 Uiso
C122 C 0.2805(2) 0.3096(4) 0.29933(17) 0.0587 Uani
C123 C 0.27190(17) 0.3520(4) 0.2765(2) 0.0740 Uani
H68 H 0.2512 0.3699 0.2757 0.0890 Uiso
C124 C 0.2935(2) 0.3681(4) 0.25472(17) 0.0992 Uani
H69 H 0.2876 0.3971 0.2391 0.1190 Uiso
C125 C 0.3238(2) 0.3419(4) 0.25580(18) 0.0644 Uani
C126 C 0.1142(3) 0.1675(6) 0.3985(3) 0.0671 Uani
H70 H 0.0983 0.1529 0.4115 0.0810 Uiso
C127 C 0.1540(3) 0.1857(7) 0.3256(3) 0.0745 Uani
C128 C 0.1906(4) 0.2187(8) 0.2845(3) 0.1053 Uani
H71 H 0.1785 0.2040 0.2671 0.1270 Uiso
C129 C 0.3485(2) 0.3628(5) 0.23507(19) 0.0674 Uani
C130 C 0.3733(2) 0.3230(4) 0.2285(2) 0.0871 Uani
H72 H 0.3750 0.2836 0.2382 0.1040 Uiso
C131 C 0.39570(19) 0.3407(4) 0.2078(2) 0.0779 Uani
H73 H 0.4127 0.3135 0.2033 0.0930 Uiso
C132 C 0.3933(2) 0.3983(4) 0.19359(19) 0.0689 Uani
C133 C 0.3684(2) 0.4381(4) 0.2001(2) 0.1059 Uani
H74 H 0.3668 0.4775 0.1904 0.1270 Uiso
C134 C 0.3461(2) 0.4204(4) 0.2209(2) 0.0844 Uani
H75 H 0.3291 0.4476 0.2253 0.1010 Uiso
C135 C 0.1306(2) 0.1549(5) 0.3040(2) 0.0936 Uani
C136 C 0.1243(2) 0.0917(5) 0.3031(2) 0.1220 Uani
H76 H 0.1344 0.0647 0.3177 0.1470 Uiso
C137 C 0.1031(3) 0.0678(4) 0.2808(3) 0.1280 Uani
H77 H 0.0987 0.0245 0.2801 0.1540 Uiso
C138 C 0.0882(2) 0.1071(5) 0.25938(19) 0.0827 Uani
C139 C 0.0946(2) 0.1704(5) 0.2603(2) 0.1147 Uani
H78 H 0.0844 0.1973 0.2457 0.1380 Uiso
C140 C 0.1158(2) 0.1943(4) 0.2826(2) 0.1114 Uani
H79 H 0.1201 0.2375 0.2833 0.1330 Uiso
C141 C 0.2204(4) 0.2443(7) 0.2851(3) 0.0882 Uani
H80 H 0.2328 0.2502 0.2677 0.1060 Uiso
O19 O 0.22917(17) 0.1410(3) 0.38916(15) 0.0480 Uani
O20 O 0.1838(3) 0.3540(5) 0.3685(2) 0.1086 Uani
C142 C 0.4170(3) 0.4176(9) 0.1693(3) 0.0638 Uani
C143 C 0.4165(3) 0.5031(7) 0.5872(3) 0.0567 Uani
C144 C 0.0001(3) 0.0848(7) 0.5943(3) 0.0507 Uani
In3A In 0.45741(2) 0.45625(5) 0.13047(2) 0.0637 Uani
In3B In -0.04259(2) 0.04375(5) 0.63047(2) 0.0637 Uani
In3C In -0.04259(2) -0.04375(5) 0.13047(2) 0.0637 Uani
O12B O 0.4976(2) 0.5304(5) 0.5979(2) 0.0766 Uani
O13A O 0.4186(2) 0.5296(5) 0.6623(2) 0.0732 Uani
O14C O 0.4783(2) 0.4560(4) 0.6569(2) 0.0828 Uani
O16B O 0.4823(2) 0.6237(4) 0.6076(2) 0.0716 Uani
O17C O 0.4943(2) 0.5483(5) 0.6689(2) 0.0867 Uani
O18A O 0.4342(2) 0.6294(5) 0.6590(2) 0.0761 Uani
In5 In 0.73933(3) 1.27178(6) 0.15932(2) 0.0843 Uani
In6 In 0.99522(2) 1.44839(6) -0.08868(2) 0.0760 Uani
O21 O 0.5375(3) 0.9438(6) -0.0528(3) 0.1096 Uani
O22 O 0.9706(3) 1.4697(5) 0.3853(2) 0.0812 Uani
O23 O 0.5181(3) 1.1378(5) 0.3885(2) 0.0952 Uani
N9 N 0.7413(3) 1.2591(5) 0.1125(2) 0.0595 Uani
O24 O 0.9731(2) 1.3732(5) -0.0597(2) 0.0711 Uani
N10 N 0.7863(3) 1.3103(5) 0.1600(3) 0.0724 Uani
O25 O 0.9564(2) 1.4702(5) -0.0555(2) 0.0706 Uani
N11 N 0.6947(3) 1.2338(6) 0.1597(3) 0.0817 Uani
O26 O 0.5193(3) 1.0374(6) -0.0674(3) 0.1148 Uani
C145 C 0.7135(3) 1.2774(7) 0.2246(3) 0.0715 Uani
C146 C 0.92761(19) 1.4836(4) 0.34832(18) 0.0482 Uani
C147 C 0.92752(19) 1.4202(4) 0.34239(19) 0.0649 Uani
H81 H 0.9429 1.3941 0.3524 0.0780 Uiso
C148 C 0.9049(2) 1.3951(3) 0.3217(2) 0.0632 Uani
H82 H 0.9049 1.3518 0.3177 0.0760 Uiso
C149 C 0.88238(19) 1.4333(4) 0.30702(19) 0.0574 Uani
C150 C 0.8825(2) 1.4967(4) 0.3130(2) 0.0855 Uani
H83 H 0.8671 1.5228 0.3029 0.1020 Uiso
C151 C 0.9051(2) 1.5218(3) 0.3336(2) 0.0726 Uani
H84 H 0.9051 1.5651 0.3377 0.0870 Uiso
N12 N 0.7387(3) 1.2907(5) 0.2083(2) 0.0698 Uani
C152 C 0.5373(4) 1.0012(8) -0.0511(3) 0.0971 Uani
C153 C 0.7188(3) 1.2351(5) 0.0948(2) 0.0486 Uani
C154 C 0.8309(3) 1.3587(6) 0.1767(3) 0.0584 Uani
H85 H 0.8458 1.3812 0.1894 0.0700 Uiso
C155 C 0.7652(3) 1.2731(6) 0.0941(3) 0.0628 Uani
C156 C 0.7618(3) 1.3114(6) 0.2256(3) 0.0534 Uani
C157 C 0.6500(4) 1.1839(8) 0.1746(3) 0.1149 Uani
H86 H 0.6349 1.1668 0.1878 0.1380 Uiso
C158 C 0.6022(2) 1.0927(4) 0.01394(18) 0.0568 Uani
C159 C 0.5810(2) 1.1276(4) -0.0044(2) 0.0989 Uani
H87 H 0.5807 1.1715 -0.0025 0.1190 Uiso
C160 C 0.5603(2) 1.0983(5) -0.0255(2) 0.0870 Uani
H88 H 0.5459 1.1221 -0.0380 0.1040 Uiso
C161 C 0.5608(2) 1.0341(5) -0.0283(2) 0.0961 Uani
C162 C 0.5820(2) 0.9992(4) -0.0099(2) 0.0920 Uani
H89 H 0.5823 0.9553 -0.0118 0.1100 Uiso
C163 C 0.6026(2) 1.0285(4) 0.01117(19) 0.0735 Uani
H90 H 0.6171 1.0047 0.0237 0.0890 Uiso
C164 C 0.9571(3) 1.4136(8) -0.0480(3) 0.0523 Uani
C165 C 0.85882(19) 1.4070(4) 0.28244(17) 0.0723 Uani
C166 C 0.86541(17) 1.3521(4) 0.26728(19) 0.0707 Uani
H91 H 0.8851 1.3313 0.2715 0.0850 Uiso
C167 C 0.8432(2) 1.3277(3) 0.24597(19) 0.0830 Uani
H92 H 0.8478 1.2902 0.2356 0.1000 Uiso
C168 C 0.81449(18) 1.3582(4) 0.23981(17) 0.0563 Uani
C169 C 0.80789(16) 1.4131(4) 0.2550(2) 0.0740 Uani
H93 H 0.7882 1.4339 0.2508 0.0890 Uiso
C170 C 0.8301(2) 1.4374(3) 0.27628(19) 0.0770 Uani
H94 H 0.8256 1.4749 0.2866 0.0920 Uiso
C171 C 0.93306(19) 1.3962(5) -0.02480(18) 0.0708 Uani
C172 C 0.9127(2) 1.4399(4) -0.0129(2) 0.0954 Uani
H95 H 0.9138 1.4820 -0.0193 0.1140 Uiso
C173 C 0.8907(2) 1.4222(4) 0.0082(2) 0.0897 Uani
H96 H 0.8768 1.4521 0.0163 0.1080 Uiso
C174 C 0.88911(19) 1.3606(5) 0.01749(17) 0.0710 Uani
C175 C 0.9095(2) 1.3169(4) 0.0056(2) 0.0751 Uani
H97 H 0.9084 1.2748 0.0119 0.0900 Uiso
C176 C 0.9314(2) 1.3346(4) -0.0155(2) 0.1010 Uani
H98 H 0.9453 1.3047 -0.0237 0.1210 Uiso
C177 C 0.86369(19) 1.3388(4) 0.03818(18) 0.0889 Uani
C178 C 0.87048(16) 1.2946(4) 0.06064(19) 0.0735 Uani
H99 H 0.8904 1.2738 0.0614 0.0880 Uiso
C179 C 0.8481(2) 1.2808(4) 0.08204(16) 0.0657 Uani
H100 H 0.8527 1.2505 0.0974 0.0790 Uiso
C180 C 0.81885(18) 1.3112(4) 0.08097(17) 0.0586 Uani
C181 C 0.81206(17) 1.3555(4) 0.0585(2) 0.0720 Uani
H101 H 0.7921 1.3763 0.0578 0.0860 Uiso
C182 C 0.8345(2) 1.3693(4) 0.03711(17) 0.0842 Uani
H102 H 0.8298 1.3995 0.0218 0.1010 Uiso
C183 C 0.8023(3) 1.3313(6) 0.1844(3) 0.0589 Uani
C184 C 0.6778(3) 1.2183(7) 0.1843(3) 0.0756 Uani
C185 C 0.7574(3) 1.2550(6) 0.0625(3) 0.0733 Uani
H103 H 0.7712 1.2553 0.0458 0.0880 Uiso
C186 C 0.8320(3) 1.3452(6) 0.1464(3) 0.0666 Uani
H104 H 0.8496 1.3544 0.1343 0.0800 Uiso
C187 C 0.7908(3) 1.3315(6) 0.2155(2) 0.0594 Uani
C188 C 0.7260(3) 1.2373(7) 0.0620(3) 0.0855 Uani
H105 H 0.7121 1.2286 0.0447 0.1020 Uiso
C189 C 0.6872(3) 1.2168(8) 0.1026(3) 0.0925 Uani
C190 C 0.8040(3) 1.3163(7) 0.1354(3) 0.0681 Uani
C191 C 0.6777(4) 1.2087(8) 0.1346(3) 0.0897 Uani
C192 C 0.7955(3) 1.2978(7) 0.1047(3) 0.0708 Uani
C193 C 0.7232(3) 1.2875(7) 0.2569(3) 0.0805 Uani
H106 H 0.7111 1.2786 0.2742 0.0970 Uiso
C194 C 0.5988(2) 1.1646(5) 0.3068(2) 0.1002 Uani
C195 C 0.5981(2) 1.1023(5) 0.3149(2) 0.1379 Uani
H107 H 0.6116 1.0734 0.3054 0.1650 Uiso
C196 C 0.5775(3) 1.0822(5) 0.33688(19) 0.1499 Uani
H108 H 0.5770 1.0396 0.3424 0.1800 Uiso
C197 C 0.5577(3) 1.1244(5) 0.3507(2) 0.1361 Uani
C198 C 0.5585(3) 1.1867(5) 0.3426(2) 0.1419 Uani
H109 H 0.5450 1.2156 0.3521 0.1700 Uiso
C199 C 0.5791(2) 1.2068(4) 0.3207(2) 0.1187 Uani
H110 H 0.5796 1.2494 0.3151 0.1430 Uiso
C200 C 0.7523(4) 1.3116(8) 0.2570(3) 0.0876 Uani
H111 H 0.7646 1.3261 0.2743 0.1050 Uiso
C201 C 0.6847(3) 1.2453(8) 0.2129(3) 0.0917 Uani
O27 O 0.9535(2) 1.5653(4) 0.37567(18) 0.0542 Uani
C202 C 0.9509(3) 1.5111(7) 0.3702(3) 0.0617 Uani
C203 C 0.6485(4) 1.1795(8) 0.1431(3) 0.1028 Uani
H112 H 0.6322 1.1616 0.1302 0.1230 Uiso
O28 O 0.7167(3) 1.3670(5) 0.1487(2) 0.1076 Uani
O29 O 0.7562(2) 1.1739(5) 0.1705(2) 0.0886 Uani
O30 O 0.5303(3) 1.0465(6) 0.3753(3) 0.1089 Uani
C204 C 0.5341(4) 1.1030(9) 0.3743(3) 0.0820 Uani
C205 C 0.66045(19) 1.2265(5) 0.23635(17) 0.0800 Uani
C206 C 0.6458(2) 1.2697(4) 0.2546(2) 0.0936 Uani
H113 H 0.6490 1.3128 0.2514 0.1120 Uiso
C207 C 0.6263(2) 1.2500(4) 0.27753(18) 0.0859 Uani
H114 H 0.6163 1.2796 0.2900 0.1030 Uiso
C208 C 0.6215(2) 1.1870(5) 0.28225(17) 0.0896 Uani
C209 C 0.6362(2) 1.1437(4) 0.2640(2) 0.1098 Uani
H115 H 0.6329 1.1007 0.2672 0.1310 Uiso
C210 C 0.6557(2) 1.1635(4) 0.24107(19) 0.1192 Uani
H116 H 0.6657 1.1339 0.2286 0.1430 Uiso
C211 C 0.6665(2) 1.1820(5) 0.07795(19) 0.0793 Uani
C212 C 0.67578(18) 1.1272(5) 0.0642(2) 0.1001 Uani
H117 H 0.6959 1.1092 0.0697 0.1200 Uiso
C213 C 0.6557(2) 1.0988(4) 0.0422(2) 0.0846 Uani
H118 H 0.6620 1.0614 0.0328 0.1020 Uiso
C214 C 0.6263(2) 1.1252(4) 0.03408(17) 0.0612 Uani
C215 C 0.61702(18) 1.1800(5) 0.0479(2) 0.0928 Uani
H119 H 0.5969 1.1981 0.0423 0.1110 Uiso
C216 C 0.6371(2) 1.2084(4) 0.0698(2) 0.0925 Uani
H120 H 0.6308 1.2458 0.0792 0.1110 Uiso
In6A In 0.99522(2) 1.55161(6) 0.41132(2) 0.0760 Uani
In6B In 0.49522(2) 0.94839(6) -0.08868(2) 0.0760 Uani
In6C In 0.49522(2) 1.05161(6) 0.41132(2) 0.0760 Uani
O21B O 1.0375(3) 1.4438(6) -0.0528(3) 0.1096 Uani
O22A O 0.9706(3) 1.5303(5) -0.1147(2) 0.0812 Uani
O23C O 1.0181(3) 1.3622(5) -0.1115(2) 0.0952 Uani
O26B O 1.0193(3) 1.5374(6) -0.0674(3) 0.1148 Uani
O27A O 0.9535(2) 1.4347(4) -0.12433(18) 0.0542 Uani
O30C O 1.0303(3) 1.4535(6) -0.1247(3) 0.1089 Uani
In7 In 0.18052(3) -0.04412(7) 0.06147(3) 0.1054 Uani
In8 In -0.06530(3) -0.26896(8) 0.31204(3) 0.1228 Uani
C217 C -0.0129(4) -0.2340(7) 0.2541(4) 0.0954 Uani
C218 C -0.0869(4) -0.2837(8) 0.3792(4) 0.1002 Uani
N13 N -0.0615(3) -0.2859(6) 0.2644(3) 0.0895 Uani
O31 O -0.2960(3) -0.4673(6) 0.0881(3) 0.1234 Uani
C219 C -0.0390(4) -0.2681(8) 0.2461(4) 0.1033 Uani
N14 N -0.0629(3) -0.2642(6) 0.3595(3) 0.1011 Uani
O32 O 0.1415(4) -0.0360(7) 0.0956(4) 0.1629 Uani
N15 N -0.0196(3) -0.2310(6) 0.3109(3) 0.0947 Uani
C220 C 0.1392(5) -0.0938(11) 0.1004(5) 0.1328 Uani
O33 O 0.1548(3) -0.1201(6) 0.0816(3) 0.1207 Uani
C221 C -0.0019(4) -0.2199(9) 0.2851(4) 0.1157 Uani
C222 C -0.0837(4) -0.3243(9) 0.2482(4) 0.1161 Uani
C223 C -0.1554(4) -0.3571(7) 0.3284(4) 0.1009 Uani
H121 H -0.1717 -0.3723 0.3407 0.1210 Uiso
C224 C -0.1536(4) -0.3612(8) 0.2980(4) 0.1061 Uani
H122 H -0.1709 -0.3774 0.2858 0.1270 Uiso
C225 C -0.2760(4) -0.5047(10) 0.0998(4) 0.0988 Uani
C226 C 0.0249(4) -0.1847(9) 0.2938(4) 0.1278 Uani
H123 H 0.0429 -0.1754 0.2822 0.1540 Uiso
C227 C 0.0713(3) -0.1607(8) 0.1615(3) 0.1552 Uani
C228 C 0.0671(3) -0.1025(7) 0.1483(3) 0.1621 Uani
H124 H 0.0492 -0.0780 0.1530 0.1940 Uiso
C229 C 0.0892(4) -0.0800(5) 0.1283(3) 0.1578 Uani
H125 H 0.0863 -0.0402 0.1193 0.1890 Uiso
C230 C 0.1154(3) -0.1158(7) 0.1215(3) 0.1368 Uani
C231 C 0.1197(3) -0.1741(7) 0.1347(3) 0.1536 Uani
H126 H 0.1376 -0.1985 0.1300 0.1850 Uiso
C232 C 0.0976(4) -0.1965(6) 0.1547(3) 0.1631 Uani
H127 H 0.1005 -0.2363 0.1637 0.1960 Uiso
C233 C -0.0053(4) -0.1999(8) 0.3373(4) 0.1004 Uani
C234 C -0.1163(3) -0.3113(6) 0.3680(3) 0.0799 Uani
C235 C -0.0402(4) -0.2391(8) 0.3780(4) 0.0996 Uani
C236 C -0.1335(3) -0.3715(6) 0.2294(3) 0.1556 Uani
C237 C -0.1465(4) -0.3322(5) 0.2069(3) 0.1763 Uani
H128 H -0.1401 -0.2900 0.2064 0.2120 Uiso
C238 C -0.1688(3) -0.3548(7) 0.1853(3) 0.1807 Uani
H129 H -0.1777 -0.3280 0.1699 0.2170 Uiso
C239 C -0.1781(3) -0.4167(7) 0.1861(2) 0.1701 Uani
C240 C -0.1651(3) -0.4559(5) 0.2086(3) 0.1519 Uani
H130 H -0.1714 -0.4982 0.2091 0.1820 Uiso
C241 C -0.1428(3) -0.4333(6) 0.2302(3) 0.1243 Uani
H131 H -0.1339 -0.4601 0.2456 0.1490 Uiso
C242 C -0.0699(4) -0.3240(8) 0.2187(4) 0.1152 Uani
H132 H -0.0799 -0.3437 0.2014 0.1380 Uiso
O34 O -0.2786(3) -0.5636(6) 0.0958(2) 0.1082 Uani
C243 C -0.1261(4) -0.3414(7) 0.2848(3) 0.0954 Uani
N16 N -0.1110(3) -0.3167(7) 0.3114(3) 0.1143 Uani
C244 C -0.0425(4) -0.2946(8) 0.2173(4) 0.1169 Uani
H133 H -0.0287 -0.2922 0.2008 0.1410 Uiso
C245 C -0.0530(4) -0.2338(9) 0.4073(4) 0.1140 Uani
H134 H -0.0440 -0.2082 0.4231 0.1370 Uiso
C246 C -0.1147(4) -0.3446(7) 0.2557(4) 0.0951 Uani
C247 C 0.0628(2) -0.2205(5) 0.2101(3) 0.1093 Uani
H135 H 0.0848 -0.2309 0.2122 0.1310 Uiso
C248 C 0.0513(3) -0.1874(5) 0.1847(2) 0.1099 Uani
C249 C 0.0191(3) -0.1722(5) 0.1816(2) 0.1128 Uani
H136 H 0.0112 -0.1495 0.1643 0.1360 Uiso
C250 C -0.0015(2) -0.1901(5) 0.2040(3) 0.0985 Uani
H137 H -0.0235 -0.1797 0.2019 0.1180 Uiso
C251 C 0.0101(2) -0.2233(5) 0.2294(2) 0.0940 Uani
C252 C 0.0422(3) -0.2385(5) 0.2324(2) 0.1069 Uani
H138 H 0.0501 -0.2611 0.2498 0.1280 Uiso
C253 C -0.0784(4) -0.2678(8) 0.4102(4) 0.1156 Uani
H139 H -0.0886 -0.2790 0.4283 0.1390 Uiso
C254 C -0.0155(4) -0.2059(8) 0.3669(3) 0.1033 Uani
C255 C -0.1391(3) -0.3300(5) 0.3921(2) 0.0935 Uani
C256 C -0.1690(3) -0.3024(4) 0.3921(2) 0.1237 Uani
H140 H -0.1749 -0.2720 0.3772 0.1480 Uiso
C257 C -0.1904(2) -0.3194(5) 0.4139(3) 0.1037 Uani
H141 H -0.2108 -0.3005 0.4140 0.1250 Uiso
C258 C -0.1818(2) -0.3639(5) 0.4358(2) 0.1034 Uani
C259 C -0.1519(3) -0.3915(4) 0.4358(2) 0.1199 Uani
H142 H -0.1461 -0.4219 0.4507 0.1440 Uiso
C260 C -0.1306(2) -0.3746(5) 0.4139(3) 0.1128 Uani
H143 H -0.1101 -0.3934 0.4139 0.1350 Uiso
C261 C -0.2531(3) -0.4223(6) 0.1350(3) 0.1650 Uani
H144 H -0.2704 -0.3963 0.1284 0.1980 Uiso
C262 C -0.2299(3) -0.4002(5) 0.1559(3) 0.1485 Uani
H145 H -0.2313 -0.3592 0.1636 0.1780 Uiso
C263 C -0.2046(3) -0.4383(6) 0.1655(2) 0.1523 Uani
C264 C -0.2027(2) -0.4984(6) 0.1542(3) 0.1133 Uani
H146 H -0.1854 -0.5244 0.1608 0.1360 Uiso
C265 C -0.2259(3) -0.5204(5) 0.1333(3) 0.1360 Uani
H147 H -0.2245 -0.5615 0.1256 0.1630 Uiso
C266 C -0.2511(3) -0.4824(7) 0.1237(3) 0.1289 Uani
C267 C -0.1272(4) -0.3247(8) 0.3379(4) 0.0992 Uani
O35 O -0.0400(3) -0.3650(5) 0.3209(2) 0.1234 Uani
C268 C 0.0513(3) -0.1232(7) 0.4331(3) 0.1657 Uani
C269 C 0.0305(4) -0.0869(5) 0.4151(3) 0.1631 Uani
H148 H 0.0308 -0.0430 0.4173 0.1960 Uiso
C270 C 0.0093(3) -0.1147(7) 0.3939(3) 0.1614 Uani
H149 H -0.0049 -0.0899 0.3816 0.1940 Uiso
C271 C 0.0089(3) -0.1788(7) 0.3908(3) 0.1499 Uani
C272 C 0.0297(4) -0.2152(5) 0.4088(3) 0.1614 Uani
H150 H 0.0295 -0.2590 0.4066 0.1940 Uiso
C273 C 0.0509(3) -0.1873(7) 0.4299(3) 0.1640 Uani
H151 H 0.0651 -0.2122 0.4422 0.1970 Uiso
C274 C -0.2044(2) -0.3804(6) 0.4596(2) 0.1155 Uani
C275 C -0.2261(3) -0.3353(4) 0.4676(3) 0.1042 Uani
H152 H -0.2250 -0.2948 0.4591 0.1250 Uiso
C276 C -0.2493(3) -0.3493(5) 0.4882(3) 0.1161 Uani
H153 H -0.2641 -0.3184 0.4937 0.1400 Uiso
C277 C -0.2508(3) -0.4084(6) 0.5007(2) 0.1201 Uani
C278 C -0.2291(3) -0.4536(5) 0.4926(3) 0.1298 Uani
H154 H -0.2302 -0.4940 0.5011 0.1560 Uiso
C279 C -0.2059(3) -0.4396(5) 0.4720(3) 0.1235 Uani
H155 H -0.1911 -0.4704 0.4665 0.1480 Uiso
O36 O 0.1447(4) 0.0418(8) 0.5233(3) 0.1655 Uani
C280 C 0.1377(6) -0.0122(10) 0.5216(5) 0.1699 Uani
O37 O -0.2777(3) -0.4863(6) 0.5306(3) 0.1280 Uani
O38 O 0.1508(4) -0.0370(8) 0.5419(4) 0.1821 Uani
O39 O -0.2966(3) -0.3897(6) 0.5322(3) 0.1079 Uani
C281 C -0.2751(5) -0.4283(9) 0.5230(5) 0.1055 Uani
C282 C 0.1038(4) -0.1003(8) 0.5030(3) 0.2044 Uani
H156 H 0.1114 -0.1251 0.5197 0.2450 Uiso
C283 C 0.1139(3) -0.0391(9) 0.5006(3) 0.1813 Uani
C284 C 0.1029(4) -0.0028(6) 0.4761(4) 0.1754 Uani
H157 H 0.1098 0.0389 0.4744 0.2100 Uiso
C285 C 0.0818(4) -0.0277(8) 0.4540(3) 0.1755 Uani
H158 H 0.0742 -0.0029 0.4372 0.2110 Uiso
C286 C 0.0717(3) -0.0888(8) 0.4564(3) 0.1890 Uani
C287 C 0.0827(4) -0.1251(6) 0.4809(4) 0.2060 Uani
H159 H 0.0758 -0.1669 0.4825 0.2470 Uiso
C288 C 0.0193(4) -0.1673(9) 0.3223(4) 0.1351 Uani
H160 H 0.0311 -0.1348 0.3321 0.1620 Uiso
O40 O -0.0904(2) -0.1632(5) 0.3061(2) 0.1105 Uani
In7A In 0.18052(3) 0.04412(7) 0.56147(3) 0.1054 Uani
In7B In -0.31948(3) -0.54412(7) 0.06147(3) 0.1054 Uani
In7C In -0.31948(3) -0.45588(7) 0.56147(3) 0.1054 Uani
O31B O 0.2040(3) 0.0327(6) 0.0881(3) 0.1234 Uani
O34B O 0.2214(3) -0.0636(6) 0.0958(2) 0.1082 Uani
O36A O 0.1447(4) -0.0418(8) 0.0233(3) 0.1655 Uani
O37C O 0.2223(3) -0.0137(6) 0.0306(3) 0.1280 Uani
O38A O 0.1508(4) 0.0370(8) 0.0419(4) 0.1821 Uani
O39C O 0.2034(3) -0.1103(6) 0.0322(3) 0.1079 Uani
loop_
_atom_site_aniso_label
_atom_site_aniso_U_11
_atom_site_aniso_U_22
_atom_site_aniso_U_33
_atom_site_aniso_U_23
_atom_site_aniso_U_13
_atom_site_aniso_U_12
In1 0.0538(7) 0.1236(10) 0.0533(7) -0.0017(7) 0.0232(5) -0.0008(7)
In2 0.0800(9) 0.2272(16) 0.0696(8) -0.0308(9) 0.0394(7) -0.0482(10)
O1 0.098(9) 0.101(7) 0.109(9) 0.007(7) -0.017(7) -0.017(7)
O2 0.082(8) 0.143(8) 0.079(8) 0.004(7) 0.025(6) 0.001(7)
N1 0.061(7) 0.087(8) 0.048(5) -0.009(5) 0.024(4) 0.005(6)
O3 0.059(6) 0.090(6) 0.069(6) 0.000(5) 0.011(4) -0.016(6)
N2 0.067(6) 0.113(8) 0.051(5) 0.009(5) 0.002(4) -0.016(6)
C1 0.061(11) 0.108(10) 0.058(9) 0.011(9) 0.000(6) 0.009(9)
N3 0.060(5) 0.059(7) 0.044(5) 0.013(5) 0.025(4) -0.010(5)
O4 0.084(8) 0.121(8) 0.101(9) 0.011(8) 0.032(6) -0.023(7)
O5 0.088(9) 0.125(8) 0.102(9) 0.017(7) 0.034(6) 0.002(7)
C2 0.082(10) 0.128(14) 0.058(6) 0.013(9) 0.015(6) -0.013(9)
C3 0.098(13) 0.096(11) 0.037(9) -0.031(9) 0.033(8) -0.030(9)
C4 0.105(12) 0.184(16) 0.077(8) 0.029(11) 0.012(8) -0.048(10)
C5 0.046(7) 0.068(9) 0.051(6) 0.001(7) 0.017(5) 0.000(6)
C6 0.056(8) 0.072(10) 0.059(7) -0.002(7) 0.020(5) -0.001(7)
C7 0.049(7) 0.069(9) 0.061(6) -0.008(7) 0.014(5) 0.010(6)
C8 0.093(12) 0.065(8) 0.062(10) 0.011(7) 0.002(7) -0.008(7)
C9 0.065(10) 0.081(8) 0.067(10) 0.009(8) 0.005(6) -0.002(8)
C10 0.057(9) 0.082(8) 0.030(7) 0.000(6) 0.026(5) -0.001(7)
C11 0.092(12) 0.093(9) 0.056(10) 0.016(7) 0.001(6) -0.008(8)
C12 0.100(13) 0.101(8) 0.083(12) 0.006(9) -0.015(8) 0.017(9)
C13 0.065(10) 0.105(9) 0.061(10) -0.006(8) 0.015(6) 0.000(8)
C14 0.078(9) 0.134(14) 0.068(7) -0.031(9) 0.035(6) -0.036(9)
C15 0.063(8) 0.101(11) 0.046(8) -0.003(7) 0.012(6) -0.001(7)
C16 0.060(8) 0.075(10) 0.072(10) 0.012(7) 0.008(7) 0.003(7)
C17 0.080(10) 0.084(11) 0.103(13) -0.007(8) -0.020(8) 0.018(8)
C18 0.061(9) 0.091(10) 0.073(10) 0.008(7) 0.004(6) 0.015(7)
C19 0.076(10) 0.109(11) 0.074(11) -0.027(8) -0.002(8) 0.026(8)
C20 0.097(11) 0.097(12) 0.084(12) -0.020(8) -0.043(9) 0.051(9)
C21 0.067(9) 0.122(9) 0.059(9) -0.004(8) -0.001(6) 0.020(8)
C22 0.065(10) 0.091(9) 0.070(10) -0.010(7) 0.001(6) 0.016(7)
C23 0.046(9) 0.118(9) 0.071(10) -0.005(9) -0.002(6) 0.001(8)
C24 0.045(9) 0.108(9) 0.068(10) -0.009(8) -0.004(6) 0.014(8)
C25 0.106(14) 0.138(11) 0.065(11) -0.019(9) -0.031(8) 0.044(10)
C26 0.088(11) 0.108(9) 0.064(10) 0.001(8) -0.014(7) 0.028(9)
O6 0.048(6) 0.097(6) 0.071(7) -0.002(5) 0.009(4) 0.013(5)
O7 0.129(11) 0.143(9) 0.086(9) -0.015(7) 0.068(7) -0.004(8)
N4 0.051(6) 0.131(9) 0.057(6) 0.011(7) 0.009(5) 0.005(6)
C27 0.055(8) 0.106(11) 0.063(7) -0.005(8) 0.022(6) -0.023(8)
C28 0.076(6) 0.113(7) 0.068(5) 0.003(6) 0.005(5) -0.014(6)
C29 0.038(9) 0.084(8) 0.075(10) 0.030(8) 0.014(5) -0.020(8)
C30 0.057(8) 0.083(10) 0.052(7) -0.015(7) 0.019(6) -0.007(7)
C31 0.077(8) 0.106(9) 0.068(6) -0.009(7) 0.006(6) -0.013(7)
C32 0.057(8) 0.097(11) 0.059(6) 0.014(8) 0.017(6) 0.000(7)
C33 0.085(9) 0.077(10) 0.048(6) -0.004(8) 0.012(6) -0.027(8)
C34 0.108(8) 0.180(11) 0.087(8) 0.030(7) 0.038(7) -0.016(8)
C35 0.128(9) 0.189(11) 0.120(9) 0.021(8) 0.049(7) -0.008(8)
C36 0.129(9) 0.189(11) 0.129(9) 0.028(7) 0.058(7) -0.015(8)
C37 0.117(10) 0.195(12) 0.121(9) 0.036(7) 0.054(7) -0.010(8)
C38 0.131(10) 0.204(11) 0.137(9) 0.048(8) 0.069(7) -0.009(8)
C39 0.129(9) 0.196(11) 0.118(9) 0.048(7) 0.064(7) -0.008(8)
C40 0.072(8) 0.066(10) 0.058(6) 0.006(7) -0.001(5) -0.002(7)
C41 0.096(11) 0.120(13) 0.058(6) 0.014(9) 0.013(7) -0.029(9)
C42 0.131(10) 0.139(9) 0.116(9) 0.033(7) 0.062(7) 0.011(7)
C43 0.144(10) 0.136(9) 0.135(10) 0.040(7) 0.065(7) 0.025(7)
C44 0.143(12) 0.137(10) 0.141(11) 0.046(8) 0.069(8) 0.020(9)
C45 0.072(9) 0.121(12) 0.059(8) -0.010(7) 0.024(7) -0.023(7)
C46 0.129(16) 0.137(14) 0.110(14) 0.024(10) 0.073(11) 0.028(10)
C47 0.100(12) 0.101(11) 0.129(14) 0.007(8) 0.056(10) 0.012(9)
C48 0.117(13) 0.169(15) 0.083(9) -0.018(11) 0.032(9) -0.052(11)
C49 0.026(6) 0.056(8) 0.055(6) 0.008(7) 0.008(5) 0.010(6)
C50 0.089(10) 0.102(12) 0.047(7) -0.016(8) 0.017(6) -0.027(9)
C51 0.065(10) 0.127(14) 0.063(7) -0.013(9) 0.004(6) -0.008(9)
C52 0.070(9) 0.149(13) 0.036(9) -0.015(8) 0.012(6) 0.000(8)
C53 0.079(10) 0.120(12) 0.080(11) -0.016(8) 0.009(8) -0.008(9)
C54 0.051(8) 0.103(11) 0.071(10) -0.001(7) 0.023(6) -0.016(7)
C55 0.071(8) 0.100(11) 0.053(8) 0.008(7) 0.006(7) -0.004(7)
C56 0.055(9) 0.117(12) 0.087(11) -0.003(8) -0.004(7) -0.007(8)
C57 0.067(9) 0.136(13) 0.083(12) -0.020(8) 0.016(7) -0.014(8)
C58 0.059(6) 0.082(8) 0.057(6) 0.011(6) -0.004(5) -0.010(7)
C59 0.108(14) 0.128(11) 0.078(11) 0.010(9) 0.038(8) 0.005(10)
C60 0.076(11) 0.122(10) 0.059(9) -0.016(8) 0.012(6) -0.009(9)
C61 0.152(18) 0.138(10) 0.114(15) 0.016(12) 0.070(11) 0.025(13)
C62 0.128(11) 0.155(10) 0.137(11) 0.017(9) 0.074(8) 0.009(9)
C63 0.122(9) 0.146(9) 0.124(8) 0.019(7) 0.068(6) 0.004(7)
C64 0.106(10) 0.149(10) 0.127(10) 0.014(9) 0.064(7) 0.006(9)
C65 0.097(14) 0.100(10) 0.121(14) 0.042(10) 0.034(8) 0.007(9)
C66 0.083(11) 0.120(11) 0.080(11) 0.002(9) 0.016(7) -0.011(9)
C67 0.106(13) 0.108(10) 0.120(14) 0.000(10) 0.064(9) 0.034(10)
C68 0.086(12) 0.113(10) 0.115(13) 0.038(9) 0.041(8) 0.032(9)
C69 0.074(11) 0.092(9) 0.096(11) -0.005(8) 0.044(8) 0.001(8)
C70 0.144(16) 0.082(9) 0.113(14) -0.010(9) 0.059(10) -0.002(10)
C71 0.082(10) 0.091(11) 0.045(6) 0.006(8) 0.025(6) -0.018(8)
C72 0.045(10) 0.105(9) 0.057(10) -0.005(9) 0.006(6) 0.003(9)
O8 0.051(7) 0.126(8) 0.057(7) 0.013(6) 0.005(5) 0.008(6)
O9 0.115(9) 0.126(9) 0.117(9) -0.008(7) 0.050(7) 0.032(7)
O10 0.082(8) 0.157(7) 0.110(8) -0.011(6) 0.016(7) -0.001(6)
In1A 0.0538 0.1236 0.0533 0.0017 0.0232 0.0008
In1B 0.0538 0.1236 0.0533 -0.0017 0.0232 -0.0008
In1C 0.0538 0.1236 0.0533 0.0017 0.0232 0.0008
O1C 0.098 0.101 0.109 -0.007 -0.017 0.017
O2A 0.082 0.143 0.079 -0.004 0.025 -0.001
O4B 0.084 0.121 0.101 0.011 0.032 -0.023
O5A 0.088 0.125 0.102 -0.017 0.034 -0.002
O7B 0.129 0.143 0.086 -0.015 0.068 -0.004
O8C 0.051 0.126 0.057 -0.013 0.005 -0.008
In3 0.0423(6) 0.1043(8) 0.0448(6) 0.0004(6) 0.0053(5) -0.0093(7)
In4 0.0696(8) 0.1941(13) 0.0528(7) -0.0157(7) 0.0129(6) -0.0454(8)
O11 0.063(6) 0.094(6) 0.060(6) -0.006(5) -0.004(4) -0.007(6)
N5 0.050(5) 0.124(8) 0.040(5) -0.011(6) 0.004(4) -0.009(5)
O12 0.059(6) 0.097(7) 0.076(7) 0.013(6) 0.028(5) -0.008(6)
O13 0.070(7) 0.084(7) 0.068(7) 0.009(6) 0.029(5) -0.005(6)
C73 0.040(6) 0.061(9) 0.031(6) 0.009(6) -0.005(5) -0.003(6)
O14 0.074(7) 0.101(6) 0.072(6) -0.003(5) -0.012(5) 0.003(5)
O15 0.042(6) 0.101(6) 0.071(7) -0.011(5) 0.005(4) 0.009(5)
C74 0.056(8) 0.099(12) 0.052(7) -0.004(8) 0.006(6) 0.002(7)
O16 0.066(7) 0.094(7) 0.056(6) 0.008(5) 0.016(5) -0.013(5)
C75 0.047(7) 0.059(9) 0.052(7) 0.001(6) 0.007(6) 0.000(6)
C76 0.057(8) 0.108(11) 0.049(8) 0.015(7) -0.001(6) -0.010(8)
C77 0.073(8) 0.111(12) 0.082(9) 0.013(8) 0.021(7) -0.003(9)
C78 0.057(7) 0.056(9) 0.070(8) -0.026(6) 0.009(6) -0.013(7)
C79 0.077(9) 0.109(12) 0.095(11) -0.008(8) 0.026(7) 0.010(9)
C80 0.047(8) 0.171(15) 0.083(10) 0.008(10) 0.004(7) -0.001(10)
N6 0.033(6) 0.079(7) 0.048(5) -0.003(5) -0.003(4) -0.013(5)
C81 0.036(7) 0.071(10) 0.040(6) 0.001(6) 0.002(5) 0.006(6)
N7 0.072(6) 0.078(7) 0.043(5) -0.010(5) 0.008(5) -0.011(5)
N8 0.065(7) 0.086(8) 0.044(4) -0.001(5) 0.003(4) -0.018(5)
O17 0.084(6) 0.102(6) 0.072(6) -0.007(6) -0.020(5) 0.001(6)
O18 0.062(7) 0.105(7) 0.062(6) 0.018(5) 0.011(5) -0.007(5)
C82 0.077(7) 0.084(7) 0.067(6) -0.009(6) -0.011(5) 0.008(6)
C83 0.049(7) 0.116(11) 0.050(6) 0.009(7) 0.007(6) -0.024(7)
C84 0.059(9) 0.129(13) 0.051(6) -0.040(8) 0.019(6) -0.017(7)
C85 0.059(8) 0.071(10) 0.060(7) -0.002(7) 0.016(6) 0.005(6)
C86 0.039(8) 0.081(10) 0.057(7) -0.020(7) 0.012(6) 0.005(6)
C87 0.043(7) 0.062(8) 0.050(6) 0.017(6) 0.001(5) -0.015(6)
C88 0.050(9) 0.120(12) 0.042(6) 0.015(7) -0.002(6) -0.002(7)
C89 0.091(12) 0.092(9) 0.083(12) 0.002(8) -0.013(7) -0.017(8)
C90 0.114(13) 0.090(8) 0.054(9) 0.006(8) -0.033(7) -0.012(9)
C91 0.056(8) 0.102(9) 0.041(8) -0.001(7) 0.000(5) -0.020(8)
C92 0.090(12) 0.071(8) 0.067(10) -0.010(7) -0.001(6) -0.004(7)
C93 0.057(9) 0.095(8) 0.050(9) 0.003(7) 0.006(6) -0.003(8)
C94 0.042(8) 0.091(8) 0.036(7) -0.003(6) 0.014(5) -0.011(6)
C95 0.047(8) 0.090(11) 0.066(8) -0.004(8) 0.008(6) -0.014(7)
C96 0.055(7) 0.064(9) 0.050(6) -0.017(6) 0.008(5) -0.022(7)
C97 0.044(8) 0.097(11) 0.063(6) -0.009(7) 0.007(6) -0.009(7)
C98 0.055(8) 0.069(9) 0.028(6) 0.007(6) 0.003(5) -0.009(7)
C99 0.042(8) 0.104(11) 0.060(7) -0.015(7) 0.012(6) 0.001(7)
C100 0.154(12) 0.133(9) 0.136(11) -0.024(9) -0.072(8) 0.013(9)
C101 0.097(14) 0.144(11) 0.100(13) -0.020(11) -0.024(9) -0.017(10)
C102 0.094(13) 0.111(10) 0.083(12) -0.011(9) -0.006(8) -0.006(8)
C103 0.077(11) 0.099(9) 0.120(14) -0.014(9) -0.021(8) 0.003(9)
C104 0.099(8) 0.096(7) 0.087(8) -0.017(6) -0.028(6) 0.012(6)
C105 0.143(10) 0.121(8) 0.123(9) -0.021(7) -0.061(7) 0.023(7)
C106 0.064(9) 0.075(8) 0.065(8) -0.041(6) 0.010(6) -0.032(7)
C107 0.065(10) 0.065(8) 0.086(11) 0.006(7) 0.017(7) -0.019(7)
C108 0.085(11) 0.079(8) 0.062(10) 0.000(7) 0.027(7) -0.019(8)
C109 0.063(10) 0.098(9) 0.072(10) 0.019(8) 0.021(6) 0.004(7)
C110 0.066(10) 0.120(11) 0.075(10) 0.033(8) 0.010(7) 0.023(8)
C111 0.093(11) 0.085(9) 0.088(11) -0.016(8) 0.048(8) -0.001(9)
C112 0.076(9) 0.106(12) 0.058(7) -0.011(8) 0.011(6) -0.017(8)
C113 0.058(8) 0.114(12) 0.046(6) 0.006(6) 0.012(6) 0.004(7)
C114 0.053(7) 0.076(9) 0.043(7) 0.000(6) 0.010(5) -0.023(6)
C115 0.047(7) 0.069(8) 0.051(8) -0.001(6) 0.012(6) -0.017(6)
C116 0.042(7) 0.072(8) 0.049(8) -0.002(6) 0.015(5) -0.027(6)
C117 0.057(7) 0.084(9) 0.041(7) 0.010(6) -0.018(6) -0.017(6)
C118 0.067(9) 0.112(11) 0.070(10) -0.022(8) -0.014(7) 0.003(8)
C119 0.057(9) 0.104(10) 0.068(9) -0.012(7) -0.008(7) 0.009(7)
C120 0.091(10) 0.098(11) 0.112(12) 0.042(8) 0.032(8) 0.015(9)
C121 0.068(8) 0.094(11) 0.084(10) 0.023(8) 0.022(7) 0.013(8)
C122 0.063(7) 0.065(9) 0.048(7) -0.005(6) 0.002(6) -0.008(6)
C123 0.064(8) 0.101(11) 0.058(9) 0.027(7) 0.015(6) 0.010(8)
C124 0.079(9) 0.146(13) 0.075(9) 0.025(8) 0.030(7) 0.027(9)
C125 0.065(8) 0.079(9) 0.050(8) 0.000(6) 0.012(6) 0.001(7)
C126 0.059(9) 0.086(10) 0.057(7) -0.009(7) 0.009(6) -0.017(7)
C127 0.045(8) 0.119(12) 0.060(6) -0.018(8) 0.009(5) -0.010(7)
C128 0.082(11) 0.184(18) 0.051(7) -0.026(10) 0.015(7) -0.026(11)
C129 0.060(8) 0.080(9) 0.063(9) 0.003(7) 0.012(7) -0.015(7)
C130 0.072(10) 0.113(11) 0.077(11) 0.035(9) 0.011(7) 0.015(8)
C131 0.072(10) 0.052(8) 0.112(12) -0.005(7) 0.028(8) -0.007(7)
C132 0.063(9) 0.071(9) 0.074(9) 0.001(7) 0.018(6) -0.016(7)
C133 0.109(13) 0.099(11) 0.113(12) 0.045(9) 0.042(9) 0.029(8)
C134 0.080(10) 0.101(10) 0.074(10) 0.027(8) 0.022(7) 0.014(8)
C135 0.068(10) 0.142(11) 0.070(9) -0.021(9) -0.004(7) -0.009(9)
C136 0.135(15) 0.128(10) 0.100(12) -0.022(10) -0.028(9) -0.003(11)
C137 0.112(14) 0.151(12) 0.117(15) -0.009(10) -0.037(9) -0.014(11)
C138 0.071(10) 0.128(11) 0.050(9) -0.007(7) 0.014(6) -0.028(9)
C139 0.107(14) 0.147(11) 0.088(12) 0.001(10) -0.017(8) -0.047(11)
C140 0.105(14) 0.120(11) 0.106(14) -0.022(9) -0.031(9) -0.024(10)
C141 0.085(10) 0.127(14) 0.054(7) -0.020(8) 0.018(7) 0.000(9)
O19 0.033(5) 0.087(5) 0.024(4) -0.010(4) 0.000(3) -0.027(4)
O20 0.096(7) 0.135(6) 0.098(7) 0.003(6) 0.039(6) 0.013(6)
C142 0.047(9) 0.097(10) 0.047(9) 0.014(8) -0.001(6) -0.004(8)
C143 0.043(7) 0.082(7) 0.046(7) -0.001(6) 0.013(4) -0.010(6)
C144 0.044(7) 0.062(8) 0.045(7) -0.002(6) -0.009(5) -0.019(7)
In3A 0.0423 0.1043 0.0448 -0.0004 0.0053 0.0093
In3B 0.0423 0.1043 0.0448 0.0004 0.0053 -0.0093
In3C 0.0423 0.1043 0.0448 -0.0004 0.0053 0.0093
O12B 0.059 0.097 0.076 0.013 0.028 -0.008
O13A 0.07 0.084 0.068 -0.009 0.029 0.005
O14C 0.074 0.101 0.072 0.003 -0.012 -0.003
O16B 0.066 0.094 0.056 0.008 0.016 -0.013
O17C 0.084 0.102 0.072 0.007 -0.02 -0.001
O18A 0.062 0.105 0.062 -0.018 0.011 0.007
In5 0.0626(8) 0.1474(11) 0.0439(6) -0.0110(7) 0.0123(5) -0.0167(8)
In6 0.0543(7) 0.1309(11) 0.0431(6) 0.0000(7) 0.0057(5) -0.0094(7)
O21 0.098(9) 0.164(9) 0.067(8) -0.011(8) 0.006(6) -0.033(8)
O22 0.082(8) 0.088(7) 0.074(7) -0.017(6) 0.009(5) -0.002(6)
O23 0.087(8) 0.153(9) 0.047(6) -0.015(6) 0.017(5) 0.002(7)
N9 0.052(6) 0.087(8) 0.040(4) -0.013(5) 0.008(4) -0.020(6)
O24 0.060(7) 0.094(7) 0.060(6) 0.009(5) 0.009(5) 0.001(5)
N10 0.063(6) 0.106(8) 0.050(6) -0.033(7) 0.021(5) -0.019(5)
O25 0.065(6) 0.089(6) 0.059(6) 0.002(5) 0.015(5) -0.001(6)
N11 0.068(6) 0.128(9) 0.050(6) -0.025(7) 0.014(5) -0.012(5)
O26 0.083(9) 0.187(10) 0.072(8) -0.006(7) -0.021(6) -0.018(8)
C145 0.061(8) 0.095(11) 0.059(7) 0.004(8) 0.009(6) -0.016(8)
C146 0.044(8) 0.051(7) 0.052(8) -0.002(6) 0.027(5) -0.014(6)
C147 0.061(10) 0.060(7) 0.072(10) -0.004(7) -0.016(7) 0.014(7)
C148 0.077(10) 0.057(8) 0.055(9) 0.007(6) -0.003(6) 0.000(6)
C149 0.052(8) 0.056(7) 0.064(9) -0.001(6) 0.000(6) 0.007(6)
C150 0.086(11) 0.051(7) 0.117(13) -0.003(8) -0.022(8) 0.011(8)
C151 0.071(11) 0.039(8) 0.109(12) -0.008(7) 0.017(7) -0.003(6)
N12 0.066(7) 0.110(9) 0.034(4) -0.003(5) 0.009(4) -0.025(7)
C152 0.073(12) 0.177(12) 0.041(10) -0.020(11) -0.002(7) -0.024(12)
C153 0.069(7) 0.044(8) 0.033(6) 0.008(6) 0.005(5) -0.009(7)
C154 0.048(8) 0.071(10) 0.056(7) 0.000(7) 0.001(6) 0.003(7)
C155 0.065(8) 0.076(10) 0.048(6) -0.007(7) 0.009(5) -0.006(7)
C156 0.041(7) 0.074(10) 0.045(6) -0.013(7) -0.001(5) 0.006(7)
C157 0.090(11) 0.169(15) 0.089(9) -0.051(10) 0.039(8) -0.029(9)
C158 0.047(7) 0.090(8) 0.034(7) -0.002(6) 0.009(5) 0.017(7)
C159 0.093(12) 0.110(9) 0.091(12) 0.003(8) -0.025(7) 0.016(8)
C160 0.058(10) 0.149(10) 0.053(9) -0.001(9) -0.007(6) 0.009(9)
C161 0.086(11) 0.147(10) 0.053(9) 0.019(8) -0.023(6) -0.038(9)
C162 0.082(11) 0.119(10) 0.073(11) 0.000(8) -0.019(7) -0.022(8)
C163 0.066(9) 0.093(8) 0.060(9) 0.003(7) -0.014(6) -0.002(8)
C164 0.030(8) 0.085(9) 0.041(8) 0.013(7) -0.009(5) 0.002(7)
C165 0.073(9) 0.072(9) 0.071(10) -0.004(6) -0.006(7) 0.000(7)
C166 0.074(9) 0.091(10) 0.047(9) -0.017(7) 0.003(6) 0.010(8)
C167 0.055(9) 0.090(11) 0.103(12) -0.036(8) -0.006(8) 0.002(7)
C168 0.045(7) 0.076(9) 0.049(7) 0.003(6) 0.013(6) -0.013(6)
C169 0.039(8) 0.108(11) 0.076(10) -0.029(7) 0.015(6) 0.000(7)
C170 0.068(9) 0.086(10) 0.076(10) -0.007(7) -0.008(7) 0.005(7)
C171 0.056(9) 0.126(10) 0.030(8) 0.001(7) -0.003(5) -0.006(8)
C172 0.094(12) 0.137(11) 0.058(10) -0.010(8) 0.035(8) -0.019(9)
C173 0.078(10) 0.120(9) 0.073(10) 0.013(8) 0.025(7) -0.014(9)
C174 0.069(8) 0.099(9) 0.045(8) 0.002(7) 0.003(6) -0.009(7)
C175 0.052(9) 0.120(9) 0.055(9) -0.021(7) 0.020(6) -0.017(7)
C176 0.066(10) 0.139(10) 0.100(12) 0.032(10) 0.027(7) -0.019(9)
C177 0.105(10) 0.103(11) 0.063(9) 0.026(7) 0.050(8) 0.029(8)
C178 0.069(9) 0.106(11) 0.047(9) 0.008(6) 0.020(6) 0.014(8)
C179 0.069(9) 0.069(10) 0.062(9) -0.002(6) 0.033(7) 0.011(7)
C180 0.056(7) 0.060(9) 0.061(7) -0.003(6) 0.017(7) -0.003(6)
C181 0.057(8) 0.074(10) 0.087(10) 0.015(7) 0.026(7) 0.008(7)
C182 0.085(9) 0.110(12) 0.060(9) 0.019(8) 0.030(7) 0.011(8)
C183 0.049(8) 0.086(11) 0.042(6) -0.002(7) 0.004(5) 0.005(7)
C184 0.050(8) 0.119(13) 0.058(6) -0.004(8) 0.005(6) 0.010(7)
C185 0.080(9) 0.094(11) 0.047(7) -0.005(7) 0.016(6) 0.005(9)
C186 0.051(8) 0.077(10) 0.073(8) 0.008(8) 0.017(6) -0.012(7)
C187 0.052(7) 0.085(10) 0.041(6) -0.012(7) 0.000(5) 0.009(7)
C188 0.090(10) 0.125(13) 0.042(6) -0.014(8) 0.009(6) -0.016(10)
C189 0.062(8) 0.153(14) 0.063(7) -0.029(9) 0.007(6) -0.020(9)
C190 0.060(8) 0.100(12) 0.044(6) 0.001(8) -0.001(6) -0.020(8)
C191 0.076(10) 0.128(14) 0.066(6) -0.018(9) 0.013(7) -0.011(9)
C192 0.065(8) 0.094(11) 0.056(6) -0.005(7) 0.030(6) -0.019(8)
C193 0.076(10) 0.123(13) 0.043(6) -0.002(8) 0.007(6) -0.012(9)
C194 0.078(7) 0.140(8) 0.085(7) 0.019(6) 0.030(5) 0.003(6)
C195 0.125(9) 0.161(8) 0.133(9) 0.032(8) 0.065(6) 0.023(8)
C196 0.142(10) 0.166(9) 0.149(9) 0.047(8) 0.085(7) 0.041(8)
C197 0.129(10) 0.152(10) 0.134(10) 0.043(9) 0.080(7) 0.042(8)
C198 0.135(11) 0.156(10) 0.142(11) 0.023(10) 0.084(8) 0.025(10)
C199 0.109(10) 0.146(9) 0.104(9) 0.008(8) 0.037(7) -0.010(8)
C200 0.073(10) 0.147(15) 0.042(6) 0.010(8) -0.006(6) -0.010(10)
C201 0.062(8) 0.171(15) 0.042(7) 0.008(8) 0.001(6) -0.013(8)
O27 0.053(6) 0.068(6) 0.041(5) -0.003(5) -0.003(4) -0.012(5)
C202 0.084(11) 0.056(9) 0.047(9) -0.010(7) 0.024(6) -0.017(8)
C203 0.074(10) 0.163(15) 0.072(8) -0.020(10) 0.011(7) -0.024(9)
O28 0.100(8) 0.134(7) 0.090(7) -0.001(6) 0.018(6) 0.008(6)
O29 0.060(6) 0.138(6) 0.069(6) -0.009(5) 0.017(5) 0.000(5)
O30 0.092(9) 0.136(9) 0.101(9) -0.005(8) 0.029(7) -0.014(8)
C204 0.067(11) 0.113(11) 0.066(11) -0.024(10) 0.004(7) -0.024(10)
C205 0.042(8) 0.125(10) 0.073(8) -0.013(8) 0.003(6) -0.022(8)
C206 0.074(11) 0.137(10) 0.072(10) 0.010(8) 0.027(7) -0.003(9)
C207 0.068(8) 0.123(8) 0.067(7) -0.003(7) 0.006(5) -0.011(7)
C208 0.074(7) 0.127(7) 0.068(6) 0.005(6) 0.006(5) -0.010(6)
C209 0.101(8) 0.131(8) 0.100(8) 0.007(7) 0.034(6) 0.000(7)
C210 0.105(10) 0.143(8) 0.113(10) 0.010(8) 0.041(7) -0.009(8)
C211 0.060(8) 0.104(11) 0.073(8) -0.003(7) -0.006(7) -0.017(7)
C212 0.078(10) 0.118(12) 0.103(12) -0.035(8) -0.011(8) 0.003(8)
C213 0.063(9) 0.103(11) 0.087(11) -0.010(8) -0.006(7) 0.000(7)
C214 0.073(8) 0.076(8) 0.034(7) 0.020(6) -0.003(6) -0.002(6)
C215 0.083(10) 0.116(11) 0.077(11) -0.016(8) -0.022(8) 0.018(8)
C216 0.075(9) 0.131(12) 0.071(10) -0.027(8) -0.001(7) 0.011(8)
In6A 0.0543 0.1309 0.0431 0 0.0057 0.0094
In6B 0.0543 0.1309 0.0431 0 0.0057 -0.0094
In6C 0.0543 0.1309 0.0431 0 0.0057 0.0094
O21B 0.098 0.164 0.067 -0.011 0.006 -0.033
O22A 0.082 0.088 0.074 0.017 0.009 0.002
O23C 0.087 0.153 0.047 0.015 0.017 -0.002
O26B 0.083 0.187 0.072 -0.006 -0.021 -0.018
O27A 0.053 0.068 0.041 0.003 -0.003 0.012
O30C 0.092 0.136 0.101 0.005 0.029 0.014
In7 0.0875(9) 0.1376(12) 0.0880(9) -0.0034(8) -0.0307(7) 0.0038(9)
In8 0.0978(11) 0.1706(14) 0.0970(10) -0.0171(10) -0.0270(8) -0.0253(10)
C217 0.101(10) 0.081(11) 0.103(7) -0.001(8) -0.007(7) 0.007(8)
C218 0.100(11) 0.092(13) 0.108(8) -0.029(10) -0.003(7) -0.010(9)
N13 0.065(8) 0.113(10) 0.088(5) -0.009(6) -0.023(5) 0.015(6)
O31 0.094(9) 0.169(10) 0.106(9) 0.031(8) -0.009(7) 0.024(8)
C219 0.105(10) 0.123(12) 0.081(7) 0.006(8) -0.005(7) -0.021(8)
N14 0.083(9) 0.130(11) 0.088(5) -0.002(6) -0.021(5) -0.002(7)
O32 0.146(9) 0.164(8) 0.181(10) -0.015(8) 0.033(6) -0.009(8)
N15 0.079(6) 0.109(9) 0.093(7) 0.004(8) -0.029(6) -0.003(6)
C220 0.124(8) 0.147(8) 0.127(8) -0.009(7) 0.003(5) -0.007(7)
O33 0.110(8) 0.145(7) 0.106(8) 0.005(6) -0.006(6) -0.003(6)
C221 0.078(11) 0.163(17) 0.104(8) 0.006(11) -0.020(7) 0.008(10)
C222 0.109(12) 0.154(17) 0.083(9) 0.007(10) -0.020(8) -0.035(11)
C223 0.069(10) 0.116(14) 0.115(10) 0.005(11) -0.024(8) -0.005(9)
C224 0.102(12) 0.101(13) 0.114(10) -0.003(12) -0.010(8) -0.016(10)
C225 0.085(12) 0.135(11) 0.075(12) 0.005(11) -0.010(8) 0.003(11)
C226 0.112(13) 0.175(17) 0.096(10) 0.005(11) -0.001(9) -0.028(11)
C227 0.144(9) 0.166(10) 0.157(10) 0.017(8) 0.023(8) -0.006(9)
C228 0.151(10) 0.180(10) 0.157(10) 0.021(8) 0.026(7) -0.012(9)
C229 0.146(10) 0.180(10) 0.149(10) 0.003(8) 0.025(7) -0.003(8)
C230 0.129(8) 0.159(9) 0.123(8) -0.011(7) 0.011(6) -0.002(7)
C231 0.145(9) 0.174(10) 0.144(10) 0.004(8) 0.029(7) -0.004(8)
C232 0.152(10) 0.180(10) 0.160(10) 0.017(8) 0.035(8) -0.008(8)
C233 0.083(11) 0.106(13) 0.111(8) 0.001(10) -0.007(8) -0.004(8)
C234 0.080(8) 0.057(10) 0.100(7) 0.007(8) -0.026(6) 0.015(7)
C235 0.078(11) 0.128(15) 0.090(8) 0.003(10) -0.025(7) 0.004(8)
C236 0.147(12) 0.182(12) 0.132(10) 0.017(9) -0.056(9) -0.039(11)
C237 0.177(12) 0.198(11) 0.147(10) 0.014(9) -0.067(8) -0.041(10)
C238 0.183(12) 0.204(11) 0.148(10) 0.018(10) -0.070(8) -0.044(11)
C239 0.177(12) 0.188(13) 0.139(11) 0.015(10) -0.061(9) -0.048(12)
C240 0.121(16) 0.189(14) 0.140(17) -0.005(11) -0.057(11) -0.012(13)
C241 0.080(12) 0.160(12) 0.131(14) -0.038(10) -0.016(9) -0.021(11)
C242 0.119(11) 0.135(12) 0.090(7) -0.010(8) -0.013(7) -0.014(9)
O34 0.105(9) 0.149(9) 0.069(7) -0.010(7) -0.013(6) -0.010(8)
C243 0.082(10) 0.085(12) 0.117(8) 0.003(11) -0.019(7) -0.001(9)
N16 0.097(7) 0.158(10) 0.085(7) 0.031(9) -0.027(6) -0.024(7)
C244 0.119(10) 0.137(11) 0.094(7) -0.009(7) -0.002(7) -0.017(8)
C245 0.102(14) 0.157(17) 0.080(8) 0.021(10) -0.027(8) -0.026(11)
C246 0.102(10) 0.079(11) 0.103(8) 0.006(9) -0.011(6) 0.005(9)
C247 0.088(9) 0.156(14) 0.082(11) -0.001(9) -0.016(7) 0.014(10)
C248 0.124(10) 0.134(13) 0.070(10) 0.000(8) -0.015(8) 0.028(11)
C249 0.119(10) 0.132(15) 0.085(11) 0.010(9) -0.022(8) 0.010(12)
C250 0.102(10) 0.087(12) 0.104(11) 0.009(9) -0.021(8) 0.027(10)
C251 0.085(8) 0.082(11) 0.113(9) 0.011(8) -0.017(8) -0.012(9)
C252 0.080(8) 0.143(13) 0.094(11) 0.022(9) -0.036(7) 0.000(10)
C253 0.108(14) 0.145(17) 0.091(8) 0.014(11) -0.027(8) -0.023(11)
C254 0.087(11) 0.127(13) 0.095(8) -0.005(10) -0.006(7) 0.005(8)
C255 0.103(9) 0.054(10) 0.123(10) 0.000(7) 0.001(9) 0.005(7)
C256 0.100(11) 0.133(13) 0.137(14) 0.037(10) -0.008(9) 0.023(10)
C257 0.097(10) 0.092(12) 0.120(13) -0.003(8) -0.018(8) -0.005(9)
C258 0.087(10) 0.089(12) 0.132(13) 0.018(8) -0.018(8) 0.015(8)
C259 0.093(11) 0.094(12) 0.173(15) 0.035(10) 0.010(10) 0.007(9)
C260 0.106(12) 0.089(13) 0.144(15) 0.034(9) 0.011(9) 0.027(10)
C261 0.179(16) 0.168(14) 0.142(17) -0.019(12) -0.059(12) -0.003(13)
C262 0.147(16) 0.128(12) 0.166(17) 0.003(11) -0.042(11) -0.021(10)
C263 0.179(16) 0.153(14) 0.119(14) -0.006(12) -0.058(11) 0.001(10)
C264 0.085(11) 0.148(12) 0.104(13) 0.005(10) -0.028(8) -0.003(10)
C265 0.120(14) 0.144(12) 0.138(15) 0.023(10) -0.060(10) -0.035(9)
C266 0.127(13) 0.139(12) 0.115(13) 0.018(10) -0.057(9) -0.021(10)
C267 0.068(10) 0.112(14) 0.116(8) -0.016(11) -0.012(7) 0.009(8)
O35 0.133(9) 0.127(7) 0.107(8) -0.002(6) -0.030(7) -0.023(6)
C268 0.156(9) 0.201(9) 0.137(8) -0.029(8) -0.027(6) -0.030(8)
C269 0.154(10) 0.193(10) 0.140(9) -0.029(8) -0.019(7) -0.030(8)
C270 0.152(10) 0.185(10) 0.144(9) -0.018(9) -0.027(7) -0.026(9)
C271 0.132(9) 0.185(10) 0.129(8) -0.021(9) -0.034(7) -0.029(9)
C272 0.139(10) 0.198(10) 0.143(10) -0.026(9) -0.039(7) -0.013(9)
C273 0.148(10) 0.207(9) 0.133(9) -0.037(9) -0.036(7) -0.010(9)
C274 0.090(12) 0.141(13) 0.114(14) 0.006(10) -0.011(8) 0.007(10)
C275 0.118(15) 0.102(10) 0.091(12) 0.007(9) -0.011(8) -0.013(8)
C276 0.109(14) 0.136(11) 0.103(14) 0.002(10) 0.002(9) -0.001(10)
C277 0.110(12) 0.148(11) 0.103(11) 0.014(9) 0.014(7) 0.004(8)
C278 0.117(11) 0.155(10) 0.118(10) 0.007(8) 0.013(7) 0.007(8)
C279 0.102(11) 0.149(10) 0.120(12) 0.017(9) 0.012(7) 0.015(9)
O36 0.138(9) 0.226(11) 0.130(9) -0.040(9) -0.022(7) -0.024(9)
C280 0.151(9) 0.215(10) 0.141(9) -0.036(9) -0.021(7) -0.023(9)
O37 0.173(12) 0.109(8) 0.100(9) 0.014(7) -0.015(8) -0.014(8)
O38 0.168(11) 0.226(11) 0.149(10) -0.026(8) -0.027(8) -0.036(10)
O39 0.082(8) 0.136(9) 0.104(9) 0.011(7) -0.013(6) 0.010(7)
C281 0.074(12) 0.116(12) 0.125(14) 0.021(12) -0.012(8) 0.007(10)
C282 0.199(10) 0.230(10) 0.178(10) -0.032(9) -0.058(8) -0.035(9)
C283 0.171(9) 0.215(10) 0.154(9) -0.043(8) -0.034(7) -0.027(8)
C284 0.163(10) 0.213(10) 0.147(10) -0.048(8) -0.027(8) -0.022(9)
C285 0.167(10) 0.211(10) 0.145(9) -0.043(8) -0.032(8) -0.027(9)
C286 0.181(9) 0.223(9) 0.158(9) -0.030(8) -0.045(7) -0.036(8)
C287 0.202(10) 0.228(10) 0.181(10) -0.030(9) -0.066(8) -0.037(9)
C288 0.103(13) 0.163(16) 0.140(12) -0.023(12) 0.012(10) -0.041(10)
O40 0.063(7) 0.162(7) 0.104(8) -0.017(6) -0.022(6) 0.013(6)
In7A 0.0875 0.1376 0.088 0.0034 -0.0307 -0.0038
In7B 0.0875 0.1376 0.088 -0.0034 -0.0307 0.0038
In7C 0.0875 0.1376 0.088 0.0034 -0.0307 -0.0038
O31B 0.094 0.169 0.106 0.031 -0.009 0.024
O34B 0.105 0.149 0.069 -0.01 -0.013 -0.01
O36A 0.138 0.226 0.13 0.04 -0.022 0.024
O37C 0.173 0.109 0.1 -0.014 -0.015 0.014
O38A 0.168 0.226 0.149 0.026 -0.027 0.036
O39C 0.082 0.136 0.104 -0.011 -0.013 -0.01
loop_
_geom_bond_atom_site_label_1
_geom_bond_atom_site_label_2
_geom_bond_site_symmetry_1
_geom_bond_site_symmetry_2
In1 O3 1_555 1_555
In2 N1 1_555 1_555
O1 C72 1_555 1_555
O2 C1 1_555 1_555
N1 C6 1_555 1_555
O3 C29 1_555 1_555
N2 In2 1_555 1_555
C1 O5 1_555 1_555
N3 In2 1_555 1_555
O4 C3 1_555 1_555
O5 In1A 1_555 1_555
C2 C4 1_555 1_555
C3 O7 1_555 1_555
C4 H1 1_555 1_555
C5 N3 1_555 1_555
C6 C32 1_555 1_555
C7 C5 1_555 1_555
C8 H2 1_555 1_555
C9 C8 1_555 1_555
H3 C9 1_555 1_555
C10 C9 1_555 1_555
C11 C10 1_555 1_555
H4 C11 1_555 1_555
C12 C11 1_555 1_555
H5 C12 1_555 1_555
C13 C8 1_555 1_555
C14 N1 1_555 1_555
C15 C7 1_555 1_555
C16 C15 1_555 1_555
H6 C16 1_555 1_555
C17 C16 1_555 1_555
H7 C17 1_555 1_555
C18 C17 1_555 1_555
C19 C18 1_555 1_555
H8 C19 1_555 1_555
C20 C15 1_555 1_555
H9 C20 1_555 1_555
C21 C18 1_555 1_555
C22 C21 1_555 1_555
H10 C22 1_555 1_555
C23 C22 1_555 1_555
H11 C23 1_555 1_555
C24 C23 1_555 1_555
C25 C24 1_555 1_555
H12 C25 1_555 1_555
C26 C21 1_555 1_555
H13 C26 1_555 1_555
O6 In1 1_555 1_555
O7 In1B 1_555 1_555
N4 In2 1_555 1_555
C27 H14 1_555 1_555
C28 N2 1_555 1_555
C29 C10 1_555 1_555
C30 C5 1_555 1_555
H15 C30 1_555 1_555
C31 C28 1_555 1_555
H16 C31 1_555 1_555
C32 C2 1_555 1_555
C33 N2 1_555 1_555
C34 C35 1_555 1_555
C35 H17 1_555 1_555
C36 C35 1_555 1_555
H18 C36 1_555 1_555
C37 C36 1_555 1_555
C38 C37 1_555 1_555
H19 C38 1_555 1_555
C39 C34 1_555 1_555
H20 C39 1_555 1_555
C40 C33 1_555 1_555
C41 N4 1_555 1_555
C42 C43 1_555 1_555
C43 H21 1_555 1_555
C44 C43 1_555 1_555
H22 C44 1_555 1_555
C45 C32 1_555 1_555
C46 C45 1_555 1_555
H23 C46 1_555 1_555
C47 C42 1_555 1_555
H24 C47 1_555 1_555
C48 C4 1_555 1_555
H25 C48 1_555 1_555
C49 N3 1_555 1_555
C50 C14 1_555 1_555
H26 C50 1_555 1_555
C51 C31 1_555 1_555
H27 C51 1_555 1_555
C52 C13 1_555 1_555
C53 C52 1_555 1_555
H28 C53 1_555 1_555
C54 C53 1_555 1_555
H29 C54 1_555 1_555
C55 C54 1_555 1_555
C56 C55 1_555 1_555
H30 C56 1_555 1_555
C57 C52 1_555 1_555
H31 C57 1_555 1_555
C58 C28 1_555 1_555
C59 H32 1_555 1_555
C60 C1 1_555 1_555
C61 C60 1_555 1_555
H33 C61 1_555 1_555
C62 C61 1_555 1_555
H34 C62 1_555 1_555
C63 C42 1_555 1_555
C64 C59 1_555 1_555
H35 C64 1_555 1_555
C65 H36 1_555 1_555
C66 C37 1_555 1_555
C67 C66 1_555 1_555
H37 C67 1_555 1_555
C68 C67 1_555 1_555
H38 C68 1_555 1_555
C69 C3 1_555 1_555
C70 C65 1_555 1_555
H39 C70 1_555 1_555
C71 C6 1_555 1_555
H40 C71 1_555 1_555
C72 C24 1_555 1_555
O8 C72 1_555 1_555
O9 In2 1_555 1_555
O10 In2 1_555 1_555
In3 O11 1_555 1_555
In4 N5 1_555 1_555
O11 C143 1_555 1_555
N5 C87 1_555 1_555
O12 C144 1_555 1_555
O13 C142 1_555 1_555
C73 N6 1_555 1_555
O14 C82 1_555 1_555
O15 In3 1_555 1_555
C74 N8 1_555 1_555
O16 C144 1_555 1_555
C75 C76 1_555 1_555
C76 H41 1_555 1_555
C77 C76 1_555 1_555
H42 C77 1_555 1_555
C78 C77 1_555 1_555
C79 C78 1_555 1_555
H43 C79 1_555 1_555
C80 C75 1_555 1_555
H44 C80 1_555 1_555
N6 In4 1_555 1_555
C81 N6 1_555 1_555
N7 In4 1_555 1_555
N8 In4 1_555 1_555
O17 C82 1_555 1_555
O18 C142 1_555 1_555
C82 C104 1_555 1_555
C83 C75 1_555 1_555
C84 N7 1_555 1_555
C85 H45 1_555 1_555
C86 C84 1_555 1_555
H46 C86 1_555 1_555
C87 C83 1_555 1_555
C88 N7 1_555 1_555
C89 H47 1_555 1_555
C90 C89 1_555 1_555
H48 C90 1_555 1_555
C91 C90 1_555 1_555
C92 C91 1_555 1_555
H49 C92 1_555 1_555
C93 C92 1_555 1_555
H50 C93 1_555 1_555
C94 C89 1_555 1_555
C95 H51 1_555 1_555
C96 C73 1_555 1_555
C97 N5 1_555 1_555
C98 C73 1_555 1_555
H52 C98 1_555 1_555
C99 C81 1_555 1_555
H53 C99 1_555 1_555
C100 H54 1_555 1_555
C101 C100 1_555 1_555
C102 C101 1_555 1_555
H55 C102 1_555 1_555
C103 C102 1_555 1_555
H56 C103 1_555 1_555
C104 C103 1_555 1_555
C105 C100 1_555 1_555
H57 C105 1_555 1_555
C106 C78 1_555 1_555
C107 C106 1_555 1_555
H58 C107 1_555 1_555
C108 C107 1_555 1_555
H59 C108 1_555 1_555
C109 C108 1_555 1_555
C110 C109 1_555 1_555
H60 C110 1_555 1_555
C111 C106 1_555 1_555
H61 C111 1_555 1_555
C112 N8 1_555 1_555
C113 C74 1_555 1_555
C114 C91 1_555 1_555
C115 C114 1_555 1_555
H62 C115 1_555 1_555
C116 C115 1_555 1_555
H63 C116 1_555 1_555
C117 C96 1_555 1_555
C118 C117 1_555 1_555
H64 C118 1_555 1_555
C119 C114 1_555 1_555
H65 C119 1_555 1_555
C120 H66 1_555 1_555
C121 C120 1_555 1_555
H67 C121 1_555 1_555
C122 C113 1_555 1_555
C123 C122 1_555 1_555
H68 C123 1_555 1_555
C124 C123 1_555 1_555
H69 C124 1_555 1_555
C125 C120 1_555 1_555
C126 C87 1_555 1_555
H70 C126 1_555 1_555
C127 C97 1_555 1_555
C128 C112 1_555 1_555
H71 C128 1_555 1_555
C129 C125 1_555 1_555
C130 C129 1_555 1_555
H72 C130 1_555 1_555
C131 C130 1_555 1_555
H73 C131 1_555 1_555
C132 C131 1_555 1_555
C133 C132 1_555 1_555
H74 C133 1_555 1_555
C134 C129 1_555 1_555
H75 C134 1_555 1_555
C135 C127 1_555 1_555
C136 C135 1_555 1_555
H76 C136 1_555 1_555
C137 C136 1_555 1_555
H77 C137 1_555 1_555
C138 C101 1_555 1_555
C139 C138 1_555 1_555
H78 C139 1_555 1_555
C140 C135 1_555 1_555
H79 C140 1_555 1_555
C141 C74 1_555 1_555
H80 C141 1_555 1_555
O19 In4 1_555 1_555
O20 In4 1_555 1_555
C142 C132 1_555 1_555
C143 O15 1_555 1_555
C144 C109 1_555 1_555
In5 N9 1_555 1_555
In6 O24 1_555 1_555
O21 C152 1_555 1_555
O22 C202 1_555 1_555
O23 C204 1_555 1_555
N9 C153 1_555 1_555
O24 C164 1_555 1_555
N10 In5 1_555 1_555
O25 In6 1_555 1_555
N11 In5 1_555 1_555
O26 C152 1_555 1_555
C145 N12 1_555 1_555
C146 C147 1_555 1_555
C147 H81 1_555 1_555
C148 C147 1_555 1_555
H82 C148 1_555 1_555
C149 C148 1_555 1_555
C150 C149 1_555 1_555
H83 C150 1_555 1_555
C151 C146 1_555 1_555
H84 C151 1_555 1_555
N12 In5 1_555 1_555
C152 C161 1_555 1_555
C153 C188 1_555 1_555
C154 H85 1_555 1_555
C155 N9 1_555 1_555
C156 N12 1_555 1_555
C157 H86 1_555 1_555
C158 C159 1_555 1_555
C159 H87 1_555 1_555
C160 C159 1_555 1_555
H88 C160 1_555 1_555
C161 C160 1_555 1_555
C162 C161 1_555 1_555
H89 C162 1_555 1_555
C163 C158 1_555 1_555
H90 C163 1_555 1_555
C164 O25 1_555 1_555
C165 C149 1_555 1_555
C166 C165 1_555 1_555
H91 C166 1_555 1_555
C167 C166 1_555 1_555
H92 C167 1_555 1_555
C168 C167 1_555 1_555
C169 C168 1_555 1_555
H93 C169 1_555 1_555
C170 C165 1_555 1_555
H94 C170 1_555 1_555
C171 C164 1_555 1_555
C172 C171 1_555 1_555
H95 C172 1_555 1_555
C173 C172 1_555 1_555
H96 C173 1_555 1_555
C174 C173 1_555 1_555
C175 C174 1_555 1_555
H97 C175 1_555 1_555
C176 C171 1_555 1_555
H98 C176 1_555 1_555
C177 C174 1_555 1_555
C178 C177 1_555 1_555
H99 C178 1_555 1_555
C179 C178 1_555 1_555
H100 C179 1_555 1_555
C180 C179 1_555 1_555
C181 C180 1_555 1_555
H101 C181 1_555 1_555
C182 C177 1_555 1_555
H102 C182 1_555 1_555
C183 N10 1_555 1_555
C184 N11 1_555 1_555
C185 C155 1_555 1_555
H103 C185 1_555 1_555
C186 C154 1_555 1_555
H104 C186 1_555 1_555
C187 C156 1_555 1_555
C188 C185 1_555 1_555
H105 C188 1_555 1_555
C189 C153 1_555 1_555
C190 N10 1_555 1_555
C191 N11 1_555 1_555
C192 C155 1_555 1_555
C193 C145 1_555 1_555
H106 C193 1_555 1_555
C194 C195 1_555 1_555
C195 H107 1_555 1_555
C196 C195 1_555 1_555
H108 C196 1_555 1_555
C197 C196 1_555 1_555
C198 C197 1_555 1_555
H109 C198 1_555 1_555
C199 C194 1_555 1_555
H110 C199 1_555 1_555
C200 C156 1_555 1_555
H111 C200 1_555 1_555
C201 C145 1_555 1_555
O27 C202 1_555 1_555
C202 C146 1_555 1_555
C203 C157 1_555 1_555
H112 C203 1_555 1_555
O28 In5 1_555 1_555
O29 In5 1_555 1_555
O30 C204 1_555 1_555
C204 C197 1_555 1_555
C205 C201 1_555 1_555
C206 C205 1_555 1_555
H113 C206 1_555 1_555
C207 C206 1_555 1_555
H114 C207 1_555 1_555
C208 C194 1_555 1_555
C209 C208 1_555 1_555
H115 C209 1_555 1_555
C210 C205 1_555 1_555
H116 C210 1_555 1_555
C211 C189 1_555 1_555
C212 C211 1_555 1_555
H117 C212 1_555 1_555
C213 C212 1_555 1_555
H118 C213 1_555 1_555
C214 C158 1_555 1_555
C215 C214 1_555 1_555
H119 C215 1_555 1_555
C216 C211 1_555 1_555
H120 C216 1_555 1_555
In7 O32 1_555 1_555
In8 N13 1_555 1_555
C217 C219 1_555 1_555
C218 N14 1_555 1_555
N13 C219 1_555 1_555
O31 C225 1_555 1_555
C219 C244 1_555 1_555
N14 In8 1_555 1_555
O32 C220 1_555 1_555
N15 In8 1_555 1_555
C220 O33 1_555 1_555
O33 In7 1_555 1_555
C221 C217 1_555 1_555
C222 N13 1_555 1_555
C223 H121 1_555 1_555
C224 C223 1_555 1_555
H122 C224 1_555 1_555
C225 O34 1_555 1_555
C226 C221 1_555 1_555
H123 C226 1_555 1_555
C227 C228 1_555 1_555
C228 H124 1_555 1_555
C229 C228 1_555 1_555
H125 C229 1_555 1_555
C230 C220 1_555 1_555
C231 C230 1_555 1_555
H126 C231 1_555 1_555
C232 C227 1_555 1_555
H127 C232 1_555 1_555
C233 N15 1_555 1_555
C234 C218 1_555 1_555
C235 N14 1_555 1_555
C236 C237 1_555 1_555
C237 H128 1_555 1_555
C238 C237 1_555 1_555
H129 C238 1_555 1_555
C239 C238 1_555 1_555
C240 C239 1_555 1_555
H130 C240 1_555 1_555
C241 C236 1_555 1_555
H131 C241 1_555 1_555
C242 C222 1_555 1_555
H132 C242 1_555 1_555
O34 In7B 1_555 1_555
C243 C224 1_555 1_555
N16 In8 1_555 1_555
C244 C242 1_555 1_555
H133 C244 1_555 1_555
C245 C235 1_555 1_555
H134 C245 1_555 1_555
C246 C222 1_555 1_555
C247 H135 1_555 1_555
C248 C227 1_555 1_555
C249 C248 1_555 1_555
H136 C249 1_555 1_555
C250 C249 1_555 1_555
H137 C250 1_555 1_555
C251 C217 1_555 1_555
C252 C247 1_555 1_555
H138 C252 1_555 1_555
C253 C218 1_555 1_555
H139 C253 1_555 1_555
C254 C233 1_555 1_555
C255 C234 1_555 1_555
C256 C255 1_555 1_555
H140 C256 1_555 1_555
C257 C256 1_555 1_555
H141 C257 1_555 1_555
C258 C257 1_555 1_555
C259 C258 1_555 1_555
H142 C259 1_555 1_555
C260 C255 1_555 1_555
H143 C260 1_555 1_555
C261 H144 1_555 1_555
C262 C261 1_555 1_555
H145 C262 1_555 1_555
C263 C239 1_555 1_555
C264 C263 1_555 1_555
H146 C264 1_555 1_555
C265 C264 1_555 1_555
H147 C265 1_555 1_555
C266 C225 1_555 1_555
C267 C223 1_555 1_555
O35 In8 1_555 1_555
C268 C269 1_555 1_555
C269 H148 1_555 1_555
C270 C269 1_555 1_555
H149 C270 1_555 1_555
C271 C254 1_555 1_555
C272 C271 1_555 1_555
H150 C272 1_555 1_555
C273 C268 1_555 1_555
H151 C273 1_555 1_555
C274 C258 1_555 1_555
C275 C274 1_555 1_555
H152 C275 1_555 1_555
C276 C275 1_555 1_555
H153 C276 1_555 1_555
C277 C276 1_555 1_555
C278 C277 1_555 1_555
H154 C278 1_555 1_555
C279 C274 1_555 1_555
H155 C279 1_555 1_555
O36 C280 1_555 1_555
C280 O38 1_555 1_555
O37 C281 1_555 1_555
O38 In7A 1_555 1_555
O39 C281 1_555 1_555
C281 C277 1_555 1_555
C282 H156 1_555 1_555
C283 C280 1_555 1_555
C284 C283 1_555 1_555
H157 C284 1_555 1_555
C285 C284 1_555 1_555
H158 C285 1_555 1_555
C286 C268 1_555 1_555
C287 C282 1_555 1_555
H159 C287 1_555 1_555
C288 C226 1_555 1_555
H160 C288 1_555 1_555
O40 In8 1_555 1_555
In1A O2 1_555 1_555
In1B O4 1_555 1_555
In1C O1 1_555 1_555
O1C In1 1_555 1_555
O2A In1 1_555 1_555
O4B In1 1_555 1_555
O5A In1 1_555 1_555
O7B In1 1_555 1_555
O8C In1 1_555 1_555
In3A O13 1_555 1_555
In3B O12 1_555 1_555
In3C O14 1_555 1_555
O12B In3 1_555 1_555
O13A In3 1_555 1_555
O14C In3 1_555 1_555
O16B In3 1_555 1_555
O17C In3 1_555 1_555
O18A In3 1_555 1_555
In6A O22 1_555 1_555
In6B O21 1_555 1_555
In6C O23 1_555 1_555
O21B In6 1_555 1_555
O22A In6 1_555 1_555
O23C In6 1_555 1_555
O26B In6 1_555 1_555
O27A In6 1_555 1_555
O30C In6 1_555 1_555
In7A O36 1_555 1_555
In7B O31 1_555 1_555
In7C O37 1_555 1_555
O31B In7 1_555 1_555
O34B In7 1_555 1_555
O36A In7 1_555 1_555
O37C In7 1_555 1_555
O38A In7 1_555 1_555
O39C In7 1_555 1_555
C2 N4 1_555 1_555
C7 C14 1_555 1_555
C12 C13 1_555 1_555
C19 C20 1_555 1_555
C25 C26 1_555 1_555
O6 C29 1_555 1_555
C27 C30 1_555 1_555
C27 C49 1_555 1_555
C33 C51 1_555 1_555
C34 C40 1_555 1_555
C38 C39 1_555 1_555
C40 C49 1_555 1_555
C41 C48 1_555 1_555
C41 C58 1_555 1_555
C44 C45 1_555 1_555
C46 C47 1_555 1_555
C50 C71 1_555 1_555
C55 C58 1_555 1_555
C56 C57 1_555 1_555
C59 C60 1_555 1_555
C62 C63 1_555 1_555
C63 C64 1_555 1_555
C65 C66 1_555 1_555
C68 C69 1_555 1_555
C69 C70 1_555 1_555
O8 In1C 1_555 1_555
O16 In3B 1_555 1_555
C79 C80 1_555 1_555
C81 C83 1_555 1_555
O17 In3C 1_555 1_555
O18 In3A 1_555 1_555
C84 C96 1_555 1_555
C85 C86 1_555 1_555
C85 C88 1_555 1_555
C88 C113 1_555 1_555
C93 C94 1_555 1_555
C94 C143 1_555 1_555
C95 C97 1_555 1_555
C95 C126 1_555 1_555
C98 C99 1_555 1_555
C104 C105 1_555 1_555
C110 C111 1_555 1_555
C112 C127 1_555 1_555
C116 C117 1_555 1_555
C118 C119 1_555 1_555
C121 C122 1_555 1_555
C124 C125 1_555 1_555
C128 C141 1_555 1_555
C133 C134 1_555 1_555
C137 C138 1_555 1_555
C139 C140 1_555 1_555
O26 In6B 1_555 1_555
C150 C151 1_555 1_555
C154 C183 1_555 1_555
C157 C184 1_555 1_555
C162 C163 1_555 1_555
C168 C187 1_555 1_555
C169 C170 1_555 1_555
C175 C176 1_555 1_555
C180 C192 1_555 1_555
C181 C182 1_555 1_555
C183 C187 1_555 1_555
C184 C201 1_555 1_555
C186 C190 1_555 1_555
C189 C191 1_555 1_555
C190 C192 1_555 1_555
C191 C203 1_555 1_555
C193 C200 1_555 1_555
C198 C199 1_555 1_555
O27 In6A 1_555 1_555
O30 In6C 1_555 1_555
C207 C208 1_555 1_555
C209 C210 1_555 1_555
C213 C214 1_555 1_555
C215 C216 1_555 1_555
N15 C221 1_555 1_555
C229 C230 1_555 1_555
C231 C232 1_555 1_555
C233 C288 1_555 1_555
C234 C267 1_555 1_555
C235 C254 1_555 1_555
C236 C246 1_555 1_555
C240 C241 1_555 1_555
C243 N16 1_555 1_555
C243 C246 1_555 1_555
N16 C267 1_555 1_555
C245 C253 1_555 1_555
C247 C248 1_555 1_555
C250 C251 1_555 1_555
C251 C252 1_555 1_555
C259 C260 1_555 1_555
C261 C266 1_555 1_555
C262 C263 1_555 1_555
C265 C266 1_555 1_555
C270 C271 1_555 1_555
C272 C273 1_555 1_555
C278 C279 1_555 1_555
O39 In7C 1_555 1_555
C282 C283 1_555 1_555
C285 C286 1_555 1_555
C286 C287 1_555 1_555

#END
