
#######################################################################
#
#                 Cambridge Crystallographic Data Centre
#                                CCDC 
#
#######################################################################
#
# If this CIF has been generated from an entry in the Cambridge 
# Structural Database, then it will include bibliographic, chemical, 
# crystal, experimental, refinement or atomic coordinate data resulting 
# from the CCDC's data processing and validation procedures.
#
#######################################################################

data_IJASES
_chemical_formula_moiety         '(C30 H30 N2 O16 Tm2)n'
_chemical_name_systematic        
catena-((\m~4~-1,4-Benzenedicarboxylato)-bis(\m~2~-1,4-benzenedicarboxylato)-diaqua-bis(dimethylformamide)-di-thulium)
_symmetry_cell_setting           triclinic
_symmetry_space_group_name_H-M   'P -1'
_symmetry_Int_Tables_number      2
_space_group_name_Hall           '-P 1'
loop_
_symmetry_equiv_pos_site_id
_symmetry_equiv_pos_as_xyz
1 x,y,z
2 -x,-y,-z
_cell_length_a                   8.6514(9)
_cell_length_b                   10.1531(11)
_cell_length_c                   11.1703(12)
_cell_angle_alpha                65.4370(10)
_cell_angle_beta                 71.666(2)
_cell_angle_gamma                78.421(2)
_cell_volume                     844.306
_exptl_crystal_colour            colorless
_exptl_crystal_description       block
_cell_formula_units_Z            1
loop_
_atom_site_label
_atom_site_type_symbol
_atom_site_fract_x
_atom_site_fract_y
_atom_site_fract_z
Tm1 Tm 0.86787(2) 0.55972(2) 0.34724(2)
O1 O 0.6017(4) 0.7011(4) 0.3040(3)
O2 O 0.8212(4) 0.7345(4) 0.1312(3)
O3 O 1.1568(4) 0.6187(3) 0.2364(3)
O4 O 1.0647(4) 0.4761(4) 0.1750(3)
O5 O 1.0379(4) 0.3657(3) 0.4813(3)
O6 O 1.1316(5) 0.2005(4) 0.6502(4)
O7 O 0.7330(5) 0.3952(4) 0.3195(4)
O8 O 0.6807(4) 0.4551(5) 0.5699(4)
H1 H 0.5847 0.4274 0.5994
H2 H 0.7433 0.3797 0.5992
C1 C 0.6734(6) 0.7684(5) 0.1796(5)
C2 C 0.5817(6) 0.8880(5) 0.0894(5)
C3 C 0.4207(6) 0.9327(6) 0.1360(5)
H3 H 0.3653 0.8875 0.2292
C4 C 0.6610(6) 0.9570(6) -0.0482(5)
H4 H 0.7720 0.9279 -0.0818
C5 C 1.1797(5) 0.5384(5) 0.1688(4)
C6 C 1.3460(5) 0.5172(5) 0.0826(5)
C7 C 1.4739(6) 0.5872(6) 0.0737(5)
H5 H 1.4557 0.6469 0.1244
C8 C 1.3720(6) 0.4294(6) 0.0087(5)
H6 H 1.2847 0.3812 0.0148
C9 C 1.0698(6) 0.2332(5) 0.5527(5)
C10 C 1.0333(5) 0.1144(5) 0.5241(5)
C11 C 1.0448(6) 0.1308(5) 0.3920(5)
H7 H 1.0750 0.2196 0.3181
C12 C 0.9883(6) -0.0162(5) 0.6319(5)
H8 H 0.9801 -0.0273 0.7223
C13 C 0.7624(8) 0.3284(6) 0.2439(7)
H9 H 0.8576 0.3490 0.1682
N1 N 0.6476(17) 0.2308(11) 0.2794(15)
C14 C 0.498(2) 0.2141(18) 0.3856(18)
H10 H 0.5212 0.1526 0.4737
H11 H 0.4216 0.1687 0.3688
H12 H 0.4500 0.3097 0.3868
C15 C 0.681(2) 0.1410(15) 0.1998(18)
H13 H 0.7926 0.1508 0.1415
H14 H 0.6037 0.1725 0.1429
H15 H 0.6678 0.0393 0.2614
Tm1A Tm 0.13213(2) 1.44028(2) -0.34724(2)
Tm1A_2 Tm 1.13213(2) 0.44028(2) 0.65276(2)
Tm1A_3 Tm 2.13213(2) 0.44028(2) -0.34724(2)
Tm1A_4 Tm 1.13213(2) -0.55972(2) 0.65276(2)
Tm1_2 Tm 0.86787(2) -0.44028(2) 0.34724(2)
O1A O 0.3983(4) 1.2989(4) -0.3040(3)
O2A O 0.1788(4) 1.2655(4) -0.1312(3)
O3A O 1.8432(4) 0.3813(3) -0.2364(3)
O3A_2 O -0.1568(4) 1.3813(3) -0.2364(3)
O4A O 1.9353(4) 0.5239(4) -0.1750(3)
O4A_2 O -0.0647(4) 1.5239(4) -0.1750(3)
O5A O 0.9621(4) -0.3657(3) 0.5187(3)
O5A_2 O 0.9621(4) 0.6343(3) 0.5187(3)
O5A_3 O -0.0379(4) 1.6343(3) -0.4813(3)
O5_2 O 0.0379(4) 1.3657(3) -0.5187(3)
O6A O 0.8684(5) -0.2005(4) 0.3498(4)
O6A_2 O 0.8684(5) 0.7995(4) 0.3498(4)
O6_2 O 0.1316(5) 1.2005(4) -0.3498(4)
O7A O 0.2670(5) 1.6048(4) -0.3195(4)
O8A O 0.3193(4) 1.5449(5) -0.5699(4)
H1A H 0.4153 1.5726 -0.5994
H2A H 0.2567 1.6203 -0.5992
C1A C 0.3266(6) 1.2316(5) -0.1796(5)
C2A C 0.4183(6) 1.1120(5) -0.0894(5)
C3A C 0.5793(6) 1.0673(6) -0.1360(5)
H3A H 0.6347 1.1125 -0.2292
C4A C 0.3390(6) 1.0430(6) 0.0482(5)
H4A H 0.2280 1.0721 0.0818
C5A C 1.8203(5) 0.4616(5) -0.1688(4)
C6A C 1.6540(5) 0.4828(5) -0.0826(5)
C7A C 1.5261(6) 0.4128(6) -0.0737(5)
H5A H 1.5443 0.3531 -0.1244
C8A C 1.6280(6) 0.5706(6) -0.0087(5)
H6A H 1.7153 0.6188 -0.0148
C9A C 0.9302(6) -0.2332(5) 0.4473(5)
C10A C 0.9667(5) -0.1144(5) 0.4759(5)
C11A C 0.9552(6) -0.1308(5) 0.6080(5)
H7A H 0.9250 -0.2196 0.6819
C12A C 1.0117(6) 0.0162(5) 0.3681(5)
H8A H 1.0199 0.0273 0.2777
C13A C 0.2376(8) 1.6716(6) -0.2439(7)
H9A H 0.1424 1.6510 -0.1682
N1A N 0.3524(17) 1.7692(11) -0.2794(15)
C14A C 0.502(2) 1.7859(18) -0.3856(18)
H10A H 0.4788 1.8474 -0.4737
H11A H 0.5784 1.8313 -0.3688
H12A H 0.5500 1.6903 -0.3868
C15A C 0.319(2) 1.8590(15) -0.1998(18)
H13A H 0.2074 1.8492 -0.1415
H14A H 0.3963 1.8275 -0.1429
H15A H 0.3322 1.9607 -0.2614
C16? C 0.567(3) 0.178(3) 0.348(2)
C17? C 0.757(2) 0.1578(15) 0.1438(17)
H16? H 0.5621 0.2160 0.4167
H17? H 0.5749 0.0717 0.3882
H18? H 0.4674 0.2135 0.3156
H19? H 0.8557 0.1985 0.0749
H20? H 0.6699 0.1728 0.0991
H21? H 0.7795 0.0535 0.1923
N2? N 0.707(2) 0.2266(14) 0.2357(16)
loop_
_geom_bond_atom_site_label_1
_geom_bond_atom_site_label_2
_geom_bond_site_symmetry_1
_geom_bond_site_symmetry_2
Tm1 O1 1_555 1_555
O1 C1 1_555 1_555
O2 Tm1 1_555 1_555
O3 Tm1 1_555 1_555
O4 Tm1 1_555 1_555
O5 Tm1 1_555 1_555
O6 C9 1_555 1_555
O7 Tm1 1_555 1_555
O8 Tm1 1_555 1_555
H1 O8 1_555 1_555
H2 O8 1_555 1_555
C1 O2 1_555 1_555
C2 C1 1_555 1_555
C3 C2 1_555 1_555
H3 C3 1_555 1_555
C4 C2 1_555 1_555
H4 C4 1_555 1_555
C5 O3 1_555 1_555
C6 C5 1_555 1_555
C7 C6 1_555 1_555
H5 C7 1_555 1_555
C8 C6 1_555 1_555
H6 C8 1_555 1_555
C9 O5 1_555 1_555
C10 C9 1_555 1_555
C11 C10 1_555 1_555
H7 C11 1_555 1_555
C12 C10 1_555 1_555
H8 C12 1_555 1_555
C13 O7 1_555 1_555
H9 C13 1_555 1_555
N1 C13 1_555 1_555
C14 N1 1_555 1_555
H10 C14 1_555 1_555
H11 C14 1_555 1_555
H12 C14 1_555 1_555
C15 N1 1_555 1_555
H13 C15 1_555 1_555
H14 C15 1_555 1_555
H15 C15 1_555 1_555
Tm1A O1A 1_555 1_555
Tm1A_2 O5 1_555 1_555
Tm1A_3 O3A 1_555 1_555
Tm1A_4 O5A 1_555 1_555
Tm1_2 O5A 1_555 1_555
O1A C1A 1_555 1_555
O2A Tm1A 1_555 1_555
O3A C5A 1_555 1_555
O3A_2 Tm1A 1_555 1_555
O4A Tm1A_3 1_555 1_555
O4A_2 Tm1A 1_555 1_555
O5A C9A 1_555 1_555
O5A_2 Tm1 1_555 1_555
O5A_3 Tm1A 1_555 1_555
O5_2 Tm1A 1_555 1_555
O6A Tm1_2 1_555 1_555
O6A_2 Tm1 1_555 1_555
O6_2 Tm1A 1_555 1_555
O7A Tm1A 1_555 1_555
O8A Tm1A 1_555 1_555
H1A O8A 1_555 1_555
H2A O8A 1_555 1_555
C1A O2A 1_555 1_555
C2A C1A 1_555 1_555
C3A C4 1_555 1_555
H3A C3A 1_555 1_555
C4A C3 1_555 1_555
H4A C4A 1_555 1_555
C5A O4A 1_555 1_555
C6A C5A 1_555 1_555
C7A C8 1_555 1_555
H5A C7A 1_555 1_555
C8A C7 1_555 1_555
H6A C8A 1_555 1_555
C9A O6A 1_555 1_555
C10A C9A 1_555 1_555
C11A C12 1_555 1_555
H7A C11A 1_555 1_555
C12A C11 1_555 1_555
H8A C12A 1_555 1_555
C13A O7A 1_555 1_555
H9A C13A 1_555 1_555
N1A C13A 1_555 1_555
C14A N1A 1_555 1_555
H10A C14A 1_555 1_555
H11A C14A 1_555 1_555
H12A C14A 1_555 1_555
C15A N1A 1_555 1_555
H13A C15A 1_555 1_555
H14A C15A 1_555 1_555
H15A C15A 1_555 1_555
O4 C5 1_555 1_555
O6 Tm1A_2 1_555 1_555
Tm1A_2 O5A_2 1_555 1_555
C2A C3A 1_555 1_555
C2A C4A 1_555 1_555
C6A C7A 1_555 1_555
C6A C8A 1_555 1_555
C10A C11A 1_555 1_555
C10A C12A 1_555 1_555

#END
