
#######################################################################
#
#                 Cambridge Crystallographic Data Centre
#                                CCDC 
#
#######################################################################
#
# If this CIF has been generated from an entry in the Cambridge 
# Structural Database, then it will include bibliographic, chemical, 
# crystal, experimental, refinement or atomic coordinate data resulting 
# from the CCDC's data processing and validation procedures.
#
#######################################################################

data_NOHQEI
_chemical_name_common            FJI-C1
_chemical_formula_moiety         
'(C192 H96 In6 N24 O48 6-)n,32(C5 H11 N1 O1),6(C8 H20 N1 1+),22(H2 O1)'
_chemical_name_systematic        
"catena-(hexakis(tetraethylammonium) octakis(\m-4,4',4''-(1,3,5-triazine-2,4,6-triyl)tribenzoato)-hexa-indium N,N-diethylformamide solvate docosahydrate)"
_symmetry_cell_setting           rhombohedral
_symmetry_space_group_name_H-M   'R -3'
_symmetry_Int_Tables_number      148
_space_group_name_Hall           '-R 3'
loop_
_symmetry_equiv_pos_site_id
_symmetry_equiv_pos_as_xyz
1 x,y,z
2 -y,x-y,z
3 -x+y,-x,z
4 2/3+x,1/3+y,1/3+z
5 2/3-y,1/3+x-y,1/3+z
6 2/3-x+y,1/3-x,1/3+z
7 1/3+x,2/3+y,2/3+z
8 1/3-y,2/3+x-y,2/3+z
9 1/3-x+y,2/3-x,2/3+z
10 -x,-y,-z
11 y,-x+y,-z
12 x-y,x,-z
13 1/3-x,2/3-y,2/3-z
14 1/3+y,2/3-x+y,2/3-z
15 1/3+x-y,2/3+x,2/3-z
16 2/3-x,1/3-y,1/3-z
17 2/3+y,1/3-x+y,1/3-z
18 2/3+x-y,1/3+x,1/3-z
_cell_length_a                   43.2392(3)
_cell_length_b                   43.2392(3)
_cell_length_c                   41.8921(4)
_cell_angle_alpha                90
_cell_angle_beta                 90
_cell_angle_gamma                120
_cell_volume                     67829.4
_exptl_crystal_colour            'light yellow'
_exptl_crystal_description       block
_cell_formula_units_Z            6
loop_
_atom_site_label
_atom_site_type_symbol
_atom_site_fract_x
_atom_site_fract_y
_atom_site_fract_z
N9 N 0.2905(4) 0.0941(4) 0.8378(3)
C65 C 0.3182(4) 0.0865(4) 0.8290(3)
C66 C 0.3123(4) 0.0494(4) 0.8273(3)
C67 C 0.2624(4) 0.0802(4) 0.8143(4)
C68 C 0.2754(4) 0.0892(4) 0.7804(4)
C69 C 0.2754(4) 0.0771(4) 0.8686(3)
C70 C 0.3009(5) 0.0917(4) 0.8960(3)
C71 C 0.3053(4) 0.1323(4) 0.8413(4)
C72 C 0.3292(4) 0.1408(4) 0.8129(3)
N10 N 0.6773(3) 0.1624(4) 0.6729(5)
C73 C 0.6684(3) 0.1349(4) 0.6838(5)
C74 C 0.6399(3) 0.1004(4) 0.6696(5)
C75 C 0.6925(3) 0.1681(4) 0.6432(5)
C76 C 0.6975(3) 0.1399(5) 0.6400(5)
C77 C 0.6496(3) 0.1705(4) 0.6664(5)
C78 C 0.6266(3) 0.1634(4) 0.6952(4)
C79 C 0.7049(3) 0.1986(4) 0.6982(5)
C80 C 0.7202(3) 0.1836(5) 0.7018(5)
O17 O 0.6685(8) -0.0749(8) 1.0321(5)
N11 N 0.7003(8) -0.0781(8) 0.9894(6)
C81 C 0.6930(8) -0.0824(8) 1.0161(6)
C82 C 0.7241(7) -0.0524(8) 0.9737(6)
C83 C 0.7353(7) -0.0476(8) 0.9453(6)
C84 C 0.6678(8) -0.1069(7) 0.9594(6)
C85 C 0.6790(8) -0.1306(8) 0.9550(6)
O18 O 0.2705(4) -0.0954(4) 0.8484(3)
N12 N 0.2249(4) -0.1489(3) 0.8133(3)
C86 C 0.2646(4) -0.1119(3) 0.8194(3)
C87 C 0.2024(4) -0.1476(4) 0.8003(4)
C88 C 0.1690(4) -0.1692(4) 0.7963(4)
C89 C 0.2243(4) -0.1788(3) 0.8210(3)
C90 C 0.2299(4) -0.1979(3) 0.7966(3)
In1 In 0.62728(4) 0.09353(3) 0.79099(3)
In2 In 0.37506(5) -0.09577(5) 0.46729(4)
O1 O 0.5678(4) 0.0567(4) 0.7889(3)
O2 O 0.5952(4) 0.0837(4) 0.7449(3)
O3 O 0.3489(5) -0.0959(5) 0.5149(3)
O4 O 0.4070(6) -0.0651(6) 0.5092(4)
O5 O 0.6693(4) 0.1129(4) 0.8303(3)
O6 O 0.6145(4) 0.0719(4) 0.8412(3)
O7 O 0.8243(6) 0.2752(7) 1.0807(6)
O8 O 0.8377(6) 0.2422(6) 1.1101(5)
O9 O 0.6228(4) -0.0787(3) 1.1148(3)
O10 O 0.5722(4) -0.0925(4) 1.0911(3)
O11 O 0.6123(4) 0.1343(4) 0.8079(3)
O12 O 0.6581(4) 0.1514(3) 0.7756(3)
N1 N 0.4032(5) -0.0032(6) 0.7149(4)
N2 N 0.4281(5) -0.0112(7) 0.6677(4)
N3 N 0.3675(5) -0.0265(6) 0.6692(4)
N4 N 0.7061(5) 0.1220(5) 0.9946(4)
N5 N 0.6986(5) 0.0901(5) 1.0424(4)
N6 N 0.6616(5) 0.0614(4) 0.9979(4)
N7 N 0.6951(4) 0.3277(4) 0.7926(4)
C1 C 0.5670(7) 0.0631(6) 0.7591(6)
C2 C 0.5317(6) 0.0464(6) 0.7435(5)
C3 C 0.5293(7) 0.0455(7) 0.7109(5)
H1 H 0.5504 0.0563 0.6983
C4 C 0.4961(7) 0.0288(8) 0.6961(6)
H2 H 0.4947 0.0276 0.6734
C5 C 0.4658(6) 0.0145(7) 0.7134(5)
C6 C 0.4673(7) 0.0152(7) 0.7464(5)
H3 H 0.4461 0.0051 0.7588
C7 C 0.5011(7) 0.0313(7) 0.7612(6)
H4 H 0.5027 0.0317 0.7838
C8 C 0.4305(7) -0.0012(8) 0.6978(5)
C9 C 0.3726(7) -0.0152(7) 0.6996(5)
C10 C 0.3958(7) -0.0255(8) 0.6544(5)
O13 O 0.2484(6) -0.0464(6) 0.7968(5)
O14 O 0.2401(6) -0.0112(6) 0.7662(7)
C11 C 0.3434(8) -0.0153(12) 0.7174(9)
C12 C 0.3417(9) -0.0204(9) 0.7498(7)
H5 H 0.3602 -0.0221 0.7604
C13 C 0.3138(9) -0.0231(10) 0.7670(8)
H6 H 0.3123 -0.0282 0.7892
C14 C 0.2901(9) -0.0189(10) 0.7537(8)
C15 C 0.2914(9) -0.0105(9) 0.7210(8)
H7 H 0.2744 -0.0053 0.7118
C16 C 0.3188(9) -0.0101(10) 0.7024(8)
H8 H 0.3199 -0.0063 0.6800
C17 C 0.2565(8) -0.0269(9) 0.7727(8)
C18 C 0.3910(6) -0.0385(8) 0.6219(5)
C19 C 0.3570(7) -0.0589(8) 0.6089(5)
H9 H 0.3365 -0.0647 0.6214
C20 C 0.3530(7) -0.0706(8) 0.5780(5)
H10 H 0.3297 -0.0838 0.5690
C21 C 0.3829(7) -0.0634(9) 0.5597(5)
C22 C 0.4164(8) -0.0435(11) 0.5729(7)
H11 H 0.4369 -0.0380 0.5605
C23 C 0.4205(8) -0.0317(10) 0.6036(6)
H12 H 0.4438 -0.0187 0.6126
C24 C 0.3790(9) -0.0758(9) 0.5259(6)
C25 C 0.6466(6) 0.0922(6) 0.8500(5)
C26 C 0.6320(6) 0.0654(6) 0.9042(5)
H13 H 0.6099 0.0470 0.8961
C27 C 0.6551(5) 0.0918(6) 0.8842(4)
C28 C 0.6399(6) 0.0647(6) 0.9356(5)
H14 H 0.6238 0.0457 0.9490
C29 C 0.6720(6) 0.0921(6) 0.9481(5)
C30 C 0.6952(6) 0.1189(6) 0.9281(5)
H15 H 0.7169 0.1378 0.9363
C31 C 0.6873(6) 0.1185(6) 0.8963(5)
H16 H 0.7040 0.1366 0.8826
C32 C 0.6803(6) 0.0916(6) 0.9819(5)
C33 C 0.7145(6) 0.1200(6) 1.0242(5)
C34 C 0.6544(6) 0.0281(6) 1.0463(5)
C35 C 0.7420(7) 0.1532(7) 1.0401(5)
C36 C 0.7541(7) 0.1858(6) 1.0261(6)
H17 H 0.7460 0.1875 1.0055
C37 C 0.7782(7) 0.2162(7) 1.0422(7)
H18 H 0.7843 0.2389 1.0337
C38 C 0.7935(8) 0.2146(8) 1.0700(7)
C39 C 0.7838(10) 0.1816(9) 1.0827(7)
H19 H 0.7951 0.1801 1.1016
C40 C 0.7576(9) 0.1502(8) 1.0684(7)
H20 H 0.7505 0.1275 1.0775
C41 C 0.8211(10) 0.2458(11) 1.0875(10)
C42 C 0.6723(6) 0.0616(6) 1.0281(5)
C43 C 0.6714(6) 0.0234(6) 1.0724(5)
H21 H 0.6939 0.0423 1.0792
C44 C 0.6553(6) -0.0087(6) 1.0886(5)
H22 H 0.6670 -0.0122 1.1063
C45 C 0.6225(6) -0.0356(5) 1.0790(5)
C46 C 0.6050(6) -0.0312(6) 1.0531(5)
H23 H 0.5821 -0.0499 1.0469
C47 C 0.6214(6) 0.0006(6) 1.0364(5)
H24 H 0.6101 0.0036 1.0182
C48 C 0.6047(6) -0.0707(5) 1.0957(5)
C49 C 0.6376(6) 0.1583(6) 0.7923(5)
C50 C 0.6441(5) 0.1954(5) 0.7933(5)
C51 C 0.6748(5) 0.2232(5) 0.7796(5)
H25 H 0.6917 0.2183 0.7699
C52 C 0.6808(5) 0.2575(5) 0.7799(5)
H26 H 0.7023 0.2764 0.7712
C53 C 0.6555(5) 0.2643(5) 0.7928(5)
C54 C 0.6249(6) 0.2373(6) 0.8063(6)
H27 H 0.6077 0.2424 0.8154
C55 C 0.6190(6) 0.2022(5) 0.8065(5)
H28 H 0.5979 0.1834 0.8158
C56 C 0.6613(5) 0.3011(5) 0.7925(5)
O15 O 0.361(2) -0.156(3) 0.484(3)
O16 O 0.417(2) -0.135(3) 0.492(3)
C57 C 0.386(2) -0.1565(12) 0.4997(6)
C58 C 0.3730(5) -0.1964(6) 0.5071(9)
C59 C 0.3375(5) -0.2230(7) 0.5097(12)
C60 C 0.3289(5) -0.2579(8) 0.5163(18)
C61 C 0.3558(5) -0.2662(8) 0.520(2)
C62 C 0.3914(5) -0.2396(7) 0.5177(19)
C63 C 0.4000(4) -0.2047(6) 0.5110(13)
N8 N 0.3732(6) -0.3121(7) 0.520(3)
C64 C 0.3462(5) -0.3059(8) 0.520(3)
O11A O 0.8657(4) 0.4780(6) 0.8079(3)
O12A O 0.8486(3) 0.5067(5) 0.7756(3)
N7A N 0.6723(4) 0.3674(6) 0.7926(4)
C49A C 0.8417(6) 0.4793(8) 0.7923(5)
C50A C 0.8046(5) 0.4487(7) 0.7933(5)
C51A C 0.7768(5) 0.4516(7) 0.7796(5)
H25A H 0.7817 0.4734 0.7699
C52A C 0.7425(5) 0.4233(7) 0.7799(5)
H26A H 0.7236 0.4259 0.7712
C53A C 0.7357(5) 0.3912(7) 0.7928(5)
C54A C 0.7627(6) 0.3876(8) 0.8063(6)
H27A H 0.7576 0.3653 0.8154
C55A C 0.7978(5) 0.4168(8) 0.8065(5)
H28A H 0.8166 0.4145 0.8158
C56A C 0.6989(5) 0.3602(7) 0.7925(5)
O11B O 0.5220(6) 0.3877(4) 0.8079(3)
O12B O 0.4933(5) 0.3419(4) 0.7756(3)
N7B N 0.6326(6) 0.3049(4) 0.7926(4)
C49B C 0.5207(8) 0.3624(6) 0.7923(5)
C50B C 0.5513(7) 0.3559(5) 0.7933(5)
C51B C 0.5484(7) 0.3252(5) 0.7796(5)
H25B H 0.5266 0.3083 0.7699
C52B C 0.5767(7) 0.3192(5) 0.7799(5)
H26B H 0.5741 0.2977 0.7712
C53B C 0.6088(7) 0.3445(5) 0.7928(5)
C54B C 0.6124(8) 0.3751(6) 0.8063(6)
H27B H 0.6347 0.3923 0.8154
C55B C 0.5832(8) 0.3810(6) 0.8065(5)
H28B H 0.5855 0.4021 0.8158
C56B C 0.6398(7) 0.3387(5) 0.7925(5)
O15A O 0.156(3) -0.483(4) 0.484(3)
O16A O 0.135(3) -0.448(4) 0.492(3)
C57A C 0.1565(12) -0.4575(23) 0.4997(6)
C58A C 0.1964(6) -0.4306(8) 0.5071(9)
C59A C 0.2230(7) -0.4395(9) 0.5097(12)
C60A C 0.2579(8) -0.4132(9) 0.5163(18)
C61A C 0.2662(8) -0.3780(9) 0.520(2)
C62A C 0.2396(7) -0.3690(9) 0.5177(19)
C63A C 0.2047(6) -0.3953(7) 0.5110(13)
N8A N 0.3121(7) -0.3147(9) 0.520(3)
C64A C 0.3059(8) -0.3479(9) 0.520(3)
O15B O 0.483(4) -0.361(2) 0.484(3)
O16B O 0.448(4) -0.417(2) 0.492(3)
C57B C 0.4575(23) -0.386(2) 0.4997(6)
C58B C 0.4306(8) -0.3730(5) 0.5071(9)
C59B C 0.4395(9) -0.3375(5) 0.5097(12)
C60B C 0.4132(9) -0.3289(5) 0.5163(18)
C61B C 0.3780(9) -0.3558(5) 0.520(2)
C62B C 0.3690(9) -0.3914(5) 0.5177(19)
C63B C 0.3953(7) -0.4000(4) 0.5110(13)
N8B N 0.3147(9) -0.3732(6) 0.520(3)
C64B C 0.3479(9) -0.3462(5) 0.520(3)
In1A In -0.09353(3) -0.46625(5) 0.79099(3)
In2A In 0.09577(5) -0.52917(7) 0.46729(4)
O1A O -0.0567(4) -0.4889(6) 0.7889(3)
O2A O -0.0837(4) -0.4885(6) 0.7449(3)
O3A O 0.0959(5) -0.5552(7) 0.5149(3)
O4A O 0.0651(6) -0.5279(8) 0.5092(4)
O5A O -0.1129(4) -0.4436(6) 0.8303(3)
O6A O -0.0719(4) -0.4574(6) 0.8412(3)
O7A O -0.2752(7) -0.4509(9) 1.0807(6)
O8A O -0.2422(6) -0.4045(8) 1.1101(5)
O9A O 0.0787(3) -0.2985(5) 1.1148(3)
O10A O 0.0925(4) -0.3353(6) 1.0911(3)
N1A N 0.0032(6) -0.5936(8) 0.7149(4)
N2A N 0.0112(7) -0.5607(9) 0.6677(4)
N3A N 0.0265(6) -0.6060(8) 0.6692(4)
N4A N -0.1220(5) -0.4159(7) 0.9946(4)
N5A N -0.0901(5) -0.3915(7) 1.0424(4)
N6A N -0.0614(4) -0.3998(6) 0.9979(4)
C1A C -0.0631(6) -0.4961(9) 0.7591(6)
C2A C -0.0464(6) -0.5147(8) 0.7435(5)
C3A C -0.0455(7) -0.5162(10) 0.7109(5)
H1A H -0.0563 -0.5059 0.6983
C4A C -0.0288(8) -0.5327(11) 0.6961(6)
H2A H -0.0276 -0.5329 0.6734
C5A C -0.0145(7) -0.5487(9) 0.7134(5)
C6A C -0.0152(7) -0.5479(10) 0.7464(5)
H3A H -0.0051 -0.5590 0.7588
C7A C -0.0313(7) -0.5302(10) 0.7612(6)
H4A H -0.0317 -0.5290 0.7838
C8A C 0.0012(8) -0.5683(11) 0.6978(5)
C9A C 0.0152(7) -0.6122(10) 0.6996(5)
C10A C 0.0255(8) -0.5787(11) 0.6544(5)
O13A O 0.0464(6) -0.7052(8) 0.7968(5)
O14A O 0.0112(6) -0.7487(8) 0.7662(7)
C11A C 0.0153(12) -0.6413(14) 0.7174(9)
C12A C 0.0204(9) -0.6379(13) 0.7498(7)
H5A H 0.0221 -0.6177 0.7604
C13A C 0.0231(10) -0.6631(13) 0.7670(8)
H6A H 0.0282 -0.6595 0.7892
C14A C 0.0189(10) -0.6910(13) 0.7537(8)
C15A C 0.0105(9) -0.6981(13) 0.7210(8)
H7A H 0.0053 -0.7203 0.7118
C16A C 0.0101(10) -0.6711(13) 0.7024(8)
H8A H 0.0063 -0.6738 0.6800
C17A C 0.0269(9) -0.7166(12) 0.7727(8)
C18A C 0.0385(8) -0.5705(10) 0.6219(5)
C19A C 0.0589(8) -0.5841(11) 0.6089(5)
H9A H 0.0647 -0.5988 0.6214
C20A C 0.0706(8) -0.5764(11) 0.5780(5)
H10A H 0.0838 -0.5865 0.5690
C21A C 0.0634(9) -0.5537(11) 0.5597(5)
C22A C 0.0435(11) -0.5401(14) 0.5729(7)
H11A H 0.0380 -0.5251 0.5605
C23A C 0.0317(10) -0.5478(13) 0.6036(6)
H12A H 0.0187 -0.5375 0.6126
C24A C 0.0758(9) -0.5452(13) 0.5259(6)
C25A C -0.0922(6) -0.4456(8) 0.8500(5)
C26A C -0.0654(6) -0.4334(8) 0.9042(5)
H13A H -0.0470 -0.4371 0.8961
C27A C -0.0918(6) -0.4367(8) 0.8842(4)
C28A C -0.0647(6) -0.4248(8) 0.9356(5)
H14A H -0.0457 -0.4219 0.9490
C29A C -0.0921(6) -0.4201(8) 0.9481(5)
C30A C -0.1189(6) -0.4237(8) 0.9281(5)
H15A H -0.1378 -0.4209 0.9363
C31A C -0.1185(6) -0.4312(8) 0.8963(5)
H16A H -0.1366 -0.4326 0.8826
C32A C -0.0916(6) -0.4113(8) 0.9819(5)
C33A C -0.1200(6) -0.4055(8) 1.0242(5)
C34A C -0.0281(6) -0.3737(8) 1.0463(5)
C35A C -0.1532(7) -0.4112(10) 1.0401(5)
C36A C -0.1858(6) -0.4317(9) 1.0261(6)
H17A H -0.1875 -0.4415 1.0055
C37A C -0.2162(7) -0.4380(10) 1.0422(7)
H18A H -0.2389 -0.4546 1.0337
C38A C -0.2146(8) -0.4211(11) 1.0700(7)
C39A C -0.1816(9) -0.3978(13) 1.0827(7)
H19A H -0.1801 -0.3850 1.1016
C40A C -0.1502(8) -0.3926(12) 1.0684(7)
H20A H -0.1275 -0.3770 1.0775
C41A C -0.2458(11) -0.4247(15) 1.0875(10)
C42A C -0.0616(6) -0.3893(8) 1.0281(5)
C43A C -0.0234(6) -0.3520(8) 1.0724(5)
H21A H -0.0423 -0.3484 1.0792
C44A C 0.0087(6) -0.3360(8) 1.0886(5)
H22A H 0.0122 -0.3208 1.1063
C45A C 0.0356(5) -0.3419(8) 1.0790(5)
C46A C 0.0312(6) -0.3638(8) 1.0531(5)
H23A H 0.0499 -0.3680 1.0469
C47A C -0.0006(6) -0.3792(8) 1.0364(5)
H24A H -0.0036 -0.3935 1.0182
C48A C 0.0707(5) -0.3246(8) 1.0957(5)
In1B In 0.46625(5) -0.62728(4) 0.79099(3)
In2B In 0.52917(7) -0.37506(5) 0.46729(4)
O1B O 0.4889(6) -0.5678(4) 0.7889(3)
O2B O 0.4885(6) -0.5952(4) 0.7449(3)
O3B O 0.5552(7) -0.3489(5) 0.5149(3)
O4B O 0.5279(8) -0.4070(6) 0.5092(4)
O5B O 0.4436(6) -0.6693(4) 0.8303(3)
O6B O 0.4574(6) -0.6145(4) 0.8412(3)
O7B O 0.4509(9) -0.8243(6) 1.0807(6)
O8B O 0.4045(8) -0.8377(6) 1.1101(5)
O9B O 0.2985(5) -0.6228(4) 1.1148(3)
O10B O 0.3353(6) -0.5722(4) 1.0911(3)
N1B N 0.5936(8) -0.4032(5) 0.7149(4)
N2B N 0.5607(9) -0.4281(5) 0.6677(4)
N3B N 0.6060(8) -0.3675(5) 0.6692(4)
N4B N 0.4159(7) -0.7061(5) 0.9946(4)
N5B N 0.3915(7) -0.6986(5) 1.0424(4)
N6B N 0.3998(6) -0.6616(5) 0.9979(4)
C1B C 0.4961(9) -0.5670(7) 0.7591(6)
C2B C 0.5147(8) -0.5317(6) 0.7435(5)
C3B C 0.5162(10) -0.5293(7) 0.7109(5)
H1B H 0.5059 -0.5504 0.6983
C4B C 0.5327(11) -0.4961(7) 0.6961(6)
H2B H 0.5329 -0.4947 0.6734
C5B C 0.5487(9) -0.4658(6) 0.7134(5)
C6B C 0.5479(10) -0.4673(7) 0.7464(5)
H3B H 0.5590 -0.4461 0.7588
C7B C 0.5302(10) -0.5011(7) 0.7612(6)
H4B H 0.5290 -0.5027 0.7838
C8B C 0.5683(11) -0.4305(7) 0.6978(5)
C9B C 0.6122(10) -0.3726(7) 0.6996(5)
C10B C 0.5787(11) -0.3958(7) 0.6544(5)
O13B O 0.7052(8) -0.2484(6) 0.7968(5)
O14B O 0.7487(8) -0.2401(6) 0.7662(7)
C11B C 0.6413(14) -0.3434(8) 0.7174(9)
C12B C 0.6379(13) -0.3417(9) 0.7498(7)
H5B H 0.6177 -0.3602 0.7604
C13B C 0.6631(13) -0.3138(9) 0.7670(8)
H6B H 0.6595 -0.3123 0.7892
C14B C 0.6910(13) -0.2901(9) 0.7537(8)
C15B C 0.6981(13) -0.2914(9) 0.7210(8)
H7B H 0.7203 -0.2744 0.7118
C16B C 0.6711(13) -0.3188(9) 0.7024(8)
H8B H 0.6738 -0.3199 0.6800
C17B C 0.7166(12) -0.2565(8) 0.7727(8)
C18B C 0.5705(10) -0.3910(6) 0.6219(5)
C19B C 0.5841(11) -0.3570(7) 0.6089(5)
H9B H 0.5988 -0.3365 0.6214
C20B C 0.5764(11) -0.3530(7) 0.5780(5)
H10B H 0.5865 -0.3297 0.5690
C21B C 0.5537(11) -0.3829(7) 0.5597(5)
C22B C 0.5401(14) -0.4164(8) 0.5729(7)
H11B H 0.5251 -0.4369 0.5605
C23B C 0.5478(13) -0.4205(8) 0.6036(6)
H12B H 0.5375 -0.4438 0.6126
C24B C 0.5452(13) -0.3790(9) 0.5259(6)
C25B C 0.4456(8) -0.6466(6) 0.8500(5)
C26B C 0.4334(8) -0.6320(6) 0.9042(5)
H13B H 0.4371 -0.6099 0.8961
C27B C 0.4367(8) -0.6551(5) 0.8842(4)
C28B C 0.4248(8) -0.6399(6) 0.9356(5)
H14B H 0.4219 -0.6238 0.9490
C29B C 0.4201(8) -0.6720(6) 0.9481(5)
C30B C 0.4237(8) -0.6952(6) 0.9281(5)
H15B H 0.4209 -0.7169 0.9363
C31B C 0.4312(8) -0.6873(6) 0.8963(5)
H16B H 0.4326 -0.7040 0.8826
C32B C 0.4113(8) -0.6803(6) 0.9819(5)
C33B C 0.4055(8) -0.7145(6) 1.0242(5)
C34B C 0.3737(8) -0.6544(6) 1.0463(5)
C35B C 0.4112(10) -0.7420(7) 1.0401(5)
C36B C 0.4317(9) -0.7541(7) 1.0261(6)
H17B H 0.4415 -0.7460 1.0055
C37B C 0.4380(10) -0.7782(7) 1.0422(7)
H18B H 0.4546 -0.7843 1.0337
C38B C 0.4211(11) -0.7935(8) 1.0700(7)
C39B C 0.3978(13) -0.7838(10) 1.0827(7)
H19B H 0.3850 -0.7951 1.1016
C40B C 0.3926(12) -0.7576(9) 1.0684(7)
H20B H 0.3770 -0.7505 1.0775
C41B C 0.4247(15) -0.8211(10) 1.0875(10)
C42B C 0.3893(8) -0.6723(6) 1.0281(5)
C43B C 0.3520(8) -0.6714(6) 1.0724(5)
H21B H 0.3484 -0.6939 1.0792
C44B C 0.3360(8) -0.6553(6) 1.0886(5)
H22B H 0.3208 -0.6670 1.1063
C45B C 0.3419(8) -0.6225(6) 1.0790(5)
C46B C 0.3638(8) -0.6050(6) 1.0531(5)
H23B H 0.3680 -0.5821 1.0469
C47B C 0.3792(8) -0.6214(6) 1.0364(5)
H24B H 0.3935 -0.6101 1.0182
C48B C 0.3246(8) -0.6047(6) 1.0957(5)
In1A_2 In 0.90647(3) 0.53375(5) 0.79099(3)
In1B_2 In 0.46625(5) 0.37272(4) 0.79099(3)
In1C In 0.29395(4) -0.57314(3) 1.12432(3)
In1D In 0.57314(3) -0.13292(5) 1.12432(3)
In1E In 0.13292(5) -0.29395(4) 1.12432(3)
In2C In 0.04173(5) -0.76244(5) 0.80062(4)
In2D In 0.76244(5) -0.19584(7) 0.80062(4)
In2E In 0.19584(7) -0.04173(5) 0.80062(4)
In2F In -0.29161(5) -0.42910(5) 1.13396(4)
In2G In 0.42910(5) -0.86250(7) 1.13396(4)
In2H In 0.86250(7) 0.29161(5) 1.13396(4)
O7C O 0.4910(6) -0.3915(7) 0.4140(6)
O7D O 0.3915(7) -0.1176(9) 0.4140(6)
O7E O 0.1176(9) -0.4910(6) 0.4140(6)
O8C O 0.5044(6) -0.4245(6) 0.4434(5)
O8D O 0.4245(6) -0.0712(8) 0.4434(5)
O8E O 0.0712(8) -0.5044(6) 0.4434(5)
O9F O -0.0439(4) -0.4120(3) 0.7815(3)
O9G O 0.4120(3) -0.6318(5) 0.7815(3)
O9H O 0.6318(5) 0.0439(4) 0.7815(3)
O10F O -0.0945(4) -0.4258(4) 0.7578(3)
O10G O 0.4258(4) -0.6686(6) 0.7578(3)
O10H O 0.6686(6) 0.0945(4) 0.7578(3)
O11A_2 O -0.1343(4) -0.5220(6) 0.8079(3)
O11B_2 O 0.5220(6) -0.6123(4) 0.8079(3)
O12A_2 O -0.1514(3) -0.4933(5) 0.7756(3)
O12B_2 O 0.4933(5) -0.6581(4) 0.7756(3)
O13F O 0.5817(6) -0.3797(6) 0.4635(5)
O13G O 0.3797(6) -0.0385(8) 0.4635(5)
O13H O 0.0385(8) -0.5817(6) 0.4635(5)
O14F O 0.5734(6) -0.3445(6) 0.4329(7)
O14G O 0.3445(6) -0.0820(8) 0.4329(7)
O14H O 0.0820(8) -0.5734(6) 0.4329(7)
O19? O 0.244(2) -0.020(3) 0.782(2)
O20? O 0.2424(19) 0.008(2) 0.7379(16)
C91? C 0.3405(16) -0.018(3) 0.714(2)
C92? C 0.306(2) -0.042(2) 0.7043(19)
H29? H 0.3017 -0.0582 0.6877
C93? C 0.2772(13) -0.041(2) 0.7188(19)
H30? H 0.2535 -0.0572 0.7120
C94? C 0.2832(16) -0.017(3) 0.743(2)
C95? C 0.318(2) 0.007(2) 0.7529(18)
H31? H 0.3220 0.0236 0.7695
C96? C 0.3465(13) 0.006(3) 0.738(2)
H32? H 0.3702 0.0226 0.7452
C97? C 0.256(4) -0.009(4) 0.752(3)
O21? O 0.3379(5) -0.1506(6) 0.4654(5)
O22? O 0.3903(5) -0.1331(4) 0.4839(6)
C98? C 0.3591(4) -0.1576(5) 0.4795(3)
C99? C 0.3515(4) -0.1964(4) 0.4825(3)
C100? C 0.3177(4) -0.2258(4) 0.4779(3)
C101? C 0.3124(4) -0.2601(4) 0.4810(4)
C102? C 0.3410(4) -0.2650(4) 0.4887(4)
C103? C 0.3748(4) -0.2356(4) 0.4933(4)
C104? C 0.3800(4) -0.2013(4) 0.4902(3)
N13? N 0.3669(5) -0.3024(4) 0.4885(4)
C105? C 0.3361(5) -0.3028(4) 0.4885(4)
N14? N 0.4161(5) 0.2238(3) 0.7914(4)
C106? C 0.3979(5) 0.2407(3) 0.7770(4)
C107? C 0.4196(5) 0.2497(3) 0.7470(4)
C108? C 0.3965(4) 0.1859(3) 0.7857(4)
C109? C 0.3599(4) 0.1698(3) 0.7722(4)
C110? C 0.4193(5) 0.2305(4) 0.8257(4)
C111? C 0.4569(5) 0.2598(3) 0.8231(4)
C112? C 0.4516(5) 0.2388(3) 0.7779(4)
C113? C 0.4636(4) 0.2041(3) 0.7698(4)
loop_
_geom_bond_atom_site_label_1
_geom_bond_atom_site_label_2
_geom_bond_site_symmetry_1
_geom_bond_site_symmetry_2
In1 O1 1_555 1_555
In2 O3 1_555 1_555
O1 C1 1_555 1_555
O2 In1 1_555 1_555
O3 C24 1_555 1_555
O4 In2 1_555 1_555
O5 In1 1_555 1_555
O6 In1 1_555 1_555
O7 C41 1_555 1_555
O8 C41 1_555 1_555
O9 C48 1_555 1_555
O10 C48 1_555 1_555
O11 In1 1_555 1_555
O12 In1 1_555 1_555
N1 C8 1_555 1_555
N2 C8 1_555 1_555
N3 C9 1_555 1_555
N4 C32 1_555 1_555
N5 C33 1_555 1_555
N6 C32 1_555 1_555
N7 C56 1_555 1_555
C1 O2 1_555 1_555
C2 C1 1_555 1_555
C3 C2 1_555 1_555
H1 C3 1_555 1_555
C4 C3 1_555 1_555
H2 C4 1_555 1_555
C5 C4 1_555 1_555
C6 C5 1_555 1_555
H3 C6 1_555 1_555
C7 C2 1_555 1_555
H4 C7 1_555 1_555
C8 C5 1_555 1_555
C9 N1 1_555 1_555
C10 N2 1_555 1_555
O13 C17 1_555 1_555
O14 C17 1_555 1_555
C11 C9 1_555 1_555
C12 C11 1_555 1_555
H5 C12 1_555 1_555
C13 C12 1_555 1_555
H6 C13 1_555 1_555
C14 C13 1_555 1_555
C15 C14 1_555 1_555
H7 C15 1_555 1_555
C16 C11 1_555 1_555
H8 C16 1_555 1_555
C17 C14 1_555 1_555
C18 C10 1_555 1_555
C19 C18 1_555 1_555
H9 C19 1_555 1_555
C20 C19 1_555 1_555
H10 C20 1_555 1_555
C21 C20 1_555 1_555
C22 C21 1_555 1_555
H11 C22 1_555 1_555
C23 C18 1_555 1_555
H12 C23 1_555 1_555
C24 O4 1_555 1_555
C25 O5 1_555 1_555
C26 H13 1_555 1_555
C27 C25 1_555 1_555
C28 C26 1_555 1_555
H14 C28 1_555 1_555
C29 C28 1_555 1_555
C30 C29 1_555 1_555
H15 C30 1_555 1_555
C31 C27 1_555 1_555
H16 C31 1_555 1_555
C32 C29 1_555 1_555
C33 N4 1_555 1_555
C34 C42 1_555 1_555
C35 C33 1_555 1_555
C36 C35 1_555 1_555
H17 C36 1_555 1_555
C37 C36 1_555 1_555
H18 C37 1_555 1_555
C38 C37 1_555 1_555
C39 C38 1_555 1_555
H19 C39 1_555 1_555
C40 C35 1_555 1_555
H20 C40 1_555 1_555
C41 C38 1_555 1_555
C42 N5 1_555 1_555
C43 C34 1_555 1_555
H21 C43 1_555 1_555
C44 C43 1_555 1_555
H22 C44 1_555 1_555
C45 C44 1_555 1_555
C46 C45 1_555 1_555
H23 C46 1_555 1_555
C47 C34 1_555 1_555
H24 C47 1_555 1_555
C48 C45 1_555 1_555
C49 O11 1_555 1_555
C50 C49 1_555 1_555
C51 C50 1_555 1_555
H25 C51 1_555 1_555
C52 C51 1_555 1_555
H26 C52 1_555 1_555
C53 C52 1_555 1_555
C54 C53 1_555 1_555
H27 C54 1_555 1_555
C55 C50 1_555 1_555
H28 C55 1_555 1_555
C56 C53 1_555 1_555
O15 In2 1_555 1_555
O16 C57 1_555 1_555
C57 O15 1_555 1_555
C58 C57 1_555 1_555
C59 C58 1_555 1_555
C60 C59 1_555 1_555
C61 C60 1_555 1_555
C62 C61 1_555 1_555
C63 C58 1_555 1_555
N8 C64 1_555 1_555
C64 C61 1_555 1_555
N9 C65 1_555 1_555
C65 C66 1_555 1_555
C67 N9 1_555 1_555
C68 C67 1_555 1_555
C69 N9 1_555 1_555
C70 C69 1_555 1_555
C71 N9 1_555 1_555
C72 C71 1_555 1_555
N10 C73 1_555 1_555
C73 C74 1_555 1_555
C75 N10 1_555 1_555
C76 C75 1_555 1_555
C77 N10 1_555 1_555
C78 C77 1_555 1_555
C79 N10 1_555 1_555
C80 C79 1_555 1_555
O17 C81 1_555 1_555
N11 C81 1_555 1_555
C82 N11 1_555 1_555
C83 C82 1_555 1_555
C84 N11 1_555 1_555
C85 C84 1_555 1_555
O18 C86 1_555 1_555
N12 C86 1_555 1_555
C87 N12 1_555 1_555
C88 C87 1_555 1_555
C89 N12 1_555 1_555
C90 C89 1_555 1_555
O11A C49A 1_555 1_555
O12A C49A 1_555 1_555
N7A C56A 1_555 1_555
C49A C50A 1_555 1_555
C50A C51A 1_555 1_555
C51A H25A 1_555 1_555
C52A C51A 1_555 1_555
H26A C52A 1_555 1_555
C53A C52A 1_555 1_555
C54A C53A 1_555 1_555
H27A C54A 1_555 1_555
C55A C50A 1_555 1_555
H28A C55A 1_555 1_555
C56A N7 1_555 1_555
O11B C49B 1_555 1_555
O12B C49B 1_555 1_555
N7B C56 1_555 1_555
C49B C50B 1_555 1_555
C50B C51B 1_555 1_555
C51B H25B 1_555 1_555
C52B C51B 1_555 1_555
H26B C52B 1_555 1_555
C53B C52B 1_555 1_555
C54B C53B 1_555 1_555
H27B C54B 1_555 1_555
C55B C50B 1_555 1_555
H28B C55B 1_555 1_555
C56B N7A 1_555 1_555
O15A C57A 1_555 1_555
O16A C57A 1_555 1_555
C57A C58A 1_555 1_555
C58A C59A 1_555 1_555
C59A C60A 1_555 1_555
C60A C61A 1_555 1_555
C61A C62A 1_555 1_555
C62A C63A 1_555 1_555
C63A C58A 1_555 1_555
N8A C64 1_555 1_555
C64A C64 1_555 1_555
O15B C57B 1_555 1_555
O16B C57B 1_555 1_555
C57B C58B 1_555 1_555
C58B C59B 1_555 1_555
C59B C60B 1_555 1_555
C60B C61B 1_555 1_555
C61B C62B 1_555 1_555
C62B C63B 1_555 1_555
C63B C58B 1_555 1_555
N8B C64A 1_555 1_555
C64B N8 1_555 1_555
In1A O1A 1_555 1_555
In2A O15A 1_555 1_555
O1A C1A 1_555 1_555
O2A In1A 1_555 1_555
O3A In2A 1_555 1_555
O4A In2A 1_555 1_555
O5A In1A 1_555 1_555
O6A In1A 1_555 1_555
O7A C41A 1_555 1_555
O8A C41A 1_555 1_555
O9A C48A 1_555 1_555
O10A C48A 1_555 1_555
N1A C8A 1_555 1_555
N2A C8A 1_555 1_555
N3A C9A 1_555 1_555
N4A C32A 1_555 1_555
N5A C33A 1_555 1_555
N6A C32A 1_555 1_555
C1A O2A 1_555 1_555
C2A C1A 1_555 1_555
C3A C2A 1_555 1_555
H1A C3A 1_555 1_555
C4A C3A 1_555 1_555
H2A C4A 1_555 1_555
C5A C4A 1_555 1_555
C6A C5A 1_555 1_555
H3A C6A 1_555 1_555
C7A C2A 1_555 1_555
H4A C7A 1_555 1_555
C8A C5A 1_555 1_555
C9A N1A 1_555 1_555
C10A N2A 1_555 1_555
O13A C17A 1_555 1_555
O14A C17A 1_555 1_555
C11A C9A 1_555 1_555
C12A C11A 1_555 1_555
H5A C12A 1_555 1_555
C13A C12A 1_555 1_555
H6A C13A 1_555 1_555
C14A C13A 1_555 1_555
C15A C14A 1_555 1_555
H7A C15A 1_555 1_555
C16A C11A 1_555 1_555
H8A C16A 1_555 1_555
C17A C14A 1_555 1_555
C18A C10A 1_555 1_555
C19A C18A 1_555 1_555
H9A C19A 1_555 1_555
C20A C19A 1_555 1_555
H10A C20A 1_555 1_555
C21A C20A 1_555 1_555
C22A C21A 1_555 1_555
H11A C22A 1_555 1_555
C23A C18A 1_555 1_555
H12A C23A 1_555 1_555
C24A O3A 1_555 1_555
C25A O5A 1_555 1_555
C26A H13A 1_555 1_555
C27A C25A 1_555 1_555
C28A C26A 1_555 1_555
H14A C28A 1_555 1_555
C29A C28A 1_555 1_555
C30A C29A 1_555 1_555
H15A C30A 1_555 1_555
C31A C27A 1_555 1_555
H16A C31A 1_555 1_555
C32A C29A 1_555 1_555
C33A N4A 1_555 1_555
C34A C42A 1_555 1_555
C35A C33A 1_555 1_555
C36A C35A 1_555 1_555
H17A C36A 1_555 1_555
C37A C36A 1_555 1_555
H18A C37A 1_555 1_555
C38A C37A 1_555 1_555
C39A C38A 1_555 1_555
H19A C39A 1_555 1_555
C40A C35A 1_555 1_555
H20A C40A 1_555 1_555
C41A C38A 1_555 1_555
C42A N5A 1_555 1_555
C43A C34A 1_555 1_555
H21A C43A 1_555 1_555
C44A C43A 1_555 1_555
H22A C44A 1_555 1_555
C45A C44A 1_555 1_555
C46A C45A 1_555 1_555
H23A C46A 1_555 1_555
C47A C34A 1_555 1_555
H24A C47A 1_555 1_555
C48A C45A 1_555 1_555
In1B O1B 1_555 1_555
In2B O15B 1_555 1_555
O1B C1B 1_555 1_555
O2B In1B 1_555 1_555
O3B In2B 1_555 1_555
O4B In2B 1_555 1_555
O5B In1B 1_555 1_555
O6B In1B 1_555 1_555
O7B C41B 1_555 1_555
O8B C41B 1_555 1_555
O9B C48B 1_555 1_555
O10B C48B 1_555 1_555
N1B C8B 1_555 1_555
N2B C8B 1_555 1_555
N3B C9B 1_555 1_555
N4B C32B 1_555 1_555
N5B C33B 1_555 1_555
N6B C32B 1_555 1_555
C1B O2B 1_555 1_555
C2B C1B 1_555 1_555
C3B C2B 1_555 1_555
H1B C3B 1_555 1_555
C4B C3B 1_555 1_555
H2B C4B 1_555 1_555
C5B C4B 1_555 1_555
C6B C5B 1_555 1_555
H3B C6B 1_555 1_555
C7B C2B 1_555 1_555
H4B C7B 1_555 1_555
C8B C5B 1_555 1_555
C9B N1B 1_555 1_555
C10B N2B 1_555 1_555
O13B C17B 1_555 1_555
O14B C17B 1_555 1_555
C11B C9B 1_555 1_555
C12B C11B 1_555 1_555
H5B C12B 1_555 1_555
C13B C12B 1_555 1_555
H6B C13B 1_555 1_555
C14B C13B 1_555 1_555
C15B C14B 1_555 1_555
H7B C15B 1_555 1_555
C16B C11B 1_555 1_555
H8B C16B 1_555 1_555
C17B C14B 1_555 1_555
C18B C10B 1_555 1_555
C19B C18B 1_555 1_555
H9B C19B 1_555 1_555
C20B C19B 1_555 1_555
H10B C20B 1_555 1_555
C21B C20B 1_555 1_555
C22B C21B 1_555 1_555
H11B C22B 1_555 1_555
C23B C18B 1_555 1_555
H12B C23B 1_555 1_555
C24B O3B 1_555 1_555
C25B O5B 1_555 1_555
C26B H13B 1_555 1_555
C27B C25B 1_555 1_555
C28B C26B 1_555 1_555
H14B C28B 1_555 1_555
C29B C28B 1_555 1_555
C30B C29B 1_555 1_555
H15B C30B 1_555 1_555
C31B C27B 1_555 1_555
H16B C31B 1_555 1_555
C32B C29B 1_555 1_555
C33B N4B 1_555 1_555
C34B C42B 1_555 1_555
C35B C33B 1_555 1_555
C36B C35B 1_555 1_555
H17B C36B 1_555 1_555
C37B C36B 1_555 1_555
H18B C37B 1_555 1_555
C38B C37B 1_555 1_555
C39B C38B 1_555 1_555
H19B C39B 1_555 1_555
C40B C35B 1_555 1_555
H20B C40B 1_555 1_555
C41B C38B 1_555 1_555
C42B N5B 1_555 1_555
C43B C34B 1_555 1_555
H21B C43B 1_555 1_555
C44B C43B 1_555 1_555
H22B C44B 1_555 1_555
C45B C44B 1_555 1_555
C46B C45B 1_555 1_555
H23B C46B 1_555 1_555
C47B C34B 1_555 1_555
H24B C47B 1_555 1_555
C48B C45B 1_555 1_555
In1A_2 O11A 1_555 1_555
In1B_2 O11B 1_555 1_555
In1C O9B 1_555 1_555
In1D O9 1_555 1_555
In1E O9A 1_555 1_555
In2C O13A 1_555 1_555
In2D O13B 1_555 1_555
In2E O13 1_555 1_555
In2F O7A 1_555 1_555
In2G O7B 1_555 1_555
In2H O7 1_555 1_555
O7C In2B 1_555 1_555
O7D In2 1_555 1_555
O7E In2A 1_555 1_555
O8C In2B 1_555 1_555
O8D In2 1_555 1_555
O8E In2A 1_555 1_555
O9F In1A 1_555 1_555
O9G In1B 1_555 1_555
O9H In1 1_555 1_555
O10F In1A 1_555 1_555
O10G In1B 1_555 1_555
O10H In1 1_555 1_555
O11A_2 In1A 1_555 1_555
O11B_2 In1B 1_555 1_555
O12A_2 In1A 1_555 1_555
O12B_2 In1B 1_555 1_555
O13F In2B 1_555 1_555
O13G In2 1_555 1_555
O13H In2A 1_555 1_555
O14F In2B 1_555 1_555
O14G In2 1_555 1_555
O14H In2A 1_555 1_555
O6 C25 1_555 1_555
O8 In2H 1_555 1_555
O10 In1D 1_555 1_555
O12 C49 1_555 1_555
N3 C10 1_555 1_555
N6 C42 1_555 1_555
C6 C7 1_555 1_555
O14 In2E 1_555 1_555
C15 C16 1_555 1_555
C21 C24 1_555 1_555
C22 C23 1_555 1_555
C26 C27 1_555 1_555
C30 C31 1_555 1_555
C39 C40 1_555 1_555
C46 C47 1_555 1_555
C54 C55 1_555 1_555
C62 C63 1_555 1_555
C64 C64B 1_555 1_555
O12A In1A_2 1_555 1_555
C53A C56A 1_555 1_555
C54A C55A 1_555 1_555
O12B In1B_2 1_555 1_555
N7B C56B 1_555 1_555
C53B C56B 1_555 1_555
C54B C55B 1_555 1_555
C61A C64A 1_555 1_555
N8A C64A 1_555 1_555
C64A C64B 1_555 1_555
C61B C64B 1_555 1_555
N8B C64B 1_555 1_555
O4A C24A 1_555 1_555
O6A C25A 1_555 1_555
O8A In2F 1_555 1_555
O10A In1E 1_555 1_555
N3A C10A 1_555 1_555
N6A C42A 1_555 1_555
C6A C7A 1_555 1_555
O14A In2C 1_555 1_555
C15A C16A 1_555 1_555
C21A C24A 1_555 1_555
C22A C23A 1_555 1_555
C26A C27A 1_555 1_555
C30A C31A 1_555 1_555
C39A C40A 1_555 1_555
C46A C47A 1_555 1_555
O4B C24B 1_555 1_555
O6B C25B 1_555 1_555
O8B In2G 1_555 1_555
O10B In1C 1_555 1_555
N3B C10B 1_555 1_555
N6B C42B 1_555 1_555
C6B C7B 1_555 1_555
O14B In2D 1_555 1_555
C15B C16B 1_555 1_555
C21B C24B 1_555 1_555
C22B C23B 1_555 1_555
C26B C27B 1_555 1_555
C30B C31B 1_555 1_555
C39B C40B 1_555 1_555
C46B C47B 1_555 1_555

#END
