
#######################################################################
#
#                 Cambridge Crystallographic Data Centre
#                                CCDC 
#
#######################################################################
#
# If this CIF has been generated from an entry in the Cambridge 
# Structural Database, then it will include bibliographic, chemical, 
# crystal, experimental, refinement or atomic coordinate data resulting 
# from the CCDC's data processing and validation procedures.
#
#######################################################################

data_YANBAR01
_chemical_formula_moiety         '(C12 H12 Co6 O24)n,2n(C3 H7 N1 O1)'
_chemical_name_systematic        
"catena-(dodecakis(\m~3~-Formato-O,O,O')-hexa-cobalt(ii) bis(N,N-dimethylformamide) clathrate)"
_symmetry_cell_setting           monoclinic
_symmetry_space_group_name_H-M   'P 21/n'
_symmetry_Int_Tables_number      14
_space_group_name_Hall           '-P 2yn'
loop_
_symmetry_equiv_pos_site_id
_symmetry_equiv_pos_as_xyz
1 x,y,z
2 1/2-x,1/2+y,1/2-z
3 -x,-y,-z
4 1/2+x,1/2-y,1/2+z
_cell_length_a                   11.3834(6)
_cell_length_b                   9.9292(6)
_cell_length_c                   14.4324(8)
_cell_angle_alpha                90
_cell_angle_beta                 91.2500(10)
_cell_angle_gamma                90
_cell_volume                     1630.88
_exptl_crystal_colour            pink
_exptl_crystal_description       block
_cell_formula_units_Z            2
_exptl_crystal_preparation       'magnetic properties'
loop_
_atom_site_label
_atom_site_type_symbol
_atom_site_fract_x
_atom_site_fract_y
_atom_site_fract_z
Co1 Co 0.245229(13) 0.079211(15) 0.366611(10)
Co2 Co 0.239311(13) 0.387644(15) 0.310282(10)
Co3 Co 0.5000 0.0000 0.5000
Co4 Co 0.0000 0.0000 0.5000
O1 O 0.34274(7) 0.25639(8) 0.39255(5)
O2 O 0.47859(7) 0.20639(9) 0.50233(6)
O3 O 0.15185(7) -0.08101(8) 0.30348(6)
O4 O -0.01103(8) -0.12041(9) 0.38335(6)
O5 O 0.19707(8) 0.06014(9) 0.12869(6)
O6 O 0.19584(7) 0.19854(8) 0.25192(5)
O7 O 0.62902(7) 0.00637(8) 0.71817(6)
O8 O 0.45729(7) -0.00174(9) 0.64004(6)
O9 O 0.10494(7) 0.37325(9) 0.40210(6)
O10 O 0.09865(7) 0.15165(8) 0.43430(5)
O11 O 0.15091(7) -0.10352(9) 0.54157(6)
O12 O 0.31522(7) -0.02564(9) 0.47731(5)
C1 C 0.42213(10) 0.28685(12) 0.45341(8)
C2 C 0.05481(10) -0.14127(12) 0.31801(8)
C3 C 0.18269(10) 0.17168(12) 0.16561(8)
C4 C 0.51737(10) 0.01535(12) 0.71118(8)
C5 C 0.06218(10) 0.27300(12) 0.44029(8)
C6 C 0.25893(10) -0.10027(12) 0.53402(8)
H1 H 0.4386(14) 0.3816(17) 0.4625(11)
H2 H 0.0333(14) -0.2121(16) 0.2743(10)
H3 H 0.1581(13) 0.2444(15) 0.1255(10)
H4 H 0.4757(14) 0.0390(17) 0.7674(11)
H5 H -0.0050(15) 0.2865(18) 0.4794(11)
H6 H 0.3040(14) -0.1567(16) 0.5733(11)
Co1B Co 0.754771(13) -0.079211(15) 0.633389(10)
Co1A Co 0.254771(13) 0.579211(15) 0.133389(10)
Co1B_2 Co -0.245229(13) -0.079211(15) 0.633389(10)
Co2B Co 0.760689(13) -0.387644(15) 0.689718(10)
Co2A Co 0.260689(13) -0.112356(15) 0.189718(10)
Co2C Co 0.739311(13) 0.112356(15) 0.810282(10)
Co2A_2 Co 0.260689(13) 0.887644(15) 0.189718(10)
Co2B_2 Co -0.239311(13) -0.387644(15) 0.689718(10)
Co4_2 Co 1.0000 0.0000 0.5000
Co4C Co 0.5000 0.5000 0.0000
O1B O 0.65726(7) -0.25639(8) 0.60745(5)
O2B O 0.52141(7) -0.20639(9) 0.49767(6)
O3A O 0.34815(7) 0.41899(8) 0.19652(6)
O3B O 0.84815(7) 0.08101(8) 0.69652(6)
O3C O 0.65185(7) -0.41899(8) 0.80348(6)
O4A O 0.51103(8) 0.37959(9) 0.11665(6)
O4B O 0.01103(8) 0.12041(9) 0.61665(6)
O5A O 0.30293(8) 0.56014(9) 0.37131(6)
O5C O 0.69707(8) -0.56014(9) 0.62869(6)
O6A O 0.30416(7) 0.69854(8) 0.24808(5)
O6B O 0.80416(7) -0.19854(8) 0.74808(5)
O7B O 0.37098(7) -0.00637(8) 0.28183(6)
O7C O 0.12902(7) 0.49363(8) 0.21817(6)
O7A O 0.87098(7) -0.49363(8) 0.78183(6)
O8B O 0.54271(7) 0.00174(9) 0.35996(6)
O9B O -0.10494(7) -0.37325(9) 0.59790(6)
O9B_2 O 0.89506(7) -0.37325(9) 0.59790(6)
O10B O -0.09865(7) -0.15165(8) 0.56570(5)
O10B_2 O 0.90135(7) -0.15165(8) 0.56570(5)
O11B O 0.84909(7) 0.10352(9) 0.45843(6)
O11B_2 O -0.15091(7) 0.10352(9) 0.45843(6)
O12B O 0.68478(7) 0.02564(9) 0.52269(5)
C1B C 0.57787(10) -0.28685(12) 0.54659(8)
C2A C 0.44519(10) 0.35873(12) 0.18199(8)
C3A C 0.31731(10) 0.67168(12) 0.33439(8)
C4B C 0.48263(10) -0.01535(12) 0.28882(8)
C5B C -0.06218(10) -0.27300(12) 0.55971(8)
C6B C 0.74107(10) 0.10027(12) 0.46598(8)
H1B H 0.5614(14) -0.3816(17) 0.5375(11)
H2A H 0.4667(14) 0.2879(16) 0.2257(10)
H3A H 0.3419(13) 0.7444(15) 0.3745(10)
H4B H 0.5243(14) -0.0390(17) 0.2326(11)
H5B H 0.0050(15) -0.2865(18) 0.5206(11)
H6B H 0.6960(14) 0.1567(16) 0.4267(11)
O13 O 0.86896(10) -0.13691(11) 0.15234(8)
N1 N 0.79948(10) 0.07795(12) 0.16325(8)
C7 C 0.79351(13) -0.05080(16) 0.13692(10)
H7 H 0.7249 -0.0783 0.1033
C8 C 0.90148(13) 0.12933(16) 0.21400(11)
C9 C 0.70444(14) 0.17238(17) 0.14614(11)
H8 H 0.6406 0.1273 0.1116
H9 H 0.7332 0.2485 0.1099
H10 H 0.6752 0.2052 0.2054
H11 H 0.9633(19) 0.061(2) 0.2107(14)
H12 H 0.8834(19) 0.144(2) 0.2779(16)
H13 H 0.9296(17) 0.216(2) 0.1849(13)
loop_
_geom_bond_atom_site_label_1
_geom_bond_atom_site_label_2
_geom_bond_site_symmetry_1
_geom_bond_site_symmetry_2
Co1 O1 1_555 1_555
Co2 O1 1_555 1_555
Co3 O2 1_555 1_555
Co4 O4 1_555 1_555
O1 C1 1_555 1_555
O2 C1 1_555 1_555
O3 Co1 1_555 1_555
O4 C2 1_555 1_555
O5 C3 1_555 1_555
O6 Co1 1_555 1_555
O7 C4 1_555 1_555
O8 Co3 1_555 1_555
O9 Co2 1_555 1_555
O10 Co1 1_555 1_555
O11 Co4 1_555 1_555
O12 Co1 1_555 1_555
C1 H1 1_555 1_555
C2 O3 1_555 1_555
C3 O6 1_555 1_555
C4 O8 1_555 1_555
C5 O9 1_555 1_555
C6 O11 1_555 1_555
H2 C2 1_555 1_555
H3 C3 1_555 1_555
H4 C4 1_555 1_555
H5 C5 1_555 1_555
H6 C6 1_555 1_555
O13 C7 1_555 1_555
N1 C7 1_555 1_555
C7 H7 1_555 1_555
C8 N1 1_555 1_555
C9 N1 1_555 1_555
H8 C9 1_555 1_555
H9 C9 1_555 1_555
H10 C9 1_555 1_555
H11 C8 1_555 1_555
H12 C8 1_555 1_555
H13 C8 1_555 1_555
Co1B O7 1_555 1_555
Co1A O3A 1_555 1_555
Co1B_2 O10B 1_555 1_555
Co2B O1B 1_555 1_555
Co2A O3 1_555 1_555
Co2C O7 1_555 1_555
Co2A_2 O6A 1_555 1_555
Co2B_2 O9B 1_555 1_555
Co4_2 O10B_2 1_555 1_555
Co4C O4A 1_555 1_555
O1B Co1B 1_555 1_555
O2B Co3 1_555 1_555
O3A Co2 1_555 1_555
O3B Co1B 1_555 1_555
O3C Co2B 1_555 1_555
O4A C2A 1_555 1_555
O4B Co4 1_555 1_555
O5A Co2 1_555 1_555
O5C Co2B 1_555 1_555
O6A Co1A 1_555 1_555
O6B Co1B 1_555 1_555
O7B Co1 1_555 1_555
O7C Co2 1_555 1_555
O7A Co2B 1_555 1_555
O8B Co3 1_555 1_555
O9B C5B 1_555 1_555
O9B_2 Co2B 1_555 1_555
O10B Co4 1_555 1_555
O10B_2 Co1B 1_555 1_555
O11B Co4_2 1_555 1_555
O11B_2 Co4 1_555 1_555
O12B Co3 1_555 1_555
C1B O1B 1_555 1_555
C2A O3A 1_555 1_555
C3A O5A 1_555 1_555
C4B O7B 1_555 1_555
C5B O10B 1_555 1_555
C6B O11B 1_555 1_555
H1B C1B 1_555 1_555
H2A C2A 1_555 1_555
H3A C3A 1_555 1_555
H4B C4B 1_555 1_555
H5B C5B 1_555 1_555
H6B C6B 1_555 1_555
Co2 O6 1_555 1_555
Co3 O12 1_555 1_555
Co4 O10 1_555 1_555
O5 Co2A 1_555 1_555
O10 C5 1_555 1_555
O12 C6 1_555 1_555
Co1B O12B 1_555 1_555
Co1A O7C 1_555 1_555
Co2B O6B 1_555 1_555
Co2A O7B 1_555 1_555
Co2C O3B 1_555 1_555
O2B C1B 1_555 1_555
O6A C3A 1_555 1_555
O8B C4B 1_555 1_555
O12B C6B 1_555 1_555

#END
