
#######################################################################
#
#                 Cambridge Crystallographic Data Centre
#                                CCDC 
#
#######################################################################
#
# If this CIF has been generated from an entry in the Cambridge 
# Structural Database, then it will include bibliographic, chemical, 
# crystal, experimental, refinement or atomic coordinate data resulting 
# from the CCDC's data processing and validation procedures.
#
#######################################################################

data_YUVSUE
_chemical_name_common            bio-MOF-11
_chemical_formula_moiety         
'(C7 H7 Co1 N5 O2)n,n(C3 H7 N1 O1),0.25n(H2 O1)'
_chemical_name_systematic        
"catena-((\m~3~-Adenine-N,N',N'')-(\m~2~-acetato-O,O')-cobalt dimethylformamide solvate hydrate)"
_symmetry_cell_setting           tetragonal
_symmetry_space_group_name_H-M   'I 41/a'
_symmetry_Int_Tables_number      88
_space_group_name_Hall           '-I 4ad'
loop_
_symmetry_equiv_pos_site_id
_symmetry_equiv_pos_as_xyz
1 x,y,z
2 1/2-x,-y,1/2+z
3 3/4-y,1/4+x,1/4+z
4 3/4+y,3/4-x,3/4+z
5 1/2+x,1/2+y,1/2+z
6 -x,1/2-y,z
7 1/4-y,3/4+x,3/4+z
8 1/4+y,1/4-x,1/4+z
9 -x,-y,-z
10 1/2+x,y,1/2-z
11 1/4+y,3/4-x,3/4-z
12 1/4-y,1/4+x,1/4-z
13 1/2-x,1/2-y,1/2-z
14 x,1/2+y,-z
15 3/4+y,1/4-x,1/4-z
16 3/4-y,3/4+x,3/4-z
_cell_length_a                   15.4355(18)
_cell_length_b                   15.4355(18)
_cell_length_c                   22.775(5)
_cell_angle_alpha                90
_cell_angle_beta                 90
_cell_angle_gamma                90
_cell_volume                     5426.25
_exptl_crystal_description       block
_cell_formula_units_Z            16
loop_
_atom_site_label
_atom_site_type_symbol
_atom_site_fract_x
_atom_site_fract_y
_atom_site_fract_z
_atom_site_U_iso_or_equiv
_atom_site_thermal_displace_type
Co1 Co 1.04353(9) 0.48205(10) 0.05604(6) 0.0348 Uani
C1 C 0.8973(9) 0.3832(8) 0.1206(5) 0.0487 Uani
H1 H 0.9323 0.3797 0.1549 0.0590 Uiso
N1 N 0.9266(6) 0.4204(6) 0.0705(4) 0.0343 Uani
O1 O 0.9878(5) 0.5955(5) 0.0817(3) 0.0443 Uani
C2 C 0.8566(7) 0.4151(7) 0.0349(5) 0.0297 Uani
O2 O 0.9194(6) 0.6154(5) -0.0023(4) 0.0527 Uani
N2 N 0.8528(6) 0.4451(7) -0.0209(4) 0.0453 Uani
C3 C 0.7797(9) 0.4231(12) -0.0480(7) 0.0833 Uani
H2 H 0.7747 0.4420 -0.0876 0.1000 Uiso
N3 N 0.7126(8) 0.3781(10) -0.0274(6) 0.0857 Uani
N4 N 0.8173(6) 0.3519(6) 0.1193(4) 0.0333 Uani
C4 C 0.7135(9) 0.3553(11) 0.0317(7) 0.0767 Uani
C5 C 0.7913(7) 0.3727(8) 0.0629(5) 0.0407 Uani
N5 N 0.6478(7) 0.3119(12) 0.0540(6) 0.1267 Uani
H3 H 0.6037 0.2975 0.0315 0.1500 Uiso
H4 H 0.6480 0.2973 0.0913 0.1500 Uiso
C6 C 0.9368(7) 0.6354(7) 0.0498(6) 0.0407 Uani
C7 C 0.8907(10) 0.7158(8) 0.0745(8) 0.0780 Uani
H5 H 0.9089 0.7252 0.1152 0.1170 Uiso
H6 H 0.8279 0.7068 0.0732 0.1170 Uiso
H7 H 0.9060 0.7666 0.0509 0.1170 Uiso
Co1H Co 0.95647(9) 0.51795(10) -0.05604(6) 0.0348 Uani
Co1K Co 0.76795(10) 0.29353(9) 0.19396(6) 0.0348 Uani
O2H O 1.0806(6) 0.3846(5) 0.0023(4) 0.0527 Uani
N2H N 1.1472(6) 0.5549(7) 0.0209(4) 0.0453 Uani
N4N N 1.1019(6) 0.4327(6) 0.1307(4) 0.0333 Uani
loop_
_atom_site_aniso_label
_atom_site_aniso_U_11
_atom_site_aniso_U_22
_atom_site_aniso_U_33
_atom_site_aniso_U_23
_atom_site_aniso_U_13
_atom_site_aniso_U_12
Co1 0.0312(10) 0.0408(11) 0.0323(10) 0.0125(7) -0.0040(7) -0.0035(7)
C1 0.062(9) 0.041(7) 0.043(7) 0.015(6) -0.002(6) -0.009(7)
N1 0.033(5) 0.036(5) 0.034(5) 0.012(4) 0.004(4) -0.002(4)
O1 0.044(5) 0.034(4) 0.055(5) 0.004(4) -0.017(4) 0.009(4)
C2 0.027(6) 0.027(6) 0.035(6) 0.001(5) 0.012(5) 0.004(5)
O2 0.065(6) 0.056(6) 0.037(5) 0.001(4) -0.001(4) -0.001(4)
N2 0.025(5) 0.068(7) 0.043(6) 0.020(5) -0.001(4) -0.003(5)
C3 0.044(9) 0.136(15) 0.070(10) 0.052(10) -0.018(8) -0.030(9)
N3 0.050(7) 0.135(12) 0.072(8) 0.047(8) -0.014(6) -0.029(8)
N4 0.033(5) 0.037(5) 0.030(5) 0.009(4) 0.005(4) 0.000(5)
C4 0.045(9) 0.116(14) 0.069(10) 0.043(9) -0.009(8) -0.010(9)
C5 0.027(6) 0.048(8) 0.047(7) 0.008(6) 0.007(5) 0.007(6)
N5 0.033(7) 0.26(2) 0.087(9) 0.098(12) -0.021(6) -0.068(10)
C6 0.030(7) 0.034(7) 0.058(8) -0.001(6) 0.024(6) -0.012(6)
C7 0.075(11) 0.026(7) 0.133(14) -0.027(8) 0.009(10) 0.017(7)
Co1H 0.0312 0.0408 0.0323 0.0125 -0.004 -0.0035
Co1K 0.0408 0.0312 0.0323 0.004 0.0125 0.0035
O2H 0.065 0.056 0.037 0.001 -0.001 -0.001
N2H 0.025 0.068 0.043 0.02 -0.001 -0.003
N4N 0.037 0.033 0.03 0.005 -0.009 0
loop_
_geom_bond_atom_site_label_1
_geom_bond_atom_site_label_2
_geom_bond_site_symmetry_1
_geom_bond_site_symmetry_2
Co1 N1 1_555 1_555
C1 H1 1_555 1_555
N1 C1 1_555 1_555
O1 Co1 1_555 1_555
C2 N1 1_555 1_555
O2 C6 1_555 1_555
N2 C2 1_555 1_555
C3 N2 1_555 1_555
H2 C3 1_555 1_555
N3 C3 1_555 1_555
N4 C1 1_555 1_555
C4 N3 1_555 1_555
C5 C2 1_555 1_555
N5 C4 1_555 1_555
H3 N5 1_555 1_555
H4 N5 1_555 1_555
C6 O1 1_555 1_555
C7 C6 1_555 1_555
H5 C7 1_555 1_555
H6 C7 1_555 1_555
H7 C7 1_555 1_555
Co1H O2 1_555 1_555
Co1K N4 1_555 1_555
O2H Co1 1_555 1_555
N2H Co1 1_555 1_555
N4N Co1 1_555 1_555
N2 Co1H 1_555 1_555
N4 C5 1_555 1_555
C4 C5 1_555 1_555

#END
