
#######################################################################
#
#                 Cambridge Crystallographic Data Centre
#                                CCDC 
#
#######################################################################
#
# If this CIF has been generated from an entry in the Cambridge 
# Structural Database, then it will include bibliographic, chemical, 
# crystal, experimental, refinement or atomic coordinate data resulting 
# from the CCDC's data processing and validation procedures.
#
#######################################################################

data_XEKYOE
_chemical_formula_moiety         '(C11 H6 N2 O4 Zn1)n,2(C3 H7 N1 O1),2(H2 O1)'
_chemical_name_systematic        
'catena-[(\m-5-(1H-imidazol-1-yl)benzene-1,3-dicarboxylato)-zinc(ii) N,N-dimethylformamide solvate dihydrate]'
_symmetry_cell_setting           monoclinic
_symmetry_space_group_name_H-M   'P 21/c'
_symmetry_Int_Tables_number      14
_space_group_name_Hall           '-P 2ybc'
loop_
_symmetry_equiv_pos_site_id
_symmetry_equiv_pos_as_xyz
1 x,y,z
2 -x,1/2+y,1/2-z
3 -x,-y,-z
4 x,1/2-y,1/2+z
_cell_length_a                   10.906(2)
_cell_length_b                   12.850(2)
_cell_length_c                   13.942(2)
_cell_angle_alpha                90
_cell_angle_beta                 109.019(3)
_cell_angle_gamma                90
_cell_volume                     1847.2
_exptl_crystal_description       block
_cell_formula_units_Z            4
loop_
_atom_site_label
_atom_site_type_symbol
_atom_site_fract_x
_atom_site_fract_y
_atom_site_fract_z
Zn1 Zn 0.11313(7) 0.42515(6) 0.53602(6)
O1 O 0.8236(5) 0.0422(4) 0.8610(4)
O2 O 0.8251(5) 0.4824(4) 0.5596(4)
O3 O 0.9954(5) 0.3765(5) 0.6159(4)
O4 O 0.9915(5) 0.1527(5) 0.9144(4)
N1 N 0.2655(5) 0.3274(5) 0.5810(4)
N2 N 0.4665(6) 0.2706(5) 0.6320(5)
C1 C 0.8066(7) 0.3387(6) 0.6570(5)
C2 C 0.8741(7) 0.2711(5) 0.7372(5)
H1 H 0.964240 0.271905 0.761525
C3 C 0.8818(7) 0.4052(6) 0.6084(5)
C4 C 0.3882(6) 0.3583(6) 0.6062(6)
H2 H 0.416605 0.426553 0.606455
C5 C 0.6065(7) 0.2720(5) 0.6682(5)
C6 C 0.8814(7) 0.1291(6) 0.8599(5)
C7 C 0.6751(7) 0.3405(6) 0.6238(5)
H3 H 0.630332 0.386000 0.572469
C8 C 0.6719(7) 0.2052(6) 0.7437(6)
H4 H 0.626303 0.160051 0.771808
C9 C 0.8079(7) 0.2049(6) 0.7788(5)
C10 C 0.3901(7) 0.1881(6) 0.6255(6)
H5 H 0.417063 0.119663 0.640769
C11 C 0.2653(7) 0.2227(6) 0.5922(6)
H6 H 0.191815 0.181212 0.579298
Zn1_2 Zn 1.11313(7) 0.42515(6) 0.53602(6)
Zn1A Zn 0.88687(7) -0.07485(6) 0.96398(6)
Zn1B Zn 0.88687(7) 0.57485(6) 0.46398(6)
Zn1C Zn 1.11313(7) 0.07485(6) 1.03602(6)
O1A O 0.1764(5) 0.5422(4) 0.6390(4)
O2B O 0.1749(5) 0.5176(4) 0.4404(4)
O3_2 O -0.0046(5) 0.3765(5) 0.6159(4)
O4C O -0.0085(5) 0.3473(5) 0.4144(4)
loop_
_geom_bond_atom_site_label_1
_geom_bond_atom_site_label_2
_geom_bond_site_symmetry_1
_geom_bond_site_symmetry_2
Zn1 N1 1_555 1_555
O1 C6 1_555 1_555
O2 C3 1_555 1_555
O3 C3 1_555 1_555
O4 C6 1_555 1_555
N1 C4 1_555 1_555
N2 C4 1_555 1_555
C1 C2 1_555 1_555
C2 H1 1_555 1_555
C3 C1 1_555 1_555
C4 H2 1_555 1_555
C5 N2 1_555 1_555
C6 C9 1_555 1_555
C7 C1 1_555 1_555
H3 C7 1_555 1_555
C8 C5 1_555 1_555
H4 C8 1_555 1_555
C9 C2 1_555 1_555
C10 N2 1_555 1_555
H5 C10 1_555 1_555
C11 N1 1_555 1_555
H6 C11 1_555 1_555
Zn1_2 O3 1_555 1_555
Zn1A O1 1_555 1_555
Zn1B O2 1_555 1_555
Zn1C O4 1_555 1_555
O1A Zn1 1_555 1_555
O2B Zn1 1_555 1_555
O3_2 Zn1 1_555 1_555
O4C Zn1 1_555 1_555
C5 C7 1_555 1_555
C8 C9 1_555 1_555
C10 C11 1_555 1_555

#END
