
#######################################################################
#
#                 Cambridge Crystallographic Data Centre
#                                CCDC 
#
#######################################################################
#
# If this CIF has been generated from an entry in the Cambridge 
# Structural Database, then it will include bibliographic, chemical, 
# crystal, experimental, refinement or atomic coordinate data resulting 
# from the CCDC's data processing and validation procedures.
#
#######################################################################

data_HIYGIH
_chemical_formula_moiety         
'(C60 H36 Cu6 N20 O30)n,8n(C4 H9 N1 O1),13n(H2 O1)'
_chemical_name_systematic        
'catena-[bis(\m~12~-2,5,8-tris((3,5-Dicarboxylatophenyl)amino)-1,3,4,6,7,9,9b-heptaazaphenalene)-hexa-aqua-hexa-copper(ii) N,N-dimethylacetamide solvate tridecahydrate]'
_symmetry_cell_setting           tetragonal
_symmetry_space_group_name_H-M   'I 4/m'
_symmetry_Int_Tables_number      87
_space_group_name_Hall           '-I 4'
loop_
_symmetry_equiv_pos_site_id
_symmetry_equiv_pos_as_xyz
1 x,y,z
2 -x,-y,z
3 -y,x,z
4 y,-x,z
5 1/2+x,1/2+y,1/2+z
6 1/2-x,1/2-y,1/2+z
7 1/2-y,1/2+x,1/2+z
8 1/2+y,1/2-x,1/2+z
9 -x,-y,-z
10 x,y,-z
11 y,-x,-z
12 -y,x,-z
13 1/2-x,1/2-y,1/2-z
14 1/2+x,1/2+y,1/2-z
15 1/2+y,1/2-x,1/2-z
16 1/2-y,1/2+x,1/2-z
_cell_length_a                   28.1527(16)
_cell_length_b                   28.1527(16)
_cell_length_c                   41.070(4)
_cell_angle_alpha                90
_cell_angle_beta                 90
_cell_angle_gamma                90
_cell_volume                     32551
_exptl_crystal_colour            green
_exptl_crystal_description       block
_cell_formula_units_Z            8
loop_
_atom_site_label
_atom_site_type_symbol
_atom_site_fract_x
_atom_site_fract_y
_atom_site_fract_z
_atom_site_U_iso_or_equiv
_atom_site_thermal_displace_type
Cu1 Cu 0.63314(4) -0.09079(4) 0.0000 0.0480 Uani
Cu2 Cu 0.72477(4) -0.06960(4) 0.0000 0.0493 Uani
Cu3 Cu 0.82744(3) 0.10072(3) 0.13690(2) 0.0497 Uani
Cu4 Cu 0.76972(3) 0.13507(3) 0.18213(2) 0.0493 Uani
N1 N 0.4980(4) 0.1914(3) 0.1529(2) 0.1307 Uani
N2 N 0.4921(4) 0.1360(4) 0.1097(2) 0.1237 Uani
N3 N 0.5647(3) 0.1437(4) 0.1408(3) 0.1493 Uani
N4 N 0.5704(3) 0.1949(5) 0.1811(3) 0.1670 Uani
N5 N 0.5019(4) 0.2434(3) 0.1985(2) 0.1330 Uani
N6 N 0.4352(3) 0.2406(3) 0.1681(2) 0.1287 Uani
N7 N 0.4281(4) 0.1805(4) 0.1231(2) 0.1357 Uani
N8 N 0.5573(4) 0.0897(4) 0.0971(2) 0.1247 Uani
H1 H 0.5376 0.0767 0.0838 0.0800 Uiso
N9 N 0.5732(3) 0.2434(4) 0.2253(2) 0.1543 Uani
H2 H 0.6027 0.2356 0.2249 0.0800 Uiso
N10 N 0.3660(4) 0.2318(3) 0.1383(2) 0.1333 Uani
H3 H 0.3594 0.2580 0.1481 0.0800 Uiso
O1 O 0.6271(2) -0.0427(2) 0.03253(13) 0.0670 Uani
O2 O 0.7049(2) -0.02404(19) 0.03320(12) 0.0707 Uani
O3 O 0.7680(2) 0.07911(18) 0.11675(12) 0.0660 Uani
O4 O 0.71874(19) 0.11235(19) 0.15359(14) 0.0680 Uani
O5 O 0.42868(19) 0.27553(19) 0.29861(12) 0.0593 Uani
O6 O 0.45581(17) 0.3274(2) 0.33526(14) 0.0623 Uani
O7 O 0.62240(16) 0.37107(18) 0.33670(13) 0.0687 Uani
O8 O 0.67178(18) 0.34614(18) 0.29673(11) 0.0630 Uani
O9 O 0.3471(2) 0.13461(18) 0.03473(12) 0.0640 Uani
O10 O 0.2712(2) 0.1183(2) 0.03369(12) 0.0620 Uani
O11 O 0.1646(2) 0.1811(2) 0.11711(13) 0.0713 Uani
O12 O 0.1932(2) 0.2262(2) 0.15719(15) 0.0697 Uani
O13 O 0.55961(12) -0.1129(3) 0.0000 0.1247 Uani
O14 O 0.7978(3) -0.0498(3) 0.0000 0.1243 Uani
O15 O 0.8743(2) 0.0736(3) 0.09931(15) 0.1377 Uani
O16 O 0.7216(2) 0.1639(2) 0.21946(16) 0.1193 Uani
C1 C 0.4712(6) 0.1663(6) 0.1274(3) 0.1187 Uani
C2 C 0.5390(5) 0.1224(6) 0.1157(3) 0.1227 Uani
C3 C 0.5465(5) 0.1776(5) 0.1579(4) 0.1183 Uani
C4 C 0.5476(6) 0.2254(6) 0.2011(4) 0.1403 Uani
C5 C 0.4779(5) 0.2247(5) 0.1740(3) 0.1137 Uani
C6 C 0.4108(5) 0.2162(5) 0.1432(3) 0.1213 Uani
C7 C 0.6022(5) 0.0727(4) 0.0953(3) 0.1033 Uani
C8 C 0.6095(4) 0.0365(4) 0.0731(2) 0.0867 Uani
H4 H 0.5836 0.0233 0.0624 0.1040 Uiso
C9 C 0.6558(4) 0.0194(3) 0.0665(2) 0.0633 Uani
C10 C 0.6935(3) 0.0391(4) 0.0847(2) 0.0630 Uani
H5 H 0.7245 0.0290 0.0809 0.0760 Uiso
C11 C 0.6849(4) 0.0732(3) 0.1082(2) 0.0657 Uani
C12 C 0.6394(5) 0.0897(3) 0.1136(3) 0.1013 Uani
H6 H 0.6339 0.1124 0.1296 0.1210 Uiso
C13 C 0.6609(4) -0.0190(3) 0.0428(2) 0.0613 Uani
C14 C 0.7261(4) 0.0891(3) 0.1290(3) 0.0717 Uani
C15 C 0.5601(4) 0.2734(3) 0.2520(2) 0.0850 Uani
C16 C 0.5145(3) 0.2772(3) 0.2670(2) 0.0747 Uani
H7 H 0.4881 0.2624 0.2580 0.0900 Uiso
C17 C 0.5108(4) 0.3036(3) 0.2952(2) 0.0693 Uani
C18 C 0.5462(4) 0.3284(3) 0.30843(19) 0.0520 Uani
H8 H 0.5413 0.3466 0.3270 0.0620 Uiso
C19 C 0.5897(3) 0.3265(3) 0.2940(2) 0.0517 Uani
C20 C 0.5978(3) 0.2988(3) 0.2676(3) 0.0950 Uani
H9 H 0.6285 0.2962 0.2594 0.1140 Uiso
C21 C 0.4621(4) 0.3023(3) 0.3104(3) 0.0673 Uani
C22 C 0.6315(3) 0.3489(3) 0.3101(2) 0.0497 Uani
C23 C 0.3282(4) 0.2129(3) 0.1199(3) 0.0847 Uani
C24 C 0.3362(3) 0.1884(3) 0.0901(2) 0.0710 Uani
H10 H 0.3664 0.1860 0.0810 0.0850 Uiso
C25 C 0.2979(4) 0.1685(3) 0.0755(2) 0.0593 Uani
C26 C 0.2520(3) 0.1733(3) 0.0879(2) 0.0547 Uani
H11 H 0.2264 0.1593 0.0773 0.0650 Uiso
C27 C 0.2450(4) 0.1983(3) 0.1153(3) 0.0567 Uani
C28 C 0.2832(4) 0.2176(3) 0.1317(2) 0.0810 Uani
H12 H 0.2782 0.2340 0.1511 0.0980 Uiso
C29 C 0.3066(4) 0.1388(3) 0.0458(2) 0.0577 Uani
C30 C 0.1983(4) 0.2048(4) 0.1330(3) 0.0663 Uani
Cu3A Cu 0.17256(3) -0.10072(3) 0.13690(2) 0.0497 Uani
Cu4A Cu 0.23028(3) -0.13507(3) 0.18213(2) 0.0493 Uani
N1A N 0.5020(4) -0.1914(3) 0.1529(2) 0.1307 Uani
N2A N 0.5079(4) -0.1360(4) 0.1097(2) 0.1237 Uani
N3A N 0.4353(3) -0.1437(4) 0.1408(3) 0.1493 Uani
N4A N 0.4296(3) -0.1949(5) 0.1811(3) 0.1670 Uani
N5A N 0.4981(4) -0.2434(3) 0.1985(2) 0.1330 Uani
N6A N 0.5648(3) -0.2406(3) 0.1681(2) 0.1287 Uani
N7A N 0.5719(4) -0.1805(4) 0.1231(2) 0.1357 Uani
N8A N 0.4427(4) -0.0897(4) 0.0971(2) 0.1247 Uani
H1A H 0.4624 -0.0767 0.0838 0.0800 Uiso
N9A N 0.4268(3) -0.2434(4) 0.2253(2) 0.1543 Uani
H2A H 0.3973 -0.2356 0.2249 0.0800 Uiso
N10A N 0.6340(4) -0.2318(3) 0.1383(2) 0.1333 Uani
H3A H 0.6406 -0.2580 0.1481 0.0800 Uiso
O1A O 0.3729(2) 0.0427(2) 0.03253(13) 0.0670 Uani
O2A O 0.2951(2) 0.02404(19) 0.03320(12) 0.0707 Uani
O3A O 0.2320(2) -0.07911(18) 0.11675(12) 0.0660 Uani
O4A O 0.28126(19) -0.11235(19) 0.15359(14) 0.0680 Uani
O5A O 0.57132(19) -0.27553(19) 0.29861(12) 0.0593 Uani
O6A O 0.54419(17) -0.3274(2) 0.33526(14) 0.0623 Uani
O7A O 0.37760(16) -0.37107(18) 0.33670(13) 0.0687 Uani
O8A O 0.32822(18) -0.34614(18) 0.29673(11) 0.0630 Uani
O9A O 0.6529(2) -0.13461(18) 0.03473(12) 0.0640 Uani
O10A O 0.7288(2) -0.1183(2) 0.03369(12) 0.0620 Uani
O11A O 0.8354(2) -0.1811(2) 0.11711(13) 0.0713 Uani
O12A O 0.8068(2) -0.2262(2) 0.15719(15) 0.0697 Uani
O15A O 0.1257(2) -0.0736(3) 0.09931(15) 0.1377 Uani
O16A O 0.2784(2) -0.1639(2) 0.21946(16) 0.1193 Uani
C1A C 0.5288(6) -0.1663(6) 0.1274(3) 0.1187 Uani
C2A C 0.4610(5) -0.1224(6) 0.1157(3) 0.1227 Uani
C3A C 0.4535(5) -0.1776(5) 0.1579(4) 0.1183 Uani
C4A C 0.4524(6) -0.2254(6) 0.2011(4) 0.1403 Uani
C5A C 0.5221(5) -0.2247(5) 0.1740(3) 0.1137 Uani
C6A C 0.5892(5) -0.2162(5) 0.1432(3) 0.1213 Uani
C7A C 0.3978(5) -0.0727(4) 0.0953(3) 0.1033 Uani
C8A C 0.3905(4) -0.0365(4) 0.0731(2) 0.0867 Uani
H4A H 0.4164 -0.0233 0.0624 0.1040 Uiso
C9A C 0.3442(4) -0.0194(3) 0.0665(2) 0.0633 Uani
C10A C 0.3065(3) -0.0391(4) 0.0847(2) 0.0630 Uani
H5A H 0.2755 -0.0290 0.0809 0.0760 Uiso
C11A C 0.3151(4) -0.0732(3) 0.1082(2) 0.0657 Uani
C12A C 0.3606(5) -0.0897(3) 0.1136(3) 0.1013 Uani
H6A H 0.3661 -0.1124 0.1296 0.1210 Uiso
C13A C 0.3391(4) 0.0190(3) 0.0428(2) 0.0613 Uani
C14A C 0.2739(4) -0.0891(3) 0.1290(3) 0.0717 Uani
C15A C 0.4399(4) -0.2734(3) 0.2520(2) 0.0850 Uani
C16A C 0.4855(3) -0.2772(3) 0.2670(2) 0.0747 Uani
H7A H 0.5119 -0.2624 0.2580 0.0900 Uiso
C17A C 0.4892(4) -0.3036(3) 0.2952(2) 0.0693 Uani
C18A C 0.4538(4) -0.3284(3) 0.30843(19) 0.0520 Uani
H8A H 0.4587 -0.3466 0.3270 0.0620 Uiso
C19A C 0.4103(3) -0.3265(3) 0.2940(2) 0.0517 Uani
C20A C 0.4022(3) -0.2988(3) 0.2676(3) 0.0950 Uani
H9A H 0.3715 -0.2962 0.2594 0.1140 Uiso
C21A C 0.5379(4) -0.3023(3) 0.3104(3) 0.0673 Uani
C22A C 0.3685(3) -0.3489(3) 0.3101(2) 0.0497 Uani
C23A C 0.6718(4) -0.2129(3) 0.1199(3) 0.0847 Uani
C24A C 0.6638(3) -0.1884(3) 0.0901(2) 0.0710 Uani
H10A H 0.6336 -0.1860 0.0810 0.0850 Uiso
C25A C 0.7021(4) -0.1685(3) 0.0755(2) 0.0593 Uani
C26A C 0.7480(3) -0.1733(3) 0.0879(2) 0.0547 Uani
H11A H 0.7736 -0.1593 0.0773 0.0650 Uiso
C27A C 0.7550(4) -0.1983(3) 0.1153(3) 0.0567 Uani
C28A C 0.7168(4) -0.2176(3) 0.1317(2) 0.0810 Uani
H12A H 0.7218 -0.2340 0.1511 0.0980 Uiso
C29A C 0.6934(4) -0.1388(3) 0.0458(2) 0.0577 Uani
C30A C 0.8017(4) -0.2048(4) 0.1330(3) 0.0663 Uani
Cu1A Cu 0.36686(4) 0.09079(4) 0.0000 0.0480 Uani
Cu2A Cu 0.27523(4) 0.06960(4) 0.0000 0.0493 Uani
Cu3B Cu 0.89928(3) -0.17256(3) 0.13690(2) 0.0497 Uani
Cu3C Cu 0.10072(3) 0.17256(3) 0.13690(2) 0.0497 Uani
Cu3L Cu 0.67256(3) 0.39928(3) 0.36310(2) 0.0497 Uani
Cu3M Cu 0.32744(3) -0.39928(3) 0.36310(2) 0.0497 Uani
Cu3N Cu 0.60072(3) -0.32744(3) 0.36310(2) 0.0497 Uani
Cu3O Cu 0.39928(3) 0.32744(3) 0.36310(2) 0.0497 Uani
Cu4B Cu 0.86493(3) -0.23028(3) 0.18213(2) 0.0493 Uani
Cu4C Cu 0.13507(3) 0.23028(3) 0.18213(2) 0.0493 Uani
Cu4L Cu 0.73028(3) 0.36493(3) 0.31787(2) 0.0493 Uani
Cu4M Cu 0.26972(3) -0.36493(3) 0.31787(2) 0.0493 Uani
Cu4N Cu 0.63507(3) -0.26972(3) 0.31787(2) 0.0493 Uani
Cu4O Cu 0.36493(3) 0.26972(3) 0.31787(2) 0.0493 Uani
O1I O 0.6271(2) -0.0427(2) -0.03253(13) 0.0670 Uani
O2I O 0.7049(2) -0.02404(19) -0.03320(12) 0.0707 Uani
O5N O 0.77553(19) 0.07132(19) 0.20139(12) 0.0593 Uani
O5O O 0.22447(19) -0.07132(19) 0.20139(12) 0.0593 Uani
O6N O 0.8274(2) 0.04419(17) 0.16474(14) 0.0623 Uani
O6O O 0.1726(2) -0.04419(17) 0.16474(14) 0.0623 Uani
O7L O 0.87760(16) 0.12893(18) 0.16330(13) 0.0687 Uani
O7M O 0.12240(16) -0.12893(18) 0.16330(13) 0.0687 Uani
O8L O 0.82822(18) 0.15386(18) 0.20327(11) 0.0630 Uani
O8M O 0.17178(18) -0.15386(18) 0.20327(11) 0.0630 Uani
O9H O 0.6529(2) -0.13461(18) -0.03473(12) 0.0640 Uani
O10H O 0.7288(2) -0.1183(2) -0.03369(12) 0.0620 Uani
O11B O 0.8189(2) 0.1646(2) 0.11711(13) 0.0713 Uani
O11C O 0.1811(2) -0.1646(2) 0.11711(13) 0.0713 Uani
O12B O 0.7738(2) 0.1932(2) 0.15719(15) 0.0697 Uani
O12C O 0.2262(2) -0.1932(2) 0.15719(15) 0.0697 Uani
loop_
_atom_site_aniso_label
_atom_site_aniso_U_11
_atom_site_aniso_U_22
_atom_site_aniso_U_33
_atom_site_aniso_U_23
_atom_site_aniso_U_13
_atom_site_aniso_U_12
Cu1 0.038(3) 0.063(3) 0.043(3) 0.000 0.000 -0.0025(7)
Cu2 0.043(3) 0.061(3) 0.044(3) 0.000 0.000 -0.0023(7)
Cu3 0.053(3) 0.051(3) 0.045(3) -0.0111(5) 0.0106(5) -0.0038(5)
Cu4 0.049(3) 0.052(3) 0.047(3) -0.0098(5) 0.0100(5) -0.0027(5)
N1 0.070(8) 0.163(9) 0.159(9) -0.109(8) 0.002(7) 0.032(7)
N2 0.094(9) 0.176(9) 0.101(8) -0.075(7) -0.010(6) 0.036(7)
N3 0.085(8) 0.205(11) 0.158(10) -0.130(9) -0.027(7) 0.034(7)
N4 0.093(9) 0.242(13) 0.166(11) -0.163(10) 0.006(8) 0.030(8)
N5 0.095(8) 0.177(9) 0.127(8) -0.090(7) -0.034(6) -0.005(7)
N6 0.069(7) 0.181(9) 0.136(8) -0.074(7) -0.050(6) 0.030(6)
N7 0.071(9) 0.191(11) 0.145(9) -0.081(8) -0.007(6) 0.064(7)
N8 0.066(8) 0.150(8) 0.158(9) -0.120(7) -0.028(6) 0.040(6)
N9 0.037(6) 0.291(13) 0.135(8) -0.154(9) -0.003(5) 0.009(6)
N10 0.045(7) 0.209(10) 0.146(9) -0.134(7) -0.034(6) 0.054(6)
O1 0.045(5) 0.077(5) 0.079(5) -0.035(3) 0.005(3) -0.012(3)
O2 0.067(5) 0.092(6) 0.053(5) -0.032(3) -0.009(3) -0.009(4)
O3 0.057(5) 0.079(5) 0.062(5) -0.017(3) -0.006(3) -0.016(3)
O4 0.067(5) 0.077(5) 0.060(5) -0.029(3) -0.014(3) -0.022(3)
O5 0.046(5) 0.075(5) 0.057(5) -0.024(3) 0.007(3) 0.000(3)
O6 0.046(5) 0.079(5) 0.062(5) -0.026(3) -0.003(3) -0.011(3)
O7 0.048(5) 0.086(5) 0.072(5) -0.026(3) 0.015(3) -0.012(3)
O8 0.040(5) 0.097(5) 0.052(5) -0.018(3) 0.006(3) -0.009(3)
O9 0.062(5) 0.080(5) 0.050(5) -0.029(3) 0.007(3) 0.001(3)
O10 0.056(5) 0.093(6) 0.037(5) -0.013(3) 0.007(3) 0.014(3)
O11 0.074(6) 0.095(5) 0.045(5) -0.006(3) 0.011(3) 0.026(4)
O12 0.071(5) 0.093(6) 0.045(5) -0.030(4) 0.010(4) 0.012(3)
O13 0.124(5) 0.126(5) 0.124(5) 0.000 0.000 0.0016(11)
O14 0.063(7) 0.139(9) 0.171(10) 0.000 0.000 -0.022(6)
O15 0.143(7) 0.165(7) 0.105(6) -0.038(5) 0.058(5) 0.035(5)
O16 0.106(6) 0.102(6) 0.150(7) -0.010(4) -0.048(4) 0.019(4)
C1 0.088(11) 0.153(11) 0.115(10) -0.056(9) 0.002(10) 0.002(10)
C2 0.071(10) 0.179(12) 0.118(11) -0.049(9) -0.045(9) -0.001(10)
C3 0.103(12) 0.142(10) 0.110(10) -0.105(9) -0.014(9) 0.015(9)
C4 0.114(12) 0.186(12) 0.121(11) -0.032(10) -0.044(10) 0.003(10)
C5 0.113(5) 0.115(5) 0.113(5) -0.003(2) -0.001(2) 0.002(2)
C6 0.068(10) 0.150(11) 0.146(11) -0.039(9) -0.005(9) -0.009(9)
C7 0.041(8) 0.150(10) 0.119(9) -0.078(8) -0.034(7) 0.027(8)
C8 0.082(10) 0.107(9) 0.071(8) -0.051(6) -0.012(6) 0.007(7)
C9 0.052(7) 0.074(7) 0.064(7) -0.032(6) -0.004(6) 0.014(6)
C10 0.047(7) 0.083(8) 0.059(7) -0.006(6) -0.023(6) -0.003(6)
C11 0.079(11) 0.076(8) 0.042(7) -0.051(6) -0.008(7) -0.001(7)
C12 0.064(9) 0.095(9) 0.145(11) -0.054(7) 0.011(9) 0.019(8)
C13 0.078(9) 0.062(8) 0.044(7) -0.010(6) 0.001(6) 0.002(7)
C14 0.054(8) 0.087(8) 0.074(9) -0.014(6) 0.007(8) -0.010(7)
C15 0.084(4) 0.086(4) 0.085(5) -0.004(2) 0.000(2) 0.001(2)
C16 0.048(7) 0.095(8) 0.081(8) -0.016(6) -0.007(5) -0.013(5)
C17 0.069(9) 0.071(7) 0.068(8) -0.025(6) 0.025(7) 0.000(6)
C18 0.040(8) 0.049(6) 0.067(7) -0.017(5) -0.017(7) -0.014(5)
C19 0.015(7) 0.089(8) 0.051(7) -0.029(5) 0.010(5) 0.010(5)
C20 0.059(7) 0.103(8) 0.123(9) -0.050(7) 0.012(6) -0.008(6)
C21 0.073(9) 0.062(8) 0.067(8) -0.001(6) -0.033(8) 0.006(6)
C22 0.049(4) 0.050(4) 0.050(4) 0.000(2) 0.000(2) -0.001(2)
C23 0.057(9) 0.115(8) 0.082(9) -0.030(7) -0.029(7) 0.002(6)
C24 0.057(8) 0.117(8) 0.039(7) -0.040(6) -0.007(6) 0.001(6)
C25 0.055(8) 0.076(7) 0.047(8) -0.024(6) -0.002(7) 0.009(6)
C26 0.053(8) 0.073(7) 0.038(7) -0.016(5) 0.014(5) 0.010(5)
C27 0.045(9) 0.071(7) 0.054(8) -0.008(5) 0.008(7) 0.006(6)
C28 0.036(8) 0.110(8) 0.097(8) -0.037(6) 0.006(7) 0.023(6)
C29 0.041(9) 0.082(8) 0.050(9) -0.016(6) -0.004(7) 0.026(6)
C30 0.050(8) 0.099(9) 0.050(8) 0.015(6) -0.007(8) 0.018(6)
Cu3A 0.053 0.051 0.045 0.0111 -0.0106 -0.0038
Cu4A 0.049 0.052 0.047 0.0098 -0.01 -0.0027
N1A 0.07 0.163 0.159 0.109 -0.002 0.032
N2A 0.094 0.176 0.101 0.075 0.01 0.036
N3A 0.085 0.205 0.158 0.13 0.027 0.034
N4A 0.093 0.242 0.166 0.163 -0.006 0.03
N5A 0.095 0.177 0.127 0.09 0.034 -0.005
N6A 0.069 0.181 0.136 0.074 0.05 0.03
N7A 0.071 0.191 0.145 0.081 0.007 0.064
N8A 0.066 0.15 0.158 0.12 0.028 0.04
N9A 0.037 0.291 0.135 0.154 0.003 0.009
N10A 0.045 0.209 0.146 0.134 0.034 0.054
O1A 0.045 0.077 0.079 0.035 -0.005 -0.012
O2A 0.067 0.092 0.053 0.032 0.009 -0.009
O3A 0.057 0.079 0.062 0.017 0.006 -0.016
O4A 0.067 0.077 0.06 0.029 0.014 -0.022
O5A 0.046 0.075 0.057 0.024 -0.007 0
O6A 0.046 0.079 0.062 0.026 0.003 -0.011
O7A 0.048 0.086 0.072 0.026 -0.015 -0.012
O8A 0.04 0.097 0.052 0.018 -0.006 -0.009
O9A 0.062 0.08 0.05 0.029 -0.007 0.001
O10A 0.056 0.093 0.037 0.013 -0.007 0.014
O11A 0.074 0.095 0.045 0.006 -0.011 0.026
O12A 0.071 0.093 0.045 0.03 -0.01 0.012
O15A 0.143 0.165 0.105 0.038 -0.058 0.035
O16A 0.106 0.102 0.15 0.01 0.048 0.019
C1A 0.088 0.153 0.115 0.056 -0.002 0.002
C2A 0.071 0.179 0.118 0.049 0.045 -0.001
C3A 0.103 0.142 0.11 0.105 0.014 0.015
C4A 0.114 0.186 0.121 0.032 0.044 0.003
C5A 0.113 0.115 0.113 0.003 0.001 0.002
C6A 0.068 0.15 0.146 0.039 0.005 -0.009
C7A 0.041 0.15 0.119 0.078 0.034 0.027
C8A 0.082 0.107 0.071 0.051 0.012 0.007
C9A 0.052 0.074 0.064 0.032 0.004 0.014
C10A 0.047 0.083 0.059 0.006 0.023 -0.003
C11A 0.079 0.076 0.042 0.051 0.008 -0.001
C12A 0.064 0.095 0.145 0.054 -0.011 0.019
C13A 0.078 0.062 0.044 0.01 -0.001 0.002
C14A 0.054 0.087 0.074 0.014 -0.007 -0.01
C15A 0.084 0.086 0.085 0.004 0 0.001
C16A 0.048 0.095 0.081 0.016 0.007 -0.013
C17A 0.069 0.071 0.068 0.025 -0.025 0
C18A 0.04 0.049 0.067 0.017 0.017 -0.014
C19A 0.015 0.089 0.051 0.029 -0.01 0.01
C20A 0.059 0.103 0.123 0.05 -0.012 -0.008
C21A 0.073 0.062 0.067 0.001 0.033 0.006
C22A 0.049 0.05 0.05 0 0 -0.001
C23A 0.057 0.115 0.082 0.03 0.029 0.002
C24A 0.057 0.117 0.039 0.04 0.007 0.001
C25A 0.055 0.076 0.047 0.024 0.002 0.009
C26A 0.053 0.073 0.038 0.016 -0.014 0.01
C27A 0.045 0.071 0.054 0.008 -0.008 0.006
C28A 0.036 0.11 0.097 0.037 -0.006 0.023
C29A 0.041 0.082 0.05 0.016 0.004 0.026
C30A 0.05 0.099 0.05 -0.015 0.007 0.018
Cu1A 0.038 0.063 0.043 0 0 -0.0025
Cu2A 0.043 0.061 0.044 0 0 -0.0023
Cu3B 0.051 0.053 0.045 0.0106 0.0111 0.0038
Cu3C 0.051 0.053 0.045 -0.0106 -0.0111 0.0038
Cu3L 0.053 0.051 0.045 -0.0111 0.0106 -0.0038
Cu3M 0.053 0.051 0.045 0.0111 -0.0106 -0.0038
Cu3N 0.051 0.053 0.045 0.0106 0.0111 0.0038
Cu3O 0.051 0.053 0.045 -0.0106 -0.0111 0.0038
Cu4B 0.052 0.049 0.047 0.01 0.0098 0.0027
Cu4C 0.052 0.049 0.047 -0.01 -0.0098 0.0027
Cu4L 0.049 0.052 0.047 -0.0098 0.01 -0.0027
Cu4M 0.049 0.052 0.047 0.0098 -0.01 -0.0027
Cu4N 0.052 0.049 0.047 0.01 0.0098 0.0027
Cu4O 0.052 0.049 0.047 -0.01 -0.0098 0.0027
O1I 0.045 0.077 0.079 0.035 -0.005 -0.012
O2I 0.067 0.092 0.053 0.032 0.009 -0.009
O5N 0.075 0.046 0.057 0.007 0.024 0
O5O 0.075 0.046 0.057 -0.007 -0.024 0
O6N 0.079 0.046 0.062 -0.003 0.026 0.011
O6O 0.079 0.046 0.062 0.003 -0.026 0.011
O7L 0.048 0.086 0.072 -0.026 0.015 -0.012
O7M 0.048 0.086 0.072 0.026 -0.015 -0.012
O8L 0.04 0.097 0.052 -0.018 0.006 -0.009
O8M 0.04 0.097 0.052 0.018 -0.006 -0.009
O9H 0.062 0.08 0.05 -0.029 0.007 0.001
O10H 0.056 0.093 0.037 -0.013 0.007 0.014
O11B 0.095 0.074 0.045 0.011 0.006 -0.026
O11C 0.095 0.074 0.045 -0.011 -0.006 -0.026
O12B 0.093 0.071 0.045 0.01 0.03 -0.012
O12C 0.093 0.071 0.045 -0.01 -0.03 -0.012
loop_
_geom_bond_atom_site_label_1
_geom_bond_atom_site_label_2
_geom_bond_site_symmetry_1
_geom_bond_site_symmetry_2
Cu1 Cu2 1_555 1_555
Cu2 O2 1_555 1_555
Cu3 Cu4 1_555 1_555
Cu4 O4 1_555 1_555
N1 C1 1_555 1_555
N2 C1 1_555 1_555
N3 C2 1_555 1_555
N4 C3 1_555 1_555
N5 C4 1_555 1_555
N6 C5 1_555 1_555
N7 C1 1_555 1_555
N8 H1 1_555 1_555
N9 H2 1_555 1_555
N10 H3 1_555 1_555
O1 Cu1 1_555 1_555
O2 C13 1_555 1_555
O3 Cu3 1_555 1_555
O4 C14 1_555 1_555
O5 C21 1_555 1_555
O6 C21 1_555 1_555
O7 C22 1_555 1_555
O8 C22 1_555 1_555
O9 C29 1_555 1_555
O10 C29 1_555 1_555
O11 C30 1_555 1_555
O12 C30 1_555 1_555
O13 Cu1 1_555 1_555
O14 Cu2 1_555 1_555
O15 Cu3 1_555 1_555
O16 Cu4 1_555 1_555
C2 N2 1_555 1_555
C3 N1 1_555 1_555
C4 N4 1_555 1_555
C5 N1 1_555 1_555
C6 N6 1_555 1_555
C7 N8 1_555 1_555
C8 C7 1_555 1_555
H4 C8 1_555 1_555
C9 C8 1_555 1_555
C10 C9 1_555 1_555
H5 C10 1_555 1_555
C11 C10 1_555 1_555
C12 C7 1_555 1_555
H6 C12 1_555 1_555
C13 O1 1_555 1_555
C14 O3 1_555 1_555
C15 N9 1_555 1_555
C16 C15 1_555 1_555
H7 C16 1_555 1_555
C17 C16 1_555 1_555
C18 C17 1_555 1_555
H8 C18 1_555 1_555
C19 C18 1_555 1_555
C20 C15 1_555 1_555
H9 C20 1_555 1_555
C21 C17 1_555 1_555
C22 C19 1_555 1_555
C23 N10 1_555 1_555
C24 C23 1_555 1_555
H10 C24 1_555 1_555
C25 C24 1_555 1_555
C26 C25 1_555 1_555
H11 C26 1_555 1_555
C27 C26 1_555 1_555
C28 C23 1_555 1_555
H12 C28 1_555 1_555
C29 C25 1_555 1_555
C30 C27 1_555 1_555
Cu3A Cu4A 1_555 1_555
Cu4A O4A 1_555 1_555
N1A C1A 1_555 1_555
N2A C1A 1_555 1_555
N3A C2A 1_555 1_555
N4A C3A 1_555 1_555
N5A C4A 1_555 1_555
N6A C5A 1_555 1_555
N7A C1A 1_555 1_555
N8A H1A 1_555 1_555
N9A H2A 1_555 1_555
N10A H3A 1_555 1_555
O1A C13A 1_555 1_555
O2A C13A 1_555 1_555
O3A Cu3A 1_555 1_555
O4A C14A 1_555 1_555
O5A C21A 1_555 1_555
O6A C21A 1_555 1_555
O7A C22A 1_555 1_555
O8A C22A 1_555 1_555
O9A Cu1 1_555 1_555
O10A Cu2 1_555 1_555
O11A C30A 1_555 1_555
O12A C30A 1_555 1_555
O15A Cu3A 1_555 1_555
O16A Cu4A 1_555 1_555
C2A N2A 1_555 1_555
C3A N1A 1_555 1_555
C4A N4A 1_555 1_555
C5A N1A 1_555 1_555
C6A N6A 1_555 1_555
C7A N8A 1_555 1_555
C8A C7A 1_555 1_555
H4A C8A 1_555 1_555
C9A C8A 1_555 1_555
C10A C9A 1_555 1_555
H5A C10A 1_555 1_555
C11A C10A 1_555 1_555
C12A C7A 1_555 1_555
H6A C12A 1_555 1_555
C13A C9A 1_555 1_555
C14A O3A 1_555 1_555
C15A N9A 1_555 1_555
C16A C15A 1_555 1_555
H7A C16A 1_555 1_555
C17A C16A 1_555 1_555
C18A C17A 1_555 1_555
H8A C18A 1_555 1_555
C19A C18A 1_555 1_555
C20A C15A 1_555 1_555
H9A C20A 1_555 1_555
C21A C17A 1_555 1_555
C22A C19A 1_555 1_555
C23A N10A 1_555 1_555
C24A C23A 1_555 1_555
H10A C24A 1_555 1_555
C25A C24A 1_555 1_555
C26A C25A 1_555 1_555
H11A C26A 1_555 1_555
C27A C26A 1_555 1_555
C28A C23A 1_555 1_555
H12A C28A 1_555 1_555
C29A O9A 1_555 1_555
C30A C27A 1_555 1_555
Cu1A O9 1_555 1_555
Cu2A O10 1_555 1_555
Cu3B O11A 1_555 1_555
Cu3C O11 1_555 1_555
Cu3L O7 1_555 1_555
Cu3M O7A 1_555 1_555
Cu3N O6A 1_555 1_555
Cu3O O6 1_555 1_555
Cu4B O12A 1_555 1_555
Cu4C O12 1_555 1_555
Cu4L O8 1_555 1_555
Cu4M O8A 1_555 1_555
Cu4N O5A 1_555 1_555
Cu4O O5 1_555 1_555
O1I Cu1 1_555 1_555
O2I Cu2 1_555 1_555
O5N Cu4 1_555 1_555
O5O Cu4A 1_555 1_555
O6N Cu3 1_555 1_555
O6O Cu3A 1_555 1_555
O7L Cu3 1_555 1_555
O7M Cu3A 1_555 1_555
O8L Cu4 1_555 1_555
O8M Cu4A 1_555 1_555
O9H Cu1 1_555 1_555
O10H Cu2 1_555 1_555
O11B Cu3 1_555 1_555
O11C Cu3A 1_555 1_555
O12B Cu4 1_555 1_555
O12C Cu4A 1_555 1_555
N3 C3 1_555 1_555
N5 C5 1_555 1_555
N7 C6 1_555 1_555
N8 C2 1_555 1_555
N9 C4 1_555 1_555
N10 C6 1_555 1_555
C9 C13 1_555 1_555
C11 C12 1_555 1_555
C11 C14 1_555 1_555
C19 C20 1_555 1_555
C27 C28 1_555 1_555
N3A C3A 1_555 1_555
N5A C5A 1_555 1_555
N7A C6A 1_555 1_555
N8A C2A 1_555 1_555
N9A C4A 1_555 1_555
N10A C6A 1_555 1_555
O1A Cu1A 1_555 1_555
O2A Cu2A 1_555 1_555
O10A C29A 1_555 1_555
C11A C12A 1_555 1_555
C11A C14A 1_555 1_555
C19A C20A 1_555 1_555
C25A C29A 1_555 1_555
C27A C28A 1_555 1_555
Cu1A Cu2A 1_555 1_555
Cu3B Cu4B 1_555 1_555
Cu3C Cu4C 1_555 1_555
Cu3L Cu4L 1_555 1_555
Cu3M Cu4M 1_555 1_555
Cu3N Cu4N 1_555 1_555
Cu3O Cu4O 1_555 1_555

#END
