
#######################################################################
#
#                 Cambridge Crystallographic Data Centre
#                                CCDC 
#
#######################################################################
#
# If this CIF has been generated from an entry in the Cambridge 
# Structural Database, then it will include bibliographic, chemical, 
# crystal, experimental, refinement or atomic coordinate data resulting 
# from the CCDC's data processing and validation procedures.
#
#######################################################################

data_BUKXUC
_chemical_formula_moiety         '(C16 H22 Li2 N4 O4)n'
_chemical_name_systematic        
catena-[bis(\m-pyridin-4-olato)-bis(N,N-dimethylformamide)-di-lithium]
_symmetry_cell_setting           monoclinic
_symmetry_space_group_name_H-M   'P 21'
_symmetry_Int_Tables_number      4
_space_group_name_Hall           'P 2yb'
loop_
_symmetry_equiv_pos_site_id
_symmetry_equiv_pos_as_xyz
1 x,y,z
2 -x,1/2+y,-z
_cell_length_a                   9.424(2)
_cell_length_b                   10.634(2)
_cell_length_c                   9.4807(18)
_cell_angle_alpha                90
_cell_angle_beta                 98.611(16)
_cell_angle_gamma                90
_cell_volume                     939.397
_exptl_crystal_colour            colorless
_exptl_crystal_description       plate
_cell_formula_units_Z            2
loop_
_atom_site_label
_atom_site_type_symbol
_atom_site_fract_x
_atom_site_fract_y
_atom_site_fract_z
_atom_site_U_iso_or_equiv
_atom_site_thermal_displace_type
O1 O 0.1639(5) 0.6677(5) 0.2258(5) 0.0369 Uani
N1 N 0.5079(6) 1.1381(6) 0.6225(6) 0.0365 Uani
O2 O -0.0499(5) 0.8476(5) 0.4141(5) 0.0453 Uani
O3 O 0.2713(5) 0.8932(5) 0.3355(5) 0.0398 Uani
N2 N 0.0160(6) 0.4140(6) -0.0974(6) 0.0379 Uani
N3 N 0.5197(6) 0.7637(6) -0.1200(6) 0.0369 Uani
C1 C -0.0259(8) 0.5454(8) 0.0998(7) 0.0397 Uani
H1 H -0.0915 0.5750 0.1562 0.0480 Uiso
C2 C 0.4933(8) 0.9828(7) 0.4378(7) 0.0366 Uani
H2 H 0.5432 0.9363 0.3781 0.0440 Uiso
N4 N -0.0001(6) 0.7544(6) 0.6334(6) 0.0386 Uani
C3 C 0.2813(7) 1.0482(8) 0.5184(7) 0.0383 Uani
H3 H 0.1825 1.0469 0.5178 0.0460 Uiso
C4 C 0.2087(8) 0.5300(8) 0.0390(7) 0.0382 Uani
H4 H 0.3063 0.5483 0.0533 0.0460 Uiso
C5 C 0.1213(9) 0.5855(7) 0.1280(7) 0.0394 Uani
O4 O 0.4298(6) 0.7945(6) 0.0851(6) 0.0612 Uani
C6 C 0.3418(8) 0.9699(8) 0.4247(7) 0.0353 Uani
C7 C 0.3658(8) 1.1279(7) 0.6122(7) 0.0371 Uani
H5 H 0.3198 1.1777 0.6721 0.0450 Uiso
C8 C 0.5681(8) 1.0627(7) 0.5367(7) 0.0358 Uani
H6 H 0.6676 1.0638 0.5439 0.0430 Uiso
C9 C -0.0698(8) 0.4643(8) -0.0091(7) 0.0411 Uani
H7 H -0.1661 0.4415 -0.0241 0.0490 Uiso
C10 C 0.4393(8) 0.8195(8) -0.0377(8) 0.0472 Uani
H8 H 0.3831 0.8859 -0.0782 0.0570 Uiso
C11 C 0.5346(8) 0.8098(8) -0.2612(7) 0.0489 Uani
H9 H 0.4667 0.8762 -0.2872 0.0730 Uiso
H10 H 0.5167 0.7425 -0.3289 0.0730 Uiso
H11 H 0.6301 0.8413 -0.2607 0.0730 Uiso
C12 C -0.0723(7) 0.8285(8) 0.5356(8) 0.0410 Uani
H12 H -0.1497 0.8713 0.5630 0.0490 Uiso
C13 C 0.1551(8) 0.4491(8) -0.0691(7) 0.0431 Uani
H13 H 0.2184 0.4166 -0.1262 0.0520 Uiso
C14 C 0.6162(8) 0.6607(9) -0.0616(8) 0.0541 Uani
H14 H 0.5966 0.6388 0.0319 0.0810 Uiso
H15 H 0.7141 0.6876 -0.0555 0.0810 Uiso
H16 H 0.6004 0.5887 -0.1230 0.0810 Uiso
C15 C 0.1222(8) 0.6829(8) 0.5948(8) 0.0524 Uani
H17 H 0.1413 0.7097 0.5028 0.0780 Uiso
H18 H 0.0996 0.5948 0.5917 0.0780 Uiso
H19 H 0.2053 0.6975 0.6646 0.0780 Uiso
C16 C -0.0444(8) 0.7293(8) 0.7702(7) 0.0493 Uani
H20 H -0.1236 0.7830 0.7824 0.0740 Uiso
H21 H 0.0342 0.7453 0.8448 0.0740 Uiso
H22 H -0.0734 0.6430 0.7741 0.0740 Uiso
Li1 Li 0.0814(12) 0.8241(12) 0.2770(11) 0.0364 Uani
Li2 Li 0.3509(12) 0.7516(15) 0.2522(12) 0.0436 Uani
N1A N 0.4921(6) 0.6381(6) 0.3775(6) 0.0365 Uani
N2A N -0.0160(6) 0.9140(6) 0.0974(6) 0.0379 Uani
Li1A Li -0.0814(12) 0.3241(12) -0.2770(11) 0.0364 Uani
Li2A Li 0.6491(12) 1.2516(15) 0.7478(12) 0.0436 Uani
loop_
_atom_site_aniso_label
_atom_site_aniso_U_11
_atom_site_aniso_U_22
_atom_site_aniso_U_33
_atom_site_aniso_U_23
_atom_site_aniso_U_13
_atom_site_aniso_U_12
O1 0.038(3) 0.024(3) 0.045(3) -0.003(3) -0.006(2) 0.001(2)
N1 0.039(4) 0.023(4) 0.046(4) 0.000(3) 0.001(3) 0.003(3)
O2 0.049(3) 0.041(4) 0.046(3) 0.004(3) 0.007(3) 0.009(3)
O3 0.041(3) 0.027(4) 0.046(3) -0.005(3) -0.011(2) -0.002(3)
N2 0.034(4) 0.021(4) 0.056(4) 0.002(3) -0.002(3) 0.001(3)
N3 0.028(3) 0.033(5) 0.047(4) 0.012(3) -0.003(3) -0.001(3)
C1 0.045(5) 0.034(6) 0.038(4) -0.005(4) -0.001(4) 0.006(4)
C2 0.042(5) 0.025(5) 0.043(4) 0.005(4) 0.007(4) 0.004(4)
N4 0.048(4) 0.028(5) 0.040(3) -0.001(3) 0.007(3) 0.003(3)
C3 0.026(4) 0.044(6) 0.042(4) -0.003(4) -0.004(3) -0.001(4)
C4 0.028(5) 0.037(6) 0.048(5) 0.003(4) 0.000(4) -0.001(4)
C5 0.057(5) 0.024(6) 0.034(4) 0.007(4) -0.004(4) 0.005(4)
O4 0.075(4) 0.056(5) 0.056(4) -0.001(3) 0.021(3) -0.007(3)
C6 0.034(5) 0.034(5) 0.034(4) 0.008(4) -0.008(3) -0.002(4)
C7 0.033(5) 0.025(5) 0.051(5) -0.004(4) -0.001(4) -0.003(4)
C8 0.030(4) 0.028(6) 0.047(5) 0.006(4) -0.002(4) -0.009(4)
C9 0.032(4) 0.038(6) 0.052(5) -0.001(5) 0.002(4) -0.002(4)
C10 0.051(5) 0.037(6) 0.056(6) -0.007(5) 0.016(5) 0.006(4)
C11 0.043(5) 0.046(6) 0.056(5) 0.007(4) 0.002(4) 0.003(4)
C12 0.031(5) 0.037(6) 0.054(5) -0.002(4) 0.003(4) 0.004(4)
C13 0.034(5) 0.052(7) 0.042(5) -0.006(4) 0.001(4) 0.006(4)
C14 0.066(6) 0.038(6) 0.058(5) 0.018(5) 0.008(4) 0.014(5)
C15 0.047(5) 0.044(7) 0.067(6) 0.002(5) 0.011(4) 0.014(4)
C16 0.058(5) 0.040(6) 0.052(5) 0.011(4) 0.015(4) 0.012(4)
Li1 0.046(8) 0.019(8) 0.044(7) 0.005(6) 0.006(6) -0.003(6)
Li2 0.028(7) 0.049(10) 0.048(7) 0.006(7) -0.013(5) -0.001(6)
N1A 0.039 0.023 0.046 0 0.001 -0.003
N2A 0.034 0.021 0.056 -0.002 -0.002 -0.001
Li1A 0.046 0.019 0.044 -0.005 0.006 0.003
Li2A 0.028 0.049 0.048 -0.006 -0.013 0.001
loop_
_geom_bond_atom_site_label_1
_geom_bond_atom_site_label_2
_geom_bond_site_symmetry_1
_geom_bond_site_symmetry_2
O1 C5 1_555 1_555
N1 C7 1_555 1_555
O2 C12 1_555 1_555
O3 C6 1_555 1_555
N2 C9 1_555 1_555
N3 C10 1_555 1_555
C1 H1 1_555 1_555
C2 H2 1_555 1_555
N4 C12 1_555 1_555
C3 H3 1_555 1_555
C4 H4 1_555 1_555
C5 C1 1_555 1_555
O4 C10 1_555 1_555
C6 C2 1_555 1_555
C7 C3 1_555 1_555
H5 C7 1_555 1_555
C8 N1 1_555 1_555
H6 C8 1_555 1_555
C9 C1 1_555 1_555
H7 C9 1_555 1_555
C10 H8 1_555 1_555
C11 N3 1_555 1_555
H9 C11 1_555 1_555
H10 C11 1_555 1_555
H11 C11 1_555 1_555
C12 H12 1_555 1_555
C13 N2 1_555 1_555
H13 C13 1_555 1_555
C14 N3 1_555 1_555
H14 C14 1_555 1_555
H15 C14 1_555 1_555
H16 C14 1_555 1_555
C15 N4 1_555 1_555
H17 C15 1_555 1_555
H18 C15 1_555 1_555
H19 C15 1_555 1_555
C16 N4 1_555 1_555
H20 C16 1_555 1_555
H21 C16 1_555 1_555
H22 C16 1_555 1_555
Li1 O1 1_555 1_555
Li2 O1 1_555 1_555
N1A Li2 1_555 1_555
N2A Li1 1_555 1_555
Li1A N2 1_555 1_555
Li2A N1 1_555 1_555
O2 Li1 1_555 1_555
O3 Li1 1_555 1_555
O3 Li2 1_555 1_555
C2 C8 1_555 1_555
C3 C6 1_555 1_555
C4 C5 1_555 1_555
C4 C13 1_555 1_555
O4 Li2 1_555 1_555

#END
