
#######################################################################
#
#                 Cambridge Crystallographic Data Centre
#                                CCDC 
#
#######################################################################
#
# If this CIF has been generated from an entry in the Cambridge 
# Structural Database, then it will include bibliographic, chemical, 
# crystal, experimental, refinement or atomic coordinate data resulting 
# from the CCDC's data processing and validation procedures.
#
#######################################################################

data_YUSWEP
_chemical_name_common            PCN-21
_chemical_formula_moiety         '(C82 H56 Cu4 O20)n'
_chemical_name_systematic        
'catena-(bis(\m~8~-bis(3,5-bis(4-carboxylatophenyl)phenyl)methane)-tetraaqua-tetra-copper unknown solvate)'
_symmetry_cell_setting           cubic
_symmetry_space_group_name_H-M   'I m -3 m'
_symmetry_Int_Tables_number      229
_space_group_name_Hall           '-I 4 2 3'
loop_
_symmetry_equiv_pos_site_id
_symmetry_equiv_pos_as_xyz
1 x,y,z
2 -y,x,z
3 x,-y,-z
4 z,x,y
5 -x,-y,z
6 y,x,-z
7 -x,z,y
8 y,-x,z
9 -x,y,-z
10 -z,-x,y
11 -y,-x,-z
12 x,-z,y
13 z,-x,-y
14 -x,-z,-y
15 -z,x,-y
16 x,z,-y
17 y,z,x
18 z,-y,x
19 -z,y,x
20 z,y,-x
21 y,-z,-x
22 -z,-y,-x
23 -y,z,-x
24 -y,-z,x
25 1/2+x,1/2+y,1/2+z
26 1/2-y,1/2+x,1/2+z
27 1/2+x,1/2-y,1/2-z
28 1/2+z,1/2+x,1/2+y
29 1/2-x,1/2-y,1/2+z
30 1/2+y,1/2+x,1/2-z
31 1/2-x,1/2+z,1/2+y
32 1/2+y,1/2-x,1/2+z
33 1/2-x,1/2+y,1/2-z
34 1/2-z,1/2-x,1/2+y
35 1/2-y,1/2-x,1/2-z
36 1/2+x,1/2-z,1/2+y
37 1/2+z,1/2-x,1/2-y
38 1/2-x,1/2-z,1/2-y
39 1/2-z,1/2+x,1/2-y
40 1/2+x,1/2+z,1/2-y
41 1/2+y,1/2+z,1/2+x
42 1/2+z,1/2-y,1/2+x
43 1/2-z,1/2+y,1/2+x
44 1/2+z,1/2+y,1/2-x
45 1/2+y,1/2-z,1/2-x
46 1/2-z,1/2-y,1/2-x
47 1/2-y,1/2+z,1/2-x
48 1/2-y,1/2-z,1/2+x
49 -x,-y,-z
50 y,-x,-z
51 -x,y,z
52 -z,-x,-y
53 x,y,-z
54 -y,-x,z
55 x,-z,-y
56 -y,x,-z
57 x,-y,z
58 z,x,-y
59 y,x,z
60 -x,z,-y
61 -z,x,y
62 x,z,y
63 z,-x,y
64 -x,-z,y
65 -y,-z,-x
66 -z,y,-x
67 z,-y,-x
68 -z,-y,x
69 -y,z,x
70 z,y,x
71 y,-z,x
72 y,z,-x
73 1/2-x,1/2-y,1/2-z
74 1/2+y,1/2-x,1/2-z
75 1/2-x,1/2+y,1/2+z
76 1/2-z,1/2-x,1/2-y
77 1/2+x,1/2+y,1/2-z
78 1/2-y,1/2-x,1/2+z
79 1/2+x,1/2-z,1/2-y
80 1/2-y,1/2+x,1/2-z
81 1/2+x,1/2-y,1/2+z
82 1/2+z,1/2+x,1/2-y
83 1/2+y,1/2+x,1/2+z
84 1/2-x,1/2+z,1/2-y
85 1/2-z,1/2+x,1/2+y
86 1/2+x,1/2+z,1/2+y
87 1/2+z,1/2-x,1/2+y
88 1/2-x,1/2-z,1/2+y
89 1/2-y,1/2-z,1/2-x
90 1/2-z,1/2+y,1/2-x
91 1/2+z,1/2-y,1/2-x
92 1/2-z,1/2-y,1/2+x
93 1/2-y,1/2+z,1/2+x
94 1/2+z,1/2+y,1/2+x
95 1/2+y,1/2-z,1/2+x
96 1/2+y,1/2+z,1/2-x
_cell_length_a                   67.283(10)
_cell_length_b                   67.283(10)
_cell_length_c                   67.283(10)
_cell_angle_alpha                90
_cell_angle_beta                 90
_cell_angle_gamma                90
_cell_volume                     304590
_exptl_crystal_colour            green
_exptl_crystal_description       prism
_cell_formula_units_Z            48
loop_
_atom_site_label
_atom_site_type_symbol
_atom_site_fract_x
_atom_site_fract_y
_atom_site_fract_z
_atom_site_U_iso_or_equiv
_atom_site_thermal_displace_type
Cu1 Cu 0.122880(12) 0.5000 0.314840(12) 0.0681 Uani
Cu2 Cu 0.095250(12) 0.5000 0.342426(12) 0.0728 Uani
Cu3 Cu 0.099146(12) 0.266207(9) 0.266207(9) 0.0727 Uani
Cu4 Cu 0.063531(11) 0.254706(8) 0.254706(8) 0.0664 Uani
O1 O 0.10630(6) 0.47913(5) 0.30323(5) 0.0767 Uani
O2 O 0.08229(6) 0.48002(5) 0.32669(6) 0.0913 Uani
O3 O 0.08790(7) 0.29315(5) 0.26404(5) 0.0820 Uani
O4 O 0.05800(6) 0.28331(6) 0.25431(5) 0.0743 Uani
O5 O 0.23327(6) 0.60499(7) 0.26184(5) 0.0900 Uani
O6 O 0.24317(7) 0.57442(5) 0.27170(5) 0.0847 Uani
O7 O 0.13593(5) 0.51987(6) 0.33149(5) 0.0780 Uani
O8 O 0.11194(5) 0.52007(6) 0.35456(7) 0.0970 Uani
O9 O 0.14537(6) 0.5000 0.29161(6) 0.0880 Uani
O10 O 0.07293(8) 0.5000 0.36617(8) 0.1320 Uani
O11 O 0.12819(7) 0.27580(6) 0.27580(6) 0.1217 Uani
O12 O 0.03421(6) 0.24593(5) 0.24593(5) 0.1020 Uani
C1 C 0.09039(10) 0.47325(7) 0.31182(11) 0.0683 Uani
C2 C 0.07914(13) 0.45701(9) 0.30051(9) 0.0837 Uani
C3 C 0.08848(8) 0.44415(12) 0.28708(11) 0.0840 Uani
H1 H 0.1023 0.4456 0.2846 0.1010 Uiso
C4 C 0.07812(13) 0.42959(9) 0.27757(8) 0.0833 Uani
H2 H 0.0849 0.4211 0.2685 0.1000 Uiso
C5 C 0.05768(12) 0.42689(10) 0.28085(11) 0.0897 Uani
C6 C 0.04889(9) 0.43994(13) 0.29331(12) 0.1057 Uani
H3 H 0.0349 0.4391 0.2951 0.1270 Uiso
C7 C 0.05899(14) 0.45427(10) 0.30353(9) 0.1050 Uani
H4 H 0.0521 0.4624 0.3128 0.1260 Uiso
C8 C 0.04632(11) 0.41083(12) 0.26957(8) 0.0893 Uani
C9 C 0.05353(9) 0.39155(13) 0.26830(10) 0.0873 Uani
H5 H 0.0657 0.3882 0.2746 0.1040 Uiso
C10 C 0.04305(10) 0.37694(12) 0.25776(8) 0.0710 Uani
C11 C 0.02654(11) 0.38285(9) 0.24908(8) 0.0750 Uani
H6 H 0.0196 0.3730 0.2417 0.0900 Uiso
C12 C 0.01782(9) 0.40218(11) 0.24941(8) 0.0770 Uani
C13 C 0.02797(10) 0.41562(10) 0.25984(10) 0.0933 Uani
H7 H 0.0229 0.4288 0.2609 0.1120 Uiso
C14 C 0.0000 0.40828(9) 0.23945(10) 0.0653 Uani
H8 H 0.0000 0.4027 0.2258 0.0780 Uiso
H9 H 0.0000 0.4229 0.2383 0.0780 Uiso
C15 C 0.05073(12) 0.35684(11) 0.25761(8) 0.0753 Uani
C16 C 0.07017(13) 0.35198(12) 0.26051(8) 0.0977 Uani
H10 H 0.0796 0.3623 0.2627 0.1170 Uiso
C17 C 0.07648(9) 0.33263(16) 0.26033(8) 0.0993 Uani
H11 H 0.0902 0.3297 0.2620 0.1190 Uiso
C18 C 0.06272(13) 0.31711(10) 0.25768(7) 0.0647 Uani
C19 C 0.04386(12) 0.32197(11) 0.25528(8) 0.0840 Uani
H12 H 0.0342 0.3118 0.2536 0.1010 Uiso
C20 C 0.03795(8) 0.34120(15) 0.25521(8) 0.0893 Uani
H13 H 0.0242 0.3440 0.2534 0.1070 Uiso
C21 C 0.07004(11) 0.29661(11) 0.25892(8) 0.0687 Uani
C22 C 0.23874(14) 0.59249(10) 0.27455(8) 0.0770 Uani
C23 C 0.23850(12) 0.59886(13) 0.29574(9) 0.0810 Uani
C24 C 0.23127(13) 0.61768(12) 0.30093(9) 0.1057 Uani
H14 H 0.2265 0.6262 0.2908 0.1270 Uiso
C25 C 0.23091(9) 0.62419(15) 0.32053(10) 0.1117 Uani
H15 H 0.2259 0.6370 0.3237 0.1340 Uiso
C26 C 0.23792(13) 0.61192(11) 0.33549(9) 0.0850 Uani
C27 C 0.24457(12) 0.59301(12) 0.33055(8) 0.0950 Uani
H16 H 0.2489 0.5842 0.3407 0.1140 Uiso
C28 C 0.24486(10) 0.58686(14) 0.31057(8) 0.0830 Uani
H17 H 0.2496 0.5740 0.3074 0.1000 Uiso
C29 C 0.23721(9) 0.61739(11) 0.35736(7) 0.0837 Uani
C30 C 0.23839(8) 0.63707(8) 0.36293(10) 0.0823 Uani
H18 H 0.2400 0.6470 0.3530 0.0990 Uiso
C31 C 0.23427(9) 0.60314(12) 0.37227(7) 0.0913 Uani
H19 H 0.2334 0.5895 0.3686 0.1090 Uiso
C32 C 0.23257(12) 0.60808(12) 0.39192(11) 0.0853 Uani
C33 C 0.22724(10) 0.59287(10) 0.40713(14) 0.0913 Uani
H20 H 0.2330 0.5967 0.4201 0.1100 Uiso
H21 H 0.2330 0.5799 0.4033 0.1100 Uiso
C34 C 0.20512(7) 0.59085(7) 0.40915(14) 0.0810 Uani
C35 C 0.19448(7) 0.57856(7) 0.39660(13) 0.0937 Uani
H22 H 0.2015 0.5705 0.3874 0.1120 Uiso
C36 C 0.17403(10) 0.57765(10) 0.39696(11) 0.0960 Uani
C37 C 0.16445(9) 0.59041(9) 0.40959(14) 0.1170 Uani
H23 H 0.1503 0.5905 0.4095 0.1400 Uiso
C38 C 0.16346(10) 0.56448(12) 0.38444(11) 0.0837 Uani
C39 C 0.14600(11) 0.55628(9) 0.39070(14) 0.1167 Uani
H24 H 0.1414 0.5590 0.4038 0.1400 Uiso
C40 C 0.13484(10) 0.54413(15) 0.37850(8) 0.1113 Uani
H25 H 0.1225 0.5391 0.3832 0.1330 Uiso
C41 C 0.14136(10) 0.53910(11) 0.35932(13) 0.0897 Uani
C42 C 0.15880(10) 0.54655(9) 0.35307(12) 0.0900 Uani
H26 H 0.1639 0.5434 0.3403 0.1080 Uiso
C43 C 0.16927(10) 0.55896(15) 0.36593(8) 0.0967 Uani
H27 H 0.1816 0.5640 0.3613 0.1160 Uiso
C44 C 0.12842(8) 0.52546(11) 0.34718(11) 0.0783 Uani
Cu1D Cu -0.122880(12) 0.5000 0.314840(12) 0.0681 Uani
Cu1K Cu 0.122880(12) 0.685160(12) 0.5000 0.0681 Uani
Cu2D Cu -0.095250(12) 0.5000 0.342426(12) 0.0728 Uani
Cu2K Cu 0.095250(12) 0.657574(12) 0.5000 0.0728 Uani
Cu3LA Cu 0.233793(9) 0.599146(12) 0.233793(9) 0.0727 Uani
Cu3F Cu -0.099146(12) 0.266207(9) 0.266207(9) 0.0727 Uani
Cu3TA Cu 0.233793(9) 0.766207(9) 0.400854(12) 0.0727 Uani
Cu4LA Cu 0.245294(8) 0.563531(11) 0.245294(8) 0.0664 Uani
Cu4F Cu -0.063531(11) 0.254706(8) 0.254706(8) 0.0664 Uani
Cu4TA Cu 0.245294(8) 0.754706(8) 0.436469(11) 0.0664 Uani
O1XA O -0.10630(6) 0.47913(5) 0.30323(5) 0.0767 Uani
O1DB O 0.10630(6) 0.52087(5) 0.30323(5) 0.0767 Uani
O2XA O -0.08229(6) 0.48002(5) 0.32669(6) 0.0913 Uani
O2DB O 0.08229(6) 0.51998(5) 0.32669(6) 0.0913 Uani
O3XA O -0.08790(7) 0.29315(5) 0.26404(5) 0.0820 Uani
O3IB O 0.08790(7) 0.26404(5) 0.29315(5) 0.0820 Uani
O4XA O -0.05800(6) 0.28331(6) 0.25431(5) 0.0743 Uani
O4IB O 0.05800(6) 0.25431(5) 0.28331(6) 0.0743 Uani
O5BB O 0.23327(6) 0.73816(5) 0.39501(7) 0.0900 Uani
O5RA O 0.10499(7) 0.23816(5) 0.26673(6) 0.0900 Uani
O5UB O 0.10499(7) 0.26673(6) 0.23816(5) 0.0900 Uani
O6BB O 0.24317(7) 0.72830(5) 0.42558(5) 0.0847 Uani
O6RA O 0.07442(5) 0.22830(5) 0.25683(7) 0.0847 Uani
O6UB O 0.07442(5) 0.25683(7) 0.22830(5) 0.0847 Uani
O7BB O 0.13593(5) 0.66851(5) 0.48013(6) 0.0780 Uani
O7DB O 0.13593(5) 0.48013(6) 0.33149(5) 0.0780 Uani
O8BB O 0.11194(5) 0.64544(7) 0.47993(6) 0.0970 Uani
O8DB O 0.11194(5) 0.47993(6) 0.35456(7) 0.0970 Uani
C1XA C -0.09039(10) 0.47325(7) 0.31182(11) 0.0683 Uani
C2XA C -0.07914(13) 0.45701(9) 0.30051(9) 0.0837 Uani
C3XA C -0.08848(8) 0.44415(12) 0.28708(11) 0.0840 Uani
H1XA H -0.1023 0.4456 0.2846 0.1010 Uiso
C4XA C -0.07812(13) 0.42959(9) 0.27757(8) 0.0833 Uani
H2XA H -0.0849 0.4211 0.2685 0.1000 Uiso
C5XA C -0.05768(12) 0.42689(10) 0.28085(11) 0.0897 Uani
C6XA C -0.04889(9) 0.43994(13) 0.29331(12) 0.1057 Uani
H3XA H -0.0349 0.4391 0.2951 0.1270 Uiso
C7XA C -0.05899(14) 0.45427(10) 0.30353(9) 0.1050 Uani
H4XA H -0.0521 0.4624 0.3128 0.1260 Uiso
C8XA C -0.04632(11) 0.41083(12) 0.26957(8) 0.0893 Uani
C9XA C -0.05353(9) 0.39155(13) 0.26830(10) 0.0873 Uani
H5XA H -0.0657 0.3882 0.2746 0.1040 Uiso
C10XA C -0.04305(10) 0.37694(12) 0.25776(8) 0.0710 Uani
C11XA C -0.02654(11) 0.38285(9) 0.24908(8) 0.0750 Uani
H6XA H -0.0196 0.3730 0.2417 0.0900 Uiso
C12XA C -0.01782(9) 0.40218(11) 0.24941(8) 0.0770 Uani
C13XA C -0.02797(10) 0.41562(10) 0.25984(10) 0.0933 Uani
H7XA H -0.0229 0.4288 0.2609 0.1120 Uiso
C15XA C -0.05073(12) 0.35684(11) 0.25761(8) 0.0753 Uani
C16XA C -0.07017(13) 0.35198(12) 0.26051(8) 0.0977 Uani
H10XA H -0.0796 0.3623 0.2627 0.1170 Uiso
C17XA C -0.07648(9) 0.33263(16) 0.26033(8) 0.0993 Uani
H11XA H -0.0902 0.3297 0.2620 0.1190 Uiso
C18XA C -0.06272(13) 0.31711(10) 0.25768(7) 0.0647 Uani
C19XA C -0.04386(12) 0.32197(11) 0.25528(8) 0.0840 Uani
H12XA H -0.0342 0.3118 0.2536 0.1010 Uiso
C20XA C -0.03795(8) 0.34120(15) 0.25521(8) 0.0893 Uani
H13XA H -0.0242 0.3440 0.2534 0.1070 Uiso
C21XA C -0.07004(11) 0.29661(11) 0.25892(8) 0.0687 Uani
C22BB C 0.23874(14) 0.72545(8) 0.40751(10) 0.0770 Uani
C23BB C 0.23850(12) 0.70426(9) 0.40114(13) 0.0810 Uani
C24BB C 0.23127(13) 0.69907(9) 0.38232(12) 0.1057 Uani
H14BB H 0.2265 0.7092 0.3738 0.1270 Uiso
C25BB C 0.23091(9) 0.67947(10) 0.37581(15) 0.1117 Uani
H15BB H 0.2259 0.6763 0.3630 0.1340 Uiso
C26BB C 0.23792(13) 0.66451(9) 0.38808(11) 0.0850 Uani
C27BB C 0.24457(12) 0.66945(8) 0.40699(12) 0.0950 Uani
H16BB H 0.2489 0.6593 0.4158 0.1140 Uiso
C28BB C 0.24486(10) 0.68943(8) 0.41314(14) 0.0830 Uani
H17BB H 0.2496 0.6926 0.4260 0.1000 Uiso
C29BB C 0.23721(9) 0.64264(7) 0.38261(11) 0.0837 Uani
C31BB C 0.23427(9) 0.62773(7) 0.39686(12) 0.0913 Uani
H19BB H 0.2334 0.6314 0.4105 0.1090 Uiso
C35BB C 0.19448(7) 0.60340(13) 0.42144(7) 0.0937 Uani
H22BB H 0.2015 0.6126 0.4295 0.1120 Uiso
C36BB C 0.17403(10) 0.60304(11) 0.42235(10) 0.0960 Uani
C38BB C 0.16346(10) 0.61556(11) 0.43552(12) 0.0837 Uani
C39BB C 0.14600(11) 0.60930(14) 0.44372(9) 0.1167 Uani
H24BB H 0.1414 0.5962 0.4410 0.1400 Uiso
C40BB C 0.13484(10) 0.62150(8) 0.45587(15) 0.1113 Uani
H25BB H 0.1225 0.6168 0.4609 0.1330 Uiso
C41BB C 0.14136(10) 0.64068(13) 0.46090(11) 0.0897 Uani
C42BB C 0.15880(10) 0.64693(12) 0.45345(9) 0.0900 Uani
H26BB H 0.1639 0.6597 0.4566 0.1080 Uiso
C43BB C 0.16927(10) 0.63407(8) 0.44104(15) 0.0967 Uani
H27BB H 0.1816 0.6387 0.4360 0.1160 Uiso
C44BB C 0.12842(8) 0.65282(11) 0.47454(11) 0.0783 Uani
loop_
_atom_site_aniso_label
_atom_site_aniso_U_11
_atom_site_aniso_U_22
_atom_site_aniso_U_33
_atom_site_aniso_U_23
_atom_site_aniso_U_13
_atom_site_aniso_U_12
Cu1 0.0716(6) 0.0545(6) 0.0782(6) 0.000 -0.0123(5) 0.000
Cu2 0.0730(6) 0.0623(6) 0.0831(7) 0.000 -0.0065(5) 0.000
Cu3 0.0687(6) 0.0747(4) 0.0747(4) 0.0071(5) 0.0110(3) 0.0110(3)
Cu4 0.0737(6) 0.0627(4) 0.0627(4) 0.0069(4) 0.0124(3) 0.0124(3)
O1 0.085(3) 0.063(3) 0.082(3) -0.0008(18) -0.015(2) -0.008(2)
O2 0.089(3) 0.074(3) 0.111(3) -0.024(2) 0.005(2) -0.003(2)
O3 0.079(3) 0.063(3) 0.104(3) 0.0017(18) 0.004(2) 0.009(2)
O4 0.079(3) 0.047(3) 0.097(3) -0.0019(18) 0.0001(19) 0.007(2)
O5 0.099 0.097 0.074 -0.02 0.004 0
O6 0.098 0.082 0.074 -0.028 0.0184 -0.008
O7 0.091 0.067 0.076 -0.022 -0.015 -0.0102
O8 0.092 0.098 0.101 -0.027 0.004 -0.013
O9 0.083(3) 0.105(4) 0.076(3) 0.000 0.003(3) 0.000
O10 0.138(5) 0.147(5) 0.111(4) 0.000 0.022(3) 0.000
O11 0.081(4) 0.142(3) 0.142(3) 0.010(4) -0.001(2) -0.001(2)
O12 0.076(3) 0.115(2) 0.115(2) 0.012(3) -0.010(2) -0.010(2)
C1 0.080(5) 0.011(4) 0.114(6) -0.006(4) -0.014(5) -0.013(4)
C2 0.092(7) 0.070(5) 0.089(5) 0.000(5) 0.007(4) 0.003(5)
C3 0.088(5) 0.069(4) 0.095(5) -0.005(4) 0.009(5) -0.012(5)
C4 0.102(7) 0.050(4) 0.098(4) -0.019(3) -0.007(4) -0.012(4)
C5 0.054(6) 0.081(6) 0.134(6) 0.009(5) 0.002(4) 0.017(5)
C6 0.053(4) 0.102(5) 0.162(6) -0.055(5) -0.009(5) -0.008(5)
C7 0.076(6) 0.101(6) 0.138(6) -0.047(4) 0.015(5) -0.017(4)
C8 0.081(6) 0.074(6) 0.113(5) -0.048(4) 0.009(4) -0.055(5)
C9 0.083(5) 0.053(5) 0.126(5) 0.010(4) 0.016(4) 0.030(5)
C10 0.066(5) 0.045(6) 0.102(4) -0.020(4) -0.020(3) -0.021(5)
C11 0.066(5) 0.048(5) 0.111(5) -0.006(3) -0.009(4) 0.001(4)
C12 0.054(4) 0.088(5) 0.089(4) -0.028(3) -0.027(3) -0.042(5)
C13 0.028(4) 0.118(6) 0.134(5) 0.016(5) -0.004(4) 0.020(4)
C14 0.059(6) 0.064(5) 0.073(5) -0.020(4) 0.000 0.000
C15 0.069(6) 0.034(6) 0.123(5) -0.004(3) -0.004(3) -0.007(6)
C16 0.060(6) 0.066(7) 0.167(6) -0.001(4) -0.016(4) 0.003(4)
C17 0.066(5) 0.076(6) 0.156(6) -0.006(4) -0.004(3) 0.023(6)
C18 0.082(6) 0.035(6) 0.077(4) -0.001(3) 0.013(3) 0.006(6)
C19 0.051(6) 0.050(7) 0.151(5) -0.011(3) -0.003(3) 0.024(4)
C20 0.063(5) 0.059(5) 0.146(5) -0.015(3) -0.015(3) 0.023(6)
C21 0.068(6) 0.054(6) 0.084(4) -0.005(3) 0.017(3) 0.000(5)
C22 0.066 0.128 0.037 -0.052 0.005 -0.034
C23 0.08 0.056 0.107 -0.004 0.014 -0.01
C24 0.138 0.103 0.076 -0.028 0.015 0.001
C25 0.168 0.076 0.091 0.002 0.017 0.015
C26 0.098 0.081 0.076 -0.057 0.029 -0.024
C27 0.122 0.093 0.07 -0.033 0.006 0.021
C28 0.094 0.079 0.076 -0.043 0.012 -0.007
C29 0.095 0.061 0.095 -0.041 0.016 -0.005
C30 0.121 0.063 0.063 -0.029 0.021 -0.021
C31 0.103 0.048 0.123 -0.018 0.013 -0.004
C32 0.122 0.067 0.067 -0.056 0.01 -0.01
C33 0.124 0.075 0.075 -0.022 0.004 -0.004
C34 0.071 0.086 0.086 -0.026 0.016 -0.016
C35 0.138 0.066 0.077 -0.047 0.003 -0.039
C36 0.073 0.107 0.108 -0.044 0.005 -0.043
C37 0.119 0.116 0.116 -0.091 0.033 -0.033
C38 0.08 0.103 0.068 -0.048 0.029 -0.034
C39 0.12 0.135 0.095 -0.048 0.028 -0.054
C40 0.081 0.107 0.146 -0.054 0.011 -0.046
C41 0.109 0.09 0.07 -0.034 0.001 0.015
C42 0.066 0.111 0.093 -0.031 0.022 -0.036
C43 0.073 0.104 0.113 -0.02 0.007 -0.027
C44 0.104 0.041 0.09 -0.033 -0.006 -0.008
Cu1D 0.0716 0.0545 0.0782 0 0.0123 0
Cu1K 0.0716 0.0782 0.0545 0 0 0.0123
Cu2D 0.073 0.0623 0.0831 0 0.0065 0
Cu2K 0.073 0.0831 0.0623 0 0 0.0065
Cu3LA 0.0747 0.0687 0.0747 -0.011 0.0071 -0.011
Cu3F 0.0687 0.0747 0.0747 0.0071 -0.011 -0.011
Cu3TA 0.0747 0.0747 0.0687 -0.011 0.011 -0.0071
Cu4LA 0.0627 0.0737 0.0627 -0.0124 0.0069 -0.0124
Cu4F 0.0737 0.0627 0.0627 0.0069 -0.0124 -0.0124
Cu4TA 0.0627 0.0627 0.0737 -0.0124 0.0124 -0.0069
O1XA 0.085 0.063 0.082 -0.0008 0.015 0.008
O1DB 0.085 0.063 0.082 0.0008 -0.015 0.008
O2XA 0.089 0.074 0.111 -0.024 -0.005 0.003
O2DB 0.089 0.074 0.111 0.024 0.005 0.003
O3XA 0.079 0.063 0.104 0.0017 -0.004 -0.009
O3IB 0.079 0.104 0.063 0.0017 0.009 0.004
O4XA 0.079 0.047 0.097 -0.0019 -0.0001 -0.007
O4IB 0.079 0.097 0.047 -0.0019 0.007 0.0001
O5BB 0.099 0.074 0.097 -0.02 0 -0.004
O5RA 0.097(3) 0.074(3) 0.099(3) 0.004(2) 0.000(2) 0.020(2)
O5UB 0.097 0.099 0.074 0.004 0.02 0
O6BB 0.098 0.074 0.082 -0.028 0.008 -0.0184
O6RA 0.082(3) 0.074(3) 0.098(3) 0.0184(19) 0.008(2) 0.028(2)
O6UB 0.082 0.098 0.074 0.0184 0.028 0.008
O7BB 0.091 0.076 0.067 -0.022 0.0102 0.015
O7DB 0.091 0.067 0.076 0.022 -0.015 0.0102
O8BB 0.092 0.101 0.098 -0.027 0.013 -0.004
O8DB 0.092 0.098 0.101 0.027 0.004 0.013
C1XA 0.08 0.011 0.114 -0.006 0.014 0.013
C2XA 0.092 0.07 0.089 0 -0.007 -0.003
C3XA 0.088 0.069 0.095 -0.005 -0.009 0.012
C4XA 0.102 0.05 0.098 -0.019 0.007 0.012
C5XA 0.054 0.081 0.134 0.009 -0.002 -0.017
C6XA 0.053 0.102 0.162 -0.055 0.009 0.008
C7XA 0.076 0.101 0.138 -0.047 -0.015 0.017
C8XA 0.081 0.074 0.113 -0.048 -0.009 0.055
C9XA 0.083 0.053 0.126 0.01 -0.016 -0.03
C10XA 0.066 0.045 0.102 -0.02 0.02 0.021
C11XA 0.066 0.048 0.111 -0.006 0.009 -0.001
C12XA 0.054 0.088 0.089 -0.028 0.027 0.042
C13XA 0.028 0.118 0.134 0.016 0.004 -0.02
C15XA 0.069 0.034 0.123 -0.004 0.004 0.007
C16XA 0.06 0.066 0.167 -0.001 0.016 -0.003
C17XA 0.066 0.076 0.156 -0.006 0.004 -0.023
C18XA 0.082 0.035 0.077 -0.001 -0.013 -0.006
C19XA 0.051 0.05 0.151 -0.011 0.003 -0.024
C20XA 0.063 0.059 0.146 -0.015 0.015 -0.023
C21XA 0.068 0.054 0.084 -0.005 -0.017 0
C22BB 0.066 0.037 0.128 -0.052 0.034 -0.005
C23BB 0.08 0.107 0.056 -0.004 0.01 -0.014
C24BB 0.138 0.076 0.103 -0.028 -0.001 -0.015
C25BB 0.168 0.091 0.076 0.002 -0.015 -0.017
C26BB 0.098 0.076 0.081 -0.057 0.024 -0.029
C27BB 0.122 0.07 0.093 -0.033 -0.021 -0.006
C28BB 0.094 0.076 0.079 -0.043 0.007 -0.012
C29BB 0.095 0.095 0.061 -0.041 0.005 -0.016
C31BB 0.103 0.123 0.048 -0.018 0.004 -0.013
C35BB 0.138 0.077 0.066 -0.047 0.039 -0.003
C36BB 0.073 0.108 0.107 -0.044 0.043 -0.005
C38BB 0.08 0.068 0.103 -0.048 0.034 -0.029
C39BB 0.12 0.095 0.135 -0.048 0.054 -0.028
C40BB 0.081 0.146 0.107 -0.054 0.046 -0.011
C41BB 0.109 0.07 0.09 -0.034 -0.015 -0.001
C42BB 0.066 0.093 0.111 -0.031 0.036 -0.022
C43BB 0.073 0.113 0.104 -0.02 0.027 -0.007
C44BB 0.104 0.09 0.041 -0.033 0.008 0.006
loop_
_geom_bond_atom_site_label_1
_geom_bond_atom_site_label_2
_geom_bond_site_symmetry_1
_geom_bond_site_symmetry_2
Cu1 O1 1_555 1_555
Cu2 O2 1_555 1_555
Cu3 O3 1_555 1_555
Cu4 O4 1_555 1_555
O1 C1 1_555 1_555
O2 C1 1_555 1_555
O3 C21 1_555 1_555
O4 C21 1_555 1_555
O5 C22 1_555 1_555
O6 C22 1_555 1_555
O7 Cu1 1_555 1_555
O8 Cu2 1_555 1_555
O9 Cu1 1_555 1_555
O10 Cu2 1_555 1_555
O11 Cu3 1_555 1_555
O12 Cu4 1_555 1_555
C1 C2 1_555 1_555
C2 C3 1_555 1_555
C3 H1 1_555 1_555
C4 C3 1_555 1_555
H2 C4 1_555 1_555
C5 C4 1_555 1_555
C6 C5 1_555 1_555
H3 C6 1_555 1_555
C7 C2 1_555 1_555
H4 C7 1_555 1_555
C8 C5 1_555 1_555
C9 C8 1_555 1_555
H5 C9 1_555 1_555
C10 C9 1_555 1_555
C11 C10 1_555 1_555
H6 C11 1_555 1_555
C12 C11 1_555 1_555
C13 C8 1_555 1_555
H7 C13 1_555 1_555
C14 C12 1_555 1_555
H8 C14 1_555 1_555
H9 C14 1_555 1_555
C15 C10 1_555 1_555
C16 C15 1_555 1_555
H10 C16 1_555 1_555
C17 C16 1_555 1_555
H11 C17 1_555 1_555
C18 C17 1_555 1_555
C19 C18 1_555 1_555
H12 C19 1_555 1_555
C20 C15 1_555 1_555
H13 C20 1_555 1_555
C21 C18 1_555 1_555
C22 C23 1_555 1_555
C23 C24 1_555 1_555
C24 H14 1_555 1_555
C25 C24 1_555 1_555
H15 C25 1_555 1_555
C26 C25 1_555 1_555
C27 C26 1_555 1_555
H16 C27 1_555 1_555
C28 C23 1_555 1_555
H17 C28 1_555 1_555
C29 C26 1_555 1_555
C30 C29 1_555 1_555
H18 C30 1_555 1_555
C31 C29 1_555 1_555
H19 C31 1_555 1_555
C32 C31 1_555 1_555
C33 C32 1_555 1_555
H20 C33 1_555 1_555
H21 C33 1_555 1_555
C34 C33 1_555 1_555
C35 C34 1_555 1_555
H22 C35 1_555 1_555
C36 C35 1_555 1_555
C37 C36 1_555 1_555
H23 C37 1_555 1_555
C38 C36 1_555 1_555
C39 C38 1_555 1_555
H24 C39 1_555 1_555
C40 C39 1_555 1_555
H25 C40 1_555 1_555
C41 C40 1_555 1_555
C42 C41 1_555 1_555
H26 C42 1_555 1_555
C43 C38 1_555 1_555
H27 C43 1_555 1_555
C44 O7 1_555 1_555
Cu1D O1XA 1_555 1_555
Cu1K O7BB 1_555 1_555
Cu2D O2XA 1_555 1_555
Cu2K O8BB 1_555 1_555
Cu3LA O5 1_555 1_555
Cu3F O3XA 1_555 1_555
Cu3TA O5BB 1_555 1_555
Cu4LA O6 1_555 1_555
Cu4F O4XA 1_555 1_555
Cu4TA O6BB 1_555 1_555
O1XA C1XA 1_555 1_555
O1DB Cu1 1_555 1_555
O2XA C1XA 1_555 1_555
O2DB Cu2 1_555 1_555
O3XA C21XA 1_555 1_555
O3IB Cu3 1_555 1_555
O4XA C21XA 1_555 1_555
O4IB Cu4 1_555 1_555
O5BB C22BB 1_555 1_555
O5RA Cu3 1_555 1_555
O5UB Cu3 1_555 1_555
O6BB C22BB 1_555 1_555
O6RA Cu4 1_555 1_555
O6UB Cu4 1_555 1_555
O7BB C44BB 1_555 1_555
O7DB Cu1 1_555 1_555
O8BB C44BB 1_555 1_555
O8DB Cu2 1_555 1_555
C1XA C2XA 1_555 1_555
C2XA C3XA 1_555 1_555
C3XA H1XA 1_555 1_555
C4XA C3XA 1_555 1_555
H2XA C4XA 1_555 1_555
C5XA C4XA 1_555 1_555
C6XA C5XA 1_555 1_555
H3XA C6XA 1_555 1_555
C7XA C2XA 1_555 1_555
H4XA C7XA 1_555 1_555
C8XA C5XA 1_555 1_555
C9XA C8XA 1_555 1_555
H5XA C9XA 1_555 1_555
C10XA C9XA 1_555 1_555
C11XA C10XA 1_555 1_555
H6XA C11XA 1_555 1_555
C12XA C14 1_555 1_555
C13XA C8XA 1_555 1_555
H7XA C13XA 1_555 1_555
C15XA C10XA 1_555 1_555
C16XA C15XA 1_555 1_555
H10XA C16XA 1_555 1_555
C17XA C16XA 1_555 1_555
H11XA C17XA 1_555 1_555
C18XA C17XA 1_555 1_555
C19XA C18XA 1_555 1_555
H12XA C19XA 1_555 1_555
C20XA C15XA 1_555 1_555
H13XA C20XA 1_555 1_555
C21XA C18XA 1_555 1_555
C22BB C23BB 1_555 1_555
C23BB C24BB 1_555 1_555
C24BB H14BB 1_555 1_555
C25BB C24BB 1_555 1_555
H15BB C25BB 1_555 1_555
C26BB C25BB 1_555 1_555
C27BB C26BB 1_555 1_555
H16BB C27BB 1_555 1_555
C28BB C23BB 1_555 1_555
H17BB C28BB 1_555 1_555
C29BB C30 1_555 1_555
C31BB C32 1_555 1_555
H19BB C31BB 1_555 1_555
C35BB C34 1_555 1_555
H22BB C35BB 1_555 1_555
C36BB C37 1_555 1_555
C38BB C36BB 1_555 1_555
C39BB C38BB 1_555 1_555
H24BB C39BB 1_555 1_555
C40BB C39BB 1_555 1_555
H25BB C40BB 1_555 1_555
C41BB C40BB 1_555 1_555
C42BB C41BB 1_555 1_555
H26BB C42BB 1_555 1_555
C43BB C38BB 1_555 1_555
H27BB C43BB 1_555 1_555
C44BB C41BB 1_555 1_555
O8 C44 1_555 1_555
C6 C7 1_555 1_555
C12 C13 1_555 1_555
C19 C20 1_555 1_555
C27 C28 1_555 1_555
C41 C44 1_555 1_555
C42 C43 1_555 1_555
C6XA C7XA 1_555 1_555
C11XA C12XA 1_555 1_555
C12XA C13XA 1_555 1_555
C19XA C20XA 1_555 1_555
C26BB C29BB 1_555 1_555
C27BB C28BB 1_555 1_555
C29BB C31BB 1_555 1_555
C35BB C36BB 1_555 1_555
C42BB C43BB 1_555 1_555

#END
