
#######################################################################
#
#                 Cambridge Crystallographic Data Centre
#                                CCDC 
#
#######################################################################
#
# If this CIF has been generated from an entry in the Cambridge 
# Structural Database, then it will include bibliographic, chemical, 
# crystal, experimental, refinement or atomic coordinate data resulting 
# from the CCDC's data processing and validation procedures.
#
#######################################################################

data_SARGUP
_chemical_formula_moiety         '(C8 H2 Fe2 O6)n,0.9n(C2 D6)'
_chemical_name_systematic        
'catena-((\m~8~-2,5-dioxido-1,4-benzenedicarboxylate)-di-iron(ii) perdeuteroethane solvate)'
_symmetry_cell_setting           rhombohedral
_symmetry_space_group_name_H-M   'R -3'
_symmetry_Int_Tables_number      148
_space_group_name_Hall           '-R 3'
loop_
_symmetry_equiv_pos_site_id
_symmetry_equiv_pos_as_xyz
1 x,y,z
2 -y,x-y,z
3 -x+y,-x,z
4 1/3+x,2/3+y,2/3+z
5 1/3-y,2/3+x-y,2/3+z
6 1/3-x+y,2/3-x,2/3+z
7 2/3+x,1/3+y,1/3+z
8 2/3-y,1/3+x-y,1/3+z
9 2/3-x+y,1/3-x,1/3+z
10 -x,-y,-z
11 y,-x+y,-z
12 x-y,x,-z
13 2/3-x,1/3-y,1/3-z
14 2/3+y,1/3-x+y,1/3-z
15 2/3+x-y,1/3+x,1/3-z
16 1/3-x,2/3-y,2/3-z
17 1/3+y,2/3-x+y,2/3-z
18 1/3+x-y,2/3+x,2/3-z
_cell_length_a                   26.0836(5)
_cell_length_b                   26.0836(5)
_cell_length_c                   6.85512(18)
_cell_angle_alpha                90
_cell_angle_beta                 90
_cell_angle_gamma                120
_cell_volume                     4039.06
_cell_formula_units_Z            9
loop_
_atom_site_label
_atom_site_type_symbol
_atom_site_fract_x
_atom_site_fract_y
_atom_site_fract_z
_atom_site_U_iso_or_equiv
_atom_site_thermal_displace_type
Fe1 Fe 0.38099(20) 0.35082(21) 0.1434(6) 0.0118 Uiso
O1 O 0.32633(35) 0.2949(4) 0.3537(13) 0.0209 Uiso
O2 O 0.3022(4) 0.2293(4) 0.5909(14) 0.0330 Uiso
O3 O 0.3491(4) 0.27468(31) 0.0090(11) 0.0035 Uiso
C1 C 0.31641(32) 0.24516(29) 0.4196(10) 0.0065 Uiso
C2 C 0.32508(31) 0.20419(29) 0.2868(11) 0.0066 Uiso
C3 C 0.34135(28) 0.22290(31) 0.0856(10) 0.0060 Uiso
C4 C 0.31801(30) 0.1539(4) 0.3629(10) 0.0113 Uiso
H1 H 0.3018(5) 0.1411(6) 0.5040(23) 0.0080 Uiso
Fe1L Fe 0.28568(20) -0.01749(21) 0.1899(6) 0.0118 Uiso
Fe1G Fe 0.31585(21) 0.36350(29) 0.4767(6) 0.0118 Uiso
Fe1E Fe 0.30316(29) 0.28568(20) 0.8101(6) 0.0118 Uiso
Fe1E_2 Fe 0.30316(29) 0.28568(20) -0.1899(6) 0.0118 Uiso
Fe1J Fe 0.35082(21) -0.03017(29) -0.1434(6) 0.0118 Uiso
Fe1Q Fe 0.36350(29) 0.04766(20) -0.4767(6) 0.0118 Uiso
Fe1Q_2 Fe 0.36350(29) 0.04766(20) 0.5233(6) 0.0118 Uiso
O1L O 0.34034(35) 0.0384(4) -0.0204(13) 0.0209 Uiso
O1E O 0.30190(53) 0.34034(35) 0.0204(13) 0.0209 Uiso
O1Q O 0.36476(53) -0.00700(35) 0.3130(13) 0.0209 Uiso
O2L O 0.3645(4) 0.1040(4) -0.2576(14) 0.0330 Uiso
O2G O 0.4374(4) 0.4062(6) -0.0758(14) 0.0330 Uiso
O2J O 0.2293(4) -0.0729(6) 0.4091(14) 0.0330 Uiso
O3L O 0.3176(4) 0.05865(31) 0.3243(11) 0.0035 Uiso
O3G O 0.39199(31) 0.40775(51) 0.3423(11) 0.0035 Uiso
O3J O 0.27468(31) -0.07442(51) -0.0090(11) 0.0035 Uiso
C1L C 0.35026(32) 0.08817(29) -0.0863(10) 0.0065 Uiso
C2L C 0.34159(31) 0.12914(29) 0.0465(11) 0.0066 Uiso
C3L C 0.32532(28) 0.11043(31) 0.2477(10) 0.0060 Uiso
C4L C 0.34866(30) 0.1794(4) -0.0296(10) 0.0113 Uiso
H1L H 0.3649(5) 0.1922(6) -0.1707(23) 0.0080 Uiso
C5 C 0.5244(8) 0.8465(8) 0.6513(27) 0.0480 Uiso
C6 C 0.5110(8) 0.8571(8) 0.8496(28) 0.0480 Uiso
D1 D 0.4910(10) 0.8032(10) 0.6039(33) 0.0774 Uiso
D2 D 0.5261(10) 0.8793(9) 0.5552(33) 0.0774 Uiso
D3 D 0.5681(8) 0.8522(9) 0.646(4) 0.0774 Uiso
D4 D 0.5452(9) 0.8992(10) 0.9020(34) 0.0774 Uiso
D5 D 0.4687(10) 0.8554(8) 0.853(4) 0.0774 Uiso
D6 D 0.5101(9) 0.8242(9) 0.9477(31) 0.0774 Uiso
loop_
_geom_bond_atom_site_label_1
_geom_bond_atom_site_label_2
_geom_bond_site_symmetry_1
_geom_bond_site_symmetry_2
Fe1 O1 1_555 1_555
O1 C1 1_555 1_555
O2 C1 1_555 1_555
O3 Fe1 1_555 1_555
C1 C2 1_555 1_555
C2 C3 1_555 1_555
C3 O3 1_555 1_555
C4 C2 1_555 1_555
H1 C4 1_555 1_555
C5 C6 1_555 1_555
C6 D4 1_555 1_555
D1 C5 1_555 1_555
D2 C5 1_555 1_555
D3 C5 1_555 1_555
D5 C6 1_555 1_555
D6 C6 1_555 1_555
Fe1L O1L 1_555 1_555
Fe1G O1 1_555 1_555
Fe1E O2 1_555 1_555
Fe1E_2 O3 1_555 1_555
Fe1J O1L 1_555 1_555
Fe1Q O2L 1_555 1_555
Fe1Q_2 O1Q 1_555 1_555
O1L C1L 1_555 1_555
O1E Fe1 1_555 1_555
O1Q Fe1L 1_555 1_555
O2L C1L 1_555 1_555
O2G Fe1 1_555 1_555
O2J Fe1L 1_555 1_555
O3L Fe1L 1_555 1_555
O3G Fe1 1_555 1_555
O3J Fe1L 1_555 1_555
C1L C2L 1_555 1_555
C2L C3L 1_555 1_555
C3L C4 1_555 1_555
C4L C3 1_555 1_555
H1L C4L 1_555 1_555
Fe1G O3G 1_555 1_555
Fe1E_2 O1E 1_555 1_555
Fe1J O3J 1_555 1_555
Fe1Q_2 O3L 1_555 1_555
O3L C3L 1_555 1_555
C2L C4L 1_555 1_555

#END
