
#######################################################################
#
#                 Cambridge Crystallographic Data Centre
#                                CCDC 
#
#######################################################################
#
# If this CIF has been generated from an entry in the Cambridge 
# Structural Database, then it will include bibliographic, chemical, 
# crystal, experimental, refinement or atomic coordinate data resulting 
# from the CCDC's data processing and validation procedures.
#
#######################################################################

data_HANKOY
_chemical_name_common            CPM-15-Ni
_chemical_formula_moiety         '(C2 H8 N1 1+)n,n(C63 H45 In6 Ni3 O56 1-)'
_chemical_name_systematic        
'catena-[Dimethylammonium (\m~6~-benzene-1,3,5-tricarboxylato)-hexakis(\m~4~-benzene-1,3,5-tricarboxylato)-bis(\m~3~-oxo)-dodeca-aqua-penta-indium-tetra-nickel unknown solvate]'
_symmetry_cell_setting           cubic
_symmetry_space_group_name_H-M   'F d -3 m'
_symmetry_Int_Tables_number      227
_space_group_name_Hall           '-F 4vw 2vw 3'
loop_
_symmetry_equiv_pos_site_id
_symmetry_equiv_pos_as_xyz
1 x,y,z
2 3/4-x,1/4-y,1/2+z
3 1/4-x,1/2+y,3/4-z
4 1/2+x,3/4-y,1/4-z
5 z,x,y
6 1/2+z,3/4-x,1/4-y
7 3/4-z,1/4-x,1/2+y
8 1/4-z,1/2+x,3/4-y
9 y,z,x
10 1/4-y,1/2+z,3/4-x
11 1/2+y,3/4-z,1/4-x
12 3/4-y,1/4-z,1/2+x
13 3/4+y,1/4+x,1/2-z
14 -y,-x,-z
15 1/4+y,1/2-x,3/4+z
16 1/2-y,3/4+x,1/4+z
17 3/4+x,1/4+z,1/2-y
18 1/2-x,3/4+z,1/4+y
19 -x,-z,-y
20 1/4+x,1/2-z,3/4+y
21 3/4+z,1/4+y,1/2-x
22 1/4+z,1/2-y,3/4+x
23 1/2-z,3/4+y,1/4+x
24 -z,-y,-x
25 x,1/2+y,1/2+z
26 3/4-x,3/4-y,z
27 1/4-x,y,1/4-z
28 1/2+x,1/4-y,3/4-z
29 z,1/2+x,1/2+y
30 1/2+z,1/4-x,3/4-y
31 3/4-z,3/4-x,y
32 1/4-z,x,1/4-y
33 y,1/2+z,1/2+x
34 1/4-y,z,1/4-x
35 1/2+y,1/4-z,3/4-x
36 3/4-y,3/4-z,x
37 3/4+y,3/4+x,-z
38 -y,1/2-x,1/2-z
39 1/4+y,-x,1/4+z
40 1/2-y,1/4+x,3/4+z
41 3/4+x,3/4+z,-y
42 1/2-x,1/4+z,3/4+y
43 -x,1/2-z,1/2-y
44 1/4+x,-z,1/4+y
45 3/4+z,3/4+y,-x
46 1/4+z,-y,1/4+x
47 1/2-z,1/4+y,3/4+x
48 -z,1/2-y,1/2-x
49 1/2+x,y,1/2+z
50 1/4-x,1/4-y,z
51 3/4-x,1/2+y,1/4-z
52 x,3/4-y,3/4-z
53 1/2+z,x,1/2+y
54 z,3/4-x,3/4-y
55 1/4-z,1/4-x,y
56 3/4-z,1/2+x,1/4-y
57 1/2+y,z,1/2+x
58 3/4-y,1/2+z,1/4-x
59 y,3/4-z,3/4-x
60 1/4-y,1/4-z,x
61 1/4+y,1/4+x,-z
62 1/2-y,-x,1/2-z
63 3/4+y,1/2-x,1/4+z
64 -y,3/4+x,3/4+z
65 1/4+x,1/4+z,-y
66 -x,3/4+z,3/4+y
67 1/2-x,-z,1/2-y
68 3/4+x,1/2-z,1/4+y
69 1/4+z,1/4+y,-x
70 3/4+z,1/2-y,1/4+x
71 -z,3/4+y,3/4+x
72 1/2-z,-y,1/2-x
73 1/2+x,1/2+y,z
74 1/4-x,3/4-y,1/2+z
75 3/4-x,y,3/4-z
76 x,1/4-y,1/4-z
77 1/2+z,1/2+x,y
78 z,1/4-x,1/4-y
79 1/4-z,3/4-x,1/2+y
80 3/4-z,x,3/4-y
81 1/2+y,1/2+z,x
82 3/4-y,z,3/4-x
83 y,1/4-z,1/4-x
84 1/4-y,3/4-z,1/2+x
85 1/4+y,3/4+x,1/2-z
86 1/2-y,1/2-x,-z
87 3/4+y,-x,3/4+z
88 -y,1/4+x,1/4+z
89 1/4+x,3/4+z,1/2-y
90 -x,1/4+z,1/4+y
91 1/2-x,1/2-z,-y
92 3/4+x,-z,3/4+y
93 1/4+z,3/4+y,1/2-x
94 3/4+z,-y,3/4+x
95 -z,1/4+y,1/4+x
96 1/2-z,1/2-y,-x
97 -x,-y,-z
98 1/4+x,3/4+y,1/2-z
99 3/4+x,1/2-y,1/4+z
100 1/2-x,1/4+y,3/4+z
101 -z,-x,-y
102 1/2-z,1/4+x,3/4+y
103 1/4+z,3/4+x,1/2-y
104 3/4+z,1/2-x,1/4+y
105 -y,-z,-x
106 3/4+y,1/2-z,1/4+x
107 1/2-y,1/4+z,3/4+x
108 1/4+y,3/4+z,1/2-x
109 1/4-y,3/4-x,1/2+z
110 y,x,z
111 3/4-y,1/2+x,1/4-z
112 1/2+y,1/4-x,3/4-z
113 1/4-x,3/4-z,1/2+y
114 1/2+x,1/4-z,3/4-y
115 x,z,y
116 3/4-x,1/2+z,1/4-y
117 1/4-z,3/4-y,1/2+x
118 3/4-z,1/2+y,1/4-x
119 1/2+z,1/4-y,3/4-x
120 z,y,x
121 -x,1/2-y,1/2-z
122 1/4+x,1/4+y,-z
123 3/4+x,-y,3/4+z
124 1/2-x,3/4+y,1/4+z
125 -z,1/2-x,1/2-y
126 1/2-z,3/4+x,1/4+y
127 1/4+z,1/4+x,-y
128 3/4+z,-x,3/4+y
129 -y,1/2-z,1/2-x
130 3/4+y,-z,3/4+x
131 1/2-y,3/4+z,1/4+x
132 1/4+y,1/4+z,-x
133 1/4-y,1/4-x,z
134 y,1/2+x,1/2+z
135 3/4-y,x,3/4-z
136 1/2+y,3/4-x,1/4-z
137 1/4-x,1/4-z,y
138 1/2+x,3/4-z,1/4-y
139 x,1/2+z,1/2+y
140 3/4-x,z,3/4-y
141 1/4-z,1/4-y,x
142 3/4-z,y,3/4-x
143 1/2+z,3/4-y,1/4-x
144 z,1/2+y,1/2+x
145 1/2-x,-y,1/2-z
146 3/4+x,3/4+y,-z
147 1/4+x,1/2-y,3/4+z
148 -x,1/4+y,1/4+z
149 1/2-z,-x,1/2-y
150 -z,1/4+x,1/4+y
151 3/4+z,3/4+x,-y
152 1/4+z,1/2-x,3/4+y
153 1/2-y,-z,1/2-x
154 1/4+y,1/2-z,3/4+x
155 -y,1/4+z,1/4+x
156 3/4+y,3/4+z,-x
157 3/4-y,3/4-x,z
158 1/2+y,x,1/2+z
159 1/4-y,1/2+x,3/4-z
160 y,1/4-x,1/4-z
161 3/4-x,3/4-z,y
162 x,1/4-z,1/4-y
163 1/2+x,z,1/2+y
164 1/4-x,1/2+z,3/4-y
165 3/4-z,3/4-y,x
166 1/4-z,1/2+y,3/4-x
167 z,1/4-y,1/4-x
168 1/2+z,y,1/2+x
169 1/2-x,1/2-y,-z
170 3/4+x,1/4+y,1/2-z
171 1/4+x,-y,1/4+z
172 -x,3/4+y,3/4+z
173 1/2-z,1/2-x,-y
174 -z,3/4+x,3/4+y
175 3/4+z,1/4+x,1/2-y
176 1/4+z,-x,1/4+y
177 1/2-y,1/2-z,-x
178 1/4+y,-z,1/4+x
179 -y,3/4+z,3/4+x
180 3/4+y,1/4+z,1/2-x
181 3/4-y,1/4-x,1/2+z
182 1/2+y,1/2+x,z
183 1/4-y,x,1/4-z
184 y,3/4-x,3/4-z
185 3/4-x,1/4-z,1/2+y
186 x,3/4-z,3/4-y
187 1/2+x,1/2+z,y
188 1/4-x,z,1/4-y
189 3/4-z,1/4-y,1/2+x
190 1/4-z,y,1/4-x
191 z,3/4-y,3/4-x
192 1/2+z,1/2+y,x
_cell_length_a                   50.5129(3)
_cell_length_b                   50.5129(3)
_cell_length_c                   50.5129(3)
_cell_angle_alpha                90
_cell_angle_beta                 90
_cell_angle_gamma                90
_cell_volume                     128886
_exptl_crystal_colour            green
_exptl_crystal_description       block
_cell_formula_units_Z            32
loop_
_atom_site_label
_atom_site_type_symbol
_atom_site_fract_x
_atom_site_fract_y
_atom_site_fract_z
_atom_site_U_iso_or_equiv
_atom_site_thermal_displace_type
In1 In -0.121885(12) 1.121885(12) 0.0000 0.0582 Uani
In2 In -0.323233(12) 1.073233(12) 0.023455(16) 0.0462 Uani
Ni2 Ni 0.04095(8) 1.04095(8) 0.09350(9) 0.1033 Uani
O1 O -0.11000(14) 1.09960(12) 0.03406(13) 0.0880 Uani
O2 O -0.07542(16) 1.12037(16) 0.02107(16) 0.1183 Uani
O3 O 0.01156(19) 1.0613(2) 0.0927(3) 0.1947 Uani
O4 O -0.16312(10) 1.10735(11) 0.01278(11) 0.0613 Uani
O5 O -0.15765(10) 1.12737(11) -0.02436(11) 0.0677 Uani
O6 O -0.28588(10) 1.07890(10) 0.00514(9) 0.0543 Uani
O7 O -0.30327(12) 1.05327(12) 0.05327(12) 0.0390 Uani
O8 O -0.36039(10) 1.07093(11) 0.04056(10) 0.0653 Uani
O9 O 0.04742(8) 1.04742(8) 0.04742(8) 0.0088 Uani
C1 C -0.0860(2) 1.1044(2) 0.03543(19) 0.0807 Uani
C2 C -0.0846(3) 1.07042(17) 0.07042(17) 0.0697 Uani
C3 C -0.0703(2) 1.0888(2) 0.05544(19) 0.0843 Uani
C4 C -0.0428(2) 1.0909(2) 0.0568(3) 0.1073 Uani
C5 C -0.0293(3) 1.0750(3) 0.0750(3) 0.1143 Uani
C6 C -0.0010(4) 1.0757(3) 0.0757(3) 0.1373 Uani
C7 C -0.17227(15) 1.11582(15) -0.00812(16) 0.0507 Uani
C8 C -0.20836(15) 1.1172(2) -0.04164(15) 0.0570 Uani
C9 C -0.20049(14) 1.11098(14) -0.01608(14) 0.0490 Uani
C10 C -0.21802(14) 1.09996(14) 0.00186(15) 0.0493 Uani
C11 C -0.24402(14) 1.09451(19) -0.00598(14) 0.0500 Uani
C12 C -0.26344(12) 1.08266(18) 0.01344(12) 0.0367 Uani
C13 C -0.37063(18) 1.06023(14) 0.06023(14) 0.0410 Uani
C14 C -0.39474(18) 1.07101(12) 0.07101(12) 0.0347 Uani
C15 C -0.40617(13) 1.09383(13) 0.06027(18) 0.0477 Uani
O10 O -0.34096(10) 1.09096(10) -0.00948(15) 0.0643 Uani
O11 O 0.0312(3) 1.0312(3) 0.1292(4) 0.2320 Uiso
O12 O 0.0683(3) 1.0683(3) 0.1061(4) 0.2190 Uiso
O13 O 0.0144(3) 1.0144(3) 0.0755(3) 0.2070 Uiso
In1ZC In -0.121885(12) 1.0000 0.121885(12) 0.0582 Uani
In1VC In 0.0000 1.121885(12) -0.121885(12) 0.0582 Uani
In1WD In -0.2500 1.121885(12) -0.128115(12) 0.0582 Uani
In1XE In -0.121885(12) 1.2500 0.128115(12) 0.0582 Uani
In1OE In -0.371885(12) 0.871885(12) 0.0000 0.0582 Uani
In1CC In -0.371885(12) 1.0000 -0.128115(12) 0.0582 Uani
In1RC In 0.121885(12) 0.878115(12) 0.0000 0.0582 Uani
In1D In 0.0000 0.878115(12) 0.121885(12) 0.0582 Uani
In2DA In -0.273455(16) 1.073233(12) 0.073233(12) 0.0462 Uani
In2M In -0.073233(12) 1.323233(12) -0.023455(16) 0.0462 Uani
In2CC In -0.323233(12) 1.023455(16) 0.073233(12) 0.0462 Uani
In2XB In -0.476545(16) 1.176767(12) 0.073233(12) 0.0462 Uani
In2WA In -0.426767(12) 1.176767(12) 0.023455(16) 0.0462 Uani
In2DB In -0.426767(12) 1.023455(16) 0.176767(12) 0.0462 Uani
In2E In -0.476545(16) 1.073233(12) 0.176767(12) 0.0462 Uani
In2LB In -0.073233(12) 1.273455(16) -0.073233(12) 0.0462 Uani
Ni2H Ni 0.04095(8) 1.09350(9) 0.04095(8) 0.1033 Uani
Ni2M Ni -0.04095(8) 0.95905(8) -0.09350(9) 0.1033 Uani
Ni2D Ni 0.09350(9) 1.04095(8) 0.04095(8) 0.1033 Uani
Ni2W Ni -0.09350(9) 0.95905(8) -0.04095(8) 0.1033 Uani
O1JD O -0.11000(14) 1.03406(13) 0.09960(12) 0.0880 Uani
O1M O -0.09960(12) 1.11000(14) -0.03406(13) 0.0880 Uani
O1VC O -0.03406(13) 1.11000(14) -0.09960(12) 0.0880 Uani
O1ED O 0.09960(12) 0.89000(14) 0.03406(13) 0.0880 Uani
O1D O 0.03406(13) 0.89000(14) 0.09960(12) 0.0880 Uani
O1ZC O -0.09960(12) 0.96594(13) 0.11000(14) 0.0880 Uani
O1OD O 0.03406(13) 1.09960(12) -0.11000(14) 0.0880 Uani
O2JD O -0.07542(16) 1.02107(16) 0.12037(16) 0.1183 Uani
O2M O -0.12037(16) 1.07542(16) -0.02107(16) 0.1183 Uani
O2VC O -0.02107(16) 1.07542(16) -0.12037(16) 0.1183 Uani
O2ED O 0.12037(16) 0.92458(16) 0.02107(16) 0.1183 Uani
O2D O 0.02107(16) 0.92458(16) 0.12037(16) 0.1183 Uani
O2ZC O -0.12037(16) 0.97893(16) 0.07542(16) 0.1183 Uani
O2OD O 0.02107(16) 1.12037(16) -0.07542(16) 0.1183 Uani
O3JD O 0.01156(19) 1.0927(3) 0.0613(2) 0.1947 Uani
O3M O -0.0613(2) 0.98844(19) -0.0927(3) 0.1947 Uani
O3VC O -0.0927(3) 0.98844(19) -0.0613(2) 0.1947 Uani
O3ED O 0.0613(2) 1.01156(19) 0.0927(3) 0.1947 Uani
O3D O 0.0927(3) 1.01156(19) 0.0613(2) 0.1947 Uani
O3H O 0.0613(2) 1.0927(3) 0.01156(19) 0.1947 Uani
O3RC O -0.01156(19) 0.9387(2) -0.0927(3) 0.1947 Uani
O4KE O -0.26278(11) 1.10735(11) -0.08688(10) 0.0613 Uani
O4M O -0.10735(11) 1.16312(10) -0.01278(11) 0.0613 Uani
O4XE O -0.10735(11) 1.26278(11) 0.08688(10) 0.0613 Uani
O4ZE O -0.35735(11) 0.91312(10) 0.01278(11) 0.0613 Uani
O4CC O -0.35735(11) 1.01278(11) -0.08688(10) 0.0613 Uani
O4JD O -0.16312(10) 1.01278(11) 0.10735(11) 0.0613 Uani
O4ZC O -0.10735(11) 0.98722(11) 0.16312(10) 0.0613 Uani
O4VC O -0.01278(11) 1.16312(10) -0.10735(11) 0.0613 Uani
O4OD O 0.01278(11) 1.10735(11) -0.16312(10) 0.0613 Uani
O5KE O -0.22564(11) 1.12737(11) -0.09235(10) 0.0677 Uani
O5M O -0.12737(11) 1.15765(10) 0.02436(11) 0.0677 Uani
O5XE O -0.12737(11) 1.22564(11) 0.09235(10) 0.0677 Uani
O5ZE O -0.37737(11) 0.90765(10) -0.02436(11) 0.0677 Uani
O5CC O -0.37737(11) 0.97564(11) -0.09235(10) 0.0677 Uani
O5JD O -0.15765(10) 0.97564(11) 0.12737(11) 0.0677 Uani
O5ZC O -0.12737(11) 1.02436(11) 0.15765(10) 0.0677 Uani
O5VC O 0.02436(11) 1.15765(10) -0.12737(11) 0.0677 Uani
O5OD O -0.02436(11) 1.12737(11) -0.15765(10) 0.0677 Uani
O6KE O -0.25514(9) 1.07890(10) 0.03588(10) 0.0543 Uani
O6M O -0.07890(10) 1.28588(10) -0.00514(9) 0.0543 Uani
O6XE O -0.07890(10) 1.25514(9) -0.03588(10) 0.0543 Uani
O6ZE O -0.32890(10) 1.03588(10) 0.00514(9) 0.0543 Uani
O6CC O -0.32890(10) 1.00514(9) 0.03588(10) 0.0543 Uani
O6DA O -0.25514(9) 1.03588(10) 0.07890(10) 0.0543 Uani
O6QD O -0.03588(10) 1.32890(10) -0.00514(9) 0.0543 Uani
O7M O -0.05327(12) 1.30327(12) -0.05327(12) 0.0390 Uani
O8JD O -0.36039(10) 1.04056(10) 0.07093(11) 0.0653 Uani
O8XB O -0.45944(10) 1.13961(10) 0.07093(11) 0.0653 Uani
O8YF O -0.42907(11) 1.13961(10) 0.04056(10) 0.0653 Uani
O8DB O -0.42907(11) 1.04056(10) 0.13961(10) 0.0653 Uani
O8KF O -0.45944(10) 1.07093(11) 0.13961(10) 0.0653 Uani
O8ZE O -0.32093(11) 1.11039(10) 0.04056(10) 0.0653 Uani
O8KE O -0.29056(10) 1.07093(11) 0.11039(10) 0.0653 Uani
O8DA O -0.29056(10) 1.11039(10) 0.07093(11) 0.0653 Uani
O8M O -0.07093(11) 1.36039(10) -0.04056(10) 0.0653 Uani
O8QD O -0.11039(10) 1.32093(11) -0.04056(10) 0.0653 Uani
O9M O -0.04742(8) 0.95258(8) -0.04742(8) 0.0088 Uani
C1JD C -0.0860(2) 1.03543(19) 0.1044(2) 0.0807 Uani
C1M C -0.1044(2) 1.0860(2) -0.03543(19) 0.0807 Uani
C1VC C -0.03543(19) 1.0860(2) -0.1044(2) 0.0807 Uani
C1ED C 0.1044(2) 0.9140(2) 0.03543(19) 0.0807 Uani
C1D C 0.03543(19) 0.9140(2) 0.1044(2) 0.0807 Uani
C2M C -0.07042(17) 1.0846(3) -0.07042(17) 0.0697 Uani
C2D C 0.07042(17) 0.9154(3) 0.07042(17) 0.0697 Uani
C3JD C -0.0703(2) 1.05544(19) 0.0888(2) 0.0843 Uani
C3M C -0.0888(2) 1.0703(2) -0.05544(19) 0.0843 Uani
C3VC C -0.05544(19) 1.0703(2) -0.0888(2) 0.0843 Uani
C3ED C 0.0888(2) 0.9297(2) 0.05544(19) 0.0843 Uani
C3D C 0.05544(19) 0.9297(2) 0.0888(2) 0.0843 Uani
C4JD C -0.0428(2) 1.0568(3) 0.0909(2) 0.1073 Uani
C4M C -0.0909(2) 1.0428(2) -0.0568(3) 0.1073 Uani
C4VC C -0.0568(3) 1.0428(2) -0.0909(2) 0.1073 Uani
C4ED C 0.0909(2) 0.9572(2) 0.0568(3) 0.1073 Uani
C4D C 0.0568(3) 0.9572(2) 0.0909(2) 0.1073 Uani
C5M C -0.0750(3) 1.0293(3) -0.0750(3) 0.1143 Uani
C5D C 0.0750(3) 0.9707(3) 0.0750(3) 0.1143 Uani
C6M C -0.0757(3) 1.0010(4) -0.0757(3) 0.1373 Uani
C6D C 0.0757(3) 0.9990(4) 0.0757(3) 0.1373 Uani
C7KE C -0.24188(16) 1.11582(15) -0.07773(15) 0.0507 Uani
C7M C -0.11582(15) 1.17227(15) 0.00812(16) 0.0507 Uani
C7XE C -0.11582(15) 1.24188(16) 0.07773(15) 0.0507 Uani
C7ZE C -0.36582(15) 0.92227(15) -0.00812(16) 0.0507 Uani
C7CC C -0.36582(15) 0.99188(16) -0.07773(15) 0.0507 Uani
C8M C -0.1172(2) 1.20836(15) 0.04164(15) 0.0570 Uani
C8CC C -0.3672(2) 0.95836(15) -0.04164(15) 0.0570 Uani
C9KE C -0.23392(14) 1.11098(14) -0.04951(14) 0.0490 Uani
C9M C -0.11098(14) 1.20049(14) 0.01608(14) 0.0490 Uani
C9XE C -0.11098(14) 1.23392(14) 0.04951(14) 0.0490 Uani
C9ZE C -0.36098(14) 0.95049(14) -0.01608(14) 0.0490 Uani
C9CC C -0.36098(14) 0.98392(14) -0.04951(14) 0.0490 Uani
C10KE C -0.25186(15) 1.09996(14) -0.03198(14) 0.0493 Uani
C10M C -0.09996(14) 1.21802(14) -0.00186(15) 0.0493 Uani
C10XE C -0.09996(14) 1.25186(15) 0.03198(14) 0.0493 Uani
C10ZE C -0.34996(14) 0.96802(14) 0.00186(15) 0.0493 Uani
C10CC C -0.34996(14) 1.00186(15) -0.03198(14) 0.0493 Uani
C11M C -0.09451(19) 1.24402(14) 0.00598(14) 0.0500 Uani
C11CC C -0.34451(19) 0.99402(14) -0.00598(14) 0.0500 Uani
C12M C -0.08266(18) 1.26344(12) -0.01344(12) 0.0367 Uani
C12CC C -0.33266(18) 1.01344(12) 0.01344(12) 0.0367 Uani
C13XB C -0.43977(14) 1.12937(18) 0.06023(14) 0.0410 Uani
C13DB C -0.43977(14) 1.06023(14) 0.12937(18) 0.0410 Uani
C14XB C -0.42899(12) 1.10526(18) 0.07101(12) 0.0347 Uani
C14DB C -0.42899(12) 1.07101(12) 0.10526(18) 0.0347 Uani
C15XB C -0.43973(18) 1.09383(13) 0.09383(13) 0.0477 Uani
C15DB C -0.40617(13) 1.06027(18) 0.09383(13) 0.0477 Uani
O10DA O -0.24052(15) 1.09096(10) 0.09096(10) 0.0643 Uani
O10M O -0.09096(10) 1.34096(10) 0.00948(15) 0.0643 Uani
O11H O 0.0312(3) 1.1292(4) 0.0312(3) 0.2320 Uiso
O11M O -0.0312(3) 0.9688(3) -0.1292(4) 0.2320 Uiso
O12H O 0.0683(3) 1.1061(4) 0.0683(3) 0.2190 Uiso
O12M O -0.0683(3) 0.9317(3) -0.1061(4) 0.2190 Uiso
O13H O 0.0144(3) 1.0755(3) 0.0144(3) 0.2070 Uiso
O13M O -0.0144(3) 0.9856(3) -0.0755(3) 0.2070 Uiso
Ni1? Ni -0.323233(12) 1.073233(12) 0.023455(16) 0.0462 Uani
Ni3? Ni 0.05488(8) 1.05488(8) 0.09750(12) 0.1041 Uani
loop_
_atom_site_aniso_label
_atom_site_aniso_U_11
_atom_site_aniso_U_22
_atom_site_aniso_U_33
_atom_site_aniso_U_23
_atom_site_aniso_U_13
_atom_site_aniso_U_12
In1 0.0542(4) 0.0542(4) 0.0662(6) 0.0057(3) 0.0057(3) -0.0180(4)
In2 0.0478(4) 0.0478(4) 0.0431(6) -0.0014(3) 0.0014(3) 0.0007(4)
Ni2 0.108(2) 0.108(2) 0.094(3) -0.0142(19) -0.0142(19) -0.011(3)
O1 0.079(5) 0.082(5) 0.103(5) 0.020(4) -0.030(4) -0.007(4)
O2 0.122(7) 0.121(6) 0.112(6) 0.061(5) -0.008(5) -0.019(5)
O3 0.081(7) 0.196(11) 0.307(16) 0.060(11) -0.018(8) -0.021(7)
O4 0.055(3) 0.069(4) 0.060(4) 0.009(3) 0.005(3) -0.014(3)
O5 0.055(3) 0.080(4) 0.068(4) 0.012(3) 0.005(3) -0.016(3)
O6 0.055(3) 0.070(3) 0.038(3) -0.001(2) 0.008(2) -0.008(3)
O7 0.039(3) 0.039(3) 0.039(3) 0.006(3) -0.006(3) -0.006(3)
O8 0.049(3) 0.088(4) 0.059(3) 0.020(3) 0.010(3) 0.029(3)
O9 0.0088(17) 0.0088(17) 0.0088(17) -0.0014(19) -0.0014(19) -0.0014(19)
C1 0.099(9) 0.075(7) 0.068(7) 0.001(5) -0.014(6) -0.001(6)
C2 0.081(9) 0.064(5) 0.064(5) 0.004(7) -0.002(5) -0.002(5)
C3 0.078(7) 0.096(8) 0.079(7) 0.000(6) -0.009(5) -0.005(6)
C4 0.071(8) 0.114(9) 0.137(10) 0.023(8) -0.001(7) -0.023(6)
C5 0.065(11) 0.139(10) 0.139(10) 0.031(12) -0.038(7) -0.038(7)
C6 0.100(17) 0.156(13) 0.156(13) 0.047(15) 0.005(10) 0.005(10)
C7 0.052(5) 0.048(5) 0.052(5) 0.007(4) 0.018(4) -0.019(4)
C8 0.047(4) 0.077(8) 0.047(4) 0.006(4) -0.005(5) -0.006(4)
C9 0.048(5) 0.046(4) 0.053(5) 0.001(4) 0.015(4) -0.001(4)
C10 0.043(4) 0.044(4) 0.061(5) -0.006(4) 0.006(4) -0.005(3)
C11 0.055(4) 0.040(6) 0.055(4) -0.005(3) 0.010(5) 0.005(3)
C12 0.033(3) 0.044(6) 0.033(3) -0.001(3) 0.007(5) 0.001(3)
C13 0.047(6) 0.038(4) 0.038(4) 0.021(5) 0.010(3) 0.010(3)
C14 0.038(6) 0.033(3) 0.033(3) 0.008(4) 0.011(3) 0.011(3)
C15 0.054(4) 0.054(4) 0.035(6) -0.004(3) -0.004(3) -0.016(5)
O10 0.066(3) 0.066(3) 0.061(5) 0.017(3) -0.017(3) 0.000(4)
In1ZC 0.0542 0.0662 0.0542 0.0057 -0.018 0.0057
In1VC 0.0662 0.0542 0.0542 -0.018 0.0057 0.0057
In1WD 0.0662 0.0542 0.0542 0.018 0.0057 -0.0057
In1XE 0.0542 0.0662 0.0542 0.0057 0.018 -0.0057
In1OE 0.0542 0.0542 0.0662 -0.0057 -0.0057 -0.018
In1CC 0.0542 0.0662 0.0542 -0.0057 -0.018 -0.0057
In1RC 0.0542 0.0542 0.0662 0.0057 0.0057 -0.018
In1D 0.0662 0.0542 0.0542 -0.018 0.0057 0.0057
In2DA 0.0431 0.0478 0.0478 -0.0007 0.0014 0.0014
In2M 0.0478 0.0478 0.0431 0.0014 -0.0014 0.0007
In2CC 0.0478 0.0431 0.0478 -0.0014 0.0007 0.0014
In2XB 0.0431 0.0478 0.0478 0.0007 -0.0014 0.0014
In2WA 0.0478 0.0478 0.0431 0.0014 -0.0014 0.0007
In2DB 0.0478 0.0431 0.0478 0.0014 0.0007 -0.0014
In2E 0.0431 0.0478 0.0478 0.0007 0.0014 -0.0014
In2LB 0.0478 0.0431 0.0478 0.0014 -0.0007 0.0014
Ni2H 0.108 0.094 0.108 -0.0142 -0.011 -0.0142
Ni2M 0.108 0.108 0.094 -0.0142 -0.0142 -0.011
Ni2D 0.094 0.108 0.108 -0.011 -0.0142 -0.0142
Ni2W 0.094 0.108 0.108 -0.011 -0.0142 -0.0142
O1JD 0.079 0.103 0.082 0.02 -0.007 -0.03
O1M 0.082 0.079 0.103 -0.03 0.02 -0.007
O1VC 0.103 0.079 0.082 -0.007 0.02 -0.03
O1ED 0.082 0.079 0.103 -0.03 0.02 -0.007
O1D 0.103 0.079 0.082 -0.007 0.02 -0.03
O1ZC 0.082 0.103 0.079 -0.03 -0.007 0.02
O1OD 0.103 0.082 0.079 -0.007 -0.03 0.02
O2JD 0.122 0.112 0.121 0.061 -0.019 -0.008
O2M 0.121 0.122 0.112 -0.008 0.061 -0.019
O2VC 0.112 0.122 0.121 -0.019 0.061 -0.008
O2ED 0.121 0.122 0.112 -0.008 0.061 -0.019
O2D 0.112 0.122 0.121 -0.019 0.061 -0.008
O2ZC 0.121 0.112 0.122 -0.008 -0.019 0.061
O2OD 0.112 0.121 0.122 -0.019 -0.008 0.061
O3JD 0.081 0.307 0.196 0.06 -0.021 -0.018
O3M 0.196 0.081 0.307 -0.018 0.06 -0.021
O3VC 0.307 0.081 0.196 -0.021 0.06 -0.018
O3ED 0.196 0.081 0.307 -0.018 0.06 -0.021
O3D 0.307 0.081 0.196 -0.021 0.06 -0.018
O3H 0.196 0.307 0.081 -0.018 -0.021 0.06
O3RC 0.081 0.196 0.307 0.06 -0.018 -0.021
O4KE 0.06 0.069 0.055 0.014 0.005 -0.009
O4M 0.069 0.055 0.06 0.005 0.009 -0.014
O4XE 0.069 0.06 0.055 0.005 0.014 -0.009
O4ZE 0.069 0.055 0.06 -0.005 -0.009 -0.014
O4CC 0.069 0.06 0.055 -0.005 -0.014 -0.009
O4JD 0.055 0.06 0.069 0.009 -0.014 0.005
O4ZC 0.069 0.06 0.055 0.005 -0.014 0.009
O4VC 0.06 0.055 0.069 -0.014 0.009 0.005
O4OD 0.06 0.069 0.055 -0.014 0.005 0.009
O5KE 0.068 0.08 0.055 0.016 0.005 -0.012
O5M 0.08 0.055 0.068 0.005 0.012 -0.016
O5XE 0.08 0.068 0.055 0.005 0.016 -0.012
O5ZE 0.08 0.055 0.068 -0.005 -0.012 -0.016
O5CC 0.08 0.068 0.055 -0.005 -0.016 -0.012
O5JD 0.055 0.068 0.08 0.012 -0.016 0.005
O5ZC 0.08 0.068 0.055 0.005 -0.016 0.012
O5VC 0.068 0.055 0.08 -0.016 0.012 0.005
O5OD 0.068 0.08 0.055 -0.016 0.005 0.012
O6KE 0.038 0.07 0.055 0.008 0.008 0.001
O6M 0.07 0.055 0.038 0.008 -0.001 -0.008
O6XE 0.07 0.038 0.055 0.008 0.008 0.001
O6ZE 0.07 0.055 0.038 -0.008 0.001 -0.008
O6CC 0.07 0.038 0.055 -0.008 -0.008 0.001
O6DA 0.038 0.055 0.07 0.008 0.001 0.008
O6QD 0.055 0.07 0.038 0.001 -0.008 -0.008
O7M 0.039 0.039 0.039 -0.006 0.006 -0.006
O8JD 0.049 0.059 0.088 0.02 0.029 0.01
O8XB 0.059 0.049 0.088 0.029 0.02 0.01
O8YF 0.088 0.049 0.059 0.01 0.02 0.029
O8DB 0.088 0.059 0.049 0.01 0.029 0.02
O8KF 0.059 0.088 0.049 0.029 0.01 0.02
O8ZE 0.088 0.049 0.059 -0.01 -0.02 0.029
O8KE 0.059 0.088 0.049 -0.029 0.01 -0.02
O8DA 0.059 0.049 0.088 -0.029 -0.02 0.01
O8M 0.088 0.049 0.059 0.01 0.02 0.029
O8QD 0.049 0.088 0.059 -0.02 -0.01 0.029
O9M 0.0088 0.0088 0.0088 -0.0014 -0.0014 -0.0014
C1JD 0.099 0.068 0.075 0.001 -0.001 -0.014
C1M 0.075 0.099 0.068 -0.014 0.001 -0.001
C1VC 0.068 0.099 0.075 -0.001 0.001 -0.014
C1ED 0.075 0.099 0.068 -0.014 0.001 -0.001
C1D 0.068 0.099 0.075 -0.001 0.001 -0.014
C2M 0.064 0.081 0.064 -0.002 0.004 -0.002
C2D 0.064 0.081 0.064 -0.002 0.004 -0.002
C3JD 0.078 0.079 0.096 0 -0.005 -0.009
C3M 0.096 0.078 0.079 -0.009 0 -0.005
C3VC 0.079 0.078 0.096 -0.005 0 -0.009
C3ED 0.096 0.078 0.079 -0.009 0 -0.005
C3D 0.079 0.078 0.096 -0.005 0 -0.009
C4JD 0.071 0.137 0.114 0.023 -0.023 -0.001
C4M 0.114 0.071 0.137 -0.001 0.023 -0.023
C4VC 0.137 0.071 0.114 -0.023 0.023 -0.001
C4ED 0.114 0.071 0.137 -0.001 0.023 -0.023
C4D 0.137 0.071 0.114 -0.023 0.023 -0.001
C5M 0.139 0.065 0.139 -0.038 0.031 -0.038
C5D 0.139 0.065 0.139 -0.038 0.031 -0.038
C6M 0.156 0.1 0.156 0.005 0.047 0.005
C6D 0.156 0.1 0.156 0.005 0.047 0.005
C7KE 0.052 0.048 0.052 0.019 0.018 -0.007
C7M 0.048 0.052 0.052 0.018 0.007 -0.019
C7XE 0.048 0.052 0.052 0.018 0.019 -0.007
C7ZE 0.048 0.052 0.052 -0.018 -0.007 -0.019
C7CC 0.048 0.052 0.052 -0.018 -0.019 -0.007
C8M 0.077 0.047 0.047 -0.005 0.006 -0.006
C8CC 0.077 0.047 0.047 0.005 -0.006 -0.006
C9KE 0.053 0.046 0.048 0.001 0.015 -0.001
C9M 0.046 0.048 0.053 0.015 0.001 -0.001
C9XE 0.046 0.053 0.048 0.015 0.001 -0.001
C9ZE 0.046 0.048 0.053 -0.015 -0.001 -0.001
C9CC 0.046 0.053 0.048 -0.015 -0.001 -0.001
C10KE 0.061 0.044 0.043 0.005 0.006 0.006
C10M 0.044 0.043 0.061 0.006 -0.006 -0.005
C10XE 0.044 0.061 0.043 0.006 0.005 0.006
C10ZE 0.044 0.043 0.061 -0.006 0.006 -0.005
C10CC 0.044 0.061 0.043 -0.006 -0.005 0.006
C11M 0.04 0.055 0.055 0.01 -0.005 0.005
C11CC 0.04 0.055 0.055 -0.01 0.005 0.005
C12M 0.044 0.033 0.033 0.007 -0.001 0.001
C12CC 0.044 0.033 0.033 -0.007 0.001 0.001
C13XB 0.038 0.047 0.038 0.01 0.021 0.01
C13DB 0.038 0.038 0.047 0.01 0.01 0.021
C14XB 0.033 0.038 0.033 0.011 0.008 0.011
C14DB 0.033 0.033 0.038 0.011 0.011 0.008
C15XB 0.035 0.054 0.054 -0.016 -0.004 -0.004
C15DB 0.054 0.035 0.054 -0.004 -0.016 -0.004
O10DA 0.061 0.066 0.066 0 -0.017 -0.017
O10M 0.066 0.066 0.061 -0.017 0.017 0
Ni1? 0.0478(4) 0.0478(4) 0.0431(6) -0.0014(3) 0.0014(3) 0.0007(4)
Ni3? 0.0826(18) 0.0826(18) 0.147(4) 0.004(2) 0.004(2) -0.014(3)
loop_
_geom_bond_atom_site_label_1
_geom_bond_atom_site_label_2
_geom_bond_site_symmetry_1
_geom_bond_site_symmetry_2
In1 O1 1_555 1_555
In2 O6 1_555 1_555
Ni2 O3 1_555 1_555
O1 C1 1_555 1_555
O2 In1 1_555 1_555
O3 C6 1_555 1_555
O4 In1 1_555 1_555
O5 In1 1_555 1_555
O6 C12 1_555 1_555
O7 In2 1_555 1_555
O8 In2 1_555 1_555
O9 Ni2 1_555 1_555
C1 O2 1_555 1_555
C2 C3 1_555 1_555
C3 C1 1_555 1_555
C4 C3 1_555 1_555
C5 C4 1_555 1_555
C6 C5 1_555 1_555
C7 O4 1_555 1_555
C8 C9 1_555 1_555
C9 C7 1_555 1_555
C10 C9 1_555 1_555
C11 C10 1_555 1_555
C12 C11 1_555 1_555
C13 O8 1_555 1_555
C14 C13 1_555 1_555
C15 C14 1_555 1_555
O10 In2 1_555 1_555
O11 Ni2 1_555 1_555
O12 Ni2 1_555 1_555
O13 Ni2 1_555 1_555
In1ZC O1JD 1_555 1_555
In1VC O1VC 1_555 1_555
In1WD O4KE 1_555 1_555
In1XE O4XE 1_555 1_555
In1OE O4ZE 1_555 1_555
In1CC O4CC 1_555 1_555
In1RC O1ED 1_555 1_555
In1D O1D 1_555 1_555
In2DA O7 1_555 1_555
In2M O6M 1_555 1_555
In2CC O7 1_555 1_555
In2XB O8XB 1_555 1_555
In2WA O8YF 1_555 1_555
In2DB O8DB 1_555 1_555
In2E O8KF 1_555 1_555
In2LB O6XE 1_555 1_555
Ni2H O9 1_555 1_555
Ni2M O3M 1_555 1_555
Ni2D O9 1_555 1_555
Ni2W O3VC 1_555 1_555
O1JD C1JD 1_555 1_555
O1M In1 1_555 1_555
O1VC C1VC 1_555 1_555
O1ED C1ED 1_555 1_555
O1D C1D 1_555 1_555
O1ZC In1ZC 1_555 1_555
O1OD In1VC 1_555 1_555
O2JD In1ZC 1_555 1_555
O2M In1 1_555 1_555
O2VC In1VC 1_555 1_555
O2ED In1RC 1_555 1_555
O2D In1D 1_555 1_555
O2ZC In1ZC 1_555 1_555
O2OD In1VC 1_555 1_555
O3JD C6 1_555 1_555
O3M C6M 1_555 1_555
O3VC C6M 1_555 1_555
O3ED Ni2 1_555 1_555
O3D Ni2D 1_555 1_555
O3H Ni2H 1_555 1_555
O3RC Ni2M 1_555 1_555
O4KE C7KE 1_555 1_555
O4M In1 1_555 1_555
O4XE C7XE 1_555 1_555
O4ZE C7ZE 1_555 1_555
O4CC C7CC 1_555 1_555
O4JD In1ZC 1_555 1_555
O4ZC In1ZC 1_555 1_555
O4VC In1VC 1_555 1_555
O4OD In1VC 1_555 1_555
O5KE In1WD 1_555 1_555
O5M In1 1_555 1_555
O5XE In1XE 1_555 1_555
O5ZE In1OE 1_555 1_555
O5CC In1CC 1_555 1_555
O5JD In1ZC 1_555 1_555
O5ZC In1ZC 1_555 1_555
O5VC In1VC 1_555 1_555
O5OD In1VC 1_555 1_555
O6KE C12 1_555 1_555
O6M C12M 1_555 1_555
O6XE C12M 1_555 1_555
O6ZE In2 1_555 1_555
O6CC In2CC 1_555 1_555
O6DA In2DA 1_555 1_555
O6QD In2M 1_555 1_555
O7M In2M 1_555 1_555
O8JD C13 1_555 1_555
O8XB C13XB 1_555 1_555
O8YF C13XB 1_555 1_555
O8DB C13DB 1_555 1_555
O8KF C13DB 1_555 1_555
O8ZE In2 1_555 1_555
O8KE In2DA 1_555 1_555
O8DA In2DA 1_555 1_555
O8M In2M 1_555 1_555
O8QD In2M 1_555 1_555
O9M Ni2M 1_555 1_555
C1JD O2JD 1_555 1_555
C1M O1M 1_555 1_555
C1VC O2VC 1_555 1_555
C1ED O2ED 1_555 1_555
C1D O2D 1_555 1_555
C2M C3M 1_555 1_555
C2D C3ED 1_555 1_555
C3JD C2 1_555 1_555
C3M C1M 1_555 1_555
C3VC C1VC 1_555 1_555
C3ED C1ED 1_555 1_555
C3D C1D 1_555 1_555
C4JD C5 1_555 1_555
C4M C3M 1_555 1_555
C4VC C3VC 1_555 1_555
C4ED C3ED 1_555 1_555
C4D C3D 1_555 1_555
C5M C4M 1_555 1_555
C5D C4ED 1_555 1_555
C6M C5M 1_555 1_555
C6D O3ED 1_555 1_555
C7KE O5KE 1_555 1_555
C7M O4M 1_555 1_555
C7XE O5XE 1_555 1_555
C7ZE O5ZE 1_555 1_555
C7CC O5CC 1_555 1_555
C8M C9M 1_555 1_555
C8CC C9ZE 1_555 1_555
C9KE C8 1_555 1_555
C9M C7M 1_555 1_555
C9XE C7XE 1_555 1_555
C9ZE C7ZE 1_555 1_555
C9CC C7CC 1_555 1_555
C10KE C11 1_555 1_555
C10M C9M 1_555 1_555
C10XE C9XE 1_555 1_555
C10ZE C9ZE 1_555 1_555
C10CC C9CC 1_555 1_555
C11M C10M 1_555 1_555
C11CC C10ZE 1_555 1_555
C12M C11M 1_555 1_555
C12CC O6ZE 1_555 1_555
C13XB C14XB 1_555 1_555
C13DB C14DB 1_555 1_555
C14XB C15 1_555 1_555
C14DB C15XB 1_555 1_555
C15XB C14XB 1_555 1_555
C15DB C14 1_555 1_555
O10DA In2DA 1_555 1_555
O10M In2M 1_555 1_555
O11H Ni2H 1_555 1_555
O11M Ni2M 1_555 1_555
O12H Ni2H 1_555 1_555
O12M Ni2M 1_555 1_555
O13H Ni2H 1_555 1_555
O13M Ni2M 1_555 1_555
O5 C7 1_555 1_555
In2DA O6KE 1_555 1_555
In2CC O8JD 1_555 1_555
In2LB O7M 1_555 1_555
Ni2H O3JD 1_555 1_555
Ni2W O9M 1_555 1_555
O2M C1M 1_555 1_555
O3D C6D 1_555 1_555
O5M C7M 1_555 1_555
O6CC C12CC 1_555 1_555
C1JD C3JD 1_555 1_555
C2M C3VC 1_555 1_555
C2D C3D 1_555 1_555
C3JD C4JD 1_555 1_555
C4VC C5M 1_555 1_555
C4D C5D 1_555 1_555
C5D C6D 1_555 1_555
C7KE C9KE 1_555 1_555
C8M C9XE 1_555 1_555
C8CC C9CC 1_555 1_555
C9KE C10KE 1_555 1_555
C10XE C11M 1_555 1_555
C10CC C11CC 1_555 1_555
C11CC C12CC 1_555 1_555
C14DB C15DB 1_555 1_555

#END
