
#######################################################################
#
#                 Cambridge Crystallographic Data Centre
#                                CCDC 
#
#######################################################################
#
# If this CIF has been generated from an entry in the Cambridge 
# Structural Database, then it will include bibliographic, chemical, 
# crystal, experimental, refinement or atomic coordinate data resulting 
# from the CCDC's data processing and validation procedures.
#
#######################################################################

data_HANKIS
_chemical_name_common            CPM-15-Co
_chemical_formula_moiety         '(C2 H8 N1 1+)n,n(C63 H45 Co3 In6 O56 1-)'
_chemical_name_systematic        
'catena-[Dimethylammonium (\m~6~-benzene-1,3,5-tricarboxylato)-hexakis(\m~4~-benzene-1,3,5-tricarboxylato)-bis(\m~3~-oxo)-dodeca-aqua-tetra-cobalt-penta-indium unknown solvate]'
_symmetry_cell_setting           cubic
_symmetry_space_group_name_H-M   'F d -3 m'
_symmetry_Int_Tables_number      227
_space_group_name_Hall           '-F 4vw 2vw 3'
loop_
_symmetry_equiv_pos_site_id
_symmetry_equiv_pos_as_xyz
1 x,y,z
2 3/4-x,1/4-y,1/2+z
3 1/4-x,1/2+y,3/4-z
4 1/2+x,3/4-y,1/4-z
5 z,x,y
6 1/2+z,3/4-x,1/4-y
7 3/4-z,1/4-x,1/2+y
8 1/4-z,1/2+x,3/4-y
9 y,z,x
10 1/4-y,1/2+z,3/4-x
11 1/2+y,3/4-z,1/4-x
12 3/4-y,1/4-z,1/2+x
13 3/4+y,1/4+x,1/2-z
14 -y,-x,-z
15 1/4+y,1/2-x,3/4+z
16 1/2-y,3/4+x,1/4+z
17 3/4+x,1/4+z,1/2-y
18 1/2-x,3/4+z,1/4+y
19 -x,-z,-y
20 1/4+x,1/2-z,3/4+y
21 3/4+z,1/4+y,1/2-x
22 1/4+z,1/2-y,3/4+x
23 1/2-z,3/4+y,1/4+x
24 -z,-y,-x
25 x,1/2+y,1/2+z
26 3/4-x,3/4-y,z
27 1/4-x,y,1/4-z
28 1/2+x,1/4-y,3/4-z
29 z,1/2+x,1/2+y
30 1/2+z,1/4-x,3/4-y
31 3/4-z,3/4-x,y
32 1/4-z,x,1/4-y
33 y,1/2+z,1/2+x
34 1/4-y,z,1/4-x
35 1/2+y,1/4-z,3/4-x
36 3/4-y,3/4-z,x
37 3/4+y,3/4+x,-z
38 -y,1/2-x,1/2-z
39 1/4+y,-x,1/4+z
40 1/2-y,1/4+x,3/4+z
41 3/4+x,3/4+z,-y
42 1/2-x,1/4+z,3/4+y
43 -x,1/2-z,1/2-y
44 1/4+x,-z,1/4+y
45 3/4+z,3/4+y,-x
46 1/4+z,-y,1/4+x
47 1/2-z,1/4+y,3/4+x
48 -z,1/2-y,1/2-x
49 1/2+x,y,1/2+z
50 1/4-x,1/4-y,z
51 3/4-x,1/2+y,1/4-z
52 x,3/4-y,3/4-z
53 1/2+z,x,1/2+y
54 z,3/4-x,3/4-y
55 1/4-z,1/4-x,y
56 3/4-z,1/2+x,1/4-y
57 1/2+y,z,1/2+x
58 3/4-y,1/2+z,1/4-x
59 y,3/4-z,3/4-x
60 1/4-y,1/4-z,x
61 1/4+y,1/4+x,-z
62 1/2-y,-x,1/2-z
63 3/4+y,1/2-x,1/4+z
64 -y,3/4+x,3/4+z
65 1/4+x,1/4+z,-y
66 -x,3/4+z,3/4+y
67 1/2-x,-z,1/2-y
68 3/4+x,1/2-z,1/4+y
69 1/4+z,1/4+y,-x
70 3/4+z,1/2-y,1/4+x
71 -z,3/4+y,3/4+x
72 1/2-z,-y,1/2-x
73 1/2+x,1/2+y,z
74 1/4-x,3/4-y,1/2+z
75 3/4-x,y,3/4-z
76 x,1/4-y,1/4-z
77 1/2+z,1/2+x,y
78 z,1/4-x,1/4-y
79 1/4-z,3/4-x,1/2+y
80 3/4-z,x,3/4-y
81 1/2+y,1/2+z,x
82 3/4-y,z,3/4-x
83 y,1/4-z,1/4-x
84 1/4-y,3/4-z,1/2+x
85 1/4+y,3/4+x,1/2-z
86 1/2-y,1/2-x,-z
87 3/4+y,-x,3/4+z
88 -y,1/4+x,1/4+z
89 1/4+x,3/4+z,1/2-y
90 -x,1/4+z,1/4+y
91 1/2-x,1/2-z,-y
92 3/4+x,-z,3/4+y
93 1/4+z,3/4+y,1/2-x
94 3/4+z,-y,3/4+x
95 -z,1/4+y,1/4+x
96 1/2-z,1/2-y,-x
97 -x,-y,-z
98 1/4+x,3/4+y,1/2-z
99 3/4+x,1/2-y,1/4+z
100 1/2-x,1/4+y,3/4+z
101 -z,-x,-y
102 1/2-z,1/4+x,3/4+y
103 1/4+z,3/4+x,1/2-y
104 3/4+z,1/2-x,1/4+y
105 -y,-z,-x
106 3/4+y,1/2-z,1/4+x
107 1/2-y,1/4+z,3/4+x
108 1/4+y,3/4+z,1/2-x
109 1/4-y,3/4-x,1/2+z
110 y,x,z
111 3/4-y,1/2+x,1/4-z
112 1/2+y,1/4-x,3/4-z
113 1/4-x,3/4-z,1/2+y
114 1/2+x,1/4-z,3/4-y
115 x,z,y
116 3/4-x,1/2+z,1/4-y
117 1/4-z,3/4-y,1/2+x
118 3/4-z,1/2+y,1/4-x
119 1/2+z,1/4-y,3/4-x
120 z,y,x
121 -x,1/2-y,1/2-z
122 1/4+x,1/4+y,-z
123 3/4+x,-y,3/4+z
124 1/2-x,3/4+y,1/4+z
125 -z,1/2-x,1/2-y
126 1/2-z,3/4+x,1/4+y
127 1/4+z,1/4+x,-y
128 3/4+z,-x,3/4+y
129 -y,1/2-z,1/2-x
130 3/4+y,-z,3/4+x
131 1/2-y,3/4+z,1/4+x
132 1/4+y,1/4+z,-x
133 1/4-y,1/4-x,z
134 y,1/2+x,1/2+z
135 3/4-y,x,3/4-z
136 1/2+y,3/4-x,1/4-z
137 1/4-x,1/4-z,y
138 1/2+x,3/4-z,1/4-y
139 x,1/2+z,1/2+y
140 3/4-x,z,3/4-y
141 1/4-z,1/4-y,x
142 3/4-z,y,3/4-x
143 1/2+z,3/4-y,1/4-x
144 z,1/2+y,1/2+x
145 1/2-x,-y,1/2-z
146 3/4+x,3/4+y,-z
147 1/4+x,1/2-y,3/4+z
148 -x,1/4+y,1/4+z
149 1/2-z,-x,1/2-y
150 -z,1/4+x,1/4+y
151 3/4+z,3/4+x,-y
152 1/4+z,1/2-x,3/4+y
153 1/2-y,-z,1/2-x
154 1/4+y,1/2-z,3/4+x
155 -y,1/4+z,1/4+x
156 3/4+y,3/4+z,-x
157 3/4-y,3/4-x,z
158 1/2+y,x,1/2+z
159 1/4-y,1/2+x,3/4-z
160 y,1/4-x,1/4-z
161 3/4-x,3/4-z,y
162 x,1/4-z,1/4-y
163 1/2+x,z,1/2+y
164 1/4-x,1/2+z,3/4-y
165 3/4-z,3/4-y,x
166 1/4-z,1/2+y,3/4-x
167 z,1/4-y,1/4-x
168 1/2+z,y,1/2+x
169 1/2-x,1/2-y,-z
170 3/4+x,1/4+y,1/2-z
171 1/4+x,-y,1/4+z
172 -x,3/4+y,3/4+z
173 1/2-z,1/2-x,-y
174 -z,3/4+x,3/4+y
175 3/4+z,1/4+x,1/2-y
176 1/4+z,-x,1/4+y
177 1/2-y,1/2-z,-x
178 1/4+y,-z,1/4+x
179 -y,3/4+z,3/4+x
180 3/4+y,1/4+z,1/2-x
181 3/4-y,1/4-x,1/2+z
182 1/2+y,1/2+x,z
183 1/4-y,x,1/4-z
184 y,3/4-x,3/4-z
185 3/4-x,1/4-z,1/2+y
186 x,3/4-z,3/4-y
187 1/2+x,1/2+z,y
188 1/4-x,z,1/4-y
189 3/4-z,1/4-y,1/2+x
190 1/4-z,y,1/4-x
191 z,3/4-y,3/4-x
192 1/2+z,1/2+y,x
_cell_length_a                   50.5222(3)
_cell_length_b                   50.5222(3)
_cell_length_c                   50.5222(3)
_cell_angle_alpha                90
_cell_angle_beta                 90
_cell_angle_gamma                90
_cell_volume                     128958
_exptl_crystal_colour            purple
_exptl_crystal_description       block
_cell_formula_units_Z            32
loop_
_atom_site_label
_atom_site_type_symbol
_atom_site_fract_x
_atom_site_fract_y
_atom_site_fract_z
_atom_site_U_iso_or_equiv
_atom_site_thermal_displace_type
In1 In -0.121910(14) 1.121909(14) 0.0000 0.0675 Uani
In2 In -0.323394(14) 1.073394(14) 0.023120(18) 0.0567 Uani
Co2 Co 0.03986(7) 1.03986(7) 0.09408(13) 0.1047 Uani
O1 O -0.10991(16) 1.09935(14) 0.03381(15) 0.1037 Uani
O2 O -0.07557(18) 1.12115(17) 0.02153(18) 0.1283 Uani
O3 O 0.01114(17) 1.0622(3) 0.0932(2) 0.2027 Uani
O4 O -0.16274(11) 1.10752(12) 0.01280(12) 0.0673 Uani
O5 O -0.15751(11) 1.12787(12) -0.02435(12) 0.0767 Uani
O6 O -0.28585(11) 1.07872(11) 0.00477(10) 0.0613 Uani
O7 O -0.30463(19) 1.05463(19) 0.05463(19) 0.0820 Uani
O8 O -0.36164(10) 1.07032(10) 0.03921(11) 0.0630 Uani
O9 O 0.05216(16) 1.05216(16) 0.05216(16) 0.0730 Uani
C1 C -0.0863(3) 1.1040(2) 0.0362(2) 0.0947 Uani
C2 C -0.0851(3) 1.07121(19) 0.07121(19) 0.0783 Uani
C3 C -0.0704(2) 1.0897(2) 0.0561(2) 0.0933 Uani
C4 C -0.0432(2) 1.0918(2) 0.0578(2) 0.0943 Uani
C5 C -0.0305(3) 1.0755(2) 0.0755(2) 0.1020 Uani
C6 C 0.0005(4) 1.0776(3) 0.0776(3) 0.1333 Uani
C7 C -0.17196(18) 1.11552(18) -0.0085(2) 0.0667 Uani
C8 C -0.20800(16) 1.1167(3) -0.04200(16) 0.0627 Uani
C9 C -0.20019(15) 1.11049(16) -0.01599(17) 0.0607 Uani
C10 C -0.21786(14) 1.09907(14) 0.00219(16) 0.0530 Uani
C11 C -0.24385(14) 1.0940(2) -0.00615(14) 0.0570 Uani
C12 C -0.26314(15) 1.0821(2) 0.01314(15) 0.0487 Uani
C13 C -0.37201(19) 1.05885(16) 0.05885(16) 0.0470 Uani
C14 C -0.3969(2) 1.06864(13) 0.06864(13) 0.0453 Uani
C15 C -0.40922(15) 1.09078(15) 0.05785(19) 0.0527 Uani
O10 O -0.34091(12) 1.09091(12) -0.01049(15) 0.0740 Uani
O11 O 0.0322(3) 1.0322(3) 0.1328(4) 0.2320 Uiso
O12 O 0.0697(3) 1.0697(3) 0.1108(4) 0.2190 Uiso
O13 O 0.0144(3) 1.0144(3) 0.0735(3) 0.2070 Uiso
In1JD In -0.121910(14) 1.0000 0.121909(14) 0.0675 Uani
In1VC In 0.0000 1.121910(14) -0.121909(14) 0.0675 Uani
In1KE In -0.2500 1.121909(14) -0.128090(14) 0.0675 Uani
In1XE In -0.121909(14) 1.2500 0.128090(14) 0.0675 Uani
In1ZE In -0.371909(14) 0.871910(14) 0.0000 0.0675 Uani
In1CC In -0.371909(14) 1.0000 -0.128090(14) 0.0675 Uani
In1ED In 0.121909(14) 0.878090(14) 0.0000 0.0675 Uani
In1D In 0.0000 0.878090(14) 0.121909(14) 0.0675 Uani
In2DA In -0.273120(18) 1.073394(14) 0.073394(14) 0.0567 Uani
In2M In -0.073394(14) 1.323394(14) -0.023120(18) 0.0567 Uani
In2CC In -0.323394(14) 1.023120(18) 0.073394(14) 0.0567 Uani
In2XB In -0.476880(18) 1.176606(14) 0.073394(14) 0.0567 Uani
In2WA In -0.426606(14) 1.176606(14) 0.023120(18) 0.0567 Uani
In2DB In -0.426606(14) 1.023120(18) 0.176606(14) 0.0567 Uani
In2E In -0.476880(18) 1.073394(14) 0.176606(14) 0.0567 Uani
In2LB In -0.073394(14) 1.273120(18) -0.073394(14) 0.0567 Uani
Co2H Co 0.03986(7) 1.09408(13) 0.03986(7) 0.1047 Uani
Co2M Co -0.03986(7) 0.96014(7) -0.09408(13) 0.1047 Uani
Co2D Co 0.09408(13) 1.03986(7) 0.03986(7) 0.1047 Uani
Co2W Co -0.09408(13) 0.96014(7) -0.03986(7) 0.1047 Uani
O1JD O -0.10991(16) 1.03381(15) 0.09935(14) 0.1037 Uani
O1M O -0.09935(14) 1.10991(16) -0.03381(15) 0.1037 Uani
O1VC O -0.03381(15) 1.10991(16) -0.09935(14) 0.1037 Uani
O1ED O 0.09935(14) 0.89009(16) 0.03381(15) 0.1037 Uani
O1D O 0.03381(15) 0.89009(16) 0.09935(14) 0.1037 Uani
O1ZC O -0.09935(14) 0.96619(15) 0.10991(16) 0.1037 Uani
O1OD O 0.03381(15) 1.09935(14) -0.10991(16) 0.1037 Uani
O2JD O -0.07557(18) 1.02153(18) 0.12115(17) 0.1283 Uani
O2M O -0.12115(17) 1.07557(18) -0.02153(18) 0.1283 Uani
O2VC O -0.02153(18) 1.07557(18) -0.12115(17) 0.1283 Uani
O2ED O 0.12115(17) 0.92443(18) 0.02153(18) 0.1283 Uani
O2D O 0.02153(18) 0.92443(18) 0.12115(17) 0.1283 Uani
O2ZC O -0.12115(17) 0.97847(18) 0.07557(18) 0.1283 Uani
O2OD O 0.02153(18) 1.12115(17) -0.07557(18) 0.1283 Uani
O3JD O 0.01114(17) 1.0932(2) 0.0622(3) 0.2027 Uani
O3M O -0.0622(3) 0.98886(17) -0.0932(2) 0.2027 Uani
O3VC O -0.0932(2) 0.98886(17) -0.0622(3) 0.2027 Uani
O3ED O 0.0622(3) 1.01114(17) 0.0932(2) 0.2027 Uani
O3D O 0.0932(2) 1.01114(17) 0.0622(3) 0.2027 Uani
O3H O 0.0622(3) 1.0932(2) 0.01114(17) 0.2027 Uani
O3RC O -0.01114(17) 0.9378(3) -0.0932(2) 0.2027 Uani
O4KE O -0.26280(12) 1.10752(12) -0.08726(11) 0.0673 Uani
O4M O -0.10752(12) 1.16274(11) -0.01280(12) 0.0673 Uani
O4XE O -0.10752(12) 1.26280(12) 0.08726(11) 0.0673 Uani
O4ZE O -0.35752(12) 0.91274(11) 0.01280(12) 0.0673 Uani
O4CC O -0.35752(12) 1.01280(12) -0.08726(11) 0.0673 Uani
O4JD O -0.16274(11) 1.01280(12) 0.10752(12) 0.0673 Uani
O4ZC O -0.10752(12) 0.98720(12) 0.16274(11) 0.0673 Uani
O4VC O -0.01280(12) 1.16274(11) -0.10752(12) 0.0673 Uani
O4OD O 0.01280(12) 1.10752(12) -0.16274(11) 0.0673 Uani
O5KE O -0.22565(12) 1.12787(12) -0.09249(11) 0.0767 Uani
O5M O -0.12787(12) 1.15751(11) 0.02435(12) 0.0767 Uani
O5XE O -0.12787(12) 1.22565(12) 0.09249(11) 0.0767 Uani
O5ZE O -0.37787(12) 0.90751(11) -0.02435(12) 0.0767 Uani
O5CC O -0.37787(12) 0.97565(12) -0.09249(11) 0.0767 Uani
O5JD O -0.15751(11) 0.97565(12) 0.12787(12) 0.0767 Uani
O5ZC O -0.12787(12) 1.02435(12) 0.15751(11) 0.0767 Uani
O5VC O 0.02435(12) 1.15751(11) -0.12787(12) 0.0767 Uani
O5OD O -0.02435(12) 1.12787(12) -0.15751(11) 0.0767 Uani
O6KE O -0.25477(10) 1.07872(11) 0.03585(11) 0.0613 Uani
O6M O -0.07872(11) 1.28585(11) -0.00477(10) 0.0613 Uani
O6XE O -0.07872(11) 1.25477(10) -0.03585(11) 0.0613 Uani
O6ZE O -0.32872(11) 1.03585(11) 0.00477(10) 0.0613 Uani
O6CC O -0.32872(11) 1.00477(10) 0.03585(11) 0.0613 Uani
O6DA O -0.25477(10) 1.03585(11) 0.07872(11) 0.0613 Uani
O6QD O -0.03585(11) 1.32872(11) -0.00477(10) 0.0613 Uani
O7M O -0.05463(19) 1.30463(19) -0.05463(19) 0.0820 Uani
O8JD O -0.36164(10) 1.03921(11) 0.07032(10) 0.0630 Uani
O8XB O -0.46079(11) 1.13836(10) 0.07032(10) 0.0630 Uani
O8YF O -0.42968(10) 1.13836(10) 0.03921(11) 0.0630 Uani
O8DB O -0.42968(10) 1.03921(11) 0.13836(10) 0.0630 Uani
O8KF O -0.46079(11) 1.07032(10) 0.13836(10) 0.0630 Uani
O8ZE O -0.32032(10) 1.11164(10) 0.03921(11) 0.0630 Uani
O8KE O -0.28921(11) 1.07032(10) 0.11164(10) 0.0630 Uani
O8DA O -0.28921(11) 1.11164(10) 0.07032(10) 0.0630 Uani
O8M O -0.07032(10) 1.36164(10) -0.03921(11) 0.0630 Uani
O8QD O -0.11164(10) 1.32032(10) -0.03921(11) 0.0630 Uani
O9M O -0.05216(16) 0.94784(16) -0.05216(16) 0.0730 Uani
C1JD C -0.0863(3) 1.0362(2) 0.1040(2) 0.0947 Uani
C1M C -0.1040(2) 1.0863(3) -0.0362(2) 0.0947 Uani
C1VC C -0.0362(2) 1.0863(3) -0.1040(2) 0.0947 Uani
C1ED C 0.1040(2) 0.9137(3) 0.0362(2) 0.0947 Uani
C1D C 0.0362(2) 0.9137(3) 0.1040(2) 0.0947 Uani
C2M C -0.07121(19) 1.0851(3) -0.07121(19) 0.0783 Uani
C2D C 0.07121(19) 0.9149(3) 0.07121(19) 0.0783 Uani
C3JD C -0.0704(2) 1.0561(2) 0.0897(2) 0.0933 Uani
C3M C -0.0897(2) 1.0704(2) -0.0561(2) 0.0933 Uani
C3VC C -0.0561(2) 1.0704(2) -0.0897(2) 0.0933 Uani
C3ED C 0.0897(2) 0.9296(2) 0.0561(2) 0.0933 Uani
C3D C 0.0561(2) 0.9296(2) 0.0897(2) 0.0933 Uani
C4JD C -0.0432(2) 1.0578(2) 0.0918(2) 0.0943 Uani
C4M C -0.0918(2) 1.0432(2) -0.0578(2) 0.0943 Uani
C4VC C -0.0578(2) 1.0432(2) -0.0918(2) 0.0943 Uani
C4ED C 0.0918(2) 0.9568(2) 0.0578(2) 0.0943 Uani
C4D C 0.0578(2) 0.9568(2) 0.0918(2) 0.0943 Uani
C5M C -0.0755(2) 1.0305(3) -0.0755(2) 0.1020 Uani
C5D C 0.0755(2) 0.9695(3) 0.0755(2) 0.1020 Uani
C6M C -0.0776(3) 0.9995(4) -0.0776(3) 0.1333 Uani
C6D C 0.0776(3) 1.0005(4) 0.0776(3) 0.1333 Uani
C7KE C -0.2415(2) 1.11552(18) -0.07804(18) 0.0667 Uani
C7M C -0.11552(18) 1.17196(18) 0.0085(2) 0.0667 Uani
C7XE C -0.11552(18) 1.2415(2) 0.07804(18) 0.0667 Uani
C7ZE C -0.36552(18) 0.92196(18) -0.0085(2) 0.0667 Uani
C7CC C -0.36552(18) 0.9915(2) -0.07804(18) 0.0667 Uani
C8M C -0.1167(3) 1.20800(16) 0.04200(16) 0.0627 Uani
C8CC C -0.3667(3) 0.95800(16) -0.04200(16) 0.0627 Uani
C9KE C -0.23401(17) 1.11049(16) -0.04981(15) 0.0607 Uani
C9M C -0.11049(16) 1.20019(15) 0.01599(17) 0.0607 Uani
C9XE C -0.11049(16) 1.23401(17) 0.04981(15) 0.0607 Uani
C9ZE C -0.36049(16) 0.95019(15) -0.01599(17) 0.0607 Uani
C9CC C -0.36049(16) 0.98401(17) -0.04981(15) 0.0607 Uani
C10KE C -0.25219(16) 1.09907(14) -0.03214(14) 0.0530 Uani
C10M C -0.09907(14) 1.21786(14) -0.00219(16) 0.0530 Uani
C10XE C -0.09907(14) 1.25219(16) 0.03214(14) 0.0530 Uani
C10ZE C -0.34907(14) 0.96786(14) 0.00219(16) 0.0530 Uani
C10CC C -0.34907(14) 1.00219(16) -0.03214(14) 0.0530 Uani
C11M C -0.0940(2) 1.24385(14) 0.00615(14) 0.0570 Uani
C11CC C -0.3440(2) 0.99385(14) -0.00615(14) 0.0570 Uani
C12M C -0.0821(2) 1.26314(15) -0.01314(15) 0.0487 Uani
C12CC C -0.3321(2) 1.01314(15) 0.01314(15) 0.0487 Uani
C13XB C -0.44115(16) 1.12799(19) 0.05885(16) 0.0470 Uani
C13DB C -0.44115(16) 1.05885(16) 0.12799(19) 0.0470 Uani
C14XB C -0.43136(13) 1.1031(2) 0.06864(13) 0.0453 Uani
C14DB C -0.43136(13) 1.06864(13) 0.1031(2) 0.0453 Uani
C15XB C -0.44215(19) 1.09078(15) 0.09078(15) 0.0527 Uani
C15DB C -0.40922(15) 1.05785(19) 0.09078(15) 0.0527 Uani
O10DA O -0.23951(15) 1.09091(12) 0.09091(12) 0.0740 Uani
O10M O -0.09091(12) 1.34091(12) 0.01049(15) 0.0740 Uani
O11H O 0.0322(3) 1.1328(4) 0.0322(3) 0.2320 Uiso
O11M O -0.0322(3) 0.9678(3) -0.1328(4) 0.2320 Uiso
O12H O 0.0697(3) 1.1108(4) 0.0697(3) 0.2190 Uiso
O12M O -0.0697(3) 0.9303(3) -0.1108(4) 0.2190 Uiso
O13H O 0.0144(3) 1.0735(3) 0.0144(3) 0.2070 Uiso
O13M O -0.0144(3) 0.9856(3) -0.0735(3) 0.2070 Uiso
Co1? Co -0.323394(14) 1.073394(14) 0.023120(18) 0.0567 Uani
Co3? Co 0.05171(12) 1.05171(12) 0.09465(15) 0.1157 Uani
loop_
_atom_site_aniso_label
_atom_site_aniso_U_11
_atom_site_aniso_U_22
_atom_site_aniso_U_33
_atom_site_aniso_U_23
_atom_site_aniso_U_13
_atom_site_aniso_U_12
In1 0.0623(5) 0.0623(5) 0.0780(7) 0.0059(3) 0.0059(3) -0.0166(4)
In2 0.0595(5) 0.0595(5) 0.0512(7) -0.0036(3) 0.0036(3) 0.0000(5)
Co2 0.106(3) 0.106(3) 0.102(4) -0.002(2) -0.002(2) -0.043(3)
O1 0.091(5) 0.094(5) 0.126(6) 0.030(5) -0.026(5) -0.012(5)
O2 0.139(7) 0.121(7) 0.125(7) 0.035(6) -0.002(6) 0.022(5)
O3 0.060(6) 0.319(16) 0.229(13) 0.086(11) -0.051(6) -0.004(7)
O4 0.058(4) 0.079(4) 0.065(4) 0.012(3) 0.010(3) -0.011(3)
O5 0.058(4) 0.099(5) 0.073(4) 0.009(3) 0.013(3) -0.023(3)
O6 0.061(4) 0.077(4) 0.046(3) -0.007(3) 0.013(3) -0.007(3)
O7 0.082(4) 0.082(4) 0.082(4) 0.016(6) -0.016(6) -0.016(6)
O8 0.050(3) 0.074(4) 0.065(4) 0.014(3) 0.012(3) 0.021(3)
O9 0.073(4) 0.073(4) 0.073(4) -0.001(5) -0.001(5) -0.001(5)
C1 0.130(11) 0.076(8) 0.078(8) 0.006(6) 0.004(8) -0.020(8)
C2 0.093(10) 0.071(5) 0.071(5) 0.017(7) -0.005(6) -0.005(6)
C3 0.110(9) 0.084(8) 0.086(8) 0.000(6) -0.015(7) 0.013(7)
C4 0.077(8) 0.106(9) 0.100(8) -0.011(7) -0.003(6) -0.001(6)
C5 0.104(13) 0.101(8) 0.101(8) -0.008(10) -0.013(7) -0.013(7)
C6 0.060(13) 0.170(14) 0.170(14) -0.026(17) -0.007(8) -0.007(8)
C7 0.068(6) 0.059(6) 0.073(7) -0.008(5) 0.025(6) -0.013(5)
C8 0.052(5) 0.084(9) 0.052(5) 0.004(4) -0.002(6) -0.004(4)
C9 0.050(5) 0.062(5) 0.070(6) -0.007(5) 0.004(4) -0.004(4)
C10 0.040(4) 0.047(5) 0.072(6) -0.006(4) 0.007(4) -0.005(4)
C11 0.067(5) 0.037(6) 0.067(5) -0.002(4) 0.028(6) 0.002(4)
C12 0.048(4) 0.050(7) 0.048(4) -0.002(4) 0.007(6) 0.002(4)
C13 0.041(6) 0.050(4) 0.050(4) 0.017(6) 0.014(4) 0.014(4)
C14 0.072(8) 0.032(3) 0.032(3) 0.006(5) 0.016(4) 0.016(4)
C15 0.062(5) 0.062(5) 0.034(6) -0.001(4) -0.001(4) -0.010(6)
O10 0.081(4) 0.081(4) 0.060(5) 0.011(3) -0.011(3) -0.003(5)
In1JD 0.0623 0.078 0.0623 0.0059 -0.0166 0.0059
In1VC 0.078 0.0623 0.0623 -0.0166 0.0059 0.0059
In1KE 0.078 0.0623 0.0623 0.0166 0.0059 -0.0059
In1XE 0.0623 0.078 0.0623 0.0059 0.0166 -0.0059
In1ZE 0.0623 0.0623 0.078 -0.0059 -0.0059 -0.0166
In1CC 0.0623 0.078 0.0623 -0.0059 -0.0166 -0.0059
In1ED 0.0623 0.0623 0.078 0.0059 0.0059 -0.0166
In1D 0.078 0.0623 0.0623 -0.0166 0.0059 0.0059
In2DA 0.0512 0.0595 0.0595 0 0.0036 0.0036
In2M 0.0595 0.0595 0.0512 0.0036 -0.0036 0
In2CC 0.0595 0.0512 0.0595 -0.0036 0 0.0036
In2XB 0.0512 0.0595 0.0595 0 -0.0036 0.0036
In2WA 0.0595 0.0595 0.0512 0.0036 -0.0036 0
In2DB 0.0595 0.0512 0.0595 0.0036 0 -0.0036
In2E 0.0512 0.0595 0.0595 0 0.0036 -0.0036
In2LB 0.0595 0.0512 0.0595 0.0036 0 0.0036
Co2H 0.106 0.102 0.106 -0.002 -0.043 -0.002
Co2M 0.106 0.106 0.102 -0.002 -0.002 -0.043
Co2D 0.102 0.106 0.106 -0.043 -0.002 -0.002
Co2W 0.102 0.106 0.106 -0.043 -0.002 -0.002
O1JD 0.091 0.126 0.094 0.03 -0.012 -0.026
O1M 0.094 0.091 0.126 -0.026 0.03 -0.012
O1VC 0.126 0.091 0.094 -0.012 0.03 -0.026
O1ED 0.094 0.091 0.126 -0.026 0.03 -0.012
O1D 0.126 0.091 0.094 -0.012 0.03 -0.026
O1ZC 0.094 0.126 0.091 -0.026 -0.012 0.03
O1OD 0.126 0.094 0.091 -0.012 -0.026 0.03
O2JD 0.139 0.125 0.121 0.035 0.022 -0.002
O2M 0.121 0.139 0.125 -0.002 0.035 0.022
O2VC 0.125 0.139 0.121 0.022 0.035 -0.002
O2ED 0.121 0.139 0.125 -0.002 0.035 0.022
O2D 0.125 0.139 0.121 0.022 0.035 -0.002
O2ZC 0.121 0.125 0.139 -0.002 0.022 0.035
O2OD 0.125 0.121 0.139 0.022 -0.002 0.035
O3JD 0.06 0.229 0.319 0.086 -0.004 -0.051
O3M 0.319 0.06 0.229 -0.051 0.086 -0.004
O3VC 0.229 0.06 0.319 -0.004 0.086 -0.051
O3ED 0.319 0.06 0.229 -0.051 0.086 -0.004
O3D 0.229 0.06 0.319 -0.004 0.086 -0.051
O3H 0.319 0.229 0.06 -0.051 -0.004 0.086
O3RC 0.06 0.319 0.229 0.086 -0.051 -0.004
O4KE 0.065 0.079 0.058 0.011 0.01 -0.012
O4M 0.079 0.058 0.065 0.01 0.012 -0.011
O4XE 0.079 0.065 0.058 0.01 0.011 -0.012
O4ZE 0.079 0.058 0.065 -0.01 -0.012 -0.011
O4CC 0.079 0.065 0.058 -0.01 -0.011 -0.012
O4JD 0.058 0.065 0.079 0.012 -0.011 0.01
O4ZC 0.079 0.065 0.058 0.01 -0.011 0.012
O4VC 0.065 0.058 0.079 -0.011 0.012 0.01
O4OD 0.065 0.079 0.058 -0.011 0.01 0.012
O5KE 0.073 0.099 0.058 0.023 0.013 -0.009
O5M 0.099 0.058 0.073 0.013 0.009 -0.023
O5XE 0.099 0.073 0.058 0.013 0.023 -0.009
O5ZE 0.099 0.058 0.073 -0.013 -0.009 -0.023
O5CC 0.099 0.073 0.058 -0.013 -0.023 -0.009
O5JD 0.058 0.073 0.099 0.009 -0.023 0.013
O5ZC 0.099 0.073 0.058 0.013 -0.023 0.009
O5VC 0.073 0.058 0.099 -0.023 0.009 0.013
O5OD 0.073 0.099 0.058 -0.023 0.013 0.009
O6KE 0.046 0.077 0.061 0.007 0.013 0.007
O6M 0.077 0.061 0.046 0.013 -0.007 -0.007
O6XE 0.077 0.046 0.061 0.013 0.007 0.007
O6ZE 0.077 0.061 0.046 -0.013 0.007 -0.007
O6CC 0.077 0.046 0.061 -0.013 -0.007 0.007
O6DA 0.046 0.061 0.077 0.007 0.007 0.013
O6QD 0.061 0.077 0.046 0.007 -0.013 -0.007
O7M 0.082 0.082 0.082 -0.016 0.016 -0.016
O8JD 0.05 0.065 0.074 0.014 0.021 0.012
O8XB 0.065 0.05 0.074 0.021 0.014 0.012
O8YF 0.074 0.05 0.065 0.012 0.014 0.021
O8DB 0.074 0.065 0.05 0.012 0.021 0.014
O8KF 0.065 0.074 0.05 0.021 0.012 0.014
O8ZE 0.074 0.05 0.065 -0.012 -0.014 0.021
O8KE 0.065 0.074 0.05 -0.021 0.012 -0.014
O8DA 0.065 0.05 0.074 -0.021 -0.014 0.012
O8M 0.074 0.05 0.065 0.012 0.014 0.021
O8QD 0.05 0.074 0.065 -0.014 -0.012 0.021
O9M 0.073 0.073 0.073 -0.001 -0.001 -0.001
C1JD 0.13 0.078 0.076 0.006 -0.02 0.004
C1M 0.076 0.13 0.078 0.004 0.006 -0.02
C1VC 0.078 0.13 0.076 -0.02 0.006 0.004
C1ED 0.076 0.13 0.078 0.004 0.006 -0.02
C1D 0.078 0.13 0.076 -0.02 0.006 0.004
C2M 0.071 0.093 0.071 -0.005 0.017 -0.005
C2D 0.071 0.093 0.071 -0.005 0.017 -0.005
C3JD 0.11 0.086 0.084 0 0.013 -0.015
C3M 0.084 0.11 0.086 -0.015 0 0.013
C3VC 0.086 0.11 0.084 0.013 0 -0.015
C3ED 0.084 0.11 0.086 -0.015 0 0.013
C3D 0.086 0.11 0.084 0.013 0 -0.015
C4JD 0.077 0.1 0.106 -0.011 -0.001 -0.003
C4M 0.106 0.077 0.1 -0.003 -0.011 -0.001
C4VC 0.1 0.077 0.106 -0.001 -0.011 -0.003
C4ED 0.106 0.077 0.1 -0.003 -0.011 -0.001
C4D 0.1 0.077 0.106 -0.001 -0.011 -0.003
C5M 0.101 0.104 0.101 -0.013 -0.008 -0.013
C5D 0.101 0.104 0.101 -0.013 -0.008 -0.013
C6M 0.17 0.06 0.17 -0.007 -0.026 -0.007
C6D 0.17 0.06 0.17 -0.007 -0.026 -0.007
C7KE 0.073 0.059 0.068 0.013 0.025 0.008
C7M 0.059 0.068 0.073 0.025 -0.008 -0.013
C7XE 0.059 0.073 0.068 0.025 0.013 0.008
C7ZE 0.059 0.068 0.073 -0.025 0.008 -0.013
C7CC 0.059 0.073 0.068 -0.025 -0.013 0.008
C8M 0.084 0.052 0.052 -0.002 0.004 -0.004
C8CC 0.084 0.052 0.052 0.002 -0.004 -0.004
C9KE 0.07 0.062 0.05 0.004 0.004 0.007
C9M 0.062 0.05 0.07 0.004 -0.007 -0.004
C9XE 0.062 0.07 0.05 0.004 0.004 0.007
C9ZE 0.062 0.05 0.07 -0.004 0.007 -0.004
C9CC 0.062 0.07 0.05 -0.004 -0.004 0.007
C10KE 0.072 0.047 0.04 0.005 0.007 0.006
C10M 0.047 0.04 0.072 0.007 -0.006 -0.005
C10XE 0.047 0.072 0.04 0.007 0.005 0.006
C10ZE 0.047 0.04 0.072 -0.007 0.006 -0.005
C10CC 0.047 0.072 0.04 -0.007 -0.005 0.006
C11M 0.037 0.067 0.067 0.028 -0.002 0.002
C11CC 0.037 0.067 0.067 -0.028 0.002 0.002
C12M 0.05 0.048 0.048 0.007 -0.002 0.002
C12CC 0.05 0.048 0.048 -0.007 0.002 0.002
C13XB 0.05 0.041 0.05 0.014 0.017 0.014
C13DB 0.05 0.05 0.041 0.014 0.014 0.017
C14XB 0.032 0.072 0.032 0.016 0.006 0.016
C14DB 0.032 0.032 0.072 0.016 0.016 0.006
C15XB 0.034 0.062 0.062 -0.01 -0.001 -0.001
C15DB 0.062 0.034 0.062 -0.001 -0.01 -0.001
O10DA 0.06 0.081 0.081 0.003 -0.011 -0.011
O10M 0.081 0.081 0.06 -0.011 0.011 -0.003
Co1? 0.0595(5) 0.0595(5) 0.0512(7) -0.0036(3) 0.0036(3) 0.0000(5)
Co3? 0.113(3) 0.113(3) 0.121(5) 0.003(4) 0.003(4) 0.037(4)
loop_
_geom_bond_atom_site_label_1
_geom_bond_atom_site_label_2
_geom_bond_site_symmetry_1
_geom_bond_site_symmetry_2
In1 O1 1_555 1_555
In2 O6 1_555 1_555
Co2 O3 1_555 1_555
O1 C1 1_555 1_555
O2 In1 1_555 1_555
O3 C6 1_555 1_555
O4 In1 1_555 1_555
O5 In1 1_555 1_555
O6 C12 1_555 1_555
O7 In2 1_555 1_555
O8 In2 1_555 1_555
O9 Co2 1_555 1_555
C1 O2 1_555 1_555
C2 C3 1_555 1_555
C3 C1 1_555 1_555
C4 C3 1_555 1_555
C5 C4 1_555 1_555
C6 C5 1_555 1_555
C7 O4 1_555 1_555
C8 C9 1_555 1_555
C9 C7 1_555 1_555
C10 C9 1_555 1_555
C11 C10 1_555 1_555
C12 C11 1_555 1_555
C13 O8 1_555 1_555
C14 C13 1_555 1_555
C15 C14 1_555 1_555
O10 In2 1_555 1_555
O11 Co2 1_555 1_555
O12 Co2 1_555 1_555
O13 Co2 1_555 1_555
In1JD O1JD 1_555 1_555
In1VC O1VC 1_555 1_555
In1KE O4KE 1_555 1_555
In1XE O4XE 1_555 1_555
In1ZE O4ZE 1_555 1_555
In1CC O4CC 1_555 1_555
In1ED O1ED 1_555 1_555
In1D O1D 1_555 1_555
In2DA O7 1_555 1_555
In2M O6M 1_555 1_555
In2CC O7 1_555 1_555
In2XB O8XB 1_555 1_555
In2WA O8YF 1_555 1_555
In2DB O8DB 1_555 1_555
In2E O8KF 1_555 1_555
In2LB O6XE 1_555 1_555
Co2H O9 1_555 1_555
Co2M O3M 1_555 1_555
Co2D O9 1_555 1_555
Co2W O3VC 1_555 1_555
O1JD C1JD 1_555 1_555
O1M In1 1_555 1_555
O1VC C1VC 1_555 1_555
O1ED C1ED 1_555 1_555
O1D C1D 1_555 1_555
O1ZC In1JD 1_555 1_555
O1OD In1VC 1_555 1_555
O2JD In1JD 1_555 1_555
O2M In1 1_555 1_555
O2VC In1VC 1_555 1_555
O2ED In1ED 1_555 1_555
O2D In1D 1_555 1_555
O2ZC In1JD 1_555 1_555
O2OD In1VC 1_555 1_555
O3JD C6 1_555 1_555
O3M C6M 1_555 1_555
O3VC C6M 1_555 1_555
O3ED Co2 1_555 1_555
O3D Co2D 1_555 1_555
O3H Co2H 1_555 1_555
O3RC Co2M 1_555 1_555
O4KE C7KE 1_555 1_555
O4M In1 1_555 1_555
O4XE C7XE 1_555 1_555
O4ZE C7ZE 1_555 1_555
O4CC C7CC 1_555 1_555
O4JD In1JD 1_555 1_555
O4ZC In1JD 1_555 1_555
O4VC In1VC 1_555 1_555
O4OD In1VC 1_555 1_555
O5KE In1KE 1_555 1_555
O5M In1 1_555 1_555
O5XE In1XE 1_555 1_555
O5ZE In1ZE 1_555 1_555
O5CC In1CC 1_555 1_555
O5JD In1JD 1_555 1_555
O5ZC In1JD 1_555 1_555
O5VC In1VC 1_555 1_555
O5OD In1VC 1_555 1_555
O6KE C12 1_555 1_555
O6M C12M 1_555 1_555
O6XE C12M 1_555 1_555
O6ZE In2 1_555 1_555
O6CC In2CC 1_555 1_555
O6DA In2DA 1_555 1_555
O6QD In2M 1_555 1_555
O7M In2M 1_555 1_555
O8JD C13 1_555 1_555
O8XB C13XB 1_555 1_555
O8YF C13XB 1_555 1_555
O8DB C13DB 1_555 1_555
O8KF C13DB 1_555 1_555
O8ZE In2 1_555 1_555
O8KE In2DA 1_555 1_555
O8DA In2DA 1_555 1_555
O8M In2M 1_555 1_555
O8QD In2M 1_555 1_555
O9M Co2M 1_555 1_555
C1JD O2JD 1_555 1_555
C1M O1M 1_555 1_555
C1VC O2VC 1_555 1_555
C1ED O2ED 1_555 1_555
C1D O2D 1_555 1_555
C2M C3M 1_555 1_555
C2D C3ED 1_555 1_555
C3JD C2 1_555 1_555
C3M C1M 1_555 1_555
C3VC C1VC 1_555 1_555
C3ED C1ED 1_555 1_555
C3D C1D 1_555 1_555
C4JD C5 1_555 1_555
C4M C3M 1_555 1_555
C4VC C3VC 1_555 1_555
C4ED C3ED 1_555 1_555
C4D C3D 1_555 1_555
C5M C4M 1_555 1_555
C5D C4ED 1_555 1_555
C6M C5M 1_555 1_555
C6D O3ED 1_555 1_555
C7KE O5KE 1_555 1_555
C7M O4M 1_555 1_555
C7XE O5XE 1_555 1_555
C7ZE O5ZE 1_555 1_555
C7CC O5CC 1_555 1_555
C8M C9M 1_555 1_555
C8CC C9ZE 1_555 1_555
C9KE C8 1_555 1_555
C9M C7M 1_555 1_555
C9XE C7XE 1_555 1_555
C9ZE C7ZE 1_555 1_555
C9CC C7CC 1_555 1_555
C10KE C11 1_555 1_555
C10M C9M 1_555 1_555
C10XE C9XE 1_555 1_555
C10ZE C9ZE 1_555 1_555
C10CC C9CC 1_555 1_555
C11M C10M 1_555 1_555
C11CC C10ZE 1_555 1_555
C12M C11M 1_555 1_555
C12CC O6ZE 1_555 1_555
C13XB C14XB 1_555 1_555
C13DB C14DB 1_555 1_555
C14XB C15 1_555 1_555
C14DB C15XB 1_555 1_555
C15XB C14XB 1_555 1_555
C15DB C14 1_555 1_555
O10DA In2DA 1_555 1_555
O10M In2M 1_555 1_555
O11H Co2H 1_555 1_555
O11M Co2M 1_555 1_555
O12H Co2H 1_555 1_555
O12M Co2M 1_555 1_555
O13H Co2H 1_555 1_555
O13M Co2M 1_555 1_555
O5 C7 1_555 1_555
In2DA O6KE 1_555 1_555
In2CC O8JD 1_555 1_555
In2LB O7M 1_555 1_555
Co2H O3JD 1_555 1_555
Co2W O9M 1_555 1_555
O2M C1M 1_555 1_555
O3D C6D 1_555 1_555
O5M C7M 1_555 1_555
O6CC C12CC 1_555 1_555
C1JD C3JD 1_555 1_555
C2M C3VC 1_555 1_555
C2D C3D 1_555 1_555
C3JD C4JD 1_555 1_555
C4VC C5M 1_555 1_555
C4D C5D 1_555 1_555
C5D C6D 1_555 1_555
C7KE C9KE 1_555 1_555
C8M C9XE 1_555 1_555
C8CC C9CC 1_555 1_555
C9KE C10KE 1_555 1_555
C10XE C11M 1_555 1_555
C10CC C11CC 1_555 1_555
C11CC C12CC 1_555 1_555
C14DB C15DB 1_555 1_555

#END
