
#######################################################################
#
#                 Cambridge Crystallographic Data Centre
#                                CCDC 
#
#######################################################################
#
# If this CIF has been generated from an entry in the Cambridge 
# Structural Database, then it will include bibliographic, chemical, 
# crystal, experimental, refinement or atomic coordinate data resulting 
# from the CCDC's data processing and validation procedures.
#
#######################################################################

data_RUFPUF
_chemical_formula_moiety         '(C30 H60 B48 Cu3 O15)n'
_chemical_name_systematic        
"catena-[bis(\m~6~-10,10',10''-(benzene-1,3,5-triyl)tris(1,10-dicarba-closo-decaborane(8)-1-carboxylato))-triaqua-tri-copper unknown solvate]"
_symmetry_cell_setting           cubic
_symmetry_space_group_name_H-M   'P m -3 n'
_symmetry_Int_Tables_number      223
_space_group_name_Hall           '-P 4n 2 3'
loop_
_symmetry_equiv_pos_site_id
_symmetry_equiv_pos_as_xyz
1 x,y,z
2 -x,-y,z
3 -x,y,-z
4 x,-y,-z
5 z,x,y
6 z,-x,-y
7 -z,-x,y
8 -z,x,-y
9 y,z,x
10 -y,z,-x
11 y,-z,-x
12 -y,-z,x
13 1/2+y,1/2+x,1/2-z
14 1/2-y,1/2-x,1/2-z
15 1/2+y,1/2-x,1/2+z
16 1/2-y,1/2+x,1/2+z
17 1/2+x,1/2+z,1/2-y
18 1/2-x,1/2+z,1/2+y
19 1/2-x,1/2-z,1/2-y
20 1/2+x,1/2-z,1/2+y
21 1/2+z,1/2+y,1/2-x
22 1/2+z,1/2-y,1/2+x
23 1/2-z,1/2+y,1/2+x
24 1/2-z,1/2-y,1/2-x
25 -x,-y,-z
26 x,y,-z
27 x,-y,z
28 -x,y,z
29 -z,-x,-y
30 -z,x,y
31 z,x,-y
32 z,-x,y
33 -y,-z,-x
34 y,-z,x
35 -y,z,x
36 y,z,-x
37 1/2-y,1/2-x,1/2+z
38 1/2+y,1/2+x,1/2+z
39 1/2-y,1/2+x,1/2-z
40 1/2+y,1/2-x,1/2-z
41 1/2-x,1/2-z,1/2+y
42 1/2+x,1/2-z,1/2-y
43 1/2+x,1/2+z,1/2+y
44 1/2-x,1/2+z,1/2-y
45 1/2-z,1/2-y,1/2+x
46 1/2-z,1/2+y,1/2-x
47 1/2+z,1/2-y,1/2-x
48 1/2+z,1/2+y,1/2+x
_cell_length_a                   28.973(2)
_cell_length_b                   28.973(2)
_cell_length_c                   28.973(2)
_cell_angle_alpha                90
_cell_angle_beta                 90
_cell_angle_gamma                90
_cell_volume                     24320.9
_exptl_crystal_colour            blue
_exptl_crystal_description       block
_cell_formula_units_Z            4
loop_
_atom_site_label
_atom_site_type_symbol
_atom_site_fract_x
_atom_site_fract_y
_atom_site_fract_z
Cu1 Cu 0.5000 0.70375(8) 0.0000
O1 O 0.5479(2) 0.7128(2) 0.04719(19)
O2 O 0.5000 0.6252(5) 0.0000
C1 C 0.5966(2) 0.7500 0.0966(2)
C2 C 0.6780(3) 0.7500 0.1780(3)
C3 C 0.5617(3) 0.7500 0.0617(3)
C4 C 0.7167(3) 0.7500 0.2167(3)
C5 C 0.7162(3) 0.7838(3) 0.2500
H1 H 0.6932 0.8068 0.2500
B1 B 0.6274(4) 0.7583(6) 0.1866(4)
H2 H 0.6136 0.7645 0.2218
B2 B 0.6460(4) 0.7665(5) 0.0928(5)
H3 H 0.6583 0.7787 0.0587
B3 B 0.6085(5) 0.7893(5) 0.1294(5)
H4 H 0.5899 0.8227 0.1274
B4 B 0.6653(5) 0.7911(6) 0.1475(5)
H5 H 0.6818 0.8254 0.1519
O1G O 0.95281(19) 0.5479(2) 0.2872(2)
C1G C 0.9034(2) 0.5966(2) 0.2500
C2G C 0.8220(3) 0.6780(3) 0.2500
C3G C 0.9383(3) 0.5617(3) 0.2500
C4G C 0.7833(3) 0.7167(3) 0.2500
C5G C 0.7500 0.7162(3) 0.2162(3)
H1G H 0.7500 0.6932 0.1932
B1G B 0.8134(4) 0.6274(4) 0.2417(6)
H2G H 0.7782 0.6136 0.2355
B2G B 0.9072(5) 0.6460(4) 0.2335(5)
H3G H 0.9413 0.6583 0.2213
B3G B 0.8706(5) 0.6085(5) 0.2107(5)
H4G H 0.8726 0.5899 0.1773
B4G B 0.8525(5) 0.6653(5) 0.2089(6)
H5G H 0.8481 0.6818 0.1746
O1J O 0.7128(2) 0.95281(19) 0.4521(2)
C1J C 0.7500 0.9034(2) 0.4034(2)
C2J C 0.7500 0.8220(3) 0.3220(3)
C3J C 0.7500 0.9383(3) 0.4383(3)
C4J C 0.7500 0.7833(3) 0.2833(3)
C5J C 0.7838(3) 0.7500 0.2838(3)
H1J H 0.8068 0.7500 0.3068
B1J B 0.7583(6) 0.8134(4) 0.3726(4)
H2J H 0.7645 0.7782 0.3864
B2J B 0.7665(5) 0.9072(5) 0.3540(4)
H3J H 0.7787 0.9413 0.3417
B3J B 0.7893(5) 0.8706(5) 0.3915(5)
H4J H 0.8227 0.8726 0.4101
B4J B 0.7911(6) 0.8525(5) 0.3347(5)
H5J H 0.8254 0.8481 0.3182
O1M O 0.7872(2) 0.9521(2) 0.45281(19)
B1M B 0.7417(6) 0.8726(4) 0.3134(4)
H2M H 0.7355 0.8864 0.2782
B2M B 0.7335(5) 0.8540(4) 0.4072(5)
H3M H 0.7213 0.8417 0.4413
B3M B 0.7107(5) 0.8915(5) 0.3706(5)
H4M H 0.6773 0.9101 0.3726
B4M B 0.7089(6) 0.8347(5) 0.3525(5)
H5M H 0.6746 0.8182 0.3481
O1Q O 0.9521(2) 0.54719(19) 0.2128(2)
B1Q B 0.8726(4) 0.6866(4) 0.2583(6)
H2Q H 0.8864 0.7218 0.2645
B2Q B 0.8540(4) 0.5928(5) 0.2665(5)
H3Q H 0.8417 0.5587 0.2787
B3Q B 0.8915(5) 0.6294(5) 0.2893(5)
H4Q H 0.9101 0.6274 0.3227
B4Q B 0.8347(5) 0.6475(5) 0.2911(6)
H5Q H 0.8182 0.6519 0.3254
O1U O 0.54719(19) 0.7872(2) 0.0479(2)
B1U B 0.6866(4) 0.7417(6) 0.1274(4)
H2U H 0.7218 0.7355 0.1136
B2U B 0.5928(5) 0.7335(5) 0.1460(4)
H3U H 0.5587 0.7213 0.1583
B3U B 0.6294(5) 0.7107(5) 0.1085(5)
H4U H 0.6274 0.6773 0.0899
B4U B 0.6475(5) 0.7089(6) 0.1653(5)
H5U H 0.6519 0.6746 0.1818
O1B O 0.4521(2) 0.7128(2) -0.04719(19)
C1B C 0.4034(2) 0.7500 -0.0966(2)
C2B C 0.3220(3) 0.7500 -0.1780(3)
C3B C 0.4383(3) 0.7500 -0.0617(3)
C4B C 0.2833(3) 0.7500 -0.2167(3)
C5B C 0.2838(3) 0.7838(3) -0.2500
H1B H 0.3068 0.8068 -0.2500
B1B B 0.3726(4) 0.7583(6) -0.1866(4)
H2B H 0.3864 0.7645 -0.2218
B2B B 0.3540(4) 0.7665(5) -0.0928(5)
H3B H 0.3417 0.7787 -0.0587
B3B B 0.3915(5) 0.7893(5) -0.1294(5)
H4B H 0.4101 0.8227 -0.1274
B4B B 0.3347(5) 0.7911(6) -0.1475(5)
H5B H 0.3182 0.8254 -0.1519
O1D O 0.04719(19) 0.5479(2) -0.2872(2)
C1D C 0.0966(2) 0.5966(2) -0.2500
C2D C 0.1780(3) 0.6780(3) -0.2500
C3D C 0.0617(3) 0.5617(3) -0.2500
C4D C 0.2167(3) 0.7167(3) -0.2500
C5D C 0.2500 0.7162(3) -0.2162(3)
H1D H 0.2500 0.6932 -0.1932
B1D B 0.1866(4) 0.6274(4) -0.2417(6)
H2D H 0.2218 0.6136 -0.2355
B2D B 0.0928(5) 0.6460(4) -0.2335(5)
H3D H 0.0587 0.6583 -0.2213
B3D B 0.1294(5) 0.6085(5) -0.2107(5)
H4D H 0.1274 0.5899 -0.1773
B4D B 0.1475(5) 0.6653(5) -0.2089(6)
H5D H 0.1519 0.6818 -0.1746
O1K O 0.2872(2) 0.95281(19) -0.4521(2)
C1K C 0.2500 0.9034(2) -0.4034(2)
C2K C 0.2500 0.8220(3) -0.3220(3)
C3K C 0.2500 0.9383(3) -0.4383(3)
C4K C 0.2500 0.7833(3) -0.2833(3)
C5K C 0.2162(3) 0.7500 -0.2838(3)
H1K H 0.1932 0.7500 -0.3068
B1K B 0.2417(6) 0.8134(4) -0.3726(4)
H2K H 0.2355 0.7782 -0.3864
B2K B 0.2335(5) 0.9072(5) -0.3540(4)
H3K H 0.2213 0.9413 -0.3417
B3K B 0.2107(5) 0.8706(5) -0.3915(5)
H4K H 0.1773 0.8726 -0.4101
B4K B 0.2089(6) 0.8525(5) -0.3347(5)
H5K H 0.1746 0.8481 -0.3182
O1N O 0.2128(2) 0.9521(2) -0.45281(19)
B1N B 0.2583(6) 0.8726(4) -0.3134(4)
H2N H 0.2645 0.8864 -0.2782
B2N B 0.2665(5) 0.8540(4) -0.4072(5)
H3N H 0.2787 0.8417 -0.4413
B3N B 0.2893(5) 0.8915(5) -0.3706(5)
H4N H 0.3227 0.9101 -0.3726
B4N B 0.2911(6) 0.8347(5) -0.3525(5)
H5N H 0.3254 0.8182 -0.3481
O1P O 0.0479(2) 0.54719(19) -0.2128(2)
B1P B 0.1274(4) 0.6866(4) -0.2583(6)
H2P H 0.1136 0.7218 -0.2645
B2P B 0.1460(4) 0.5928(5) -0.2665(5)
H3P H 0.1583 0.5587 -0.2787
B3P B 0.1085(5) 0.6294(5) -0.2893(5)
H4P H 0.0899 0.6274 -0.3227
B4P B 0.1653(5) 0.6475(5) -0.2911(6)
H5P H 0.1818 0.6519 -0.3254
O1W O 0.45281(19) 0.7872(2) -0.0479(2)
B1W B 0.3134(4) 0.7417(6) -0.1274(4)
H2W H 0.2782 0.7355 -0.1136
B2W B 0.4072(5) 0.7335(5) -0.1460(4)
H3W H 0.4413 0.7213 -0.1583
B3W B 0.3706(5) 0.7107(5) -0.1085(5)
H4W H 0.3726 0.6773 -0.0899
B4W B 0.3525(5) 0.7089(6) -0.1653(5)
H5W H 0.3481 0.6746 -0.1818
Cu1E Cu 1.0000 0.5000 0.29625(8)
O2E O 1.0000 0.5000 0.3748(5)
Cu1U Cu 0.5000 0.79625(8) 0.0000
O2U O 0.5000 0.8748(5) 0.0000
Cu1D Cu 0.0000 0.5000 -0.29625(8)
Cu1H Cu 0.70375(8) 1.0000 0.5000
Cu1I Cu 0.29625(8) 1.0000 -0.5000
Cu1L Cu 0.20375(8) 1.0000 -0.5000
Cu1M Cu 0.79625(8) 1.0000 0.5000
Cu1P Cu 0.0000 0.5000 -0.20375(8)
Cu1Q Cu 1.0000 0.5000 0.20375(8)
O1E O 1.04719(19) 0.4521(2) 0.2872(2)
O1Y O 0.5479(2) 0.7128(2) -0.04719(19)
O1AA O 0.4521(2) 0.7128(2) 0.04719(19)
O1BA O 0.95281(19) 0.4521(2) 0.2872(2)
O1DA O 1.04719(19) 0.5479(2) 0.2872(2)
O1RA O 0.45281(19) 0.7872(2) 0.0479(2)
O1TA O 0.54719(19) 0.7872(2) -0.0479(2)
loop_
_geom_bond_atom_site_label_1
_geom_bond_atom_site_label_2
_geom_bond_site_symmetry_1
_geom_bond_site_symmetry_2
Cu1 O1 1_555 1_555
O1 C3 1_555 1_555
O2 Cu1 1_555 1_555
C1 C3 1_555 1_555
C2 C4 1_555 1_555
C3 O1U 1_555 1_555
C4 C5 1_555 1_555
C5 H1 1_555 1_555
B1 C2 1_555 1_555
H2 B1 1_555 1_555
B2 C1 1_555 1_555
H3 B2 1_555 1_555
B3 C1 1_555 1_555
H4 B3 1_555 1_555
B4 C2 1_555 1_555
H5 B4 1_555 1_555
O1G C3G 1_555 1_555
C1G C3G 1_555 1_555
C2G C4G 1_555 1_555
C3G O1Q 1_555 1_555
C4G C5G 1_555 1_555
C5G C4 1_555 1_555
H1G C5G 1_555 1_555
B1G C2G 1_555 1_555
H2G B1G 1_555 1_555
B2G C1G 1_555 1_555
H3G B2G 1_555 1_555
B3G C1G 1_555 1_555
H4G B3G 1_555 1_555
B4G C2G 1_555 1_555
H5G B4G 1_555 1_555
O1J C3J 1_555 1_555
C1J C3J 1_555 1_555
C2J C4J 1_555 1_555
C3J O1M 1_555 1_555
C4J C5 1_555 1_555
C5J C4G 1_555 1_555
H1J C5J 1_555 1_555
B1J C2J 1_555 1_555
H2J B1J 1_555 1_555
B2J C1J 1_555 1_555
H3J B2J 1_555 1_555
B3J C1J 1_555 1_555
H4J B3J 1_555 1_555
B4J C2J 1_555 1_555
H5J B4J 1_555 1_555
O1M Cu1M 1_555 1_555
B1M C2J 1_555 1_555
H2M B1M 1_555 1_555
B2M C1J 1_555 1_555
H3M B2M 1_555 1_555
B3M C1J 1_555 1_555
H4M B3M 1_555 1_555
B4M C2J 1_555 1_555
H5M B4M 1_555 1_555
O1Q Cu1Q 1_555 1_555
B1Q C2G 1_555 1_555
H2Q B1Q 1_555 1_555
B2Q C1G 1_555 1_555
H3Q B2Q 1_555 1_555
B3Q C1G 1_555 1_555
H4Q B3Q 1_555 1_555
B4Q C2G 1_555 1_555
H5Q B4Q 1_555 1_555
O1U Cu1U 1_555 1_555
B1U C2 1_555 1_555
H2U B1U 1_555 1_555
B2U C1 1_555 1_555
H3U B2U 1_555 1_555
B3U C1 1_555 1_555
H4U B3U 1_555 1_555
B4U C2 1_555 1_555
H5U B4U 1_555 1_555
O1B Cu1 1_555 1_555
C1B C3B 1_555 1_555
C2B C4B 1_555 1_555
C3B O1B 1_555 1_555
C4B C5B 1_555 1_555
C5B H1B 1_555 1_555
B1B C2B 1_555 1_555
H2B B1B 1_555 1_555
B2B C1B 1_555 1_555
H3B B2B 1_555 1_555
B3B C1B 1_555 1_555
H4B B3B 1_555 1_555
B4B C2B 1_555 1_555
H5B B4B 1_555 1_555
O1D C3D 1_555 1_555
C1D C3D 1_555 1_555
C2D C4D 1_555 1_555
C3D O1P 1_555 1_555
C4D C5D 1_555 1_555
C5D C4B 1_555 1_555
H1D C5D 1_555 1_555
B1D C2D 1_555 1_555
H2D B1D 1_555 1_555
B2D C1D 1_555 1_555
H3D B2D 1_555 1_555
B3D C1D 1_555 1_555
H4D B3D 1_555 1_555
B4D C2D 1_555 1_555
H5D B4D 1_555 1_555
O1K C3K 1_555 1_555
C1K C3K 1_555 1_555
C2K C4K 1_555 1_555
C3K O1N 1_555 1_555
C4K C5B 1_555 1_555
C5K C4D 1_555 1_555
H1K C5K 1_555 1_555
B1K C2K 1_555 1_555
H2K B1K 1_555 1_555
B2K C1K 1_555 1_555
H3K B2K 1_555 1_555
B3K C1K 1_555 1_555
H4K B3K 1_555 1_555
B4K C2K 1_555 1_555
H5K B4K 1_555 1_555
O1N Cu1L 1_555 1_555
B1N C2K 1_555 1_555
H2N B1N 1_555 1_555
B2N C1K 1_555 1_555
H3N B2N 1_555 1_555
B3N C1K 1_555 1_555
H4N B3N 1_555 1_555
B4N C2K 1_555 1_555
H5N B4N 1_555 1_555
O1P Cu1P 1_555 1_555
B1P C2D 1_555 1_555
H2P B1P 1_555 1_555
B2P C1D 1_555 1_555
H3P B2P 1_555 1_555
B3P C1D 1_555 1_555
H4P B3P 1_555 1_555
B4P C2D 1_555 1_555
H5P B4P 1_555 1_555
O1W C3B 1_555 1_555
B1W C2B 1_555 1_555
H2W B1W 1_555 1_555
B2W C1B 1_555 1_555
H3W B2W 1_555 1_555
B3W C1B 1_555 1_555
H4W B3W 1_555 1_555
B4W C2B 1_555 1_555
H5W B4W 1_555 1_555
Cu1E O1G 1_555 1_555
O2E Cu1E 1_555 1_555
Cu1U Cu1 1_555 1_555
O2U Cu1U 1_555 1_555
Cu1D O1D 1_555 1_555
Cu1H O1J 1_555 1_555
Cu1I O1K 1_555 1_555
Cu1L Cu1I 1_555 1_555
Cu1M Cu1H 1_555 1_555
Cu1P Cu1D 1_555 1_555
Cu1Q Cu1E 1_555 1_555
O1E Cu1E 1_555 1_555
O1Y Cu1 1_555 1_555
O1AA Cu1 1_555 1_555
O1BA Cu1E 1_555 1_555
O1DA Cu1E 1_555 1_555
O1RA Cu1U 1_555 1_555
O1TA Cu1U 1_555 1_555
B1 B3 1_555 1_555
B1 B4 1_555 1_555
B1 B2U 1_555 1_555
B1 B4U 1_555 1_555
B2 B3 1_555 1_555
B2 B4 1_555 1_555
B2 B1U 1_555 1_555
B2 B3U 1_555 1_555
B3 B4 1_555 1_555
B3 B2U 1_555 1_555
B4 B1U 1_555 1_555
B1G B3G 1_555 1_555
B1G B4G 1_555 1_555
B1G B2Q 1_555 1_555
B1G B4Q 1_555 1_555
B2G B3G 1_555 1_555
B2G B4G 1_555 1_555
B2G B1Q 1_555 1_555
B2G B3Q 1_555 1_555
B3G B4G 1_555 1_555
B3G B2Q 1_555 1_555
B4G B1Q 1_555 1_555
C4J C5J 1_555 1_555
B1J B3J 1_555 1_555
B1J B4J 1_555 1_555
B1J B2M 1_555 1_555
B1J B4M 1_555 1_555
B2J B3J 1_555 1_555
B2J B4J 1_555 1_555
B2J B1M 1_555 1_555
B2J B3M 1_555 1_555
B3J B4J 1_555 1_555
B3J B2M 1_555 1_555
B4J B1M 1_555 1_555
B1M B3M 1_555 1_555
B1M B4M 1_555 1_555
B2M B3M 1_555 1_555
B2M B4M 1_555 1_555
B3M B4M 1_555 1_555
B1Q B3Q 1_555 1_555
B1Q B4Q 1_555 1_555
B2Q B3Q 1_555 1_555
B2Q B4Q 1_555 1_555
B3Q B4Q 1_555 1_555
B1U B3U 1_555 1_555
B1U B4U 1_555 1_555
B2U B3U 1_555 1_555
B2U B4U 1_555 1_555
B3U B4U 1_555 1_555
B1B B3B 1_555 1_555
B1B B4B 1_555 1_555
B1B B2W 1_555 1_555
B1B B4W 1_555 1_555
B2B B3B 1_555 1_555
B2B B4B 1_555 1_555
B2B B1W 1_555 1_555
B2B B3W 1_555 1_555
B3B B4B 1_555 1_555
B3B B2W 1_555 1_555
B4B B1W 1_555 1_555
B1D B3D 1_555 1_555
B1D B4D 1_555 1_555
B1D B2P 1_555 1_555
B1D B4P 1_555 1_555
B2D B3D 1_555 1_555
B2D B4D 1_555 1_555
B2D B1P 1_555 1_555
B2D B3P 1_555 1_555
B3D B4D 1_555 1_555
B3D B2P 1_555 1_555
B4D B1P 1_555 1_555
C4K C5K 1_555 1_555
B1K B3K 1_555 1_555
B1K B4K 1_555 1_555
B1K B2N 1_555 1_555
B1K B4N 1_555 1_555
B2K B3K 1_555 1_555
B2K B4K 1_555 1_555
B2K B1N 1_555 1_555
B2K B3N 1_555 1_555
B3K B4K 1_555 1_555
B3K B2N 1_555 1_555
B4K B1N 1_555 1_555
B1N B3N 1_555 1_555
B1N B4N 1_555 1_555
B2N B3N 1_555 1_555
B2N B4N 1_555 1_555
B3N B4N 1_555 1_555
B1P B3P 1_555 1_555
B1P B4P 1_555 1_555
B2P B3P 1_555 1_555
B2P B4P 1_555 1_555
B3P B4P 1_555 1_555
O1W Cu1U 1_555 1_555
B1W B3W 1_555 1_555
B1W B4W 1_555 1_555
B2W B3W 1_555 1_555
B2W B4W 1_555 1_555
B3W B4W 1_555 1_555

#END
