
#######################################################################
#
#                 Cambridge Crystallographic Data Centre
#                                CCDC 
#
#######################################################################
#
# If this CIF has been generated from an entry in the Cambridge 
# Structural Database, then it will include bibliographic, chemical, 
# crystal, experimental, refinement or atomic coordinate data resulting 
# from the CCDC's data processing and validation procedures.
#
#######################################################################

data_EZUCOS
_chemical_formula_moiety         '(C30 H22 Cd2 N8 O8)n,2n(C2 H6 O1),6n(H2 O1)'
_chemical_name_systematic        
'catena-(bis(\m~5~-(Z)-2-(1,2-bis(Pyridin-4-yl)hydrazinyl)pent-2-endioato)-di-cadmium ethanol solvate hexahydrate)'
_symmetry_cell_setting           monoclinic
_symmetry_space_group_name_H-M   'C 2/c'
_symmetry_Int_Tables_number      15
_space_group_name_Hall           '-C 2yc'
loop_
_symmetry_equiv_pos_site_id
_symmetry_equiv_pos_as_xyz
1 x,y,z
2 -x,y,1/2-z
3 1/2+x,1/2+y,z
4 1/2-x,1/2+y,1/2-z
5 -x,-y,-z
6 x,-y,1/2+z
7 1/2-x,1/2-y,-z
8 1/2+x,1/2-y,1/2+z
_cell_length_a                   25.4628(7)
_cell_length_b                   9.8868(3)
_cell_length_c                   20.2318(6)
_cell_angle_alpha                90
_cell_angle_beta                 123.974(3)
_cell_angle_gamma                90
_cell_volume                     4223.8
_exptl_crystal_colour            orange
_exptl_crystal_description       block
_cell_formula_units_Z            4
loop_
_atom_site_label
_atom_site_type_symbol
_atom_site_fract_x
_atom_site_fract_y
_atom_site_fract_z
C1 C 0.7299(3) 0.1411(6) 0.2089(4)
H1 H 0.7142 0.0752 0.2262
C2 C 0.7943(3) 0.1634(6) 0.2537(4)
H2 H 0.8208 0.1142 0.3001
C3 C 0.8195(3) 0.2613(6) 0.2286(3)
C4 C 0.7764(3) 0.3330(6) 0.1595(4)
H3 H 0.7906 0.3991 0.1404
C5 C 0.7134(3) 0.3057(7) 0.1203(4)
H4 H 0.6856 0.3574 0.0756
C6 C 0.9127(3) 0.3689(6) 0.1822(3)
C7 C 0.9281(3) 0.4821(6) 0.1546(3)
H5 H 0.9354 0.5658 0.1792
C8 C 0.9323(3) 0.4658(6) 0.0894(3)
H6 H 0.9426 0.5415 0.0716
C9 C 0.9105(3) 0.2415(6) 0.0807(4)
H7 H 0.9054 0.1585 0.0561
C10 C 0.9054(3) 0.2447(6) 0.1444(3)
H8 H 0.8973 0.1660 0.1624
C11 C 0.9326(3) 0.3680(6) 0.4049(3)
C12 C 0.9247(3) 0.2515(6) 0.3521(3)
C13 C 0.9533(3) 0.1347(6) 0.3814(4)
C14 C 0.9469(3) 0.0081(6) 0.3377(3)
H9 H 0.9850 -0.0053 0.3386
H10 H 0.9116 0.0174 0.2825
C15 C 0.9361(3) -0.1148(6) 0.3735(3)
N1 N 0.6887(2) 0.2083(5) 0.1421(3)
N2 N 0.8847(2) 0.2775(5) 0.2683(3)
N3 N 0.9059(2) 0.3868(5) 0.2444(3)
N4 N 0.9227(2) 0.3512(5) 0.0510(3)
O1 O 0.90184(17) 0.4731(4) 0.3692(2)
O2 O 0.96753(17) 0.3544(4) 0.4796(2)
O4 O 0.9359(2) -0.2298(4) 0.3472(2)
O6 O 0.92828(18) -0.0982(4) 0.4295(2)
Cd1 Cd 0.579629(18) 0.16064(4) 0.06164(2)
H17 H 0.982(3) 0.130(6) 0.441(4)
C1F C 0.7701(3) 0.3589(6) -0.2089(4)
H1F H 0.7858 0.4248 -0.2262
C2F C 0.7057(3) 0.3366(6) -0.2537(4)
H2F H 0.6792 0.3858 -0.3001
C3F C 0.6805(3) 0.2387(6) -0.2286(3)
C4F C 0.7236(3) 0.1670(6) -0.1595(4)
H3F H 0.7094 0.1009 -0.1404
C5F C 0.7866(3) 0.1943(7) -0.1203(4)
H4F H 0.8144 0.1426 -0.0756
C6F C 0.5873(3) 0.1311(6) -0.1822(3)
C7F C 0.5719(3) 0.0179(6) -0.1546(3)
H5F H 0.5646 -0.0658 -0.1792
C8F C 0.5677(3) 0.0342(6) -0.0894(3)
H6F H 0.5574 -0.0415 -0.0716
C9F C 0.5895(3) 0.2585(6) -0.0807(4)
H7F H 0.5946 0.3415 -0.0561
C10F C 0.5946(3) 0.2553(6) -0.1444(3)
H8F H 0.6027 0.3340 -0.1624
C11F C 0.5674(3) 0.1320(6) -0.4049(3)
C12F C 0.5753(3) 0.2485(6) -0.3521(3)
C13F C 0.5467(3) 0.3653(6) -0.3814(4)
C14F C 0.5531(3) 0.4919(6) -0.3377(3)
H9F H 0.5150 0.5053 -0.3386
H10F H 0.5884 0.4826 -0.2825
C15F C 0.5639(3) 0.6148(6) -0.3735(3)
N1F N 0.8113(2) 0.2917(5) -0.1421(3)
N2F N 0.6153(2) 0.2225(5) -0.2683(3)
N3F N 0.5941(2) 0.1132(5) -0.2444(3)
N4F N 0.5773(2) 0.1488(5) -0.0510(3)
O1F O 0.59816(17) 0.0269(4) -0.3692(2)
O1C O 0.59816(17) -0.0269(4) 0.1308(2)
O1E O 0.90184(17) 0.5269(4) -0.1308(2)
O2F O 0.53247(17) 0.1456(4) -0.4796(2)
O2G O 0.46753(17) 0.1456(4) -0.0204(2)
O2A O 1.03247(17) 0.3544(4) 0.0204(2)
O4F O 0.5641(2) 0.7298(4) -0.3472(2)
O4C O 0.5641(2) 0.2702(4) 0.1528(2)
O4E O 0.9359(2) 0.2298(4) -0.1528(2)
O6F O 0.57172(18) 0.5982(4) -0.4295(2)
O6C O 0.57172(18) 0.4018(4) 0.0705(2)
O6E O 0.92828(18) 0.0982(4) -0.0705(2)
Cd1F Cd 0.920371(18) 0.33936(4) -0.06164(2)
Cd1C Cd 0.920371(18) 0.66064(4) 0.43836(2)
Cd1G Cd 1.079629(18) 0.33936(4) 0.56164(2)
Cd1C_2 Cd 0.920371(18) -0.33936(4) 0.43836(2)
Cd1E Cd 0.579629(18) -0.16064(4) -0.43836(2)
Cd1A Cd 0.420371(18) 0.16064(4) -0.56164(2)
Cd1E_2 Cd 0.579629(18) 0.83936(4) -0.43836(2)
H17F H 0.518(3) 0.370(6) -0.441(4)
C16 C 0.7294(8) -0.254(2) 0.0941(9)
H11 H 0.6976 -0.2658 0.1053
H12 H 0.7703 -0.2736 0.1413
H13 H 0.7211 -0.3153 0.0524
C17 C 0.7277(12) -0.088(3) 0.0640(15)
H14 H 0.6873 -0.0723 0.0142
H15 H 0.7304 -0.0274 0.1035
O8 O 0.772(2) -0.057(5) 0.054(3)
H16 H 0.8068 -0.0705 0.0960
O3 O 0.8959(5) -0.1053(9) 0.1320(6)
O5 O 0.8498(7) -0.3100(12) 0.1902(8)
O7 O 1.0000 -0.2233(12) 0.2500
O9 O 0.5967(3) -0.3912(6) -0.0021(3)
loop_
_geom_bond_atom_site_label_1
_geom_bond_atom_site_label_2
_geom_bond_site_symmetry_1
_geom_bond_site_symmetry_2
C1 H1 1_555 1_555
C2 C1 1_555 1_555
H2 C2 1_555 1_555
C3 C2 1_555 1_555
C4 C3 1_555 1_555
H3 C4 1_555 1_555
C5 C4 1_555 1_555
H4 C5 1_555 1_555
C6 C7 1_555 1_555
C7 H5 1_555 1_555
C8 C7 1_555 1_555
H6 C8 1_555 1_555
C9 H7 1_555 1_555
C10 C6 1_555 1_555
H8 C10 1_555 1_555
C11 C12 1_555 1_555
C12 C13 1_555 1_555
C13 C14 1_555 1_555
C14 H9 1_555 1_555
H10 C14 1_555 1_555
C15 C14 1_555 1_555
C16 H11 1_555 1_555
H12 C16 1_555 1_555
H13 C16 1_555 1_555
C17 C16 1_555 1_555
H14 C17 1_555 1_555
H15 C17 1_555 1_555
N1 C1 1_555 1_555
N2 C3 1_555 1_555
N3 C6 1_555 1_555
N4 C8 1_555 1_555
O1 C11 1_555 1_555
O2 C11 1_555 1_555
O4 C15 1_555 1_555
O6 C15 1_555 1_555
O8 C17 1_555 1_555
H16 O8 1_555 1_555
Cd1 N1 1_555 1_555
H17 C13 1_555 1_555
C1F H1F 1_555 1_555
C2F C1F 1_555 1_555
H2F C2F 1_555 1_555
C3F C2F 1_555 1_555
C4F C3F 1_555 1_555
H3F C4F 1_555 1_555
C5F C4F 1_555 1_555
H4F C5F 1_555 1_555
C6F C7F 1_555 1_555
C7F H5F 1_555 1_555
C8F C7F 1_555 1_555
H6F C8F 1_555 1_555
C9F H7F 1_555 1_555
C10F C6F 1_555 1_555
H8F C10F 1_555 1_555
C11F C12F 1_555 1_555
C12F C13F 1_555 1_555
C13F C14F 1_555 1_555
C14F H9F 1_555 1_555
H10F C14F 1_555 1_555
C15F C14F 1_555 1_555
N1F C1F 1_555 1_555
N2F C3F 1_555 1_555
N3F C6F 1_555 1_555
N4F Cd1 1_555 1_555
O1F C11F 1_555 1_555
O1C Cd1 1_555 1_555
O1E Cd1F 1_555 1_555
O2F C11F 1_555 1_555
O2G Cd1 1_555 1_555
O2A Cd1F 1_555 1_555
O4F C15F 1_555 1_555
O4C Cd1 1_555 1_555
O4E Cd1F 1_555 1_555
O6F C15F 1_555 1_555
O6C Cd1 1_555 1_555
O6E Cd1F 1_555 1_555
Cd1F N4 1_555 1_555
Cd1C O1 1_555 1_555
Cd1G O2 1_555 1_555
Cd1C_2 O4 1_555 1_555
Cd1E O1F 1_555 1_555
Cd1A O2F 1_555 1_555
Cd1E_2 O4F 1_555 1_555
H17F C13F 1_555 1_555
C5 N1 1_555 1_555
C9 C10 1_555 1_555
C9 N4 1_555 1_555
C12 N2 1_555 1_555
N2 N3 1_555 1_555
O6 Cd1C_2 1_555 1_555
C5F N1F 1_555 1_555
C8F N4F 1_555 1_555
C9F C10F 1_555 1_555
C9F N4F 1_555 1_555
C12F N2F 1_555 1_555
N1F Cd1F 1_555 1_555
N2F N3F 1_555 1_555
O6F Cd1E_2 1_555 1_555

#END
