
#######################################################################
#
#                 Cambridge Crystallographic Data Centre
#                                CCDC 
#
#######################################################################
#
# If this CIF has been generated from an entry in the Cambridge 
# Structural Database, then it will include bibliographic, chemical, 
# crystal, experimental, refinement or atomic coordinate data resulting 
# from the CCDC's data processing and validation procedures.
#
#######################################################################

data_MIHHER
_chemical_name_common            ZIF-21
_chemical_formula_moiety         '(C20 H12 Co2 N16)n,8.8n(H2 O1)'
_chemical_name_systematic        
'catena-(tetrakis(\m~2~-Purinate-N^7^,N^9^)-di-cobalt unknown solvate hydrate)'
_symmetry_cell_setting           cubic
_symmetry_space_group_name_H-M   'F m -3 m'
_symmetry_Int_Tables_number      225
_space_group_name_Hall           '-F 4 2 3'
loop_
_symmetry_equiv_pos_site_id
_symmetry_equiv_pos_as_xyz
1 x,y,z
2 z,x,y
3 y,z,x
4 y,x,-z
5 y,-x,z
6 -y,x,z
7 x,z,-y
8 -x,z,y
9 x,-z,y
10 z,y,-x
11 z,-y,x
12 -z,y,x
13 x,1/2+y,1/2+z
14 z,1/2+x,1/2+y
15 y,1/2+z,1/2+x
16 y,1/2+x,1/2-z
17 y,1/2-x,1/2+z
18 -y,1/2+x,1/2+z
19 x,1/2+z,1/2-y
20 -x,1/2+z,1/2+y
21 x,1/2-z,1/2+y
22 z,1/2+y,1/2-x
23 z,1/2-y,1/2+x
24 -z,1/2+y,1/2+x
25 1/2+x,y,1/2+z
26 1/2+z,x,1/2+y
27 1/2+y,z,1/2+x
28 1/2+y,x,1/2-z
29 1/2+y,-x,1/2+z
30 1/2-y,x,1/2+z
31 1/2+x,z,1/2-y
32 1/2-x,z,1/2+y
33 1/2+x,-z,1/2+y
34 1/2+z,y,1/2-x
35 1/2+z,-y,1/2+x
36 1/2-z,y,1/2+x
37 1/2+x,1/2+y,z
38 1/2+z,1/2+x,y
39 1/2+y,1/2+z,x
40 1/2+y,1/2+x,-z
41 1/2+y,1/2-x,z
42 1/2-y,1/2+x,z
43 1/2+x,1/2+z,-y
44 1/2-x,1/2+z,y
45 1/2+x,1/2-z,y
46 1/2+z,1/2+y,-x
47 1/2+z,1/2-y,x
48 1/2-z,1/2+y,x
49 -x,-y,z
50 -x,y,-z
51 x,-y,-z
52 z,-x,-y
53 -z,-x,y
54 -z,x,-y
55 -y,z,-x
56 y,-z,-x
57 -y,-z,x
58 -y,-x,-z
59 -x,-z,-y
60 -z,-y,-x
61 -x,1/2-y,1/2+z
62 -x,1/2+y,1/2-z
63 x,1/2-y,1/2-z
64 z,1/2-x,1/2-y
65 -z,1/2-x,1/2+y
66 -z,1/2+x,1/2-y
67 -y,1/2+z,1/2-x
68 y,1/2-z,1/2-x
69 -y,1/2-z,1/2+x
70 -y,1/2-x,1/2-z
71 -x,1/2-z,1/2-y
72 -z,1/2-y,1/2-x
73 1/2-x,-y,1/2+z
74 1/2-x,y,1/2-z
75 1/2+x,-y,1/2-z
76 1/2+z,-x,1/2-y
77 1/2-z,-x,1/2+y
78 1/2-z,x,1/2-y
79 1/2-y,z,1/2-x
80 1/2+y,-z,1/2-x
81 1/2-y,-z,1/2+x
82 1/2-y,-x,1/2-z
83 1/2-x,-z,1/2-y
84 1/2-z,-y,1/2-x
85 1/2-x,1/2-y,z
86 1/2-x,1/2+y,-z
87 1/2+x,1/2-y,-z
88 1/2+z,1/2-x,-y
89 1/2-z,1/2-x,y
90 1/2-z,1/2+x,-y
91 1/2-y,1/2+z,-x
92 1/2+y,1/2-z,-x
93 1/2-y,1/2-z,x
94 1/2-y,1/2-x,-z
95 1/2-x,1/2-z,-y
96 1/2-z,1/2-y,-x
97 -x,-y,-z
98 -z,-x,-y
99 -y,-z,-x
100 -y,-x,z
101 -y,x,-z
102 y,-x,-z
103 -x,-z,y
104 x,-z,-y
105 -x,z,-y
106 -z,-y,x
107 -z,y,-x
108 z,-y,-x
109 -x,1/2-y,1/2-z
110 -z,1/2-x,1/2-y
111 -y,1/2-z,1/2-x
112 -y,1/2-x,1/2+z
113 -y,1/2+x,1/2-z
114 y,1/2-x,1/2-z
115 -x,1/2-z,1/2+y
116 x,1/2-z,1/2-y
117 -x,1/2+z,1/2-y
118 -z,1/2-y,1/2+x
119 -z,1/2+y,1/2-x
120 z,1/2-y,1/2-x
121 1/2-x,-y,1/2-z
122 1/2-z,-x,1/2-y
123 1/2-y,-z,1/2-x
124 1/2-y,-x,1/2+z
125 1/2-y,x,1/2-z
126 1/2+y,-x,1/2-z
127 1/2-x,-z,1/2+y
128 1/2+x,-z,1/2-y
129 1/2-x,z,1/2-y
130 1/2-z,-y,1/2+x
131 1/2-z,y,1/2-x
132 1/2+z,-y,1/2-x
133 1/2-x,1/2-y,-z
134 1/2-z,1/2-x,-y
135 1/2-y,1/2-z,-x
136 1/2-y,1/2-x,z
137 1/2-y,1/2+x,-z
138 1/2+y,1/2-x,-z
139 1/2-x,1/2-z,y
140 1/2+x,1/2-z,-y
141 1/2-x,1/2+z,-y
142 1/2-z,1/2-y,x
143 1/2-z,1/2+y,-x
144 1/2+z,1/2-y,-x
145 x,y,-z
146 x,-y,z
147 -x,y,z
148 -z,x,y
149 z,x,-y
150 z,-x,y
151 y,-z,x
152 -y,z,x
153 y,z,-x
154 y,x,z
155 x,z,y
156 z,y,x
157 x,1/2+y,1/2-z
158 x,1/2-y,1/2+z
159 -x,1/2+y,1/2+z
160 -z,1/2+x,1/2+y
161 z,1/2+x,1/2-y
162 z,1/2-x,1/2+y
163 y,1/2-z,1/2+x
164 -y,1/2+z,1/2+x
165 y,1/2+z,1/2-x
166 y,1/2+x,1/2+z
167 x,1/2+z,1/2+y
168 z,1/2+y,1/2+x
169 1/2+x,y,1/2-z
170 1/2+x,-y,1/2+z
171 1/2-x,y,1/2+z
172 1/2-z,x,1/2+y
173 1/2+z,x,1/2-y
174 1/2+z,-x,1/2+y
175 1/2+y,-z,1/2+x
176 1/2-y,z,1/2+x
177 1/2+y,z,1/2-x
178 1/2+y,x,1/2+z
179 1/2+x,z,1/2+y
180 1/2+z,y,1/2+x
181 1/2+x,1/2+y,-z
182 1/2+x,1/2-y,z
183 1/2-x,1/2+y,z
184 1/2-z,1/2+x,y
185 1/2+z,1/2+x,-y
186 1/2+z,1/2-x,y
187 1/2+y,1/2-z,x
188 1/2-y,1/2+z,x
189 1/2+y,1/2+z,-x
190 1/2+y,1/2+x,z
191 1/2+x,1/2+z,y
192 1/2+z,1/2+y,x
_cell_length_a                   45.4725(2)
_cell_length_b                   45.4725(2)
_cell_length_c                   45.4725(2)
_cell_angle_alpha                90
_cell_angle_beta                 90
_cell_angle_gamma                90
_cell_volume                     94025.7
_exptl_crystal_colour            magenta
_exptl_crystal_description       prism
_cell_formula_units_Z            96
loop_
_atom_site_label
_atom_site_type_symbol
_atom_site_fract_x
_atom_site_fract_y
_atom_site_fract_z
_atom_site_U_iso_or_equiv
_atom_site_thermal_displace_type
O2 O 0.2500 0.2500 0.2500 0.1440 Uani
O3 O 0.3335 0.3335 0.1665 0.1460 Uani
O4 O 0.3246 0.3839 0.0000 0.2230 Uiso
O5 O 0.3565 0.3565 0.0000 0.2513 Uani
O6 O 0.2500 0.2500 0.0244 0.2480 Uani
O7 O 0.2500 0.2500 0.0737 2.0000 Uiso
O8 O 0.0000 0.5000 0.0000 0.4070 Uani
O9 O 0.5000 0.3279 0.0000 0.3350 Uiso
O10 O 0.4294 0.4294 0.0706 0.4860 Uani
O11 O 0.1923 0.3077 0.0000 0.9820 Uiso
O12 O 0.2973 0.3495 0.1505 0.2380 Uani
O13 O 0.2855 0.2855 0.2145 0.8740 Uani
O14 O 0.3387 0.1613 0.1613 0.2570 Uiso
C1 C 0.29804(16) 0.20196(16) 0.0687(2) 0.0480 Uiso
H1 H 0.3027 0.1973 0.0489 0.0580 Uiso
C2 C 0.29870(14) 0.22270(15) 0.11083(16) 0.0420 Uiso
C3 C 0.3048(2) 0.2389(2) 0.1352(2) 0.0700 Uiso
H2 H 0.3204 0.2527 0.1361 0.0840 Uiso
N1 N 0.28664(18) 0.23354(18) 0.1582(2) 0.1410 Uiso
C4 C 0.3376(3) 0.2487(2) 0.0000 0.0380 Uiso
H3 H 0.3269 0.2667 0.0000 0.0460 Uiso
C5 C 0.36048(18) 0.20946(19) 0.01527(15) 0.0630 Uiso
C6 C 0.3728(2) 0.1877(2) 0.0311(2) 0.1040 Uiso
H4 H 0.3719 0.1867 0.0519 0.1250 Uiso
N2 N 0.3865(2) 0.1678(2) 0.0143(2) 0.1780 Uiso
C7 C 0.3880(2) 0.2453(2) 0.1120(2) 0.0490 Uiso
H5 H 0.3737 0.2399 0.1263 0.0590 Uiso
C8 C 0.40726(18) 0.25614(16) 0.07182(18) 0.0490 Uiso
N3 N 0.41272(17) 0.26524(19) 0.04371(18) 0.0900 Uiso
C9 C 0.44225(16) 0.27208(17) 0.03792(14) 0.0660 Uiso
H6 H 0.4477 0.2769 0.0183 0.0800 Uiso
C10 C 0.29652(4) 0.29652(4) 0.06326(19) 0.0500 Uiso
H7 H 0.2820 0.2820 0.0593 0.0600 Uiso
C11 C 0.33804(6) 0.31699(10) 0.06977(16) 0.0600 Uiso
C12 C 0.36761(18) 0.32260(17) 0.07265(17) 0.0630 Uiso
H8 H 0.3826 0.3080 0.0724 0.0760 Uiso
N4 N 0.37247(16) 0.35226(16) 0.07596(18) 0.1190 Uiso
N5 N 0.31222(13) 0.22316(13) 0.08354(13) 0.0400 Uiso
N6 N 0.34581(13) 0.23489(15) 0.02526(14) 0.0440 Uiso
N7 N 0.38100(18) 0.24929(11) 0.08369(18) 0.0430 Uiso
N8 N 0.32468(14) 0.28935(14) 0.06610(13) 0.0510 Uiso
Co1 Co 0.34163(4) 0.24941(3) 0.06564(3) 0.0476 Uani
C2EE C 0.27730(15) 0.20130(14) 0.11083(16) 0.0420 Uiso
C3EE C 0.2611(2) 0.1952(2) 0.1352(2) 0.0700 Uiso
N1EE N 0.26646(18) 0.21336(18) 0.1582(2) 0.1410 Uiso
C5NE C 0.36048(18) 0.20946(19) -0.01527(15) 0.0630 Uiso
C6NE C 0.3728(2) 0.1877(2) -0.0311(2) 0.1040 Uiso
H4NE H 0.3719 0.1867 -0.0519 0.1250 Uiso
N2NE N 0.3865(2) 0.1678(2) -0.0143(2) 0.1780 Uiso
C8ZD C 0.42818(18) 0.25614(16) 0.09274(18) 0.0490 Uiso
N3ZD N 0.45629(18) 0.26524(19) 0.08728(17) 0.0900 Uiso
C9ZD C 0.46208(14) 0.27208(17) 0.05775(16) 0.0660 Uiso
H6ZD H 0.4817 0.2769 0.0523 0.0800 Uiso
C11WE C 0.31699(10) 0.33804(6) 0.06977(16) 0.0600 Uiso
C12WE C 0.32260(17) 0.36761(18) 0.07265(17) 0.0630 Uiso
N4WE N 0.35226(16) 0.37247(16) 0.07596(18) 0.1190 Uiso
N5EE N 0.27684(13) 0.18778(13) 0.08354(13) 0.0400 Uiso
N6NE N 0.34581(13) 0.23489(15) -0.02526(14) 0.0440 Uiso
N7ZD N 0.41631(18) 0.24929(11) 0.11900(18) 0.0430 Uiso
N8WE N 0.28935(14) 0.32468(14) 0.06610(13) 0.0510 Uiso
Co1EE Co 0.25059(3) 0.15837(4) 0.06564(3) 0.0476 Uani
Co1NE Co 0.34163(4) 0.24941(3) -0.06564(3) 0.0476 Uani
Co1ZD Co 0.43436(3) 0.24941(3) 0.15837(4) 0.0476 Uani
Co1WE Co 0.24941(3) 0.34163(4) 0.06564(3) 0.0476 Uani
O1 O 0.3197 0.3197 0.0000 0.0800 Uani
N9? N 0.3048(2) 0.2389(2) 0.1352(2) 0.0700 Uiso
C13? C 0.28664(18) 0.23354(18) 0.1582(2) 0.1410 Uiso
H9? H 0.2888 0.2453 0.1753 0.1700 Uiso
N10? N 0.3728(2) 0.1877(2) 0.0311(2) 0.1040 Uiso
C14? C 0.3865(2) 0.1678(2) 0.0143(2) 0.1780 Uiso
H10? H 0.3969 0.1525 0.0240 0.2140 Uiso
C15? C 0.41272(17) 0.26524(19) 0.04371(18) 0.0900 Uiso
H11? H 0.3977 0.2668 0.0292 0.1080 Uiso
N11? N 0.44225(16) 0.27208(17) 0.03792(14) 0.0660 Uiso
N12? N 0.36761(18) 0.32260(17) 0.07265(17) 0.0630 Uiso
C16? C 0.37247(16) 0.35226(16) 0.07596(18) 0.1190 Uiso
H12? H 0.3923 0.3585 0.0785 0.1420 Uiso
O15? O 0.2500 0.2500 0.0000 0.5907 Uani
O16? O 0.3758 0.3758 0.0000 0.3673 Uani
O17? O 0.2860 0.3762 0.0000 0.9057 Uani
O18? O 0.5000 0.3464 0.0000 1.0113 Uani
O19? O 0.3340 0.3471 0.0000 0.3120 Uiso
loop_
_atom_site_aniso_label
_atom_site_aniso_U_11
_atom_site_aniso_U_22
_atom_site_aniso_U_33
_atom_site_aniso_U_23
_atom_site_aniso_U_13
_atom_site_aniso_U_12
O2 0.144 0.144 0.144 0.000 0.000 0.000
O3 0.146 0.146 0.146 -0.020 -0.020 0.020
O5 0.291 0.291 0.172 0.000 0.000 -0.265
O6 0.296 0.296 0.152 0.000 0.000 -0.218
O8 0.407 0.407 0.407 0.000 0.000 0.000
O10 0.486 0.486 0.486 0.071 0.071 -0.071
O12 0.300 0.207 0.207 0.025 0.017 -0.017
O13 0.874 0.874 0.874 -0.389 -0.389 0.389
Co1 0.0370(16) 0.0569(16) 0.0488(17) 0.0064(7) -0.0120(11) -0.0119(8)
Co1EE 0.0569 0.037 0.0488 0.012 -0.0064 -0.0119
Co1NE 0.037 0.0569 0.0488 -0.0064 0.012 -0.0119
Co1ZD 0.0488 0.0569 0.037 0.0119 -0.012 -0.0064
Co1WE 0.0569 0.037 0.0488 -0.012 0.0064 -0.0119
O1 0.079 0.079 0.082 0.000 0.000 -0.007
O15? 0.847 0.847 0.078 0.000 0.000 -0.781
O16? 0.464 0.464 0.174 0.000 0.000 -0.317
O17? 0.344 0.373 2.000 0.000 0.000 0.067
O18? 1.483 0.068 1.483 0.000 0.000 0.000
loop_
_geom_bond_atom_site_label_1
_geom_bond_atom_site_label_2
_geom_bond_site_symmetry_1
_geom_bond_site_symmetry_2
C1 H1 1_555 1_555
C2 C3 1_555 1_555
C3 H2 1_555 1_555
N1 C3 1_555 1_555
C4 H3 1_555 1_555
C5 C6 1_555 1_555
C6 H4 1_555 1_555
N2 C6 1_555 1_555
C7 H5 1_555 1_555
C8 N3 1_555 1_555
N3 C9 1_555 1_555
C9 H6 1_555 1_555
C10 H7 1_555 1_555
C11 C12 1_555 1_555
C12 H8 1_555 1_555
N4 C12 1_555 1_555
N5 C1 1_555 1_555
N6 C4 1_555 1_555
N7 C7 1_555 1_555
N8 C10 1_555 1_555
Co1 N5 1_555 1_555
C2EE C2 1_555 1_555
C3EE C2EE 1_555 1_555
N1EE N1 1_555 1_555
C5NE C5 1_555 1_555
C6NE C5NE 1_555 1_555
H4NE C6NE 1_555 1_555
N2NE N2 1_555 1_555
C8ZD C8 1_555 1_555
N3ZD C8ZD 1_555 1_555
C9ZD C9 1_555 1_555
H6ZD C9ZD 1_555 1_555
C11WE C11 1_555 1_555
C12WE C11WE 1_555 1_555
N4WE N4 1_555 1_555
N5EE C1 1_555 1_555
N6NE C4 1_555 1_555
N7ZD C7 1_555 1_555
N8WE C10 1_555 1_555
Co1EE N5EE 1_555 1_555
Co1NE N6NE 1_555 1_555
Co1ZD N7ZD 1_555 1_555
Co1WE N8WE 1_555 1_555
C2 N5 1_555 1_555
C5 N6 1_555 1_555
C8 N7 1_555 1_555
C11 N8 1_555 1_555
N6 Co1 1_555 1_555
N7 Co1 1_555 1_555
N8 Co1 1_555 1_555
C2EE N5EE 1_555 1_555
C3EE N1EE 1_555 1_555
C5NE N6NE 1_555 1_555
C6NE N2NE 1_555 1_555
C8ZD N7ZD 1_555 1_555
N3ZD C9ZD 1_555 1_555
C11WE N8WE 1_555 1_555
C12WE N4WE 1_555 1_555

#END
