
#######################################################################
#
#                 Cambridge Crystallographic Data Centre
#                                CCDC 
#
#######################################################################
#
# If this CIF has been generated from an entry in the Cambridge 
# Structural Database, then it will include bibliographic, chemical, 
# crystal, experimental, refinement or atomic coordinate data resulting 
# from the CCDC's data processing and validation procedures.
#
#######################################################################

data_ULILEI
_chemical_formula_moiety         '(C26 H20 Cd1 N12 O2)n,C4 H9 N1 O1,2(H2 O1)'
_chemical_name_systematic        
"catena-[bis(\m-1,1'-(1,4-phenylene)di(1H-imidazole))-bis(\m-5,5'-(oxydi(4,1-phenylene))bis(tetrazolyl))-aqua-cadmium N,N-dimethylacetamide solvate dihydrate]"
_symmetry_cell_setting           orthorhombic
_symmetry_space_group_name_H-M   'P c c a'
_symmetry_Int_Tables_number      54
_space_group_name_Hall           '-P 2a 2ac'
loop_
_symmetry_equiv_pos_site_id
_symmetry_equiv_pos_as_xyz
1 x,y,z
2 1/2-x,-y,z
3 1/2+x,-y,1/2-z
4 -x,y,1/2-z
5 -x,-y,-z
6 1/2+x,y,-z
7 1/2-x,y,1/2+z
8 x,-y,1/2+z
_cell_length_a                   28.6376(15)
_cell_length_b                   10.5812(4)
_cell_length_c                   22.7685(10)
_cell_angle_alpha                90
_cell_angle_beta                 90
_cell_angle_gamma                90
_cell_volume                     6899.31
_exptl_crystal_colour            colorless
_exptl_crystal_description       block
_cell_formula_units_Z            8
loop_
_atom_site_label
_atom_site_type_symbol
_atom_site_fract_x
_atom_site_fract_y
_atom_site_fract_z
_atom_site_U_iso_or_equiv
_atom_site_thermal_displace_type
C33 C 0.1959(3) 0.5711(10) 0.2553(3) 0.1207 Uani
H27 H 0.1927 0.5141 0.2227 0.1810 Uiso
H28 H 0.2265 0.6078 0.2549 0.1810 Uiso
H29 H 0.1729 0.6367 0.2522 0.1810 Uiso
C34 C 0.1890(2) 0.5014(13) 0.3104(4) 0.1107 Uani
C35 C 0.1957(3) 0.6920(9) 0.3657(5) 0.1350 Uani
H30 H 0.2242 0.7078 0.3866 0.2020 Uiso
H31 H 0.1700 0.7288 0.3867 0.2020 Uiso
H32 H 0.1976 0.7288 0.3273 0.2020 Uiso
C36 C 0.1806(3) 0.4815(10) 0.4135(3) 0.1243 Uani
H33 H 0.1487 0.4917 0.4259 0.1870 Uiso
H34 H 0.2011 0.5114 0.4439 0.1870 Uiso
H35 H 0.1867 0.3938 0.4061 0.1870 Uiso
N17 N 0.1884(2) 0.5537(9) 0.3603(3) 0.1113 Uani
O3 O 0.1826(2) 0.3762(7) 0.3062(3) 0.1140 Uani
C1 C 0.61471(18) 1.1176(4) 0.4396(2) 0.0383 Uani
C2 C 0.65977(18) 1.1689(4) 0.4194(2) 0.0410 Uani
C3 C 0.68433(19) 1.2498(5) 0.4549(2) 0.0503 Uani
H1 H 0.6722 1.2726 0.4913 0.0600 Uiso
C4 C 0.72693(19) 1.2976(5) 0.4370(2) 0.0573 Uani
H2 H 0.7434 1.3522 0.4614 0.0690 Uiso
C5 C 0.74523(18) 1.2646(5) 0.3829(2) 0.0497 Uani
C6 C 0.7213(2) 1.1814(5) 0.3477(3) 0.0617 Uani
H3 H 0.7338 1.1566 0.3118 0.0740 Uiso
C7 C 0.6789(2) 1.1348(5) 0.3659(2) 0.0577 Uani
H4 H 0.6627 1.0791 0.3417 0.0690 Uiso
C8 C 0.82390(18) 1.3278(5) 0.4017(2) 0.0500 Uani
C9 C 0.84576(16) 1.4429(5) 0.4056(2) 0.0423 Uani
H5 H 0.8345 1.5118 0.3846 0.0510 Uiso
C10 C 0.88468(16) 1.4556(4) 0.44109(18) 0.0337 Uani
H6 H 0.8999 1.5330 0.4439 0.0410 Uiso
C11 C 0.90109(15) 1.3509(4) 0.47283(19) 0.0330 Uani
C12 C 0.87821(17) 1.2359(5) 0.4687(2) 0.0473 Uani
H7 H 0.8890 1.1665 0.4898 0.0570 Uiso
C13 C 0.83893(19) 1.2244(5) 0.4329(2) 0.0567 Uani
H8 H 0.8231 1.1478 0.4303 0.0680 Uiso
C14 C 0.94411(14) 1.3606(3) 0.50809(18) 0.0262 Uani
C15 C 1.0413(5) 0.9115(8) 0.3507(5) 0.0263 Uani
H9 H 1.0149 0.8667 0.3624 0.0320 Uiso
C16 C 1.0921(3) 1.0600(7) 0.3399(3) 0.0510 Uani
H10 H 1.1080 1.1363 0.3440 0.0610 Uiso
C17 C 1.1042(3) 0.9657(7) 0.3028(3) 0.0497 Uani
H11 H 1.1291 0.9661 0.2765 0.0600 Uiso
N1 N 1.0533(2) 1.0261(8) 0.3703(3) 0.0310 Uani
N2 N 1.0734(2) 0.8705(7) 0.3112(4) 0.0310 Uani
C18 C 1.06894(15) 0.7488(4) 0.28063(19) 0.0310 Uani
C19 C 1.06422(15) 0.7388(4) 0.21978(19) 0.0343 Uani
H12 H 1.0623 0.8110 0.1966 0.0410 Uiso
C20 C 1.06249(15) 0.6201(4) 0.19439(19) 0.0343 Uani
H13 H 1.0598 0.6119 0.1539 0.0410 Uiso
C21 C 1.06479(14) 0.5143(4) 0.22946(18) 0.0284 Uani
C22 C 1.07050(14) 0.5232(4) 0.28998(17) 0.0283 Uani
H14 H 1.0729 0.4510 0.3131 0.0340 Uiso
C23 C 1.07254(15) 0.6424(4) 0.31490(19) 0.0313 Uani
H15 H 1.0764 0.6506 0.3553 0.0370 Uiso
C24 C 1.0944(3) 0.3017(6) 0.2101(3) 0.0377 Uani
H16 H 1.1190 0.2986 0.2367 0.0450 Uiso
C25 C 1.0806(3) 0.2091(6) 0.1729(3) 0.0377 Uani
H17 H 1.0949 0.1305 0.1696 0.0450 Uiso
C26 C 1.0330(5) 0.3645(9) 0.1595(5) 0.0273 Uani
H18 H 1.0082 0.4137 0.1464 0.0330 Uiso
N3 N 1.0647(3) 0.4009(6) 0.2005(4) 0.0257 Uani
N4 N 1.0426(3) 0.2474(8) 0.1409(3) 0.0280 Uani
N5 N 0.59881(13) 1.1333(3) 0.49440(17) 0.0393 Uani
N6 N 0.55727(14) 1.0708(3) 0.49537(16) 0.0379 Uani
N7 N 0.54983(14) 1.0209(3) 0.44303(16) 0.0373 Uani
N8 N 0.58535(15) 1.0493(3) 0.40642(18) 0.0424 Uani
N9 N 0.95343(12) 1.4519(3) 0.54643(14) 0.0272 Uani
N10 N 0.99630(13) 1.4216(3) 0.56911(14) 0.0310 Uani
N11 N 1.01106(12) 1.3165(3) 0.54555(16) 0.0288 Uani
N12 N 0.97889(12) 1.2760(3) 0.50595(15) 0.0278 Uani
O1 O 1.06663(11) 1.2994(3) 0.41566(13) 0.0369 Uani
H19 H 1.0881 1.2786 0.4396 0.0440 Uiso
H20 H 1.0558 1.3693 0.4279 0.0440 Uiso
O2 O 0.78628(12) 1.3159(4) 0.36160(16) 0.0607 Uani
Cd1 Cd 1.003710(13) 1.14397(3) 0.430998(13) 0.0353 Uani
N4C N 0.9574(3) 1.2474(8) 0.3591(3) 0.0280 Uani
N6E N 1.05727(14) 1.0708(3) 0.50463(16) 0.0379 Uani
N7A N 0.95017(14) 0.9791(3) 0.44303(16) 0.0373 Uani
Cd1A Cd 0.496290(13) 0.85603(3) 0.430998(13) 0.0353 Uani
Cd1C Cd 0.996290(13) 0.14397(3) 0.069002(13) 0.0353 Uani
Cd1E Cd 0.503710(13) 1.14397(3) 0.569002(13) 0.0353 Uani
N13? N 1.0588(5) 0.8722(10) 0.3012(6) 0.0343 Uani
N14? N 1.0365(4) 1.0283(12) 0.3580(5) 0.0340 Uani
C27? C 1.0722(5) 0.9819(10) 0.2752(5) 0.0503 Uani
H21? H 1.0884 0.9899 0.2400 0.0600 Uiso
C28? C 1.0577(5) 1.0774(9) 0.3101(5) 0.0493 Uani
H22? H 1.0617 1.1630 0.3024 0.0590 Uiso
C29? C 1.0413(9) 0.9022(13) 0.3547(8) 0.0327 Uani
H23? H 1.0338 0.8449 0.3842 0.0400 Uiso
C30? C 1.0679(5) 0.2620(9) 0.2281(5) 0.0330 Uani
H24? H 1.0856 0.2484 0.2617 0.0400 Uiso
C31? C 1.0514(5) 0.1725(8) 0.1912(5) 0.0340 Uani
H25? H 1.0553 0.0859 0.1960 0.0410 Uiso
C32? C 1.0329(9) 0.3540(13) 0.1541(8) 0.0277 Uani
H26? H 1.0235 0.4159 0.1277 0.0330 Uiso
N15? N 1.0536(5) 0.3765(9) 0.2068(6) 0.0270 Uani
N16? N 1.0282(4) 0.2285(13) 0.1460(5) 0.0287 Uani
loop_
_atom_site_aniso_label
_atom_site_aniso_U_11
_atom_site_aniso_U_22
_atom_site_aniso_U_33
_atom_site_aniso_U_23
_atom_site_aniso_U_13
_atom_site_aniso_U_12
C33 0.075(5) 0.202(9) 0.085(6) 0.046(6) 0.001(4) 0.002(6)
C34 0.038(3) 0.220(9) 0.074(5) -0.010(7) -0.007(4) 0.023(6)
C35 0.092(6) 0.098(6) 0.215(10) 0.002(7) -0.013(6) -0.021(5)
C36 0.082(5) 0.232(10) 0.059(5) 0.043(6) 0.005(4) -0.002(6)
N17 0.055(3) 0.177(7) 0.102(5) 0.000(5) 0.003(4) 0.003(4)
O3 0.074(3) 0.137(5) 0.131(5) -0.002(4) -0.006(3) 0.012(4)
C1 0.053(3) 0.022(2) 0.040(3) -0.0116(19) -0.020(2) 0.017(2)
C2 0.048(3) 0.031(2) 0.044(3) -0.010(2) -0.015(2) 0.015(2)
C3 0.055(3) 0.048(3) 0.048(3) -0.014(2) -0.006(2) 0.000(2)
C4 0.052(3) 0.059(3) 0.061(3) -0.019(3) -0.019(3) 0.002(3)
C5 0.040(3) 0.053(3) 0.056(3) -0.002(2) -0.016(2) 0.012(2)
C6 0.066(3) 0.062(3) 0.057(3) -0.013(3) 0.004(3) 0.001(3)
C7 0.066(3) 0.052(3) 0.055(3) -0.024(3) -0.007(3) 0.000(3)
C8 0.041(3) 0.061(3) 0.048(3) -0.001(3) -0.011(2) 0.013(2)
C9 0.038(2) 0.050(3) 0.039(3) 0.010(2) 0.004(2) 0.018(2)
C10 0.036(2) 0.034(2) 0.031(2) 0.0025(19) 0.006(2) 0.010(2)
C11 0.035(2) 0.031(2) 0.033(2) -0.0046(19) 0.0018(19) 0.011(2)
C12 0.044(3) 0.036(2) 0.062(3) -0.004(2) -0.015(2) 0.015(2)
C13 0.053(3) 0.041(3) 0.076(3) -0.004(3) -0.023(3) 0.006(2)
C14 0.034(2) 0.0196(18) 0.025(2) 0.0025(17) 0.0073(18) 0.0062(18)
C15 0.035(3) 0.021(3) 0.023(3) 0.001(3) 0.007(3) 0.000(3)
C16 0.063(4) 0.046(3) 0.044(4) -0.013(3) 0.026(3) -0.023(3)
C17 0.055(4) 0.047(3) 0.047(4) -0.018(3) 0.025(3) -0.024(3)
N1 0.042(4) 0.024(3) 0.027(3) -0.001(3) 0.008(3) -0.002(3)
N2 0.037(4) 0.027(3) 0.029(3) -0.005(3) 0.009(3) -0.009(3)
C18 0.039(2) 0.026(2) 0.028(2) -0.0034(18) 0.0132(19) -0.0012(18)
C19 0.037(2) 0.037(2) 0.029(2) 0.005(2) 0.0048(19) 0.007(2)
C20 0.034(2) 0.049(2) 0.020(2) -0.0050(19) -0.0004(18) 0.007(2)
C21 0.031(2) 0.033(2) 0.0213(19) -0.0077(18) -0.0020(18) 0.0111(18)
C22 0.034(2) 0.029(2) 0.022(2) 0.0001(17) -0.0003(18) 0.0058(18)
C23 0.039(2) 0.036(2) 0.019(2) -0.0036(18) 0.0065(18) -0.003(2)
C24 0.051(4) 0.034(3) 0.028(3) -0.003(3) -0.005(3) 0.011(3)
C25 0.059(4) 0.025(3) 0.029(4) -0.006(3) -0.005(3) 0.011(3)
C26 0.032(3) 0.025(3) 0.025(4) -0.002(3) 0.005(3) 0.001(3)
N3 0.029(3) 0.023(3) 0.025(3) -0.001(3) -0.001(3) 0.003(3)
N4 0.039(4) 0.023(3) 0.022(3) -0.002(3) 0.002(3) -0.005(3)
N5 0.042(2) 0.0309(19) 0.045(2) -0.0179(18) -0.0174(18) 0.0173(18)
N6 0.047(2) 0.0266(18) 0.040(2) -0.0130(17) -0.0198(19) 0.0148(18)
N7 0.059(2) 0.0190(17) 0.034(2) -0.0091(16) -0.0161(19) 0.0063(18)
N8 0.063(3) 0.0241(18) 0.040(2) -0.0075(17) -0.008(2) -0.0012(19)
N9 0.0329(19) 0.0249(17) 0.0237(17) 0.0026(15) 0.0078(15) 0.0087(16)
N10 0.043(2) 0.0281(19) 0.0219(18) 0.0045(15) 0.0090(17) 0.0089(17)
N11 0.034(2) 0.0251(18) 0.0274(19) 0.0060(16) 0.0014(16) 0.0009(16)
N12 0.0328(18) 0.0236(17) 0.0270(19) 0.0009(15) 0.0014(16) 0.0092(16)
O1 0.0503(19) 0.0260(15) 0.0343(18) 0.0068(13) 0.0099(15) 0.0117(15)
O2 0.045(2) 0.080(2) 0.057(2) 0.003(2) -0.0197(18) 0.0059(19)
Cd1 0.0610(3) 0.01916(19) 0.0258(2) 0.00516(13) 0.01236(16) 0.00768(16)
N4C 0.039 0.023 0.022 0.002 0.002 0.005
N6E 0.047 0.0266 0.04 0.013 0.0198 0.0148
N7A 0.059 0.019 0.034 0.0091 0.0161 0.0063
Cd1A 0.061 0.01916 0.0258 -0.00516 -0.01236 0.00768
Cd1C 0.061 0.01916 0.0258 -0.00516 0.01236 -0.00768
Cd1E 0.061 0.01916 0.0258 -0.00516 -0.01236 0.00768
N13? 0.050(5) 0.025(4) 0.028(4) -0.003(4) 0.015(4) 0.003(4)
N14? 0.046(5) 0.025(4) 0.031(5) -0.003(4) 0.017(4) -0.004(5)
C27? 0.065(5) 0.041(4) 0.045(4) 0.004(4) 0.023(4) 0.002(4)
C28? 0.066(5) 0.035(4) 0.047(5) 0.004(4) 0.028(4) 0.002(4)
C29? 0.041(5) 0.029(4) 0.028(5) -0.004(4) 0.009(4) 0.001(4)
C30? 0.042(4) 0.024(4) 0.033(4) -0.006(4) -0.009(4) 0.009(4)
C31? 0.048(5) 0.018(4) 0.036(5) -0.011(4) -0.008(4) 0.007(4)
C32? 0.031(4) 0.030(5) 0.022(4) -0.007(4) 0.000(4) 0.002(4)
N15? 0.041(5) 0.019(4) 0.021(4) -0.008(4) -0.004(4) 0.005(4)
N16? 0.034(5) 0.028(5) 0.024(5) -0.011(4) 0.000(4) 0.007(4)
loop_
_geom_bond_atom_site_label_1
_geom_bond_atom_site_label_2
_geom_bond_site_symmetry_1
_geom_bond_site_symmetry_2
C1 C2 1_555 1_555
C2 C3 1_555 1_555
C3 H1 1_555 1_555
C4 C3 1_555 1_555
H2 C4 1_555 1_555
C5 C4 1_555 1_555
C6 C5 1_555 1_555
H3 C6 1_555 1_555
C7 C2 1_555 1_555
H4 C7 1_555 1_555
C8 C9 1_555 1_555
C9 H5 1_555 1_555
C10 C9 1_555 1_555
H6 C10 1_555 1_555
C11 C10 1_555 1_555
C12 C11 1_555 1_555
H7 C12 1_555 1_555
C13 C8 1_555 1_555
H8 C13 1_555 1_555
C14 C11 1_555 1_555
C15 H9 1_555 1_555
C16 H10 1_555 1_555
C17 C16 1_555 1_555
H11 C17 1_555 1_555
N1 C15 1_555 1_555
N2 C15 1_555 1_555
C18 N2 1_555 1_555
C19 C18 1_555 1_555
H12 C19 1_555 1_555
C20 C19 1_555 1_555
H13 C20 1_555 1_555
C21 C20 1_555 1_555
C22 C21 1_555 1_555
H14 C22 1_555 1_555
C23 C18 1_555 1_555
H15 C23 1_555 1_555
C24 H16 1_555 1_555
C25 C24 1_555 1_555
H17 C25 1_555 1_555
C26 H18 1_555 1_555
N3 C21 1_555 1_555
N4 C25 1_555 1_555
N5 C1 1_555 1_555
N6 N5 1_555 1_555
N7 N6 1_555 1_555
N8 C1 1_555 1_555
N9 C14 1_555 1_555
N10 N9 1_555 1_555
N11 N10 1_555 1_555
N12 C14 1_555 1_555
O1 H19 1_555 1_555
H20 O1 1_555 1_555
O2 C5 1_555 1_555
Cd1 N1 1_555 1_555
C33 H27 1_555 1_555
H28 C33 1_555 1_555
H29 C33 1_555 1_555
C34 C33 1_555 1_555
C35 H30 1_555 1_555
H31 C35 1_555 1_555
H32 C35 1_555 1_555
C36 H33 1_555 1_555
H34 C36 1_555 1_555
H35 C36 1_555 1_555
N17 C34 1_555 1_555
O3 C34 1_555 1_555
N4C Cd1 1_555 1_555
N6E Cd1 1_555 1_555
N7A Cd1 1_555 1_555
Cd1A N7 1_555 1_555
Cd1C N4 1_555 1_555
Cd1E N6 1_555 1_555
C6 C7 1_555 1_555
C8 O2 1_555 1_555
C12 C13 1_555 1_555
C16 N1 1_555 1_555
C17 N2 1_555 1_555
C22 C23 1_555 1_555
C24 N3 1_555 1_555
C26 N3 1_555 1_555
C26 N4 1_555 1_555
N7 N8 1_555 1_555
N11 N12 1_555 1_555
N12 Cd1 1_555 1_555
O1 Cd1 1_555 1_555
C35 N17 1_555 1_555
C36 N17 1_555 1_555

#END
