
#######################################################################
#
#                 Cambridge Crystallographic Data Centre
#                                CCDC 
#
#######################################################################
#
# If this CIF has been generated from an entry in the Cambridge 
# Structural Database, then it will include bibliographic, chemical, 
# crystal, experimental, refinement or atomic coordinate data resulting 
# from the CCDC's data processing and validation procedures.
#
#######################################################################

data_LUSVEB01
_chemical_formula_moiety         '(C33 H26 Cu2 N2 O8)n'
_chemical_name_systematic        
catena-(tetrakis(\m~2~-benzoato)-(\m~2~-2-methylpyrazine)-di-copper(ii))
_symmetry_cell_setting           triclinic
_symmetry_space_group_name_H-M   'P -1'
_symmetry_Int_Tables_number      2
_space_group_name_Hall           '-P 1'
loop_
_symmetry_equiv_pos_site_id
_symmetry_equiv_pos_as_xyz
1 x,y,z
2 -x,-y,-z
_cell_length_a                   10.213(4)
_cell_length_b                   10.386(4)
_cell_length_c                   15.673(6)
_cell_angle_alpha                80.728(8)
_cell_angle_beta                 82.581(8)
_cell_angle_gamma                86.601(8)
_cell_volume                     1625.75
_exptl_crystal_colour            blue
_exptl_crystal_description       plate
_cell_formula_units_Z            2
loop_
_atom_site_label
_atom_site_type_symbol
_atom_site_fract_x
_atom_site_fract_y
_atom_site_fract_z
_atom_site_U_iso_or_equiv
_atom_site_thermal_displace_type
C1 C 0.4050(9) 0.7030(9) 0.5599(6) 0.0278 Uani
C2 C 0.3475(9) 0.8203(9) 0.5947(6) 0.0271 Uani
C3 C 0.3415(9) 0.9422(9) 0.5438(6) 0.0289 Uani
H1 H 0.3813 0.9524 0.4850 0.0350 Uiso
C4 C 0.2800(9) 1.0479(9) 0.5756(6) 0.0306 Uani
H2 H 0.2777 1.1304 0.5394 0.0360 Uiso
C5 C 0.2210(10) 1.0341(10) 0.6608(6) 0.0328 Uani
H3 H 0.1752 1.1067 0.6826 0.0390 Uiso
C6 C 0.2284(10) 0.9158(9) 0.7143(7) 0.0331 Uani
H4 H 0.1905 0.9074 0.7735 0.0400 Uiso
C7 C 0.2915(9) 0.8088(9) 0.6818(6) 0.0307 Uani
H5 H 0.2966 0.7272 0.7188 0.0370 Uiso
C8 C 0.7047(10) 0.5274(10) 0.5682(7) 0.0385 Uani
C9 C 0.8160(11) 0.5573(11) 0.6150(8) 0.0457 Uani
C10 C 0.8055(12) 0.5218(12) 0.7037(8) 0.0508 Uani
H6 H 0.7333 0.4728 0.7336 0.0610 Uiso
C11 C 0.9029(12) 0.5588(12) 0.7497(9) 0.0557 Uani
H7 H 0.8971 0.5341 0.8111 0.0670 Uiso
C12 C 1.0036(13) 0.6287(13) 0.7070(9) 0.0586 Uani
H8 H 1.0664 0.6569 0.7390 0.0710 Uiso
C13 C 1.0188(13) 0.6612(12) 0.6168(9) 0.0579 Uani
H9 H 1.0943 0.7051 0.5868 0.0690 Uiso
C14 C 0.9190(12) 0.6271(12) 0.5710(9) 0.0533 Uani
H10 H 0.9237 0.6528 0.5097 0.0640 Uiso
C15 C 0.1251(9) 0.0414(9) 1.1212(6) 0.0288 Uani
C16 C 0.1962(10) 0.0706(10) 1.1930(7) 0.0335 Uani
C17 C 0.1393(11) 0.0360(11) 1.2777(7) 0.0413 Uani
H11 H 0.0594 -0.0096 1.2887 0.0490 Uiso
C18 C 0.1971(11) 0.0670(11) 1.3481(8) 0.0449 Uani
H12 H 0.1584 0.0412 1.4064 0.0530 Uiso
C19 C 0.3132(11) 0.1368(11) 1.3301(7) 0.0428 Uani
H13 H 0.3556 0.1571 1.3765 0.0510 Uiso
C20 C 0.3650(10) 0.1755(10) 1.2460(7) 0.0372 Uani
H14 H 0.4458 0.2195 1.2338 0.0440 Uiso
C21 C 0.3002(10) 0.1508(10) 1.1780(7) 0.0337 Uani
H15 H 0.3288 0.1905 1.1202 0.0410 Uiso
C22 C -0.1407(8) 0.2050(8) 1.0205(6) 0.0228 Uani
C23 C -0.2200(9) 0.3268(9) 1.0357(6) 0.0260 Uani
C24 C -0.1697(9) 0.4470(9) 1.0024(6) 0.0296 Uani
H16 H -0.0862 0.4519 0.9677 0.0350 Uiso
C25 C -0.2389(10) 0.5613(10) 1.0187(7) 0.0332 Uani
H17 H -0.2022 0.6437 0.9968 0.0400 Uiso
C26 C -0.3595(10) 0.5537(10) 1.0662(7) 0.0346 Uani
H18 H -0.4087 0.6314 1.0766 0.0420 Uiso
C27 C -0.4116(10) 0.4335(9) 1.0998(7) 0.0349 Uani
H19 H -0.4955 0.4294 1.1340 0.0420 Uiso
C28 C -0.3440(9) 0.3210(9) 1.0843(6) 0.0310 Uani
H20 H -0.3813 0.2389 1.1066 0.0370 Uiso
C29 C 0.2296(8) 0.3530(8) 0.7197(5) 0.0197 Uani
H21 H 0.1865 0.4214 0.6845 0.0240 Uiso
C30 C 0.1594(8) 0.2890(8) 0.7926(5) 0.0186 Uani
H22 H 0.0698 0.3154 0.8073 0.0220 Uiso
C31 C 0.3411(8) 0.1597(8) 0.8220(6) 0.0206 Uani
C32 C 0.4124(8) 0.2253(8) 0.7482(6) 0.0213 Uani
C33 C 0.5548(13) 0.1786(13) 0.7280(9) 0.0263 Uani
H23 H 0.5640 0.1368 0.6756 0.0390 Uiso
H24 H 0.5802 0.1154 0.7772 0.0390 Uiso
H25 H 0.6122 0.2532 0.7181 0.0390 Uiso
Cu1 Cu 0.45071(10) 0.42627(10) 0.57125(7) 0.0216 Uani
Cu2 Cu 0.08398(10) 0.07024(9) 0.94418(6) 0.0150 Uani
N1 N 0.3591(7) 0.3225(7) 0.6956(5) 0.0207 Uani
N2 N 0.2137(6) 0.1895(6) 0.8441(4) 0.0173 Uani
O1 O 0.4677(6) 0.7197(6) 0.4840(4) 0.0311 Uani
O2 O 0.3846(6) 0.5933(6) 0.6059(4) 0.0269 Uani
O3 O 0.6200(7) 0.4535(7) 0.6096(5) 0.0393 Uani
O4 O 0.7063(6) 0.5794(7) 0.4890(4) 0.0356 Uani
O5 O 0.0247(6) -0.0275(6) 1.1399(4) 0.0299 Uani
O6 O 0.1717(6) 0.0918(6) 1.0451(4) 0.0266 Uani
O7 O -0.0385(6) 0.2175(6) 0.9681(4) 0.0265 Uani
O8 O -0.1824(6) 0.0981(5) 1.0609(4) 0.0226 Uani
Cu1A Cu 0.54929(10) 0.57373(10) 0.42875(7) 0.0216 Uani
Cu2A Cu -0.08398(10) -0.07024(9) 1.05582(6) 0.0150 Uani
O1A O 0.5323(6) 0.2803(6) 0.5160(4) 0.0311 Uani
O4A O 0.2937(6) 0.4206(7) 0.5110(4) 0.0356 Uani
O5A O -0.0247(6) 0.0275(6) 0.8601(4) 0.0299 Uani
O8A O 0.1824(6) -0.0981(5) 0.9391(4) 0.0226 Uani
C34? C 0.423(2) 0.076(2) 0.8787(17) 0.0239 Uani
H26? H 0.4044 0.0973 0.9378 0.0360 Uiso
H27? H 0.5162 0.0892 0.8571 0.0360 Uiso
H28? H 0.4031 -0.0155 0.8794 0.0360 Uiso
loop_
_atom_site_aniso_label
_atom_site_aniso_U_11
_atom_site_aniso_U_22
_atom_site_aniso_U_33
_atom_site_aniso_U_23
_atom_site_aniso_U_13
_atom_site_aniso_U_12
C1 0.0312 0.0266 0.0242 -0.0015 -0.0007 -0.0011
C2 0.0287 0.0271 0.025 -0.0035 -0.0018 -0.0015
C3 0.03 0.029 0.027 -0.0038 -0.0022 -0.0008
C4 0.033 0.03 0.029 -0.005 -0.0037 -0.0012
C5 0.036 0.032 0.031 -0.0075 -0.0025 -0.0018
C6 0.036 0.033 0.03 -0.0068 -0.0005 -0.0017
C7 0.033 0.031 0.028 -0.0052 -0.0016 -0.0027
C8 0.0368 0.0391 0.0386 -0.003 -0.0047 -0.0022
C9 0.0457 0.045 0.047 -0.0067 -0.0082 -0.0019
C10 0.051 0.051 0.051 -0.0085 -0.009 -0.0003
C11 0.056 0.056 0.056 -0.0095 -0.0099 0.0002
C12 0.059 0.058 0.06 -0.0094 -0.0113 -0.0019
C13 0.057 0.057 0.06 -0.0073 -0.01 -0.0038
C14 0.053 0.052 0.055 -0.006 -0.0094 -0.004
C15 0.03 0.0295 0.0261 -0.0031 -0.0016 -0.0029
C16 0.0339 0.0343 0.0316 -0.0036 -0.0024 -0.0021
C17 0.041 0.043 0.039 -0.0037 -0.0042 -0.0025
C18 0.045 0.047 0.042 -0.0046 -0.005 -0.0029
C19 0.043 0.044 0.041 -0.0041 -0.006 -0.0033
C20 0.037 0.038 0.036 -0.0046 -0.0043 -0.001
C21 0.035 0.034 0.032 -0.0048 -0.0031 -0.0027
C22 0.0237 0.0222 0.0211 -0.0032 0.0025 -0.0006
C23 0.0269 0.0248 0.0257 -0.004 -0.0006 -0.0008
C24 0.03 0.028 0.03 -0.0039 -0.0015 0
C25 0.034 0.031 0.034 -0.0045 -0.003 -0.0006
C26 0.035 0.033 0.035 -0.0053 -0.0019 0.0008
C27 0.035 0.033 0.035 -0.0043 -0.0003 0.001
C28 0.032 0.029 0.031 -0.0038 -0.0006 -0.0012
C29 0.0210(19) 0.0193(19) 0.0173(19) -0.0006(17) 0.0004(17) -0.0001(17)
C30 0.0191(19) 0.0171(19) 0.0182(19) -0.0015(17) 0.0005(17) 0.0006(17)
C31 0.0212(19) 0.0201(19) 0.0194(19) -0.0019(16) 0.0001(17) -0.0004(16)
C32 0.0216(19) 0.0214(19) 0.0200(19) -0.0027(16) 0.0001(17) -0.0008(16)
C33 0.026(3) 0.026(3) 0.025(3) -0.001(2) -0.001(2) 0.001(2)
Cu1 0.0234(6) 0.0223(6) 0.0135(6) 0.0073(4) 0.0067(4) -0.0031(4)
Cu2 0.0216(6) 0.0121(5) 0.0081(5) 0.0030(4) 0.0060(4) -0.0034(4)
N1 0.0216(19) 0.0206(18) 0.0188(19) -0.0019(16) 0.0004(16) -0.0020(16)
N2 0.0186(18) 0.0159(18) 0.0164(18) -0.0013(16) 0.0002(16) 0.0001(16)
O1 0.035 0.028 0.027 -0.0003 0.0023 0.003
O2 0.032 0.025 0.022 -0.0017 0.0011 -0.002
O3 0.036 0.043 0.037 0.0009 -0.0046 -0.004
O4 0.033 0.038 0.035 -0.0023 -0.004 -0.0035
O5 0.031 0.033 0.025 -0.0018 -0.0018 -0.0058
O6 0.029 0.027 0.023 -0.0027 0.0012 -0.0064
O7 0.026 0.024 0.026 -0.0008 0.0056 0.0002
O8 0.027 0.0194 0.0195 -0.0022 0.0027 -0.0001
Cu1A 0.0234 0.0223 0.0135 0.0073 0.0067 -0.0031
Cu2A 0.0216 0.0121 0.0081 0.003 0.006 -0.0034
O1A 0.035(2) 0.028(2) 0.027(2) -0.0003(18) 0.0023(18) 0.0030(18)
O4A 0.033(2) 0.038(2) 0.035(2) -0.0023(19) -0.0040(19) -0.0035(18)
O5A 0.031(2) 0.033(2) 0.025(2) -0.0018(18) -0.0018(18) -0.0058(18)
O8A 0.027(2) 0.0194(19) 0.0195(19) -0.0022(17) 0.0027(17) -0.0001(17)
C34? 0.025(4) 0.022(4) 0.024(4) -0.002(3) -0.002(3) -0.002(3)
loop_
_geom_bond_atom_site_label_1
_geom_bond_atom_site_label_2
_geom_bond_site_symmetry_1
_geom_bond_site_symmetry_2
C1 C2 1_555 1_555
C2 C3 1_555 1_555
C3 H1 1_555 1_555
C4 C3 1_555 1_555
H2 C4 1_555 1_555
C5 C4 1_555 1_555
H3 C5 1_555 1_555
C6 C5 1_555 1_555
H4 C6 1_555 1_555
C7 C2 1_555 1_555
H5 C7 1_555 1_555
C8 C9 1_555 1_555
C9 C10 1_555 1_555
C10 H6 1_555 1_555
C11 C10 1_555 1_555
H7 C11 1_555 1_555
C12 C11 1_555 1_555
H8 C12 1_555 1_555
C13 C12 1_555 1_555
H9 C13 1_555 1_555
C14 C9 1_555 1_555
H10 C14 1_555 1_555
C15 C16 1_555 1_555
C16 C17 1_555 1_555
C17 H11 1_555 1_555
C18 C17 1_555 1_555
H12 C18 1_555 1_555
C19 C18 1_555 1_555
H13 C19 1_555 1_555
C20 C19 1_555 1_555
H14 C20 1_555 1_555
C21 C16 1_555 1_555
H15 C21 1_555 1_555
C22 C23 1_555 1_555
C23 C24 1_555 1_555
C24 H16 1_555 1_555
C25 C24 1_555 1_555
H17 C25 1_555 1_555
C26 C25 1_555 1_555
H18 C26 1_555 1_555
C27 C26 1_555 1_555
H19 C27 1_555 1_555
C28 C23 1_555 1_555
H20 C28 1_555 1_555
C29 H21 1_555 1_555
C30 C29 1_555 1_555
H22 C30 1_555 1_555
C31 C32 1_555 1_555
C32 C33 1_555 1_555
C33 H23 1_555 1_555
H24 C33 1_555 1_555
H25 C33 1_555 1_555
Cu1 N1 1_555 1_555
Cu2 N2 1_555 1_555
N1 C29 1_555 1_555
N2 C30 1_555 1_555
O1 C1 1_555 1_555
O2 C1 1_555 1_555
O3 C8 1_555 1_555
O4 C8 1_555 1_555
O5 C15 1_555 1_555
O6 C15 1_555 1_555
O7 C22 1_555 1_555
O8 C22 1_555 1_555
Cu1A Cu1 1_555 1_555
Cu2A Cu2 1_555 1_555
O1A Cu1 1_555 1_555
O4A Cu1 1_555 1_555
O5A Cu2 1_555 1_555
O8A Cu2 1_555 1_555
C6 C7 1_555 1_555
C13 C14 1_555 1_555
C20 C21 1_555 1_555
C27 C28 1_555 1_555
C31 N2 1_555 1_555
C32 N1 1_555 1_555
Cu1 O2 1_555 1_555
Cu1 O3 1_555 1_555
Cu2 O6 1_555 1_555
Cu2 O7 1_555 1_555
O1 Cu1A 1_555 1_555
O4 Cu1A 1_555 1_555
O5 Cu2A 1_555 1_555
O8 Cu2A 1_555 1_555

#END
