
#######################################################################
#
#                 Cambridge Crystallographic Data Centre
#                                CCDC 
#
#######################################################################
#
# If this CIF has been generated from an entry in the Cambridge 
# Structural Database, then it will include bibliographic, chemical, 
# crystal, experimental, refinement or atomic coordinate data resulting 
# from the CCDC's data processing and validation procedures.
#
#######################################################################

data_LUSVAX
_chemical_formula_moiety         '(C33 H26 N2 O8 Rh2)n,3n(C1 O2)'
_chemical_name_systematic        
'catena-(tetrakis(\m~2~-benzoato)-(\m~2~-2-methylpyrazine)-di-rhodium(ii) carbon dioxide solvate)'
_symmetry_cell_setting           triclinic
_symmetry_space_group_name_H-M   'P -1'
_symmetry_Int_Tables_number      2
_space_group_name_Hall           '-P 1'
loop_
_symmetry_equiv_pos_site_id
_symmetry_equiv_pos_as_xyz
1 x,y,z
2 -x,-y,-z
_cell_length_a                   9.6162(16)
_cell_length_b                   10.4953(18)
_cell_length_c                   11.1475(19)
_cell_angle_alpha                68.800(3)
_cell_angle_beta                 65.939(3)
_cell_angle_gamma                62.968(3)
_cell_volume                     893.314
_exptl_crystal_colour            red
_exptl_crystal_description       plate
_cell_formula_units_Z            1
loop_
_atom_site_label
_atom_site_type_symbol
_atom_site_fract_x
_atom_site_fract_y
_atom_site_fract_z
_atom_site_U_iso_or_equiv
_atom_site_thermal_displace_type
C17 C 0.1587(18) 0.603(4) 0.918(3) 0.0857 Uani
O5 O 0.051(2) 0.597(2) 0.903(2) 0.0854 Uani
O6 O 0.279(2) 0.616(2) 0.897(2) 0.0772 Uani
C19 C 0.0000 1.0000 1.0000 0.0577 Uani
O7 O 0.0123(12) 0.8908(7) 0.9884(9) 0.0681 Uani
O7A O -0.0123(12) 1.1092(7) 1.0116(9) 0.0681 Uani
C1 C 0.3321(9) 0.7515(8) 0.5725(8) 0.0247 Uani
C2 C 0.2345(10) 0.8965(9) 0.6107(8) 0.0268 Uani
C3 C 0.0679(10) 0.9568(9) 0.6351(8) 0.0274 Uani
H1 H 0.0135 0.9050 0.6277 0.0330 Uiso
C4 C -0.0223(12) 1.0916(10) 0.6705(9) 0.0349 Uani
H2 H -0.1371 1.1325 0.6850 0.0420 Uiso
C5 C 0.0554(12) 1.1674(10) 0.6848(9) 0.0377 Uani
H3 H -0.0059 1.2582 0.7122 0.0450 Uiso
C6 C 0.2264(12) 1.1067(9) 0.6580(9) 0.0348 Uani
H4 H 0.2816 1.1586 0.6641 0.0410 Uiso
C7 C 0.3126(11) 0.9744(9) 0.6235(9) 0.0284 Uani
H5 H 0.4276 0.9337 0.6076 0.0350 Uiso
C8 C 0.4656(10) 0.3544(9) 0.7509(9) 0.0306 Uani
C9 C 0.4471(12) 0.2744(11) 0.8931(10) 0.0437 Uani
C10 C 0.3278(13) 0.2116(12) 0.9613(11) 0.0495 Uani
H6 H 0.2573 0.2207 0.9164 0.0600 Uiso
C11 C 0.3111(15) 0.1358(14) 1.0943(13) 0.0655 Uani
H7 H 0.2315 0.0910 1.1394 0.0780 Uiso
C12 C 0.4100(17) 0.1259(16) 1.1606(14) 0.0762 Uani
H8 H 0.3978 0.0753 1.2521 0.0920 Uiso
C13 C 0.5278(17) 0.1898(16) 1.0937(13) 0.0717 Uani
H9 H 0.5973 0.1805 1.1396 0.0860 Uiso
C14 C 0.5457(15) 0.2667(13) 0.9615(12) 0.0580 Uani
H10 H 0.6236 0.3134 0.9178 0.0690 Uiso
C15 C 0.1412(10) 0.4464(9) 0.4104(9) 0.0289 Uani
C16 C 0.0039(10) 0.5425(9) 0.5975(9) 0.0270 Uani
C18 C -0.021(4) 0.573(3) 0.730(3) 0.0256 Uani
H11 H 0.0281 0.6445 0.7118 0.0390 Uiso
H12 H 0.0298 0.4822 0.7878 0.0390 Uiso
H13 H -0.1387 0.6135 0.7750 0.0390 Uiso
N1 N 0.1447(8) 0.4889(7) 0.5074(7) 0.0248 Uani
O1 O 0.2530(6) 0.6886(6) 0.5626(6) 0.0263 Uani
O2 O 0.4852(6) 0.7014(6) 0.5537(6) 0.0248 Uani
O3 O 0.3573(7) 0.3810(6) 0.6984(6) 0.0272 Uani
O4 O 0.4113(7) 0.6048(6) 0.3094(6) 0.0279 Uani
Rh1 Rh 0.37686(7) 0.49315(6) 0.50417(7) 0.0220 Uani
C8A C 0.5344(10) 0.6456(9) 0.2491(9) 0.0306 Uani
C15A C -0.1412(10) 0.5536(9) 0.5896(9) 0.0289 Uani
C16A C -0.0039(10) 0.4575(9) 0.4025(9) 0.0270 Uani
O2A O 0.5148(6) 0.2986(6) 0.4463(6) 0.0248 Uani
O4A O 0.5887(7) 0.3952(6) 0.6906(6) 0.0279 Uani
Rh1A Rh 0.62314(7) 0.50685(6) 0.49583(7) 0.0220 Uani
C20? C 0.276(4) 0.391(4) 0.295(4) 0.0253 Uani
C21? C 0.157(4) 0.589(4) 0.9930(16) 0.0808 Uani
H14? H 0.3665 0.3115 0.3274 0.0380 Uiso
H15? H 0.3132 0.4708 0.2324 0.0380 Uiso
H16? H 0.2380 0.3546 0.2496 0.0380 Uiso
O8? O 0.172(3) 0.621(3) 0.8796(17) 0.0868 Uani
O9? O 0.147(2) 0.556(2) 1.1053(16) 0.0775 Uani
loop_
_atom_site_aniso_label
_atom_site_aniso_U_11
_atom_site_aniso_U_22
_atom_site_aniso_U_33
_atom_site_aniso_U_23
_atom_site_aniso_U_13
_atom_site_aniso_U_12
C17 0.088(5) 0.078(5) 0.081(5) -0.020(4) -0.021(4) -0.023(4)
O5 0.086(6) 0.080(5) 0.084(6) -0.022(4) -0.021(4) -0.025(4)
O6 0.081(5) 0.072(5) 0.076(6) -0.019(4) -0.022(4) -0.024(4)
C19 0.066(6) 0.056(6) 0.053(6) -0.012(5) -0.019(4) -0.022(5)
O7 0.089(4) 0.054(4) 0.058(4) -0.014(3) -0.020(3) -0.023(4)
O7A 0.089 0.054 0.058 -0.014 -0.02 -0.023
C1 0.022(3) 0.024(3) 0.028(3) -0.004(2) -0.009(2) -0.008(2)
C2 0.028(3) 0.025(3) 0.026(3) -0.005(2) -0.010(2) -0.007(2)
C3 0.028(3) 0.026(3) 0.029(3) -0.006(3) -0.010(2) -0.009(2)
C4 0.034(3) 0.030(3) 0.032(3) -0.003(3) -0.010(3) -0.007(2)
C5 0.042(3) 0.027(3) 0.034(3) -0.003(3) -0.011(3) -0.007(3)
C6 0.042(3) 0.025(3) 0.034(3) -0.007(3) -0.011(3) -0.009(3)
C7 0.030(3) 0.026(3) 0.031(3) -0.005(3) -0.013(2) -0.009(2)
C8 0.027(3) 0.029(3) 0.034(3) -0.005(2) -0.009(2) -0.010(2)
C9 0.040(3) 0.044(3) 0.040(3) -0.003(3) -0.014(2) -0.012(3)
C10 0.043(3) 0.050(3) 0.047(3) -0.004(3) -0.013(3) -0.015(3)
C11 0.055(4) 0.066(4) 0.057(4) -0.001(3) -0.013(3) -0.019(3)
C12 0.065(4) 0.078(4) 0.062(4) -0.001(3) -0.019(3) -0.017(3)
C13 0.063(4) 0.078(4) 0.059(4) -0.004(3) -0.023(3) -0.017(3)
C14 0.053(3) 0.063(4) 0.048(3) -0.003(3) -0.020(3) -0.015(3)
C15 0.024(3) 0.023(3) 0.034(3) -0.005(3) -0.007(3) -0.006(3)
C16 0.027(3) 0.020(3) 0.035(3) -0.006(3) -0.015(3) -0.004(3)
C18 0.025(6) 0.026(7) 0.028(7) -0.007(5) -0.009(5) -0.009(5)
N1 0.022(3) 0.021(3) 0.034(3) -0.004(2) -0.012(2) -0.008(2)
O1 0.017(2) 0.024(2) 0.037(3) -0.005(2) -0.010(2) -0.006(2)
O2 0.019(2) 0.025(2) 0.033(3) -0.009(2) -0.010(2) -0.006(2)
O3 0.022(2) 0.027(3) 0.033(3) -0.004(2) -0.008(2) -0.011(2)
O4 0.023 0.03 0.031 -0.003 -0.013 -0.008
Rh1 0.0136(4) 0.0201(4) 0.0349(5) -0.0041(3) -0.0114(3) -0.0058(3)
C8A 0.027 0.029 0.034 -0.005 -0.009 -0.01
C15A 0.024 0.023 0.034 -0.005 -0.007 -0.006
C16A 0.027 0.02 0.035 -0.006 -0.015 -0.004
O2A 0.019 0.025 0.033 -0.009 -0.01 -0.006
O4A 0.023(2) 0.030(3) 0.031(3) -0.003(2) -0.013(2) -0.008(2)
Rh1A 0.0136 0.0201 0.0349 -0.0041 -0.0114 -0.0058
C20? 0.023(7) 0.025(7) 0.030(7) -0.005(5) -0.008(5) -0.011(5)
C21? 0.087(5) 0.076(5) 0.076(5) -0.021(4) -0.024(4) -0.023(4)
O8? 0.090(5) 0.078(5) 0.079(6) -0.019(4) -0.019(4) -0.023(4)
O9? 0.084(6) 0.069(6) 0.070(6) -0.016(5) -0.017(5) -0.024(5)
loop_
_geom_bond_atom_site_label_1
_geom_bond_atom_site_label_2
_geom_bond_site_symmetry_1
_geom_bond_site_symmetry_2
C1 C2 1_555 1_555
C2 C3 1_555 1_555
C3 H1 1_555 1_555
C4 C3 1_555 1_555
H2 C4 1_555 1_555
C5 C4 1_555 1_555
H3 C5 1_555 1_555
C6 C5 1_555 1_555
H4 C6 1_555 1_555
C7 C2 1_555 1_555
H5 C7 1_555 1_555
C8 C9 1_555 1_555
C9 C10 1_555 1_555
C10 H6 1_555 1_555
C11 C10 1_555 1_555
H7 C11 1_555 1_555
C12 C11 1_555 1_555
H8 C12 1_555 1_555
C13 C12 1_555 1_555
H9 C13 1_555 1_555
C14 C9 1_555 1_555
H10 C14 1_555 1_555
C15 N1 1_555 1_555
C16 C18 1_555 1_555
C17 O5 1_555 1_555
C18 H11 1_555 1_555
H12 C18 1_555 1_555
H13 C18 1_555 1_555
C19 O7 1_555 1_555
N1 C16 1_555 1_555
O1 C1 1_555 1_555
O2 C1 1_555 1_555
O3 C8 1_555 1_555
O4 Rh1 1_555 1_555
O6 C17 1_555 1_555
Rh1 N1 1_555 1_555
C8A O4 1_555 1_555
C15A C16 1_555 1_555
C16A C15 1_555 1_555
O2A Rh1 1_555 1_555
O4A C8 1_555 1_555
O7A C19 1_555 1_555
Rh1A O2 1_555 1_555
C6 C7 1_555 1_555
C13 C14 1_555 1_555
O1 Rh1 1_555 1_555
O3 Rh1 1_555 1_555
Rh1 Rh1A 1_555 1_555
O4A Rh1A 1_555 1_555

#END
