
#######################################################################
#
#                 Cambridge Crystallographic Data Centre
#                                CCDC 
#
#######################################################################
#
# If this CIF has been generated from an entry in the Cambridge 
# Structural Database, then it will include bibliographic, chemical, 
# crystal, experimental, refinement or atomic coordinate data resulting 
# from the CCDC's data processing and validation procedures.
#
#######################################################################

data_LUSXAZ
_chemical_formula_moiety         '(C34 H28 Cu2 N2 O8)n,0.65n(C1 O2)'
_chemical_name_systematic        
'catena-(tetrakis(\m~2~-benzoato)-(\m~2~-2,3-dimethylpyrazine)-di-copper(ii) carbon dioxide solvate)'
_symmetry_cell_setting           triclinic
_symmetry_space_group_name_H-M   'P -1'
_symmetry_Int_Tables_number      2
_space_group_name_Hall           '-P 1'
loop_
_symmetry_equiv_pos_site_id
_symmetry_equiv_pos_as_xyz
1 x,y,z
2 -x,-y,-z
_cell_length_a                   10.5149(10)
_cell_length_b                   10.3425(10)
_cell_length_c                   15.5194(15)
_cell_angle_alpha                82.721(2)
_cell_angle_beta                 82.702(2)
_cell_angle_gamma                89.957(2)
_cell_volume                     1660.37
_exptl_crystal_colour            blue
_exptl_crystal_description       plate
_cell_formula_units_Z            2
loop_
_atom_site_label
_atom_site_type_symbol
_atom_site_fract_x
_atom_site_fract_y
_atom_site_fract_z
_atom_site_U_iso_or_equiv
_atom_site_thermal_displace_type
C1 C 0.4095(4) 0.7001(5) 0.5609(3) 0.0218 Uani
C2 C 0.3542(4) 0.8189(5) 0.5978(3) 0.0213 Uani
C3 C 0.3469(4) 0.9355(5) 0.5440(3) 0.0221 Uani
H1 H 0.3821 0.9428 0.4841 0.0270 Uiso
C4 C 0.2881(4) 1.0419(5) 0.5777(3) 0.0233 Uani
H2 H 0.2838 1.1222 0.5410 0.0280 Uiso
C5 C 0.2358(5) 1.0307(5) 0.6649(3) 0.0260 Uani
H3 H 0.1922 1.1022 0.6874 0.0320 Uiso
C6 C 0.2467(5) 0.9157(5) 0.7194(3) 0.0277 Uani
H4 H 0.2132 0.9095 0.7796 0.0330 Uiso
C7 C 0.3063(5) 0.8098(5) 0.6867(3) 0.0261 Uani
H5 H 0.3146 0.7312 0.7244 0.0310 Uiso
C8 C 0.7079(5) 0.5441(5) 0.5580(3) 0.0281 Uani
C9 C 0.8242(6) 0.5747(6) 0.5963(4) 0.0406 Uani
C10 C 0.8236(7) 0.5495(7) 0.6863(4) 0.0537 Uani
H6 H 0.7496 0.5104 0.7213 0.0640 Uiso
C11 C 0.9293(7) 0.5801(7) 0.7265(5) 0.0646 Uani
H7 H 0.9276 0.5646 0.7883 0.0770 Uiso
C12 C 1.0354(7) 0.6334(8) 0.6736(5) 0.0662 Uani
H8 H 1.1093 0.6527 0.6993 0.0790 Uiso
C13 C 1.0376(7) 0.6599(7) 0.5835(5) 0.0625 Uani
H9 H 1.1119 0.6981 0.5482 0.0750 Uiso
C14 C 0.9286(6) 0.6298(6) 0.5447(5) 0.0508 Uani
H10 H 0.9287 0.6479 0.4831 0.0610 Uiso
C15 C 0.1143(4) 0.0477(4) 1.1271(3) 0.0191 Uani
C16 C 0.1825(4) 0.0817(5) 1.1995(3) 0.0216 Uani
C17 C 0.1298(5) 0.0502(5) 1.2861(3) 0.0290 Uani
H11 H 0.0488 0.0067 1.2995 0.0350 Uiso
C18 C 0.1944(5) 0.0816(5) 1.3533(3) 0.0311 Uani
H12 H 0.1576 0.0591 1.4124 0.0370 Uiso
C19 C 0.3125(5) 0.1458(5) 1.3347(3) 0.0306 Uani
H13 H 0.3566 0.1672 1.3809 0.0370 Uiso
C20 C 0.3650(5) 0.1781(5) 1.2489(3) 0.0318 Uani
H14 H 0.4456 0.2224 1.2359 0.0380 Uiso
C21 C 0.3016(5) 0.1467(5) 1.1813(3) 0.0265 Uani
H15 H 0.3389 0.1693 1.1223 0.0320 Uiso
C22 C -0.1253(4) 0.2075(4) 1.0134(3) 0.0199 Uani
C23 C -0.2020(5) 0.3283(5) 1.0242(3) 0.0222 Uani
C24 C -0.1545(5) 0.4486(5) 0.9836(3) 0.0308 Uani
H16 H -0.0736 0.4543 0.9481 0.0370 Uiso
C25 C -0.2235(5) 0.5601(5) 0.9940(4) 0.0370 Uani
H17 H -0.1893 0.6423 0.9668 0.0440 Uiso
C26 C -0.3424(5) 0.5526(5) 1.0440(4) 0.0358 Uani
H18 H -0.3907 0.6293 1.0502 0.0430 Uiso
C27 C -0.3903(5) 0.4340(5) 1.0845(4) 0.0369 Uani
H19 H -0.4717 0.4290 1.1194 0.0440 Uiso
C28 C -0.3207(5) 0.3204(5) 1.0751(3) 0.0312 Uani
H20 H -0.3544 0.2384 1.1034 0.0370 Uiso
C29 C 0.2513(5) 0.3530(5) 0.7272(3) 0.0235 Uani
H21 H 0.2127 0.4221 0.6937 0.0280 Uiso
C30 C 0.1817(5) 0.2880(4) 0.8005(3) 0.0222 Uani
H22 H 0.0950 0.3111 0.8156 0.0270 Uiso
C31 C 0.3561(4) 0.1655(4) 0.8308(3) 0.0205 Uani
C32 C 0.4257(5) 0.2281(4) 0.7530(3) 0.0219 Uani
C33 C 0.4191(5) 0.0683(5) 0.8910(3) 0.0287 Uani
H23 H 0.3598 0.0426 0.9444 0.0430 Uiso
H24 H 0.4968 0.1074 0.9061 0.0430 Uiso
H25 H 0.4418 -0.0087 0.8618 0.0430 Uiso
C34 C 0.5596(5) 0.1887(6) 0.7243(3) 0.0365 Uani
H26 H 0.6001 0.2548 0.6781 0.0550 Uiso
H27 H 0.5577 0.1046 0.7017 0.0550 Uiso
H28 H 0.6087 0.1810 0.7742 0.0550 Uiso
Cu1 Cu 0.45723(6) 0.42820(6) 0.57390(3) 0.0225 Uani
Cu2 Cu 0.08775(5) 0.06782(5) 0.94450(3) 0.0174 Uani
N1 N 0.3727(4) 0.3213(4) 0.7016(2) 0.0207 Uani
N2 N 0.2331(4) 0.1919(3) 0.8519(2) 0.0178 Uani
O1 O 0.4670(3) 0.7163(3) 0.48416(19) 0.0258 Uani
O2 O 0.3923(4) 0.5937(3) 0.6099(2) 0.0335 Uani
O3 O 0.6234(4) 0.4720(4) 0.6057(2) 0.0356 Uani
O4 O 0.6989(3) 0.5940(4) 0.4797(2) 0.0314 Uani
O5 O 0.0136(3) -0.0226(3) 1.14608(19) 0.0224 Uani
O6 O 0.1624(3) 0.0923(3) 1.05078(18) 0.0230 Uani
O7 O -0.0225(3) 0.2181(3) 0.9622(2) 0.0242 Uani
O8 O -0.1707(3) 0.1024(3) 1.0572(2) 0.0232 Uani
Cu1A Cu 0.54277(6) 0.57180(6) 0.42610(3) 0.0225 Uani
Cu2A Cu -0.08775(5) -0.06782(5) 1.05550(3) 0.0174 Uani
O1A O 0.5330(3) 0.2837(3) 0.51584(19) 0.0258 Uani
O4A O 0.3011(3) 0.4060(4) 0.5203(2) 0.0314 Uani
O5A O -0.0136(3) 0.0226(3) 0.85392(19) 0.0224 Uani
O8A O 0.1707(3) -0.1024(3) 0.9428(2) 0.0232 Uani
C35 C 0.8793(10) 0.2609(11) 0.7411(6) 0.0550 Uani
O9 O 0.9415(8) 0.2579(8) 0.6760(6) 0.0720 Uani
O10 O 0.8144(7) 0.2644(8) 0.8046(5) 0.0619 Uani
loop_
_atom_site_aniso_label
_atom_site_aniso_U_11
_atom_site_aniso_U_22
_atom_site_aniso_U_33
_atom_site_aniso_U_23
_atom_site_aniso_U_13
_atom_site_aniso_U_12
C1 0.025 0.0194 0.019 0.0003 0.0026 -0.0003
C2 0.0239 0.0216 0.0167 -0.0016 0.0026 0
C3 0.0252 0.0208 0.0192 -0.0027 0.0016 -0.0011
C4 0.0268 0.0207 0.0223 -0.0029 -0.0024 0.0016
C5 0.03 0.024 0.0243 -0.0086 0.0005 0.0021
C6 0.032 0.029 0.0206 -0.0051 0.0044 0.0003
C7 0.03 0.027 0.0191 -0.001 0.0037 0.0011
C8 0.034 0.022 0.028 -0.0042 -0.0015 0.0049
C9 0.044 0.032 0.047 -0.0078 -0.0073 0.0033
C10 0.056 0.047 0.06 -0.004 -0.018 -0.002
C11 0.067 0.057 0.073 -0.005 -0.025 -0.003
C12 0.062 0.057 0.083 -0.01 -0.021 0
C13 0.054 0.055 0.079 -0.011 -0.008 -0.001
C14 0.046 0.045 0.062 -0.011 -0.005 0.001
C15 0.023 0.0183 0.0156 -0.0016 -0.0012 0.0038
C16 0.0261 0.0206 0.0173 -0.0018 -0.0007 0.0038
C17 0.031 0.032 0.022 -0.0015 0.0019 -0.0023
C18 0.033 0.034 0.0248 -0.002 0 0.0002
C19 0.035 0.029 0.0284 -0.0031 -0.0064 0.0011
C20 0.033 0.032 0.029 0.0023 -0.0042 -0.0032
C21 0.029 0.027 0.0221 -0.0009 -0.0005 0.0004
C22 0.027 0.0168 0.0149 -0.0005 -0.0002 0.0004
C23 0.0269 0.0187 0.0209 -0.0011 -0.0046 0.0024
C24 0.032 0.023 0.036 -0.001 -0.0014 0.001
C25 0.04 0.025 0.045 -0.0008 -0.005 0.0013
C26 0.039 0.029 0.041 -0.0084 -0.0068 0.0065
C27 0.038 0.033 0.038 -0.0045 0.0013 0.0063
C28 0.035 0.026 0.03 -0.0001 0.0023 0.0017
C29 0.029(2) 0.0181(19) 0.0198(18) 0.0042(16) 0.0044(17) 0.0032(17)
C30 0.026(2) 0.0181(19) 0.0189(18) 0.0015(16) 0.0067(17) 0.0032(17)
C31 0.026(2) 0.0177(18) 0.0161(17) 0.0003(15) 0.0015(16) -0.0008(16)
C32 0.026(2) 0.0181(18) 0.0184(18) 0.0025(15) 0.0043(16) 0.0004(17)
C33 0.028(2) 0.031(2) 0.023(2) 0.0076(18) 0.0013(18) 0.001(2)
C34 0.035(2) 0.038(3) 0.029(2) 0.013(2) 0.008(2) 0.005(2)
Cu1 0.0324(3) 0.0158(3) 0.0143(3) 0.0034(2) 0.0107(2) 0.0020(3)
Cu2 0.0257(3) 0.0140(3) 0.0099(2) 0.0013(2) 0.0050(2) -0.0006(2)
N1 0.028(2) 0.0169(19) 0.0141(17) 0.0021(14) 0.0057(15) 0.0010(16)
N2 0.027(2) 0.0128(17) 0.0112(16) 0.0031(13) 0.0021(15) -0.0004(15)
O1 0.0344 0.0206 0.0168 0.0018 0.0138 0.004
O2 0.054 0.018 0.0215 0.0023 0.0168 0.0051
O3 0.047 0.032 0.0238 0.0083 -0.0013 -0.0066
O4 0.0307 0.032 0.027 0.0028 0.0068 0.0012
O5 0.029 0.0239 0.0127 -0.0014 0.0026 -0.0035
O6 0.0311 0.025 0.0102 0.0019 0.0041 -0.0049
O7 0.0297 0.0198 0.0185 0.0007 0.0113 0.0029
O8 0.0318 0.0129 0.0212 0.0014 0.0068 0.0022
Cu1A 0.0324 0.0158 0.0143 0.0034 0.0107 0.002
Cu2A 0.0257 0.014 0.0099 0.0013 0.005 -0.0006
O1A 0.0344(19) 0.0206(17) 0.0168(15) 0.0018(13) 0.0138(14) 0.0040(15)
O4A 0.0307(19) 0.032(2) 0.0270(17) 0.0028(15) 0.0068(15) 0.0012(16)
O5A 0.0290(17) 0.0239(17) 0.0127(14) -0.0014(12) 0.0026(13) -0.0035(14)
O8A 0.0318(18) 0.0129(15) 0.0212(16) 0.0014(12) 0.0068(14) 0.0022(14)
C35 0.056(4) 0.048(4) 0.062(4) -0.005(3) -0.014(3) 0.004(3)
O9 0.076(4) 0.054(4) 0.081(4) -0.001(3) 0.001(3) 0.003(3)
O10 0.068(4) 0.058(4) 0.064(3) -0.009(3) -0.024(3) 0.006(3)
loop_
_geom_bond_atom_site_label_1
_geom_bond_atom_site_label_2
_geom_bond_site_symmetry_1
_geom_bond_site_symmetry_2
C1 C2 1_555 1_555
C2 C3 1_555 1_555
C3 H1 1_555 1_555
C4 C3 1_555 1_555
H2 C4 1_555 1_555
C5 C4 1_555 1_555
H3 C5 1_555 1_555
C6 C5 1_555 1_555
H4 C6 1_555 1_555
C7 C2 1_555 1_555
H5 C7 1_555 1_555
C8 C9 1_555 1_555
C9 C10 1_555 1_555
C10 H6 1_555 1_555
C11 C10 1_555 1_555
H7 C11 1_555 1_555
C12 C11 1_555 1_555
H8 C12 1_555 1_555
C13 C12 1_555 1_555
H9 C13 1_555 1_555
C14 C9 1_555 1_555
H10 C14 1_555 1_555
C15 C16 1_555 1_555
C16 C17 1_555 1_555
C17 H11 1_555 1_555
C18 C17 1_555 1_555
H12 C18 1_555 1_555
C19 C18 1_555 1_555
H13 C19 1_555 1_555
C20 C19 1_555 1_555
H14 C20 1_555 1_555
C21 C16 1_555 1_555
H15 C21 1_555 1_555
C22 C23 1_555 1_555
C23 C24 1_555 1_555
C24 H16 1_555 1_555
C25 C24 1_555 1_555
H17 C25 1_555 1_555
C26 C25 1_555 1_555
H18 C26 1_555 1_555
C27 C26 1_555 1_555
H19 C27 1_555 1_555
C28 C23 1_555 1_555
H20 C28 1_555 1_555
C29 H21 1_555 1_555
C30 C29 1_555 1_555
H22 C30 1_555 1_555
C31 C32 1_555 1_555
C32 C34 1_555 1_555
C33 C31 1_555 1_555
H23 C33 1_555 1_555
H24 C33 1_555 1_555
H25 C33 1_555 1_555
C34 H26 1_555 1_555
H27 C34 1_555 1_555
H28 C34 1_555 1_555
C35 O9 1_555 1_555
Cu1 N1 1_555 1_555
Cu2 N2 1_555 1_555
N1 C29 1_555 1_555
N2 C30 1_555 1_555
O1 C1 1_555 1_555
O2 C1 1_555 1_555
O3 C8 1_555 1_555
O4 C8 1_555 1_555
O5 C15 1_555 1_555
O6 C15 1_555 1_555
O7 C22 1_555 1_555
O8 C22 1_555 1_555
O10 C35 1_555 1_555
Cu1A Cu1 1_555 1_555
Cu2A Cu2 1_555 1_555
O1A Cu1 1_555 1_555
O4A Cu1 1_555 1_555
O5A Cu2 1_555 1_555
O8A Cu2 1_555 1_555
C6 C7 1_555 1_555
C13 C14 1_555 1_555
C20 C21 1_555 1_555
C27 C28 1_555 1_555
C31 N2 1_555 1_555
C32 N1 1_555 1_555
Cu1 O2 1_555 1_555
Cu1 O3 1_555 1_555
Cu2 O6 1_555 1_555
Cu2 O7 1_555 1_555
O1 Cu1A 1_555 1_555
O4 Cu1A 1_555 1_555
O5 Cu2A 1_555 1_555
O8 Cu2A 1_555 1_555

#END
