
#######################################################################
#
#                 Cambridge Crystallographic Data Centre
#                                CCDC 
#
#######################################################################
#
# If this CIF has been generated from an entry in the Cambridge 
# Structural Database, then it will include bibliographic, chemical, 
# crystal, experimental, refinement or atomic coordinate data resulting 
# from the CCDC's data processing and validation procedures.
#
#######################################################################

data_LIDWIG
_chemical_formula_moiety         '(C48 H32 Co2 N4 O8)n,n(C12 H10 N2)'
_chemical_name_systematic        
'catena-[(\m~4~-Naphthalene-2,6-dicarboxylato)-(\m~2~-naphthalene-2,6-dicarboxylato)-bis(\m~2~-1,2-bis(4-pyridyl)ethene)-di-cobalt(ii) 1,2-bis(4-pyridyl)ethene]'
_symmetry_cell_setting           triclinic
_symmetry_space_group_name_H-M   'P -1'
_symmetry_Int_Tables_number      2
_space_group_name_Hall           '-P 1'
loop_
_symmetry_equiv_pos_site_id
_symmetry_equiv_pos_as_xyz
1 x,y,z
2 -x,-y,-z
_cell_length_a                   12.228(2)
_cell_length_b                   13.654(3)
_cell_length_c                   16.958(3)
_cell_angle_alpha                77.040(10)
_cell_angle_beta                 71.340(10)
_cell_angle_gamma                87.900(10)
_cell_volume                     2612.27
_exptl_crystal_colour            pink
_exptl_crystal_description       Rhombohedral
_cell_formula_units_Z            2
loop_
_atom_site_label
_atom_site_type_symbol
_atom_site_fract_x
_atom_site_fract_y
_atom_site_fract_z
Co1 Co 0.27462(5) 0.36808(4) 0.11565(4)
Co2 Co 0.23372(5) 0.37044(4) 0.36173(4)
O1 O 0.1575(3) 0.3826(2) 0.03649(18)
O2 O 0.3452(2) 0.3761(2) -0.01931(18)
O3 O 0.3538(3) 0.3673(3) -0.5640(2)
O4 O 0.1670(3) 0.3522(2) -0.50216(18)
O5 O 0.4334(2) 0.3497(2) 0.13338(18)
O6 O 0.3729(2) 0.3998(2) 0.25600(18)
O7 O 1.1364(2) 0.3601(2) 0.22115(19)
O8 O 1.0693(2) 0.3673(2) 0.35634(18)
N1 N 0.2616(3) 0.2069(3) 0.1324(2)
N2 N 0.2902(3) -0.4719(2) 0.0988(2)
N3 N 0.2436(3) 0.2116(3) 0.3697(2)
N4 N 0.2178(3) -0.4707(3) 0.3498(2)
C1 C 0.3555(4) 0.1544(4) 0.1096(3)
H1 H 0.4275 0.1865 0.0940
C2 C 0.3507(4) 0.0549(4) 0.1082(3)
H2 H 0.4188 0.0212 0.0918
C3 C 0.2447(4) 0.0035(3) 0.1312(3)
C4 C 0.1477(4) 0.0573(4) 0.1589(3)
H3 H 0.0745 0.0265 0.1783
C5 C 0.1611(4) 0.1565(4) 0.1573(3)
H4 H 0.0944 0.1917 0.1751
C6 C 0.2324(4) -0.1027(4) 0.1286(3)
H5 H 0.1587 -0.1327 0.1538
C7 C 0.3160(4) -0.1593(4) 0.0941(3)
H6 H 0.3894 -0.1288 0.0680
C8 C 0.3044(4) -0.2656(3) 0.0930(3)
C9 C 0.1997(4) -0.3167(4) 0.1073(3)
H7 H 0.1319 -0.2816 0.1147
C10 C 0.1967(4) -0.4153(3) 0.1104(3)
H8 H 0.1254 -0.4466 0.1213
C11 C 0.3906(4) -0.4221(3) 0.0808(3)
H9 H 0.4575 -0.4586 0.0705
C12 C 0.4020(4) -0.3228(3) 0.0764(3)
H10 H 0.4749 -0.2929 0.0625
C13 C 0.2451(4) 0.3797(3) -0.0267(3)
C14 C 0.2318(4) 0.3762(3) -0.1102(3)
C15 C 0.1197(4) 0.3715(4) -0.1157(3)
H11 H 0.0555 0.3708 -0.0678
C16 C 0.1062(4) 0.3679(4) -0.1914(3)
H12 H 0.0321 0.3654 -0.1950
C17 C 0.2014(4) 0.3679(3) -0.2642(3)
C18 C 0.3140(4) 0.3759(3) -0.2598(3)
C19 C 0.3245(4) 0.3785(3) -0.1793(3)
H13 H 0.3978 0.3819 -0.1745
C20 C 0.1889(4) 0.3635(3) -0.3440(3)
H14 H 0.1152 0.3587 -0.3478
C21 C 0.2821(4) 0.3660(3) -0.4147(3)
C22 C 0.3945(4) 0.3747(4) -0.4104(3)
H15 H 0.4585 0.3764 -0.4586
C23 C 0.4089(4) 0.3807(4) -0.3347(3)
H16 H 0.4832 0.3882 -0.3327
C24 C 0.2689(4) 0.3621(3) -0.4995(3)
C25 C 0.4501(4) 0.3720(3) 0.1979(3)
C26 C 0.5706(3) 0.3671(3) 0.2018(3)
C27 C 0.5917(3) 0.3704(3) 0.2755(3)
H17 H 0.5300 0.3749 0.3237
C28 C 0.7057(3) 0.3672(3) 0.2800(3)
C29 C 0.7993(4) 0.3614(3) 0.2064(3)
C30 C 0.7758(4) 0.3573(3) 0.1296(3)
H18 H 0.8367 0.3543 0.0805
C31 C 0.6650(4) 0.3579(3) 0.1279(3)
H19 H 0.6507 0.3522 0.0784
C32 C 0.9137(3) 0.3614(3) 0.2101(3)
H20 H 0.9758 0.3591 0.1616
C33 C 0.9329(3) 0.3647(3) 0.2846(3)
C34 C 0.8395(4) 0.3682(3) 0.3585(3)
H21 H 0.8530 0.3693 0.4093
C35 C 0.7296(4) 0.3702(3) 0.3555(3)
H22 H 0.6687 0.3736 0.4045
C36 C 1.0549(4) 0.3642(3) 0.2870(3)
C37 C 0.3444(4) 0.1677(4) 0.3434(3)
H23 H 0.4116 0.2065 0.3297
C38 C 0.3565(4) 0.0694(4) 0.3351(3)
H24 H 0.4294 0.0442 0.3151
C39 C 0.2590(5) 0.0094(4) 0.3568(3)
C40 C 0.1527(5) 0.0521(4) 0.3869(4)
H25 H 0.0844 0.0139 0.4033
C41 C 0.1497(4) 0.1528(4) 0.3921(3)
H26 H 0.0781 0.1801 0.4124
C42 C 0.2679(5) -0.0967(4) 0.3485(4)
H27 H 0.3421 -0.1184 0.3260
C43 C 0.1863(5) -0.1610(4) 0.3687(3)
H28 H 0.1118 -0.1399 0.3909
C44 C 0.1979(4) -0.2660(4) 0.3602(3)
C45 C 0.2987(4) -0.3040(4) 0.3113(3)
H29 H 0.3627 -0.2608 0.2809
C46 C 0.3052(4) -0.4042(4) 0.3074(3)
H30 H 0.3735 -0.4260 0.2737
C47 C 0.1194(4) -0.4338(4) 0.3938(3)
H31 H 0.0554 -0.4776 0.4214
C48 C 0.1073(4) -0.3337(4) 0.4005(3)
H32 H 0.0371 -0.3131 0.4327
Co1_2 Co 0.27462(5) -0.63192(4) 0.11565(4)
Co1_3 Co 1.27462(5) 0.36808(4) 0.11565(4)
Co2_2 Co 0.23372(5) -0.62956(4) 0.36173(4)
Co2_3 Co 0.23372(5) 0.37044(4) -0.63827(4)
Co2_4 Co 1.23372(5) 0.37044(4) 0.36173(4)
O3_2 O 0.3538(3) 0.3673(3) 0.4360(2)
O4_2 O 0.1670(3) 0.3522(2) 0.49784(18)
O7_2 O 0.1364(2) 0.3601(2) 0.22115(19)
O8_2 O 0.0693(2) 0.3673(2) 0.35634(18)
N2_2 N 0.2902(3) 0.5281(2) 0.0988(2)
N4_2 N 0.2178(3) 0.5293(3) 0.3498(2)
C49 C 0.0281(17) -0.0318(9) -0.0167(10)
H33 H -0.0046 -0.0955 -0.0072
C50 C 0.1605(5) -0.0049(8) -0.0779(4)
C51 C 0.2222(8) 0.0859(5) -0.0984(5)
H34 H 0.1868 0.1403 -0.0772
C52 C 0.3369(8) 0.0952(5) -0.1505(5)
H35 H 0.3782 0.1560 -0.1642
N5 N 0.3898(5) 0.0139(8) -0.1821(4)
C53 C 0.3281(10) -0.0768(6) -0.1616(5)
H36 H 0.3636 -0.1312 -0.1827
C54 C 0.2135(9) -0.0862(5) -0.1095(6)
H37 H 0.1722 -0.1469 -0.0958
C49A C -0.0281(17) 0.0318(9) 0.0167(10)
H33A H 0.0046 0.0955 0.0072
C50A C -0.1605(5) 0.0049(8) 0.0779(4)
C51A C -0.2222(8) -0.0859(5) 0.0984(5)
H34A H -0.1868 -0.1403 0.0772
C52A C -0.3369(8) -0.0952(5) 0.1505(5)
H35A H -0.3782 -0.1560 0.1642
N5A N -0.3898(5) -0.0139(8) 0.1821(4)
C53A C -0.3281(10) 0.0768(6) 0.1616(5)
H36A H -0.3636 0.1312 0.1827
C54A C -0.2135(9) 0.0862(5) 0.1095(6)
H37A H -0.1722 0.1469 0.0958
C55 C 0.4646(10) -0.0298(8) 0.5182(8)
H38 H 0.4807 -0.0968 0.5178
C56 C 0.3351(7) -0.0023(8) 0.5716(5)
C57 C 0.2876(9) 0.0898(6) 0.5812(6)
H39 H 0.3330 0.1488 0.5563
C58 C 0.1769(9) 0.0936(7) 0.6262(8)
H40 H 0.1483 0.1564 0.6330
N6 N 0.1076(7) 0.0179(7) 0.6606(6)
C59 C 0.1483(9) -0.0672(9) 0.6553(8)
H41 H 0.0984 -0.1227 0.6845
C60 C 0.2593(11) -0.0863(6) 0.6106(7)
H42 H 0.2826 -0.1511 0.6065
C55A C 0.5354(10) 0.0298(8) 0.4818(8)
H38A H 0.5193 0.0968 0.4822
C56A C 0.6649(7) 0.0023(8) 0.4284(5)
C57A C 0.7124(9) -0.0898(6) 0.4188(6)
H39A H 0.6670 -0.1488 0.4437
C58A C 0.8231(9) -0.0936(7) 0.3738(8)
H40A H 0.8517 -0.1564 0.3670
N6A N 0.8924(7) -0.0179(7) 0.3394(6)
C59A C 0.8517(9) 0.0672(9) 0.3447(8)
H41A H 0.9016 0.1227 0.3155
C60A C 0.7407(11) 0.0863(6) 0.3894(7)
H42A H 0.7174 0.1511 0.3935
loop_
_geom_bond_atom_site_label_1
_geom_bond_atom_site_label_2
_geom_bond_site_symmetry_1
_geom_bond_site_symmetry_2
Co1 O1 1_555 1_555
Co2 O6 1_555 1_555
O1 C13 1_555 1_555
O2 Co1 1_555 1_555
O3 C24 1_555 1_555
O4 C24 1_555 1_555
O5 Co1 1_555 1_555
O6 C25 1_555 1_555
O7 C36 1_555 1_555
O8 C36 1_555 1_555
N1 Co1 1_555 1_555
N2 C10 1_555 1_555
N3 Co2 1_555 1_555
N4 C46 1_555 1_555
C1 N1 1_555 1_555
H1 C1 1_555 1_555
C2 C1 1_555 1_555
H2 C2 1_555 1_555
C3 C2 1_555 1_555
C4 C3 1_555 1_555
H3 C4 1_555 1_555
C5 N1 1_555 1_555
H4 C5 1_555 1_555
C6 C3 1_555 1_555
H5 C6 1_555 1_555
C7 C6 1_555 1_555
H6 C7 1_555 1_555
C8 C7 1_555 1_555
C9 C8 1_555 1_555
H7 C9 1_555 1_555
C10 C9 1_555 1_555
H8 C10 1_555 1_555
C11 N2 1_555 1_555
H9 C11 1_555 1_555
C12 C8 1_555 1_555
H10 C12 1_555 1_555
C13 O2 1_555 1_555
C14 C13 1_555 1_555
C15 C14 1_555 1_555
H11 C15 1_555 1_555
C16 C15 1_555 1_555
H12 C16 1_555 1_555
C17 C16 1_555 1_555
C18 C17 1_555 1_555
C19 C14 1_555 1_555
H13 C19 1_555 1_555
C20 C17 1_555 1_555
H14 C20 1_555 1_555
C21 C20 1_555 1_555
C22 C21 1_555 1_555
H15 C22 1_555 1_555
C23 C18 1_555 1_555
H16 C23 1_555 1_555
C24 C21 1_555 1_555
C25 O5 1_555 1_555
C26 C25 1_555 1_555
C27 C26 1_555 1_555
H17 C27 1_555 1_555
C28 C27 1_555 1_555
C29 C28 1_555 1_555
C30 C29 1_555 1_555
H18 C30 1_555 1_555
C31 C26 1_555 1_555
H19 C31 1_555 1_555
C32 C29 1_555 1_555
H20 C32 1_555 1_555
C33 C32 1_555 1_555
C34 C33 1_555 1_555
H21 C34 1_555 1_555
C35 C28 1_555 1_555
H22 C35 1_555 1_555
C36 C33 1_555 1_555
C37 N3 1_555 1_555
H23 C37 1_555 1_555
C38 C37 1_555 1_555
H24 C38 1_555 1_555
C39 C38 1_555 1_555
C40 C39 1_555 1_555
H25 C40 1_555 1_555
C41 N3 1_555 1_555
H26 C41 1_555 1_555
C42 C39 1_555 1_555
H27 C42 1_555 1_555
C43 C42 1_555 1_555
H28 C43 1_555 1_555
C44 C43 1_555 1_555
C45 C44 1_555 1_555
H29 C45 1_555 1_555
C46 C45 1_555 1_555
H30 C46 1_555 1_555
C47 N4 1_555 1_555
H31 C47 1_555 1_555
C48 C44 1_555 1_555
H32 C48 1_555 1_555
C49 H33 1_555 1_555
C50 C49 1_555 1_555
C51 C50 1_555 1_555
H34 C51 1_555 1_555
C52 C51 1_555 1_555
H35 C52 1_555 1_555
N5 C52 1_555 1_555
C53 N5 1_555 1_555
H36 C53 1_555 1_555
C54 C50 1_555 1_555
H37 C54 1_555 1_555
C55 H38 1_555 1_555
C56 C55 1_555 1_555
C57 C56 1_555 1_555
H39 C57 1_555 1_555
C58 C57 1_555 1_555
H40 C58 1_555 1_555
N6 C58 1_555 1_555
C59 N6 1_555 1_555
H41 C59 1_555 1_555
C60 C56 1_555 1_555
H42 C60 1_555 1_555
Co1_2 N2 1_555 1_555
Co1_3 O7 1_555 1_555
Co2_2 N4 1_555 1_555
Co2_3 O3 1_555 1_555
Co2_4 O8 1_555 1_555
O3_2 Co2 1_555 1_555
O4_2 Co2 1_555 1_555
O7_2 Co1 1_555 1_555
O8_2 Co2 1_555 1_555
N2_2 Co1 1_555 1_555
N4_2 Co2 1_555 1_555
C49A C49 1_555 1_555
H33A C49A 1_555 1_555
C50A C49A 1_555 1_555
C51A C50A 1_555 1_555
H34A C51A 1_555 1_555
C52A C51A 1_555 1_555
H35A C52A 1_555 1_555
N5A C52A 1_555 1_555
C53A N5A 1_555 1_555
H36A C53A 1_555 1_555
C54A C50A 1_555 1_555
H37A C54A 1_555 1_555
C55A C55 1_555 1_555
H38A C55A 1_555 1_555
C56A C55A 1_555 1_555
C57A C56A 1_555 1_555
H39A C57A 1_555 1_555
C58A C57A 1_555 1_555
H40A C58A 1_555 1_555
N6A C58A 1_555 1_555
C59A N6A 1_555 1_555
H41A C59A 1_555 1_555
C60A C56A 1_555 1_555
H42A C60A 1_555 1_555
O4 Co2_3 1_555 1_555
C4 C5 1_555 1_555
C11 C12 1_555 1_555
C18 C19 1_555 1_555
C22 C23 1_555 1_555
C30 C31 1_555 1_555
C34 C35 1_555 1_555
C40 C41 1_555 1_555
C47 C48 1_555 1_555
C53 C54 1_555 1_555
C59 C60 1_555 1_555
C53A C54A 1_555 1_555
C59A C60A 1_555 1_555

#END
