
#######################################################################
#
#                 Cambridge Crystallographic Data Centre
#                                CCDC 
#
#######################################################################
#
# If this CIF has been generated from an entry in the Cambridge 
# Structural Database, then it will include bibliographic, chemical, 
# crystal, experimental, refinement or atomic coordinate data resulting 
# from the CCDC's data processing and validation procedures.
#
#######################################################################

data_PEYYEY
_chemical_formula_moiety         '(C32 H24 N2 O8 Rh2)n,1.51n(Kr1)'
_chemical_name_systematic        
"catena-(tetrakis(\m~2~-Benzoato-O,O')-(\m~2~-pyrazine)-di-rhodium(ii) krypton clathrate)"
_symmetry_cell_setting           triclinic
_symmetry_space_group_name_H-M   'P -1'
_symmetry_Int_Tables_number      2
_space_group_name_Hall           '-P 1'
loop_
_symmetry_equiv_pos_site_id
_symmetry_equiv_pos_as_xyz
1 x,y,z
2 -x,-y,-z
_cell_length_a                   9.587(2)
_cell_length_b                   10.364(2)
_cell_length_c                   10.822(2)
_cell_angle_alpha                71.867(5)
_cell_angle_beta                 65.518(5)
_cell_angle_gamma                63.237(5)
_cell_volume                     863.429
_exptl_crystal_colour            red
_exptl_crystal_description       plate
_cell_formula_units_Z            1
loop_
_atom_site_label
_atom_site_type_symbol
_atom_site_fract_x
_atom_site_fract_y
_atom_site_fract_z
C1 C 0.8300(17) 0.2553(15) 0.0786(14)
C2 C 0.7280(13) 0.4074(12) 0.1197(13)
C3 C 0.8036(14) 0.4837(12) 0.1337(12)
H1 H 0.9172 0.4443 0.1161
C4 C 0.7113(16) 0.6191(13) 0.1739(14)
H2 H 0.7621 0.6726 0.1823
C5 C 0.5440(16) 0.6748(14) 0.2015(17)
H3 H 0.4810 0.7651 0.2318
C6 C 0.4680(16) 0.5996(15) 0.1852(16)
H4 H 0.3544 0.6392 0.2024
C7 C 0.5607(14) 0.4655(14) 0.1432(16)
H5 H 0.5107 0.4139 0.1306
C8 C 0.9534(18) -0.1293(15) 0.2548(16)
C9 C 0.9312(17) -0.2081(15) 0.4000(14)
C10 C 1.0213(17) -0.2108(15) 0.4726(14)
H6 H 1.0938 -0.1616 0.4334
C11 C 1.0030(19) -0.2867(17) 0.6031(15)
H7 H 1.0646 -0.2894 0.6520
C12 C 0.897(2) -0.3580(18) 0.6624(15)
H8 H 0.8854 -0.4088 0.7514
C13 C 0.806(2) -0.3548(18) 0.5909(15)
H9 H 0.7341 -0.4042 0.6307
C14 C 0.8227(19) -0.2787(17) 0.4607(15)
H10 H 0.7593 -0.2750 0.4129
C15 C 1.3549(17) 0.0672(14) 0.0891(14)
H11 H 1.2549 0.1150 0.1516
C16 C 1.5012(17) 0.0581(14) 0.0936(14)
H12 H 1.4992 0.0988 0.1601
N1 N 1.3573(14) 0.0074(11) -0.0049(12)
O1 O 0.9822(11) 0.2044(10) 0.0599(9)
O2 O 0.7498(11) 0.1920(9) 0.0670(10)
O3 O 1.0772(11) -0.0922(10) 0.1953(10)
O4 O 0.8492(11) -0.1070(10) 0.2012(10)
Rh1 Rh 1.12249(15) 0.00649(12) -0.00286(13)
C1A C 1.1700(17) -0.2553(15) -0.0786(14)
C2A C 1.2720(13) -0.4074(12) -0.1197(13)
C3A C 1.1964(14) -0.4837(12) -0.1337(12)
H1A H 1.0828 -0.4443 -0.1161
C4A C 1.2887(16) -0.6191(13) -0.1739(14)
H2A H 1.2379 -0.6726 -0.1823
C5A C 1.4560(16) -0.6748(14) -0.2015(17)
H3A H 1.5190 -0.7651 -0.2318
C6A C 1.5320(16) -0.5996(15) -0.1852(16)
H4A H 1.6456 -0.6392 -0.2024
C7A C 1.4393(14) -0.4655(14) -0.1432(16)
H5A H 1.4893 -0.4139 -0.1306
C8A C 1.0466(18) 0.1293(15) -0.2548(16)
C9A C 1.0688(17) 0.2081(15) -0.4000(14)
C10A C 0.9787(17) 0.2108(15) -0.4726(14)
H6A H 0.9062 0.1616 -0.4334
C11A C 0.9970(19) 0.2867(17) -0.6031(15)
H7A H 0.9354 0.2894 -0.6520
C12A C 1.103(2) 0.3580(18) -0.6624(15)
H8A H 1.1146 0.4088 -0.7514
C13A C 1.194(2) 0.3548(18) -0.5909(15)
H9A H 1.2659 0.4042 -0.6307
C14A C 1.1773(19) 0.2787(17) -0.4607(15)
H10A H 1.2407 0.2750 -0.4129
C15A C 1.6451(17) -0.0672(14) -0.0891(14)
H11A H 1.7451 -0.1150 -0.1516
C16A C 1.4988(17) -0.0581(14) -0.0936(14)
H12A H 1.5008 -0.0988 -0.1601
N1A N 1.6427(14) -0.0074(11) 0.0049(12)
O1A O 1.0178(11) -0.2044(10) -0.0599(9)
O1A_2 O 2.0178(11) -0.2044(10) -0.0599(9)
O2A O 1.2502(11) -0.1920(9) -0.0670(10)
O2_2 O 1.7498(11) 0.1920(9) 0.0670(10)
O3A O 0.9228(11) 0.0922(10) -0.1953(10)
O3A_2 O 1.9228(11) 0.0922(10) -0.1953(10)
O4A O 1.1508(11) 0.1070(10) -0.2012(10)
O4_2 O 1.8492(11) -0.1070(10) 0.2012(10)
Rh1A Rh 1.87751(15) -0.00649(12) 0.00286(13)
Rh1A_2 Rh 0.87751(15) -0.00649(12) 0.00286(13)
Rh1_2 Rh 2.12249(15) 0.00649(12) -0.00286(13)
Kr1 Kr 0.6317(5) 0.1559(4) 0.4641(4)
loop_
_geom_bond_atom_site_label_1
_geom_bond_atom_site_label_2
_geom_bond_site_symmetry_1
_geom_bond_site_symmetry_2
C1 C2 1_555 1_555
C2 C3 1_555 1_555
C3 H1 1_555 1_555
C4 C3 1_555 1_555
H2 C4 1_555 1_555
C5 C4 1_555 1_555
H3 C5 1_555 1_555
C6 C5 1_555 1_555
H4 C6 1_555 1_555
C7 C2 1_555 1_555
H5 C7 1_555 1_555
C8 C9 1_555 1_555
C9 C10 1_555 1_555
C10 H6 1_555 1_555
C11 C10 1_555 1_555
H7 C11 1_555 1_555
C12 C11 1_555 1_555
H8 C12 1_555 1_555
C13 C12 1_555 1_555
H9 C13 1_555 1_555
C14 C9 1_555 1_555
H10 C14 1_555 1_555
C15 H11 1_555 1_555
C16 C15 1_555 1_555
H12 C16 1_555 1_555
N1 C15 1_555 1_555
O1 C1 1_555 1_555
O2 C1 1_555 1_555
O3 C8 1_555 1_555
O4 C8 1_555 1_555
Rh1 N1 1_555 1_555
C1A C2A 1_555 1_555
C2A C3A 1_555 1_555
C3A H1A 1_555 1_555
C4A C3A 1_555 1_555
H2A C4A 1_555 1_555
C5A C4A 1_555 1_555
H3A C5A 1_555 1_555
C6A C5A 1_555 1_555
H4A C6A 1_555 1_555
C7A C2A 1_555 1_555
H5A C7A 1_555 1_555
C8A C9A 1_555 1_555
C9A C10A 1_555 1_555
C10A H6A 1_555 1_555
C11A C10A 1_555 1_555
H7A C11A 1_555 1_555
C12A C11A 1_555 1_555
H8A C12A 1_555 1_555
C13A C12A 1_555 1_555
H9A C13A 1_555 1_555
C14A C9A 1_555 1_555
H10A C14A 1_555 1_555
C15A H11A 1_555 1_555
C16A N1 1_555 1_555
H12A C16A 1_555 1_555
N1A C16 1_555 1_555
O1A C1A 1_555 1_555
O1A_2 Rh1A 1_555 1_555
O2A Rh1 1_555 1_555
O2_2 Rh1A 1_555 1_555
O3A C8A 1_555 1_555
O3A_2 Rh1A 1_555 1_555
O4A Rh1 1_555 1_555
O4_2 Rh1A 1_555 1_555
Rh1A N1A 1_555 1_555
Rh1A_2 O2 1_555 1_555
Rh1_2 Rh1A 1_555 1_555
C6 C7 1_555 1_555
C13 C14 1_555 1_555
O1 Rh1 1_555 1_555
O3 Rh1 1_555 1_555
O4 Rh1A_2 1_555 1_555
Rh1 Rh1A_2 1_555 1_555
C1A O2A 1_555 1_555
C6A C7A 1_555 1_555
C8A O4A 1_555 1_555
C13A C14A 1_555 1_555
C15A C16A 1_555 1_555
C15A N1A 1_555 1_555
O1A Rh1A_2 1_555 1_555
O3A Rh1A_2 1_555 1_555

#END
