
#######################################################################
#
#                 Cambridge Crystallographic Data Centre
#                                CCDC 
#
#######################################################################
#
# If this CIF has been generated from an entry in the Cambridge 
# Structural Database, then it will include bibliographic, chemical, 
# crystal, experimental, refinement or atomic coordinate data resulting 
# from the CCDC's data processing and validation procedures.
#
#######################################################################

data_PEYYOI
_chemical_formula_moiety         '(C32 H24 Cu2 N2 O8)n,1.04n(Ar1)'
_chemical_name_systematic        
"catena-(tetrakis(\m~2~-Benzoato-O,O')-(\m~2~-pyrazine)-di-copper(ii) argon clathrate)"
_symmetry_cell_setting           monoclinic
_symmetry_space_group_name_H-M   'C 2/c'
_symmetry_Int_Tables_number      15
_space_group_name_Hall           '-C 2yc'
loop_
_symmetry_equiv_pos_site_id
_symmetry_equiv_pos_as_xyz
1 x,y,z
2 1/2+x,1/2+y,z
3 -x,y,1/2-z
4 1/2-x,1/2+y,1/2-z
5 -x,-y,-z
6 1/2-x,1/2-y,-z
7 x,-y,1/2+z
8 1/2+x,1/2-y,1/2+z
_cell_length_a                   18.396(4)
_cell_length_b                   9.702(2)
_cell_length_c                   19.188(4)
_cell_angle_alpha                90
_cell_angle_beta                 98.001(5)
_cell_angle_gamma                90
_cell_volume                     3391.3
_exptl_crystal_colour            blue
_exptl_crystal_description       plate
_cell_formula_units_Z            4
loop_
_atom_site_label
_atom_site_type_symbol
_atom_site_fract_x
_atom_site_fract_y
_atom_site_fract_z
Ar1 Ar 0.5745(5) 0.6907(9) 0.5169(4)
C1 C 0.6266(4) 0.7713(6) 0.7114(3)
C2 C 0.6999(4) 0.7710(6) 0.6896(4)
C3 C 0.7420(4) 0.8888(7) 0.6929(4)
H1 H 0.7249 0.9690 0.7116
C4 C 0.8086(4) 0.8893(8) 0.6689(4)
H2 H 0.8356 0.9706 0.6706
C5 C 0.8357(5) 0.7747(9) 0.6431(5)
H3 H 0.8800 0.7783 0.6250
C6 C 0.7982(5) 0.6508(9) 0.6433(5)
H4 H 0.8183 0.5696 0.6287
C7 C 0.7291(4) 0.6511(8) 0.6660(4)
H5 H 0.7025 0.5696 0.6652
C8 C 0.4387(4) 0.7794(7) 0.6226(4)
C9 C 0.3990(4) 0.7830(7) 0.5502(4)
C10 C 0.3948(4) 0.9021(8) 0.5113(4)
H6 H 0.4178 0.9815 0.5306
C11 C 0.3572(5) 0.9057(9) 0.4442(5)
H7 H 0.3563 0.9867 0.4182
C12 C 0.3213(5) 0.7927(9) 0.4154(5)
H8 H 0.2949 0.7969 0.3704
C13 C 0.3242(5) 0.6772(10) 0.4517(5)
H9 H 0.3001 0.5996 0.4315
C14 C 0.3629(4) 0.6679(9) 0.5201(5)
H10 H 0.3642 0.5853 0.5449
C15 C 0.5315(3) 0.3448(5) 0.7030(3)
H11 H 0.5541 0.3914 0.6696
C16 C 0.5310(3) 0.2031(5) 0.7033(3)
H12 H 0.5531 0.1559 0.6696
Cu1 Cu 0.5000 0.64159(8) 0.7500
Cu2 Cu 0.5000 -0.09157(8) 0.7500
N1 N 0.5000 0.4166(6) 0.7500
N2 N 0.5000 0.1321(6) 0.7500
O1 O 0.5935(2) 0.6576(4) 0.7135(2)
O2 O 0.5998(2) 0.8857(4) 0.7271(2)
O3 O 0.4469(2) 0.6651(4) 0.6539(2)
O4 O 0.4609(2) 0.8919(4) 0.6502(2)
C1B C 0.3734(4) 0.7713(6) 0.7886(3)
C2B C 0.3001(4) 0.7710(6) 0.8104(4)
C3B C 0.2580(4) 0.8888(7) 0.8071(4)
H1B H 0.2751 0.9690 0.7884
C4B C 0.1914(4) 0.8893(8) 0.8311(4)
H2B H 0.1644 0.9706 0.8294
C5B C 0.1643(5) 0.7747(9) 0.8569(5)
H3B H 0.1200 0.7783 0.8750
C6B C 0.2018(5) 0.6508(9) 0.8567(5)
H4B H 0.1817 0.5696 0.8713
C7B C 0.2709(4) 0.6511(8) 0.8340(4)
H5B H 0.2975 0.5696 0.8348
C8B C 0.5613(4) 0.7794(7) 0.8774(4)
C9B C 0.6010(4) 0.7830(7) 0.9498(4)
C10B C 0.6052(4) 0.9021(8) 0.9887(4)
H6B H 0.5822 0.9815 0.9694
C11B C 0.6428(5) 0.9057(9) 1.0558(5)
H7B H 0.6437 0.9867 1.0818
C12B C 0.6787(5) 0.7927(9) 1.0846(5)
H8B H 0.7051 0.7969 1.1296
C13B C 0.6758(5) 0.6772(10) 1.0483(5)
H9B H 0.6999 0.5996 1.0685
C14B C 0.6371(4) 0.6679(9) 0.9799(5)
H10B H 0.6358 0.5853 0.9551
C15B C 0.4685(3) 0.3448(5) 0.7970(3)
H11B H 0.4459 0.3914 0.8304
C16B C 0.4690(3) 0.2031(5) 0.7967(3)
H12B H 0.4469 0.1559 0.8304
Cu1_2 Cu 0.5000 -0.35841(8) 0.7500
Cu2_2 Cu 0.5000 0.90843(8) 0.7500
O1B O 0.4065(2) 0.6576(4) 0.7865(2)
O2B O 0.4002(2) 0.8857(4) 0.7729(2)
O2_2 O 0.5998(2) -0.1143(4) 0.7271(2)
O2B_2 O 0.4002(2) -0.1143(4) 0.7729(2)
O3B O 0.5531(2) 0.6651(4) 0.8461(2)
O4B O 0.5391(2) 0.8919(4) 0.8498(2)
O4_2 O 0.4609(2) -0.1081(4) 0.6502(2)
O4B_2 O 0.5391(2) -0.1081(4) 0.8498(2)
loop_
_geom_bond_atom_site_label_1
_geom_bond_atom_site_label_2
_geom_bond_site_symmetry_1
_geom_bond_site_symmetry_2
C1 C2 1_555 1_555
C2 C3 1_555 1_555
C3 H1 1_555 1_555
C4 C3 1_555 1_555
H2 C4 1_555 1_555
C5 C4 1_555 1_555
H3 C5 1_555 1_555
C6 C5 1_555 1_555
H4 C6 1_555 1_555
C7 C2 1_555 1_555
H5 C7 1_555 1_555
C8 C9 1_555 1_555
C9 C10 1_555 1_555
C10 H6 1_555 1_555
C11 C10 1_555 1_555
H7 C11 1_555 1_555
C12 C11 1_555 1_555
H8 C12 1_555 1_555
C13 C12 1_555 1_555
H9 C13 1_555 1_555
C14 C9 1_555 1_555
H10 C14 1_555 1_555
C15 H11 1_555 1_555
C16 C15 1_555 1_555
H12 C16 1_555 1_555
Cu1 N1 1_555 1_555
Cu2 N2 1_555 1_555
N1 C15 1_555 1_555
N2 C16 1_555 1_555
O1 C1 1_555 1_555
O2 C1 1_555 1_555
O3 C8 1_555 1_555
O4 C8 1_555 1_555
C1B C2B 1_555 1_555
C2B C3B 1_555 1_555
C3B H1B 1_555 1_555
C4B C3B 1_555 1_555
H2B C4B 1_555 1_555
C5B C4B 1_555 1_555
H3B C5B 1_555 1_555
C6B C5B 1_555 1_555
H4B C6B 1_555 1_555
C7B C2B 1_555 1_555
H5B C7B 1_555 1_555
C8B C9B 1_555 1_555
C9B C10B 1_555 1_555
C10B H6B 1_555 1_555
C11B C10B 1_555 1_555
H7B C11B 1_555 1_555
C12B C11B 1_555 1_555
H8B C12B 1_555 1_555
C13B C12B 1_555 1_555
H9B C13B 1_555 1_555
C14B C9B 1_555 1_555
H10B C14B 1_555 1_555
C15B N1 1_555 1_555
H11B C15B 1_555 1_555
C16B N2 1_555 1_555
H12B C16B 1_555 1_555
Cu1_2 Cu2 1_555 1_555
Cu2_2 Cu1 1_555 1_555
O1B Cu1 1_555 1_555
O2B C1B 1_555 1_555
O2_2 Cu2 1_555 1_555
O2B_2 Cu2 1_555 1_555
O3B Cu1 1_555 1_555
O4B C8B 1_555 1_555
O4_2 Cu2 1_555 1_555
O4B_2 Cu2 1_555 1_555
C6 C7 1_555 1_555
C13 C14 1_555 1_555
Cu1 O1 1_555 1_555
Cu1 O3 1_555 1_555
O2 Cu2_2 1_555 1_555
O4 Cu2_2 1_555 1_555
C1B O1B 1_555 1_555
C6B C7B 1_555 1_555
C8B O3B 1_555 1_555
C13B C14B 1_555 1_555
C15B C16B 1_555 1_555
Cu2_2 O2B 1_555 1_555
Cu2_2 O4B 1_555 1_555

#END
