
#######################################################################
#
#                 Cambridge Crystallographic Data Centre
#                                CCDC 
#
#######################################################################
#
# If this CIF has been generated from an entry in the Cambridge 
# Structural Database, then it will include bibliographic, chemical, 
# crystal, experimental, refinement or atomic coordinate data resulting 
# from the CCDC's data processing and validation procedures.
#
#######################################################################

data_PEYZAV
_chemical_formula_moiety         '(C32 H24 Cu2 N2 O8)n,2n(Xe1)'
_chemical_name_systematic        
"catena-(tetrakis(\m~2~-Benzoato-O,O')-(\m~2~-pyrazine)-di-copper(ii) bis(xenon) clathrate)"
_symmetry_cell_setting           triclinic
_symmetry_space_group_name_H-M   'P -1'
_symmetry_Int_Tables_number      2
_space_group_name_Hall           '-P 1'
loop_
_symmetry_equiv_pos_site_id
_symmetry_equiv_pos_as_xyz
1 x,y,z
2 -x,-y,-z
_cell_length_a                   9.740(6)
_cell_length_b                   10.471(7)
_cell_length_c                   10.867(7)
_cell_angle_alpha                70.741(12)
_cell_angle_beta                 65.519(12)
_cell_angle_gamma                63.558(13)
_cell_volume                     888.665
_exptl_crystal_colour            blue
_exptl_crystal_description       plate
_cell_formula_units_Z            1
loop_
_atom_site_label
_atom_site_type_symbol
_atom_site_fract_x
_atom_site_fract_y
_atom_site_fract_z
C1 C 0.8341(18) 0.2439(19) 0.0792(17)
C2 C 0.7351(14) 0.3939(14) 0.1132(15)
C3 C 0.8091(16) 0.4717(15) 0.1274(14)
H1 H 0.9202 0.4344 0.1110
C4 C 0.7161(19) 0.6056(15) 0.1663(18)
H2 H 0.7650 0.6600 0.1741
C5 C 0.5525(19) 0.6583(16) 0.1935(19)
H3 H 0.4903 0.7468 0.2231
C6 C 0.4789(17) 0.5820(17) 0.177(2)
H4 H 0.3680 0.6202 0.1928
C7 C 0.5708(15) 0.4484(16) 0.1385(19)
H5 H 0.5216 0.3951 0.1294
C8 C 0.9585(15) -0.1334(17) 0.249(2)
C9 C 0.9383(15) -0.2126(14) 0.3974(15)
C10 C 1.0208(16) -0.2112(17) 0.4724(17)
H6 H 1.0913 -0.1607 0.4332
C11 C 0.9995(19) -0.2839(19) 0.6047(18)
H7 H 1.0561 -0.2827 0.6551
C12 C 0.8965(19) -0.3584(17) 0.6641(17)
H8 H 0.8823 -0.4071 0.7545
C13 C 0.8137(16) -0.3607(17) 0.5889(17)
H9 H 0.7440 -0.4119 0.6278
C14 C 0.8349(15) -0.2874(16) 0.4573(16)
H10 H 0.7779 -0.2881 0.4070
C15 C 1.3624(16) 0.0600(16) 0.0882(17)
H11 H 1.2660 0.1038 0.1526
C16 C 1.5003(17) 0.0571(16) 0.0945(16)
H12 H 1.4952 0.0976 0.1614
Cu1 Cu 1.12922(19) 0.0106(2) -0.0029(2)
N1 N 1.3527(13) 0.0055(12) -0.0023(12)
O1 O 0.9837(12) 0.1984(12) 0.0598(11)
O2 O 0.7643(11) 0.1771(11) 0.0638(13)
O3 O 1.0766(12) -0.0878(12) 0.1902(11)
O4 O 0.8585(12) -0.1138(12) 0.1933(12)
C1A C 1.1659(18) -0.2439(19) -0.0792(17)
C2A C 1.2649(14) -0.3939(14) -0.1132(15)
C3A C 1.1909(16) -0.4717(15) -0.1274(14)
H1A H 1.0798 -0.4344 -0.1110
C4A C 1.2839(19) -0.6056(15) -0.1663(18)
H2A H 1.2350 -0.6600 -0.1741
C5A C 1.4475(19) -0.6583(16) -0.1935(19)
H3A H 1.5097 -0.7468 -0.2231
C6A C 1.5211(17) -0.5820(17) -0.177(2)
H4A H 1.6320 -0.6202 -0.1928
C7A C 1.4292(15) -0.4484(16) -0.1385(19)
H5A H 1.4784 -0.3951 -0.1294
C8A C 1.0415(15) 0.1334(17) -0.249(2)
C9A C 1.0617(15) 0.2126(14) -0.3974(15)
C10A C 0.9792(16) 0.2112(17) -0.4724(17)
H6A H 0.9087 0.1607 -0.4332
C11A C 1.0005(19) 0.2839(19) -0.6047(18)
H7A H 0.9439 0.2827 -0.6551
C12A C 1.1035(19) 0.3584(17) -0.6641(17)
H8A H 1.1177 0.4071 -0.7545
C13A C 1.1863(16) 0.3607(17) -0.5889(17)
H9A H 1.2560 0.4119 -0.6278
C14A C 1.1651(15) 0.2874(16) -0.4573(16)
H10A H 1.2221 0.2881 -0.4070
C15A C 1.6376(16) -0.0600(16) -0.0882(17)
H11A H 1.7340 -0.1038 -0.1526
C16A C 1.4997(17) -0.0571(16) -0.0945(16)
H12A H 1.5048 -0.0976 -0.1614
Cu1A Cu 1.87078(19) -0.0106(2) 0.0029(2)
Cu1A_2 Cu 0.87078(19) -0.0106(2) 0.0029(2)
Cu1_2 Cu 2.12922(19) 0.0106(2) -0.0029(2)
N1A N 1.6473(13) -0.0055(12) 0.0023(12)
O1A O 1.0163(12) -0.1984(12) -0.0598(11)
O1A_2 O 2.0163(12) -0.1984(12) -0.0598(11)
O2A O 1.2357(11) -0.1771(11) -0.0638(13)
O2_2 O 1.7643(11) 0.1771(11) 0.0638(13)
O3A O 0.9234(12) 0.0878(12) -0.1902(11)
O3A_2 O 1.9234(12) 0.0878(12) -0.1902(11)
O4A O 1.1415(12) 0.1138(12) -0.1933(12)
O4_2 O 1.8585(12) -0.1138(12) 0.1933(12)
Xe1 Xe 0.6240(2) 0.1478(2) 0.4780(2)
loop_
_geom_bond_atom_site_label_1
_geom_bond_atom_site_label_2
_geom_bond_site_symmetry_1
_geom_bond_site_symmetry_2
C1 C2 1_555 1_555
C2 C3 1_555 1_555
C3 H1 1_555 1_555
C4 C3 1_555 1_555
H2 C4 1_555 1_555
C5 C4 1_555 1_555
H3 C5 1_555 1_555
C6 C5 1_555 1_555
H4 C6 1_555 1_555
C7 C2 1_555 1_555
H5 C7 1_555 1_555
C8 C9 1_555 1_555
C9 C10 1_555 1_555
C10 H6 1_555 1_555
C11 C10 1_555 1_555
H7 C11 1_555 1_555
C12 C11 1_555 1_555
H8 C12 1_555 1_555
C13 C12 1_555 1_555
H9 C13 1_555 1_555
C14 C9 1_555 1_555
H10 C14 1_555 1_555
C15 H11 1_555 1_555
C16 C15 1_555 1_555
H12 C16 1_555 1_555
Cu1 N1 1_555 1_555
N1 C15 1_555 1_555
O1 C1 1_555 1_555
O2 C1 1_555 1_555
O3 C8 1_555 1_555
O4 C8 1_555 1_555
C1A C2A 1_555 1_555
C2A C3A 1_555 1_555
C3A H1A 1_555 1_555
C4A C3A 1_555 1_555
H2A C4A 1_555 1_555
C5A C4A 1_555 1_555
H3A C5A 1_555 1_555
C6A C5A 1_555 1_555
H4A C6A 1_555 1_555
C7A C2A 1_555 1_555
H5A C7A 1_555 1_555
C8A C9A 1_555 1_555
C9A C10A 1_555 1_555
C10A H6A 1_555 1_555
C11A C10A 1_555 1_555
H7A C11A 1_555 1_555
C12A C11A 1_555 1_555
H8A C12A 1_555 1_555
C13A C12A 1_555 1_555
H9A C13A 1_555 1_555
C14A C9A 1_555 1_555
H10A C14A 1_555 1_555
C15A H11A 1_555 1_555
C16A N1 1_555 1_555
H12A C16A 1_555 1_555
Cu1A Cu1_2 1_555 1_555
Cu1A_2 Cu1 1_555 1_555
N1A C16 1_555 1_555
O1A C1A 1_555 1_555
O1A_2 Cu1A 1_555 1_555
O2A Cu1 1_555 1_555
O2_2 Cu1A 1_555 1_555
O3A C8A 1_555 1_555
O3A_2 Cu1A 1_555 1_555
O4A Cu1 1_555 1_555
O4_2 Cu1A 1_555 1_555
C6 C7 1_555 1_555
C13 C14 1_555 1_555
Cu1 O1 1_555 1_555
Cu1 O3 1_555 1_555
O2 Cu1A_2 1_555 1_555
O4 Cu1A_2 1_555 1_555
C1A O2A 1_555 1_555
C6A C7A 1_555 1_555
C8A O4A 1_555 1_555
C13A C14A 1_555 1_555
C15A C16A 1_555 1_555
C15A N1A 1_555 1_555
Cu1A N1A 1_555 1_555
Cu1A_2 O1A 1_555 1_555
Cu1A_2 O3A 1_555 1_555

#END
