
#######################################################################
#
#                 Cambridge Crystallographic Data Centre
#                                CCDC 
#
#######################################################################
#
# If this CIF has been generated from an entry in the Cambridge 
# Structural Database, then it will include bibliographic, chemical, 
# crystal, experimental, refinement or atomic coordinate data resulting 
# from the CCDC's data processing and validation procedures.
#
#######################################################################

data_SOYWUZ
_chemical_formula_moiety         
'(C4 H12 N1 1+)2n,n(H2 Mo12 O40 Si1 2-),n(C72 H44 Cu12 O60),30n(H2 O1)'
_chemical_name_systematic        
'catena-(dodecakis(tetramethylammonium) (\m~12~-silicato)-bis(\m~2~-hydroxo)-docosakis(\m~2~-oxo)-dodecaoxo-dodeca-molybdenum octakis(\m~6~-benzene-1,3,5-tricarboxylato)-dodecaaqua-dodeca-copper hydrate)'
_symmetry_cell_setting           cubic
_symmetry_space_group_name_H-M   'F m -3 m'
_symmetry_Int_Tables_number      225
_space_group_name_Hall           '-F 4 2 3'
loop_
_symmetry_equiv_pos_site_id
_symmetry_equiv_pos_as_xyz
1 x,y,z
2 -x,-y,z
3 -x,y,-z
4 x,-y,-z
5 z,x,y
6 z,-x,-y
7 -z,-x,y
8 -z,x,-y
9 y,z,x
10 -y,z,-x
11 y,-z,-x
12 -y,-z,x
13 y,x,-z
14 -y,-x,-z
15 y,-x,z
16 -y,x,z
17 x,z,-y
18 -x,z,y
19 -x,-z,-y
20 x,-z,y
21 z,y,-x
22 z,-y,x
23 -z,y,x
24 -z,-y,-x
25 x,1/2+y,1/2+z
26 -x,1/2-y,1/2+z
27 -x,1/2+y,1/2-z
28 x,1/2-y,1/2-z
29 z,1/2+x,1/2+y
30 z,1/2-x,1/2-y
31 -z,1/2-x,1/2+y
32 -z,1/2+x,1/2-y
33 y,1/2+z,1/2+x
34 -y,1/2+z,1/2-x
35 y,1/2-z,1/2-x
36 -y,1/2-z,1/2+x
37 y,1/2+x,1/2-z
38 -y,1/2-x,1/2-z
39 y,1/2-x,1/2+z
40 -y,1/2+x,1/2+z
41 x,1/2+z,1/2-y
42 -x,1/2+z,1/2+y
43 -x,1/2-z,1/2-y
44 x,1/2-z,1/2+y
45 z,1/2+y,1/2-x
46 z,1/2-y,1/2+x
47 -z,1/2+y,1/2+x
48 -z,1/2-y,1/2-x
49 1/2+x,y,1/2+z
50 1/2-x,-y,1/2+z
51 1/2-x,y,1/2-z
52 1/2+x,-y,1/2-z
53 1/2+z,x,1/2+y
54 1/2+z,-x,1/2-y
55 1/2-z,-x,1/2+y
56 1/2-z,x,1/2-y
57 1/2+y,z,1/2+x
58 1/2-y,z,1/2-x
59 1/2+y,-z,1/2-x
60 1/2-y,-z,1/2+x
61 1/2+y,x,1/2-z
62 1/2-y,-x,1/2-z
63 1/2+y,-x,1/2+z
64 1/2-y,x,1/2+z
65 1/2+x,z,1/2-y
66 1/2-x,z,1/2+y
67 1/2-x,-z,1/2-y
68 1/2+x,-z,1/2+y
69 1/2+z,y,1/2-x
70 1/2+z,-y,1/2+x
71 1/2-z,y,1/2+x
72 1/2-z,-y,1/2-x
73 1/2+x,1/2+y,z
74 1/2-x,1/2-y,z
75 1/2-x,1/2+y,-z
76 1/2+x,1/2-y,-z
77 1/2+z,1/2+x,y
78 1/2+z,1/2-x,-y
79 1/2-z,1/2-x,y
80 1/2-z,1/2+x,-y
81 1/2+y,1/2+z,x
82 1/2-y,1/2+z,-x
83 1/2+y,1/2-z,-x
84 1/2-y,1/2-z,x
85 1/2+y,1/2+x,-z
86 1/2-y,1/2-x,-z
87 1/2+y,1/2-x,z
88 1/2-y,1/2+x,z
89 1/2+x,1/2+z,-y
90 1/2-x,1/2+z,y
91 1/2-x,1/2-z,-y
92 1/2+x,1/2-z,y
93 1/2+z,1/2+y,-x
94 1/2+z,1/2-y,x
95 1/2-z,1/2+y,x
96 1/2-z,1/2-y,-x
97 -x,-y,-z
98 x,y,-z
99 x,-y,z
100 -x,y,z
101 -z,-x,-y
102 -z,x,y
103 z,x,-y
104 z,-x,y
105 -y,-z,-x
106 y,-z,x
107 -y,z,x
108 y,z,-x
109 -y,-x,z
110 y,x,z
111 -y,x,-z
112 y,-x,-z
113 -x,-z,y
114 x,-z,-y
115 x,z,y
116 -x,z,-y
117 -z,-y,x
118 -z,y,-x
119 z,-y,-x
120 z,y,x
121 -x,1/2-y,1/2-z
122 x,1/2+y,1/2-z
123 x,1/2-y,1/2+z
124 -x,1/2+y,1/2+z
125 -z,1/2-x,1/2-y
126 -z,1/2+x,1/2+y
127 z,1/2+x,1/2-y
128 z,1/2-x,1/2+y
129 -y,1/2-z,1/2-x
130 y,1/2-z,1/2+x
131 -y,1/2+z,1/2+x
132 y,1/2+z,1/2-x
133 -y,1/2-x,1/2+z
134 y,1/2+x,1/2+z
135 -y,1/2+x,1/2-z
136 y,1/2-x,1/2-z
137 -x,1/2-z,1/2+y
138 x,1/2-z,1/2-y
139 x,1/2+z,1/2+y
140 -x,1/2+z,1/2-y
141 -z,1/2-y,1/2+x
142 -z,1/2+y,1/2-x
143 z,1/2-y,1/2-x
144 z,1/2+y,1/2+x
145 1/2-x,-y,1/2-z
146 1/2+x,y,1/2-z
147 1/2+x,-y,1/2+z
148 1/2-x,y,1/2+z
149 1/2-z,-x,1/2-y
150 1/2-z,x,1/2+y
151 1/2+z,x,1/2-y
152 1/2+z,-x,1/2+y
153 1/2-y,-z,1/2-x
154 1/2+y,-z,1/2+x
155 1/2-y,z,1/2+x
156 1/2+y,z,1/2-x
157 1/2-y,-x,1/2+z
158 1/2+y,x,1/2+z
159 1/2-y,x,1/2-z
160 1/2+y,-x,1/2-z
161 1/2-x,-z,1/2+y
162 1/2+x,-z,1/2-y
163 1/2+x,z,1/2+y
164 1/2-x,z,1/2-y
165 1/2-z,-y,1/2+x
166 1/2-z,y,1/2-x
167 1/2+z,-y,1/2-x
168 1/2+z,y,1/2+x
169 1/2-x,1/2-y,-z
170 1/2+x,1/2+y,-z
171 1/2+x,1/2-y,z
172 1/2-x,1/2+y,z
173 1/2-z,1/2-x,-y
174 1/2-z,1/2+x,y
175 1/2+z,1/2+x,-y
176 1/2+z,1/2-x,y
177 1/2-y,1/2-z,-x
178 1/2+y,1/2-z,x
179 1/2-y,1/2+z,x
180 1/2+y,1/2+z,-x
181 1/2-y,1/2-x,z
182 1/2+y,1/2+x,z
183 1/2-y,1/2+x,-z
184 1/2+y,1/2-x,-z
185 1/2-x,1/2-z,y
186 1/2+x,1/2-z,-y
187 1/2+x,1/2+z,y
188 1/2-x,1/2+z,-y
189 1/2-z,1/2-y,x
190 1/2-z,1/2+y,-x
191 1/2+z,1/2-y,-x
192 1/2+z,1/2+y,x
_cell_length_a                   26.3034(9)
_cell_length_b                   26.3034(9)
_cell_length_c                   26.3034(9)
_cell_angle_alpha                90
_cell_angle_beta                 90
_cell_angle_gamma                90
_cell_volume                     18198.5
_exptl_crystal_colour            green
_cell_formula_units_Z            4
loop_
_atom_site_label
_atom_site_type_symbol
_atom_site_fract_x
_atom_site_fract_y
_atom_site_fract_z
Cu1 Cu 0.00000(3) 0.2148 -0.21483(3)
O2 O 0.05230(15) 0.25667(13) -0.18319(14)
O4 O 0.0000 0.1556(3) -0.1556(3)
C1 C 0.0689(3) 0.29752(19) -0.20248(19)
C2 C 0.1336(2) 0.3664(2) -0.1983(3)
C3 C 0.1122(3) 0.32324(19) -0.17676(19)
Cu1OA Cu 0.00000(3) 0.28517(3) -0.2852
Cu1DA Cu 0.21483(3) 0.50000(3) -0.2852
Cu1IC Cu 0.2852 0.50000(3) -0.21483(3)
Cu1CC Cu 0.2852 0.28517(3) 0.00000(3)
Cu1V Cu 0.21483(3) 0.2148 0.00000(3)
Cu1SA Cu -0.21483(3) 0.2852 -0.50000(3)
Cu1FB Cu -0.2852 0.21483(3) -0.50000(3)
Cu1HB Cu -0.2852 0.00000(3) -0.28517(3)
Cu1E Cu -0.21483(3) 0.00000(3) -0.2148
Cu1BA Cu -0.21483(3) 0.50000(3) -0.2852
Cu1HC Cu -0.2852 0.50000(3) -0.21483(3)
Cu1BC Cu -0.2852 0.28517(3) 0.00000(3)
Cu1T Cu -0.21483(3) 0.2148 0.00000(3)
Cu1UA Cu 0.21483(3) 0.2852 -0.50000(3)
Cu1GB Cu 0.2852 0.21483(3) -0.50000(3)
Cu1IB Cu 0.2852 0.00000(3) -0.28517(3)
Cu1G Cu 0.21483(3) 0.00000(3) -0.2148
Cu1LC Cu 0.50000(3) 0.71483(3) -0.2148
Cu1YA Cu 0.50000(3) 0.7852 -0.28517(3)
Cu1QB Cu 0.28517(3) 0.7852 -0.50000(3)
Cu1HA Cu 0.2148 0.71483(3) -0.50000(3)
Cu1EC Cu 0.2852 0.71483(3) 0.00000(3)
Cu1W Cu 0.21483(3) 0.7852 0.00000(3)
Cu1A Cu 0.00000(3) 0.7852 -0.21483(3)
Cu1QA Cu 0.00000(3) 0.71483(3) -0.2852
Cu1JC Cu 0.50000(3) 0.28517(3) -0.2148
Cu1XA Cu 0.50000(3) 0.2148 -0.28517(3)
Cu1L Cu 0.2148 0.00000(3) 0.21483(3)
Cu1AB Cu 0.28517(3) 0.00000(3) 0.2852
Cu1NB Cu 0.50000(3) 0.21483(3) 0.2852
Cu1WB Cu 0.50000(3) 0.2852 0.21483(3)
O2HE O 0.05230(15) 0.31681(14) -0.24333(13)
O2DA O 0.18319(14) 0.44770(15) -0.24333(13)
O2XF O 0.24333(13) 0.44770(15) -0.18319(14)
O2CC O 0.24333(13) 0.31681(14) -0.05230(15)
O2MD O 0.18319(14) 0.25667(13) -0.05230(15)
O2R O -0.05230(15) 0.18319(14) -0.25667(13)
O2PD O -0.05230(15) 0.24333(13) -0.31681(14)
O2SA O -0.18319(14) 0.24333(13) -0.44770(15)
O2WE O -0.24333(13) 0.18319(14) -0.44770(15)
O2HB O -0.24333(13) 0.05230(15) -0.31681(14)
O2XC O -0.18319(14) 0.05230(15) -0.25667(13)
O2UC O -0.05230(15) 0.25667(13) -0.18319(14)
O2OA O -0.05230(15) 0.31681(14) -0.24333(13)
O2WD O -0.18319(14) 0.44770(15) -0.24333(13)
O2HC O -0.24333(13) 0.44770(15) -0.18319(14)
O2WF O -0.24333(13) 0.31681(14) -0.05230(15)
O2T O -0.18319(14) 0.25667(13) -0.05230(15)
O2ID O 0.05230(15) 0.18319(14) -0.25667(13)
O2AA O 0.05230(15) 0.24333(13) -0.31681(14)
O2JE O 0.18319(14) 0.24333(13) -0.44770(15)
O2GB O 0.24333(13) 0.18319(14) -0.44770(15)
O2BF O 0.24333(13) 0.05230(15) -0.31681(14)
O2G O 0.18319(14) 0.05230(15) -0.25667(13)
O2JA O 0.25667(13) 0.55230(15) -0.31681(14)
O2RF O 0.31681(14) 0.55230(15) -0.25667(13)
O2LC O 0.44770(15) 0.68319(14) -0.25667(13)
O2NE O 0.44770(15) 0.74333(13) -0.31681(14)
O2QB O 0.31681(14) 0.74333(13) -0.44770(15)
O2YD O 0.25667(13) 0.68319(14) -0.44770(15)
O2UD O 0.18319(14) 0.55230(15) -0.24333(13)
O2IC O 0.24333(13) 0.55230(15) -0.18319(14)
O2TF O 0.24333(13) 0.68319(14) -0.05230(15)
O2W O 0.18319(14) 0.74333(13) -0.05230(15)
O2TC O 0.05230(15) 0.74333(13) -0.18319(14)
O2QA O 0.05230(15) 0.68319(14) -0.24333(13)
O2EE O 0.25667(13) 0.44770(15) -0.31681(14)
O2YB O 0.31681(14) 0.44770(15) -0.25667(13)
O2EG O 0.44770(15) 0.31681(14) -0.25667(13)
O2XA O 0.44770(15) 0.25667(13) -0.31681(14)
O2KF O 0.31681(14) 0.25667(13) -0.44770(15)
O2FA O 0.25667(13) 0.31681(14) -0.44770(15)
O2OC O 0.31681(14) 0.24333(13) 0.05230(15)
O2AD O 0.25667(13) 0.18319(14) 0.05230(15)
O2L O 0.25667(13) 0.05230(15) 0.18319(14)
O2TE O 0.31681(14) 0.05230(15) 0.24333(13)
O2NB O 0.44770(15) 0.18319(14) 0.24333(13)
O2LF O 0.44770(15) 0.24333(13) 0.18319(14)
O2VF O 0.24333(13) 0.31681(14) 0.05230(15)
O2HG O 0.31681(14) 0.24333(13) -0.05230(15)
O2V O 0.18319(14) 0.25667(13) 0.05230(15)
O2J O 0.25667(13) 0.18319(14) -0.05230(15)
O2GA O -0.25667(13) 0.31681(14) -0.55230(15)
O2LE O -0.18319(14) 0.24333(13) -0.55230(15)
O2ZD O -0.25667(13) 0.31681(14) -0.44770(15)
O2IF O -0.31681(14) 0.25667(13) -0.55230(15)
O2FB O -0.24333(13) 0.18319(14) -0.55230(15)
O2RB O -0.31681(14) 0.25667(13) -0.44770(15)
O2BB O -0.31681(14) -0.05230(15) -0.24333(13)
O2CF O -0.24333(13) -0.05230(15) -0.31681(14)
O2SE O -0.31681(14) 0.05230(15) -0.24333(13)
O2DD O -0.25667(13) -0.05230(15) -0.18319(14)
O2E O -0.18319(14) -0.05230(15) -0.25667(13)
O2O O -0.25667(13) 0.05230(15) -0.18319(14)
O2DE O -0.25667(13) 0.55230(15) -0.31681(14)
O2BA O -0.18319(14) 0.55230(15) -0.24333(13)
O2KA O -0.25667(13) 0.44770(15) -0.31681(14)
O2AC O -0.31681(14) 0.55230(15) -0.25667(13)
O2YF O -0.24333(13) 0.55230(15) -0.18319(14)
O2PF O -0.31681(14) 0.44770(15) -0.25667(13)
O4AA O 0.0000 0.3444(3) -0.3444(3)
O4DA O 0.1556(3) 0.5000 -0.3444(3)
O4YB O 0.3444(3) 0.5000 -0.1556(3)
O4CC O 0.3444(3) 0.3444(3) 0.0000
O4J O 0.1556(3) 0.1556(3) 0.0000
O4GA O -0.1556(3) 0.3444(3) -0.5000
O4FB O -0.3444(3) 0.1556(3) -0.5000
O4BB O -0.3444(3) 0.0000 -0.3444(3)
O4E O -0.1556(3) 0.0000 -0.1556(3)
O4BA O -0.1556(3) 0.5000 -0.3444(3)
O4AC O -0.3444(3) 0.5000 -0.1556(3)
C1DA C 0.20248(19) 0.4311(3) -0.20248(19)
C1CC C 0.20248(19) 0.29752(19) -0.0689(3)
C1R C -0.0689(3) 0.20248(19) -0.29752(19)
C1SA C -0.20248(19) 0.20248(19) -0.4311(3)
C1HB C -0.20248(19) 0.0689(3) -0.29752(19)
C1OA C -0.0689(3) 0.29752(19) -0.20248(19)
C1HC C -0.20248(19) 0.4311(3) -0.20248(19)
C1T C -0.20248(19) 0.29752(19) -0.0689(3)
C1AA C 0.0689(3) 0.20248(19) -0.29752(19)
C1GB C 0.20248(19) 0.20248(19) -0.4311(3)
C1G C 0.20248(19) 0.0689(3) -0.29752(19)
C1JA C 0.29752(19) 0.5689(3) -0.29752(19)
C1LC C 0.4311(3) 0.70248(19) -0.29752(19)
C1QB C 0.29752(19) 0.70248(19) -0.4311(3)
C1IC C 0.20248(19) 0.5689(3) -0.20248(19)
C1W C 0.20248(19) 0.70248(19) -0.0689(3)
C1QA C 0.0689(3) 0.70248(19) -0.20248(19)
C1YB C 0.29752(19) 0.4311(3) -0.29752(19)
C1XA C 0.4311(3) 0.29752(19) -0.29752(19)
C1FA C 0.29752(19) 0.29752(19) -0.4311(3)
C1OC C 0.29752(19) 0.20248(19) 0.0689(3)
C1L C 0.29752(19) 0.0689(3) 0.20248(19)
C1NB C 0.4311(3) 0.20248(19) 0.20248(19)
C2DA C 0.1983(3) 0.3664(2) -0.1336(2)
C2CC C 0.1336(2) 0.3017(3) -0.1336(2)
C2R C -0.1336(2) 0.1983(3) -0.3664(2)
C2SA C -0.1983(3) 0.1336(2) -0.3664(2)
C2HB C -0.1336(2) 0.1336(2) -0.3017(3)
C2HC C -0.1336(2) 0.3664(2) -0.1983(3)
C2T C -0.1983(3) 0.3664(2) -0.1336(2)
C2OA C -0.1336(2) 0.3017(3) -0.1336(2)
C2GB C 0.1336(2) 0.1983(3) -0.3664(2)
C2G C 0.1983(3) 0.1336(2) -0.3664(2)
C2AA C 0.1336(2) 0.1336(2) -0.3017(3)
C2JA C 0.3664(2) 0.6336(2) -0.3017(3)
C2LC C 0.3664(2) 0.6983(3) -0.3664(2)
C2QB C 0.3017(3) 0.6336(2) -0.3664(2)
C2W C 0.1983(3) 0.6336(2) -0.1336(2)
C2QA C 0.1336(2) 0.6983(3) -0.1336(2)
C2IC C 0.1336(2) 0.6336(2) -0.1983(3)
C2XA C 0.3664(2) 0.3664(2) -0.3017(3)
C2FA C 0.3664(2) 0.3017(3) -0.3664(2)
C2YB C 0.3017(3) 0.3664(2) -0.3664(2)
C2OC C 0.3017(3) 0.1336(2) 0.1336(2)
C2L C 0.3664(2) 0.1336(2) 0.1983(3)
C2NB C 0.3664(2) 0.1983(3) 0.1336(2)
C3DA C 0.17676(19) 0.3878(3) -0.17676(19)
C3CC C 0.17676(19) 0.32324(19) -0.1122(3)
C3R C -0.1122(3) 0.17676(19) -0.32324(19)
C3SA C -0.17676(19) 0.17676(19) -0.3878(3)
C3HB C -0.17676(19) 0.1122(3) -0.32324(19)
C3OA C -0.1122(3) 0.32324(19) -0.17676(19)
C3HC C -0.17676(19) 0.3878(3) -0.17676(19)
C3T C -0.17676(19) 0.32324(19) -0.1122(3)
C3AA C 0.1122(3) 0.17676(19) -0.32324(19)
C3GB C 0.17676(19) 0.17676(19) -0.3878(3)
C3G C 0.17676(19) 0.1122(3) -0.32324(19)
C3JA C 0.32324(19) 0.6122(3) -0.32324(19)
C3LC C 0.3878(3) 0.67676(19) -0.32324(19)
C3QB C 0.32324(19) 0.67676(19) -0.3878(3)
C3IC C 0.17676(19) 0.6122(3) -0.17676(19)
C3W C 0.17676(19) 0.67676(19) -0.1122(3)
C3QA C 0.1122(3) 0.67676(19) -0.17676(19)
C3YB C 0.32324(19) 0.3878(3) -0.32324(19)
C3XA C 0.3878(3) 0.32324(19) -0.32324(19)
C3FA C 0.32324(19) 0.32324(19) -0.3878(3)
C3OC C 0.32324(19) 0.17676(19) 0.1122(3)
C3L C 0.32324(19) 0.1122(3) 0.17676(19)
C3NB C 0.3878(3) 0.17676(19) 0.17676(19)
O6 O 0.2496(8) 0.0751(9) 0.0000
N1 N 0.2500 0.2500 0.2500
C4 C 0.2831(19) 0.2831(19) 0.2169(19)
C4D C 0.2169(19) 0.2831(19) 0.2831(19)
C4H C 0.2831(19) 0.2169(19) 0.2831(19)
C4CA C 0.2169(19) 0.2169(19) 0.2169(19)
O7 O 0.237(2) 0.0000 0.0000
O1 O 0.0356(4) 0.4644(4) -0.0356(4)
Mo1 Mo 0.0000 0.40532(3) -0.09468(3)
Si1 Si 0.0000 0.5000 0.0000
O3 O 0.0000 0.3612(2) -0.1388(2)
O5 O 0.0486(3) 0.3802(4) -0.0486(3)
O1A O -0.0356(4) 0.5356(4) -0.0356(4)
O1B O -0.0356(4) 0.4644(4) 0.0356(4)
O1C O 0.0356(4) 0.5356(4) 0.0356(4)
O1V O 0.0356(4) 0.4644(4) 0.0356(4)
O1U O -0.0356(4) 0.5356(4) 0.0356(4)
O1W O 0.0356(4) 0.5356(4) -0.0356(4)
O1T O -0.0356(4) 0.4644(4) -0.0356(4)
Mo1A Mo 0.0000 0.59468(3) -0.09468(3)
Mo1B Mo 0.0000 0.40532(3) 0.09468(3)
Mo1C Mo 0.0000 0.59468(3) 0.09468(3)
Mo1V Mo 0.09468(3) 0.40532(3) 0.0000
Mo1U Mo -0.09468(3) 0.59468(3) 0.0000
Mo1W Mo 0.09468(3) 0.59468(3) 0.0000
Mo1T Mo -0.09468(3) 0.40532(3) 0.0000
Mo1DA Mo 0.09468(3) 0.5000 -0.09468(3)
Mo1BA Mo -0.09468(3) 0.5000 -0.09468(3)
Mo1CA Mo -0.09468(3) 0.5000 0.09468(3)
Mo1EA Mo 0.09468(3) 0.5000 0.09468(3)
O3A O 0.0000 0.6388(2) -0.1388(2)
O3B O 0.0000 0.3612(2) 0.1388(2)
O3C O 0.0000 0.6388(2) 0.1388(2)
O3V O 0.1388(2) 0.3612(2) 0.0000
O3U O -0.1388(2) 0.6388(2) 0.0000
O3W O 0.1388(2) 0.6388(2) 0.0000
O3T O -0.1388(2) 0.3612(2) 0.0000
O3DA O 0.1388(2) 0.5000 -0.1388(2)
O3BA O -0.1388(2) 0.5000 -0.1388(2)
O3CA O -0.1388(2) 0.5000 0.1388(2)
O3EA O 0.1388(2) 0.5000 0.1388(2)
O5T O -0.0486(3) 0.3802(4) -0.0486(3)
O5DA O 0.0486(3) 0.4514(3) -0.1198(4)
O5OA O -0.0486(3) 0.4514(3) -0.1198(4)
O5A O -0.0486(3) 0.6198(4) -0.0486(3)
O5W O 0.0486(3) 0.6198(4) -0.0486(3)
O5BA O -0.0486(3) 0.5486(3) -0.1198(4)
O5QA O 0.0486(3) 0.5486(3) -0.1198(4)
O5B O -0.0486(3) 0.3802(4) 0.0486(3)
O5V O 0.0486(3) 0.3802(4) 0.0486(3)
O5CA O -0.0486(3) 0.4514(3) 0.1198(4)
O5NA O 0.0486(3) 0.4514(3) 0.1198(4)
O5C O 0.0486(3) 0.6198(4) 0.0486(3)
O5U O -0.0486(3) 0.6198(4) 0.0486(3)
O5EA O 0.0486(3) 0.5486(3) 0.1198(4)
O5PA O -0.0486(3) 0.5486(3) 0.1198(4)
O5GC O 0.1198(4) 0.4514(3) 0.0486(3)
O5CC O 0.1198(4) 0.4514(3) -0.0486(3)
O5FC O -0.1198(4) 0.5486(3) 0.0486(3)
O5DC O -0.1198(4) 0.5486(3) -0.0486(3)
O5IC O 0.1198(4) 0.5486(3) -0.0486(3)
O5EC O 0.1198(4) 0.5486(3) 0.0486(3)
O5HC O -0.1198(4) 0.4514(3) -0.0486(3)
O5BC O -0.1198(4) 0.4514(3) 0.0486(3)
loop_
_geom_bond_atom_site_label_1
_geom_bond_atom_site_label_2
_geom_bond_site_symmetry_1
_geom_bond_site_symmetry_2
O1 Mo1 1_555 1_555
Cu1 O2 1_555 1_555
Mo1 O3 1_555 1_555
Si1 O1 1_555 1_555
O2 C1 1_555 1_555
O4 Cu1 1_555 1_555
C1 C3 1_555 1_555
O5 Mo1 1_555 1_555
C2 C3 1_555 1_555
C3 C2CC 1_555 1_555
N1 C4 1_555 1_555
O1A Si1 1_555 1_555
O1B Si1 1_555 1_555
O1C Si1 1_555 1_555
O1V Si1 1_555 1_555
O1U Si1 1_555 1_555
O1W Si1 1_555 1_555
O1T Mo1 1_555 1_555
Cu1OA O2HE 1_555 1_555
Cu1DA O2DA 1_555 1_555
Cu1IC O2XF 1_555 1_555
Cu1CC O2CC 1_555 1_555
Cu1V O2MD 1_555 1_555
Cu1SA O2SA 1_555 1_555
Cu1FB O2WE 1_555 1_555
Cu1HB O2HB 1_555 1_555
Cu1E O2XC 1_555 1_555
Cu1BA O2WD 1_555 1_555
Cu1HC O2HC 1_555 1_555
Cu1BC O2WF 1_555 1_555
Cu1T O2T 1_555 1_555
Cu1UA O2JE 1_555 1_555
Cu1GB O2GB 1_555 1_555
Cu1IB O2BF 1_555 1_555
Cu1G O2G 1_555 1_555
Cu1LC O2LC 1_555 1_555
Cu1YA O2NE 1_555 1_555
Cu1QB O2QB 1_555 1_555
Cu1HA O2YD 1_555 1_555
Cu1EC O2TF 1_555 1_555
Cu1W O2W 1_555 1_555
Cu1A O2TC 1_555 1_555
Cu1QA O2QA 1_555 1_555
Cu1JC O2EG 1_555 1_555
Cu1XA O2XA 1_555 1_555
Cu1L O2L 1_555 1_555
Cu1AB O2TE 1_555 1_555
Cu1NB O2NB 1_555 1_555
Cu1WB O2LF 1_555 1_555
Mo1A O1A 1_555 1_555
Mo1B O1B 1_555 1_555
Mo1C O1C 1_555 1_555
Mo1V O1 1_555 1_555
Mo1U O1A 1_555 1_555
Mo1W O1C 1_555 1_555
Mo1T O1B 1_555 1_555
Mo1DA O1 1_555 1_555
Mo1BA O1A 1_555 1_555
Mo1CA O1B 1_555 1_555
Mo1EA O1C 1_555 1_555
O2HE C1 1_555 1_555
O2DA C1DA 1_555 1_555
O2XF C1DA 1_555 1_555
O2CC C1CC 1_555 1_555
O2MD C1CC 1_555 1_555
O2R Cu1 1_555 1_555
O2PD Cu1OA 1_555 1_555
O2SA C1SA 1_555 1_555
O2WE C1SA 1_555 1_555
O2HB C1HB 1_555 1_555
O2XC C1HB 1_555 1_555
O2UC Cu1 1_555 1_555
O2OA Cu1OA 1_555 1_555
O2WD C1HC 1_555 1_555
O2HC C1HC 1_555 1_555
O2WF C1T 1_555 1_555
O2T C1T 1_555 1_555
O2ID Cu1 1_555 1_555
O2AA Cu1OA 1_555 1_555
O2JE C1GB 1_555 1_555
O2GB C1GB 1_555 1_555
O2BF C1G 1_555 1_555
O2G C1G 1_555 1_555
O2JA Cu1DA 1_555 1_555
O2RF Cu1IC 1_555 1_555
O2LC C1LC 1_555 1_555
O2NE C1LC 1_555 1_555
O2QB C1QB 1_555 1_555
O2YD C1QB 1_555 1_555
O2UD Cu1DA 1_555 1_555
O2IC Cu1IC 1_555 1_555
O2TF C1W 1_555 1_555
O2W C1W 1_555 1_555
O2TC C1QA 1_555 1_555
O2QA C1QA 1_555 1_555
O2EE Cu1DA 1_555 1_555
O2YB Cu1IC 1_555 1_555
O2EG C1XA 1_555 1_555
O2XA C1XA 1_555 1_555
O2KF Cu1GB 1_555 1_555
O2FA Cu1UA 1_555 1_555
O2OC Cu1CC 1_555 1_555
O2AD Cu1V 1_555 1_555
O2L C1L 1_555 1_555
O2TE C1L 1_555 1_555
O2NB C1NB 1_555 1_555
O2LF C1NB 1_555 1_555
O2VF Cu1CC 1_555 1_555
O2HG Cu1CC 1_555 1_555
O2V Cu1V 1_555 1_555
O2J Cu1V 1_555 1_555
O2GA Cu1SA 1_555 1_555
O2LE Cu1SA 1_555 1_555
O2ZD Cu1SA 1_555 1_555
O2IF Cu1FB 1_555 1_555
O2FB Cu1FB 1_555 1_555
O2RB Cu1FB 1_555 1_555
O2BB Cu1HB 1_555 1_555
O2CF Cu1HB 1_555 1_555
O2SE Cu1HB 1_555 1_555
O2DD Cu1E 1_555 1_555
O2E Cu1E 1_555 1_555
O2O Cu1E 1_555 1_555
O2DE Cu1BA 1_555 1_555
O2BA Cu1BA 1_555 1_555
O2KA Cu1BA 1_555 1_555
O2AC Cu1HC 1_555 1_555
O2YF Cu1HC 1_555 1_555
O2PF Cu1HC 1_555 1_555
O3A Mo1A 1_555 1_555
O3B Mo1B 1_555 1_555
O3C Mo1C 1_555 1_555
O3V Mo1V 1_555 1_555
O3U Mo1U 1_555 1_555
O3W Mo1W 1_555 1_555
O3T Mo1T 1_555 1_555
O3DA Mo1DA 1_555 1_555
O3BA Mo1BA 1_555 1_555
O3CA Mo1CA 1_555 1_555
O3EA Mo1EA 1_555 1_555
O4AA Cu1OA 1_555 1_555
O4DA Cu1DA 1_555 1_555
O4YB Cu1IC 1_555 1_555
O4CC Cu1CC 1_555 1_555
O4J Cu1V 1_555 1_555
O4GA Cu1SA 1_555 1_555
O4FB Cu1FB 1_555 1_555
O4BB Cu1HB 1_555 1_555
O4E Cu1E 1_555 1_555
O4BA Cu1BA 1_555 1_555
O4AC Cu1HC 1_555 1_555
C1DA C3DA 1_555 1_555
C1CC C3CC 1_555 1_555
C1R O2R 1_555 1_555
C1SA C3SA 1_555 1_555
C1HB C3HB 1_555 1_555
C1OA O2UC 1_555 1_555
C1HC C3HC 1_555 1_555
C1T C3T 1_555 1_555
C1AA O2ID 1_555 1_555
C1GB C3GB 1_555 1_555
C1G C3G 1_555 1_555
C1JA O2JA 1_555 1_555
C1LC C3LC 1_555 1_555
C1QB C3QB 1_555 1_555
C1IC O2UD 1_555 1_555
C1W C3W 1_555 1_555
C1QA C3QA 1_555 1_555
C1YB O2EE 1_555 1_555
C1XA C3XA 1_555 1_555
C1FA O2KF 1_555 1_555
C1OC O2OC 1_555 1_555
C1L C3L 1_555 1_555
C1NB C3NB 1_555 1_555
O5T Mo1 1_555 1_555
O5DA Mo1 1_555 1_555
O5OA Mo1 1_555 1_555
O5A Mo1A 1_555 1_555
O5W Mo1A 1_555 1_555
O5BA Mo1A 1_555 1_555
O5QA Mo1A 1_555 1_555
O5B Mo1B 1_555 1_555
O5V Mo1B 1_555 1_555
O5CA Mo1B 1_555 1_555
O5NA Mo1B 1_555 1_555
O5C Mo1C 1_555 1_555
O5U Mo1C 1_555 1_555
O5EA Mo1C 1_555 1_555
O5PA Mo1C 1_555 1_555
O5GC Mo1V 1_555 1_555
O5CC Mo1V 1_555 1_555
O5FC Mo1U 1_555 1_555
O5DC Mo1U 1_555 1_555
O5IC Mo1W 1_555 1_555
O5EC Mo1W 1_555 1_555
O5HC Mo1T 1_555 1_555
O5BC Mo1T 1_555 1_555
C2DA C3DA 1_555 1_555
C2CC C3CC 1_555 1_555
C2R C3R 1_555 1_555
C2SA C3SA 1_555 1_555
C2HB C3R 1_555 1_555
C2HC C3OA 1_555 1_555
C2T C3HC 1_555 1_555
C2OA C3OA 1_555 1_555
C2GB C3AA 1_555 1_555
C2G C3GB 1_555 1_555
C2AA C3AA 1_555 1_555
C2JA C3JA 1_555 1_555
C2LC C3LC 1_555 1_555
C2QB C3JA 1_555 1_555
C2W C3IC 1_555 1_555
C2QA C3W 1_555 1_555
C2IC C3IC 1_555 1_555
C2XA C3YB 1_555 1_555
C2FA C3XA 1_555 1_555
C2YB C3YB 1_555 1_555
C2OC C3OC 1_555 1_555
C2L C3L 1_555 1_555
C2NB C3OC 1_555 1_555
C3DA C2 1_555 1_555
C3CC C2DA 1_555 1_555
C3R C1R 1_555 1_555
C3SA C2R 1_555 1_555
C3HB C2SA 1_555 1_555
C3OA C1OA 1_555 1_555
C3HC C2HC 1_555 1_555
C3T C2T 1_555 1_555
C3AA C1AA 1_555 1_555
C3GB C2GB 1_555 1_555
C3G C2G 1_555 1_555
C3JA C1JA 1_555 1_555
C3LC C2JA 1_555 1_555
C3QB C2LC 1_555 1_555
C3IC C1IC 1_555 1_555
C3W C2W 1_555 1_555
C3QA C2QA 1_555 1_555
C3YB C1YB 1_555 1_555
C3XA C2XA 1_555 1_555
C3FA C1FA 1_555 1_555
C3OC C1OC 1_555 1_555
C3L C2OC 1_555 1_555
C3NB C2L 1_555 1_555
C4D N1 1_555 1_555
C4H N1 1_555 1_555
C4CA N1 1_555 1_555
Si1 O1T 1_555 1_555
O5 Mo1V 1_555 1_555
O1V Mo1B 1_555 1_555
O1V Mo1V 1_555 1_555
O1V Mo1EA 1_555 1_555
O1U Mo1C 1_555 1_555
O1U Mo1U 1_555 1_555
O1U Mo1CA 1_555 1_555
O1W Mo1A 1_555 1_555
O1W Mo1W 1_555 1_555
O1W Mo1DA 1_555 1_555
O1T Mo1T 1_555 1_555
O1T Mo1BA 1_555 1_555
Mo1V O5V 1_555 1_555
Mo1U O5A 1_555 1_555
Mo1U O5U 1_555 1_555
Mo1W O5W 1_555 1_555
Mo1W O5C 1_555 1_555
Mo1T O5T 1_555 1_555
Mo1T O5B 1_555 1_555
Mo1DA O5DA 1_555 1_555
Mo1DA O5QA 1_555 1_555
Mo1DA O5CC 1_555 1_555
Mo1DA O5IC 1_555 1_555
Mo1BA O5OA 1_555 1_555
Mo1BA O5BA 1_555 1_555
Mo1BA O5DC 1_555 1_555
Mo1BA O5HC 1_555 1_555
Mo1CA O5CA 1_555 1_555
Mo1CA O5PA 1_555 1_555
Mo1CA O5FC 1_555 1_555
Mo1CA O5BC 1_555 1_555
Mo1EA O5NA 1_555 1_555
Mo1EA O5EA 1_555 1_555
Mo1EA O5GC 1_555 1_555
Mo1EA O5EC 1_555 1_555
O2PD C1R 1_555 1_555
O2OA C1OA 1_555 1_555
O2AA C1AA 1_555 1_555
O2RF C1JA 1_555 1_555
O2IC C1IC 1_555 1_555
O2YB C1YB 1_555 1_555
O2FA C1FA 1_555 1_555
O2AD C1OC 1_555 1_555
C2HB C3HB 1_555 1_555
C2OA C3T 1_555 1_555
C2AA C3G 1_555 1_555
C2QB C3QB 1_555 1_555
C2IC C3QA 1_555 1_555
C2FA C3FA 1_555 1_555
C2YB C3FA 1_555 1_555
C2NB C3NB 1_555 1_555

#END
