
#######################################################################
#
#                 Cambridge Crystallographic Data Centre
#                                CCDC 
#
#######################################################################
#
# If this CIF has been generated from an entry in the Cambridge 
# Structural Database, then it will include bibliographic, chemical, 
# crystal, experimental, refinement or atomic coordinate data resulting 
# from the CCDC's data processing and validation procedures.
#
#######################################################################

data_SOYWOT
_chemical_formula_moiety         
'(C4 H12 N1 1+)2n,n(H1 O40 P1 W12 2-),n(C72 H48 Cu12 O60),30n(H2 O1)'
_chemical_name_systematic        
'catena-(dodecakis(tetramethylammonium) (\m~12~-phosphato)-(\m~2~-hydroxo)-tricosakis(\m~2~-oxo)-dodecaoxo-dodeca-tungsten octakis(\m~6~-benzene-1,3,5-tricarboxylato)-dodecaaqua-dodeca-copper hydrate)'
_symmetry_cell_setting           cubic
_symmetry_space_group_name_H-M   'F m -3 m'
_symmetry_Int_Tables_number      225
_space_group_name_Hall           '-F 4 2 3'
loop_
_symmetry_equiv_pos_site_id
_symmetry_equiv_pos_as_xyz
1 x,y,z
2 -x,-y,z
3 -x,y,-z
4 x,-y,-z
5 z,x,y
6 z,-x,-y
7 -z,-x,y
8 -z,x,-y
9 y,z,x
10 -y,z,-x
11 y,-z,-x
12 -y,-z,x
13 y,x,-z
14 -y,-x,-z
15 y,-x,z
16 -y,x,z
17 x,z,-y
18 -x,z,y
19 -x,-z,-y
20 x,-z,y
21 z,y,-x
22 z,-y,x
23 -z,y,x
24 -z,-y,-x
25 x,1/2+y,1/2+z
26 -x,1/2-y,1/2+z
27 -x,1/2+y,1/2-z
28 x,1/2-y,1/2-z
29 z,1/2+x,1/2+y
30 z,1/2-x,1/2-y
31 -z,1/2-x,1/2+y
32 -z,1/2+x,1/2-y
33 y,1/2+z,1/2+x
34 -y,1/2+z,1/2-x
35 y,1/2-z,1/2-x
36 -y,1/2-z,1/2+x
37 y,1/2+x,1/2-z
38 -y,1/2-x,1/2-z
39 y,1/2-x,1/2+z
40 -y,1/2+x,1/2+z
41 x,1/2+z,1/2-y
42 -x,1/2+z,1/2+y
43 -x,1/2-z,1/2-y
44 x,1/2-z,1/2+y
45 z,1/2+y,1/2-x
46 z,1/2-y,1/2+x
47 -z,1/2+y,1/2+x
48 -z,1/2-y,1/2-x
49 1/2+x,y,1/2+z
50 1/2-x,-y,1/2+z
51 1/2-x,y,1/2-z
52 1/2+x,-y,1/2-z
53 1/2+z,x,1/2+y
54 1/2+z,-x,1/2-y
55 1/2-z,-x,1/2+y
56 1/2-z,x,1/2-y
57 1/2+y,z,1/2+x
58 1/2-y,z,1/2-x
59 1/2+y,-z,1/2-x
60 1/2-y,-z,1/2+x
61 1/2+y,x,1/2-z
62 1/2-y,-x,1/2-z
63 1/2+y,-x,1/2+z
64 1/2-y,x,1/2+z
65 1/2+x,z,1/2-y
66 1/2-x,z,1/2+y
67 1/2-x,-z,1/2-y
68 1/2+x,-z,1/2+y
69 1/2+z,y,1/2-x
70 1/2+z,-y,1/2+x
71 1/2-z,y,1/2+x
72 1/2-z,-y,1/2-x
73 1/2+x,1/2+y,z
74 1/2-x,1/2-y,z
75 1/2-x,1/2+y,-z
76 1/2+x,1/2-y,-z
77 1/2+z,1/2+x,y
78 1/2+z,1/2-x,-y
79 1/2-z,1/2-x,y
80 1/2-z,1/2+x,-y
81 1/2+y,1/2+z,x
82 1/2-y,1/2+z,-x
83 1/2+y,1/2-z,-x
84 1/2-y,1/2-z,x
85 1/2+y,1/2+x,-z
86 1/2-y,1/2-x,-z
87 1/2+y,1/2-x,z
88 1/2-y,1/2+x,z
89 1/2+x,1/2+z,-y
90 1/2-x,1/2+z,y
91 1/2-x,1/2-z,-y
92 1/2+x,1/2-z,y
93 1/2+z,1/2+y,-x
94 1/2+z,1/2-y,x
95 1/2-z,1/2+y,x
96 1/2-z,1/2-y,-x
97 -x,-y,-z
98 x,y,-z
99 x,-y,z
100 -x,y,z
101 -z,-x,-y
102 -z,x,y
103 z,x,-y
104 z,-x,y
105 -y,-z,-x
106 y,-z,x
107 -y,z,x
108 y,z,-x
109 -y,-x,z
110 y,x,z
111 -y,x,-z
112 y,-x,-z
113 -x,-z,y
114 x,-z,-y
115 x,z,y
116 -x,z,-y
117 -z,-y,x
118 -z,y,-x
119 z,-y,-x
120 z,y,x
121 -x,1/2-y,1/2-z
122 x,1/2+y,1/2-z
123 x,1/2-y,1/2+z
124 -x,1/2+y,1/2+z
125 -z,1/2-x,1/2-y
126 -z,1/2+x,1/2+y
127 z,1/2+x,1/2-y
128 z,1/2-x,1/2+y
129 -y,1/2-z,1/2-x
130 y,1/2-z,1/2+x
131 -y,1/2+z,1/2+x
132 y,1/2+z,1/2-x
133 -y,1/2-x,1/2+z
134 y,1/2+x,1/2+z
135 -y,1/2+x,1/2-z
136 y,1/2-x,1/2-z
137 -x,1/2-z,1/2+y
138 x,1/2-z,1/2-y
139 x,1/2+z,1/2+y
140 -x,1/2+z,1/2-y
141 -z,1/2-y,1/2+x
142 -z,1/2+y,1/2-x
143 z,1/2-y,1/2-x
144 z,1/2+y,1/2+x
145 1/2-x,-y,1/2-z
146 1/2+x,y,1/2-z
147 1/2+x,-y,1/2+z
148 1/2-x,y,1/2+z
149 1/2-z,-x,1/2-y
150 1/2-z,x,1/2+y
151 1/2+z,x,1/2-y
152 1/2+z,-x,1/2+y
153 1/2-y,-z,1/2-x
154 1/2+y,-z,1/2+x
155 1/2-y,z,1/2+x
156 1/2+y,z,1/2-x
157 1/2-y,-x,1/2+z
158 1/2+y,x,1/2+z
159 1/2-y,x,1/2-z
160 1/2+y,-x,1/2-z
161 1/2-x,-z,1/2+y
162 1/2+x,-z,1/2-y
163 1/2+x,z,1/2+y
164 1/2-x,z,1/2-y
165 1/2-z,-y,1/2+x
166 1/2-z,y,1/2-x
167 1/2+z,-y,1/2-x
168 1/2+z,y,1/2+x
169 1/2-x,1/2-y,-z
170 1/2+x,1/2+y,-z
171 1/2+x,1/2-y,z
172 1/2-x,1/2+y,z
173 1/2-z,1/2-x,-y
174 1/2-z,1/2+x,y
175 1/2+z,1/2+x,-y
176 1/2+z,1/2-x,y
177 1/2-y,1/2-z,-x
178 1/2+y,1/2-z,x
179 1/2-y,1/2+z,x
180 1/2+y,1/2+z,-x
181 1/2-y,1/2-x,z
182 1/2+y,1/2+x,z
183 1/2-y,1/2+x,-z
184 1/2+y,1/2-x,-z
185 1/2-x,1/2-z,y
186 1/2+x,1/2-z,-y
187 1/2+x,1/2+z,y
188 1/2-x,1/2+z,-y
189 1/2-z,1/2-y,x
190 1/2-z,1/2+y,-x
191 1/2+z,1/2-y,-x
192 1/2+z,1/2+y,x
_cell_length_a                   26.3141(12)
_cell_length_b                   26.3141(12)
_cell_length_c                   26.3141(12)
_cell_angle_alpha                90
_cell_angle_beta                 90
_cell_angle_gamma                90
_cell_volume                     18220.7
_exptl_crystal_colour            green
_cell_formula_units_Z            4
loop_
_atom_site_label
_atom_site_type_symbol
_atom_site_fract_x
_atom_site_fract_y
_atom_site_fract_z
_atom_site_U_iso_or_equiv
_atom_site_thermal_displace_type
P1 P 0.0000 0.0000 0.0000 0.0186 Uani
O1 O 0.1200(3) -0.0493(3) 0.0493(3) 0.0723 Uani
O3 O 0.1408(2) -0.1408(2) 0.0000 0.0563 Uani
W1 W 0.095610(12) -0.095610(12) 0.0000 0.0338 Uani
O5 O 0.0341(4) -0.0341(4) -0.0341(4) 0.0250 Uani
O1K O 0.0493(3) -0.0493(3) 0.1200(3) 0.0723 Uani
O1E O 0.0493(3) -0.1200(3) 0.0493(3) 0.0723 Uani
O1M O 0.0493(3) -0.1200(3) -0.0493(3) 0.0723 Uani
O1T O 0.0493(3) -0.0493(3) -0.1200(3) 0.0723 Uani
O1S O 0.1200(3) -0.0493(3) -0.0493(3) 0.0723 Uani
O1A O -0.1200(3) 0.0493(3) 0.0493(3) 0.0723 Uani
O1H O -0.0493(3) 0.0493(3) 0.1200(3) 0.0723 Uani
O1G O -0.0493(3) 0.1200(3) 0.0493(3) 0.0723 Uani
O1L O -0.0493(3) 0.1200(3) -0.0493(3) 0.0723 Uani
O1W O -0.0493(3) 0.0493(3) -0.1200(3) 0.0723 Uani
O1Q O -0.1200(3) 0.0493(3) -0.0493(3) 0.0723 Uani
O1B O -0.1200(3) -0.0493(3) -0.0493(3) 0.0723 Uani
O1J O -0.0493(3) -0.0493(3) -0.1200(3) 0.0723 Uani
O1F O -0.0493(3) -0.1200(3) -0.0493(3) 0.0723 Uani
O1N O -0.0493(3) -0.1200(3) 0.0493(3) 0.0723 Uani
O1V O -0.0493(3) -0.0493(3) 0.1200(3) 0.0723 Uani
O1R O -0.1200(3) -0.0493(3) 0.0493(3) 0.0723 Uani
O1C O 0.1200(3) 0.0493(3) -0.0493(3) 0.0723 Uani
O1I O 0.0493(3) 0.0493(3) -0.1200(3) 0.0723 Uani
O1D O 0.0493(3) 0.1200(3) -0.0493(3) 0.0723 Uani
O1O O 0.0493(3) 0.1200(3) 0.0493(3) 0.0723 Uani
O1U O 0.0493(3) 0.0493(3) 0.1200(3) 0.0723 Uani
O1P O 0.1200(3) 0.0493(3) 0.0493(3) 0.0723 Uani
O3A O -0.1408(2) 0.1408(2) 0.0000 0.0563 Uani
O3B O -0.1408(2) -0.1408(2) 0.0000 0.0563 Uani
O3C O 0.1408(2) 0.1408(2) 0.0000 0.0563 Uani
O3D O 0.0000 0.1408(2) -0.1408(2) 0.0563 Uani
O3J O -0.1408(2) 0.0000 -0.1408(2) 0.0563 Uani
O3F O 0.0000 -0.1408(2) -0.1408(2) 0.0563 Uani
O3I O 0.1408(2) 0.0000 -0.1408(2) 0.0563 Uani
O3K O 0.1408(2) 0.0000 0.1408(2) 0.0563 Uani
O3E O 0.0000 -0.1408(2) 0.1408(2) 0.0563 Uani
O3H O -0.1408(2) 0.0000 0.1408(2) 0.0563 Uani
O3G O 0.0000 0.1408(2) 0.1408(2) 0.0563 Uani
W1K W 0.095610(12) 0.0000 0.095610(12) 0.0338 Uani
W1E W 0.0000 -0.095610(12) 0.095610(12) 0.0338 Uani
W1F W 0.0000 -0.095610(12) -0.095610(12) 0.0338 Uani
W1I W 0.095610(12) 0.0000 -0.095610(12) 0.0338 Uani
W1A W -0.095610(12) 0.095610(12) 0.0000 0.0338 Uani
W1H W -0.095610(12) 0.0000 0.095610(12) 0.0338 Uani
W1G W 0.0000 0.095610(12) 0.095610(12) 0.0338 Uani
W1D W 0.0000 0.095610(12) -0.095610(12) 0.0338 Uani
W1J W -0.095610(12) 0.0000 -0.095610(12) 0.0338 Uani
W1B W -0.095610(12) -0.095610(12) 0.0000 0.0338 Uani
W1C W 0.095610(12) 0.095610(12) 0.0000 0.0338 Uani
O5M O 0.0341(4) -0.0341(4) 0.0341(4) 0.0250 Uani
O5A O -0.0341(4) 0.0341(4) -0.0341(4) 0.0250 Uani
O5L O -0.0341(4) 0.0341(4) 0.0341(4) 0.0250 Uani
O5B O -0.0341(4) -0.0341(4) 0.0341(4) 0.0250 Uani
O5N O -0.0341(4) -0.0341(4) -0.0341(4) 0.0250 Uani
O5C O 0.0341(4) 0.0341(4) 0.0341(4) 0.0250 Uani
O5O O 0.0341(4) 0.0341(4) -0.0341(4) 0.0250 Uani
N1 N 0.2500 0.2500 0.2500 0.0610 Uiso
C4 C 0.216(2) 0.284(2) 0.216(2) 0.0700 Uiso
C4D C 0.216(2) 0.216(2) 0.284(2) 0.0700 Uiso
C4H C 0.284(2) 0.216(2) 0.216(2) 0.0700 Uiso
C4HA C 0.284(2) 0.284(2) 0.284(2) 0.0700 Uiso
O6 O 0.0000 0.0000 0.2683(18) 0.0880 Uiso
O7 O 0.0760(13) 0.0000 0.2501(13) 0.0870 Uiso
C1 C -0.20282(18) -0.20282(18) -0.0685(3) 0.0257 Uani
Cu1 Cu -0.21472(3) -0.28528(3) 0.0000 0.0210 Uani
O2 O -0.18302(14) -0.24353(15) -0.05267(15) 0.0327 Uani
O4 O -0.1549(3) -0.3451(3) 0.0000 0.0803 Uani
C2 C -0.1336(2) -0.1987(3) -0.1336(2) 0.0287 Uani
H1 H -0.1194 -0.2278 -0.1194 0.0340 Uiso
C3 C -0.1768(2) -0.1768(2) -0.1117(3) 0.0293 Uani
C1GC C -0.29718(18) -0.29718(18) 0.0685(3) 0.0257 Uani
C1D C -0.0685(3) -0.20282(18) -0.20282(18) 0.0257 Uani
C1UA C 0.0685(3) -0.29718(18) -0.29718(18) 0.0257 Uani
C1CA C -0.0685(3) -0.29718(18) -0.29718(18) 0.0257 Uani
C1V C 0.0685(3) -0.20282(18) -0.20282(18) 0.0257 Uani
C1Q C 0.20282(18) -0.0685(3) -0.20282(18) 0.0257 Uani
C1FB C 0.29718(18) 0.0685(3) -0.29718(18) 0.0257 Uani
C1LB C 0.29718(18) -0.0685(3) -0.29718(18) 0.0257 Uani
C1K C 0.20282(18) 0.0685(3) -0.20282(18) 0.0257 Uani
C1A C 0.20282(18) 0.20282(18) -0.0685(3) 0.0257 Uani
C1FC C 0.29718(18) 0.29718(18) 0.0685(3) 0.0257 Uani
C1JC C 0.29718(18) 0.4315(3) 0.20282(18) 0.0257 Uani
C1AB C 0.4315(3) 0.20282(18) -0.29718(18) 0.0257 Uani
C1KA C 0.20282(18) -0.29718(18) -0.4315(3) 0.0257 Uani
C1NC C 0.4315(3) 0.29718(18) 0.20282(18) 0.0257 Uani
C1BB C 0.5685(3) 0.20282(18) 0.29718(18) 0.0257 Uani
C1QB C 0.4315(3) 0.20282(18) 0.29718(18) 0.0257 Uani
C1AC C 0.5685(3) 0.29718(18) 0.20282(18) 0.0257 Uani
C1VB C 0.70282(18) 0.29718(18) 0.0685(3) 0.0257 Uani
C1N C 0.79718(18) 0.20282(18) -0.0685(3) 0.0257 Uani
C1C C 0.79718(18) 0.20282(18) 0.0685(3) 0.0257 Uani
C1IC C 0.70282(18) 0.29718(18) -0.0685(3) 0.0257 Uani
C1U C 0.9315(3) 0.20282(18) -0.20282(18) 0.0257 Uani
C1F C 0.0685(3) 0.20282(18) -0.20282(18) 0.0257 Uani
C1YA C 0.29718(18) 0.20282(18) -0.4315(3) 0.0257 Uani
C1O C 0.20282(18) -0.20282(18) -0.0685(3) 0.0257 Uani
C1PA C 0.20282(18) -0.4315(3) -0.29718(18) 0.0257 Uani
C1BC C 0.29718(18) -0.5685(3) -0.20282(18) 0.0257 Uani
C1MC C 0.29718(18) -0.4315(3) -0.20282(18) 0.0257 Uani
C1GA C 0.20282(18) -0.5685(3) -0.29718(18) 0.0257 Uani
C1H C -0.20282(18) -0.0685(3) -0.20282(18) 0.0257 Uani
C1S C 0.79718(18) 0.0685(3) -0.20282(18) 0.0257 Uani
C1CC C 0.70282(18) 0.4315(3) 0.20282(18) 0.0257 Uani
Cu1L Cu -0.28528(3) -0.21472(3) 0.0000 0.0210 Uani
Cu1D Cu 0.0000 -0.21472(3) -0.28528(3) 0.0210 Uani
Cu1V Cu 0.0000 -0.28528(3) -0.21472(3) 0.0210 Uani
Cu1K Cu 0.28528(3) 0.0000 -0.21472(3) 0.0210 Uani
Cu1Q Cu 0.21472(3) 0.0000 -0.28528(3) 0.0210 Uani
Cu1A Cu 0.21472(3) 0.28528(3) 0.0000 0.0210 Uani
Cu1M Cu 0.28528(3) 0.21472(3) 0.0000 0.0210 Uani
Cu1BB Cu 0.5000 0.21472(3) 0.21472(3) 0.0210 Uani
Cu1QB Cu 0.5000 0.28528(3) 0.28528(3) 0.0210 Uani
Cu1C Cu 0.78528(3) 0.28528(3) 0.0000 0.0210 Uani
Cu1N Cu 0.71472(3) 0.21472(3) 0.0000 0.0210 Uani
Cu1PA Cu 0.21472(3) -0.5000 -0.21472(3) 0.0210 Uani
Cu1GA Cu 0.28528(3) -0.5000 -0.28528(3) 0.0210 Uani
O2GC O -0.25647(15) -0.31698(14) 0.05267(15) 0.0327 Uani
O2LF O -0.31698(14) -0.25647(15) 0.05267(15) 0.0327 Uani
O2ED O -0.24353(15) -0.18302(14) -0.05267(15) 0.0327 Uani
O2D O -0.05267(15) -0.18302(14) -0.24353(15) 0.0327 Uani
O2UA O 0.05267(15) -0.25647(15) -0.31698(14) 0.0327 Uani
O2TD O 0.05267(15) -0.31698(14) -0.25647(15) 0.0327 Uani
O2OD O -0.05267(15) -0.24353(15) -0.18302(14) 0.0327 Uani
O2CA O -0.05267(15) -0.31698(14) -0.25647(15) 0.0327 Uani
O2LE O -0.05267(15) -0.25647(15) -0.31698(14) 0.0327 Uani
O2WC O 0.05267(15) -0.18302(14) -0.24353(15) 0.0327 Uani
O2V O 0.05267(15) -0.24353(15) -0.18302(14) 0.0327 Uani
O2BD O 0.24353(15) -0.05267(15) -0.18302(14) 0.0327 Uani
O2EF O 0.31698(14) 0.05267(15) -0.25647(15) 0.0327 Uani
O2FB O 0.25647(15) 0.05267(15) -0.31698(14) 0.0327 Uani
O2Q O 0.18302(14) -0.05267(15) -0.24353(15) 0.0327 Uani
O2YE O 0.25647(15) -0.05267(15) -0.31698(14) 0.0327 Uani
O2LB O 0.31698(14) -0.05267(15) -0.25647(15) 0.0327 Uani
O2K O 0.24353(15) 0.05267(15) -0.18302(14) 0.0327 Uani
O2HD O 0.18302(14) 0.05267(15) -0.24353(15) 0.0327 Uani
O2A O 0.18302(14) 0.24353(15) -0.05267(15) 0.0327 Uani
O2FC O 0.25647(15) 0.31698(14) 0.05267(15) 0.0327 Uani
O2MF O 0.31698(14) 0.25647(15) 0.05267(15) 0.0327 Uani
O2DD O 0.24353(15) 0.18302(14) -0.05267(15) 0.0327 Uani
O2TB O 0.31698(14) 0.25647(15) -0.05267(15) 0.0327 Uani
O2M O 0.24353(15) 0.18302(14) 0.05267(15) 0.0327 Uani
O2JC O 0.31698(14) 0.44733(15) 0.24353(15) 0.0327 Uani
O2WF O 0.25647(15) 0.44733(15) 0.18302(14) 0.0327 Uani
O2RC O 0.18302(14) 0.24353(15) 0.05267(15) 0.0327 Uani
O2YF O 0.25647(15) 0.31698(14) -0.05267(15) 0.0327 Uani
O2JF O 0.44733(15) 0.24353(15) -0.31698(14) 0.0327 Uani
O2AB O 0.44733(15) 0.18302(14) -0.25647(15) 0.0327 Uani
O2KA O 0.24353(15) -0.31698(14) -0.44733(15) 0.0327 Uani
O2PD O 0.18302(14) -0.25647(15) -0.44733(15) 0.0327 Uani
O2UB O -0.31698(14) -0.25647(15) -0.05267(15) 0.0327 Uani
O2L O -0.24353(15) -0.18302(14) 0.05267(15) 0.0327 Uani
O2SC O -0.18302(14) -0.24353(15) 0.05267(15) 0.0327 Uani
O2XF O -0.25647(15) -0.31698(14) -0.05267(15) 0.0327 Uani
O2NC O 0.44733(15) 0.25647(15) 0.18302(14) 0.0327 Uani
O2BB O 0.55267(15) 0.18302(14) 0.25647(15) 0.0327 Uani
O2HF O 0.55267(15) 0.24353(15) 0.31698(14) 0.0327 Uani
O2RF O 0.44733(15) 0.31698(14) 0.24353(15) 0.0327 Uani
O2QB O 0.44733(15) 0.24353(15) 0.31698(14) 0.0327 Uani
O2UE O 0.44733(15) 0.18302(14) 0.25647(15) 0.0327 Uani
O2GG O 0.55267(15) 0.25647(15) 0.18302(14) 0.0327 Uani
O2AC O 0.55267(15) 0.31698(14) 0.24353(15) 0.0327 Uani
O2ZF O 0.74353(15) 0.31698(14) 0.05267(15) 0.0327 Uani
O2TC O 0.81698(14) 0.24353(15) -0.05267(15) 0.0327 Uani
O2N O 0.75647(15) 0.18302(14) -0.05267(15) 0.0327 Uani
O2VB O 0.68302(14) 0.25647(15) 0.05267(15) 0.0327 Uani
O2GD O 0.75647(15) 0.18302(14) 0.05267(15) 0.0327 Uani
O2C O 0.81698(14) 0.24353(15) 0.05267(15) 0.0327 Uani
O2IC O 0.74353(15) 0.31698(14) -0.05267(15) 0.0327 Uani
O2OF O 0.68302(14) 0.25647(15) -0.05267(15) 0.0327 Uani
O2YC O 0.94733(15) 0.18302(14) -0.24353(15) 0.0327 Uani
O2U O 0.94733(15) 0.24353(15) -0.18302(14) 0.0327 Uani
O2PA O 0.18302(14) -0.44733(15) -0.25647(15) 0.0327 Uani
O2BC O 0.25647(15) -0.55267(15) -0.18302(14) 0.0327 Uani
O2DG O 0.31698(14) -0.55267(15) -0.24353(15) 0.0327 Uani
O2XD O 0.24353(15) -0.44733(15) -0.31698(14) 0.0327 Uani
O2MC O 0.31698(14) -0.44733(15) -0.24353(15) 0.0327 Uani
O2UF O 0.25647(15) -0.44733(15) -0.18302(14) 0.0327 Uani
O2IE O 0.18302(14) -0.55267(15) -0.25647(15) 0.0327 Uani
O2GA O 0.24353(15) -0.55267(15) -0.31698(14) 0.0327 Uani
O4V O 0.0000 -0.3451(3) -0.1549(3) 0.0803 Uani
O4Q O 0.1549(3) 0.0000 -0.3451(3) 0.0803 Uani
O4M O 0.3451(3) 0.1549(3) 0.0000 0.0803 Uani
O4A O 0.1549(3) 0.3451(3) 0.0000 0.0803 Uani
O4K O 0.3451(3) 0.0000 -0.1549(3) 0.0803 Uani
O4D O 0.0000 -0.1549(3) -0.3451(3) 0.0803 Uani
O4L O -0.3451(3) -0.1549(3) 0.0000 0.0803 Uani
O4QB O 0.5000 0.3451(3) 0.3451(3) 0.0803 Uani
O4N O 0.6549(3) 0.1549(3) 0.0000 0.0803 Uani
O4C O 0.8451(3) 0.3451(3) 0.0000 0.0803 Uani
O4BB O 0.5000 0.1549(3) 0.1549(3) 0.0803 Uani
O4GA O 0.3451(3) -0.5000 -0.3451(3) 0.0803 Uani
O4PA O 0.1549(3) -0.5000 -0.1549(3) 0.0803 Uani
C2Q C 0.1336(2) -0.1336(2) -0.1987(3) 0.0287 Uani
C2K C 0.1987(3) 0.1336(2) -0.1336(2) 0.0287 Uani
C2FC C 0.3013(3) 0.3664(2) 0.1336(2) 0.0287 Uani
C2JC C 0.3664(2) 0.3664(2) 0.1987(3) 0.0287 Uani
C2NC C 0.3664(2) 0.3013(3) 0.1336(2) 0.0287 Uani
C2A C 0.1336(2) 0.1987(3) -0.1336(2) 0.0287 Uani
C2F C 0.1336(2) 0.1336(2) -0.1987(3) 0.0287 Uani
C2AB C 0.3664(2) 0.1336(2) -0.3013(3) 0.0287 Uani
C2YA C 0.3664(2) 0.1987(3) -0.3664(2) 0.0287 Uani
C2FB C 0.3013(3) 0.1336(2) -0.3664(2) 0.0287 Uani
C2O C 0.1987(3) -0.1336(2) -0.1336(2) 0.0287 Uani
C2V C 0.1336(2) -0.1987(3) -0.1336(2) 0.0287 Uani
C2UA C 0.1336(2) -0.3013(3) -0.3664(2) 0.0287 Uani
C2KA C 0.1987(3) -0.3664(2) -0.3664(2) 0.0287 Uani
C2PA C 0.1336(2) -0.3664(2) -0.3013(3) 0.0287 Uani
C2D C -0.1336(2) -0.1336(2) -0.1987(3) 0.0287 Uani
C2H C -0.1987(3) -0.1336(2) -0.1336(2) 0.0287 Uani
C2VB C 0.6336(2) 0.3013(3) 0.1336(2) 0.0287 Uani
C2IC C 0.6987(3) 0.3664(2) -0.1336(2) 0.0287 Uani
C2PC C 0.6336(2) 0.3013(3) -0.1336(2) 0.0287 Uani
C2J C 0.8013(3) 0.1336(2) 0.1336(2) 0.0287 Uani
C2C C 0.8664(2) 0.1987(3) 0.1336(2) 0.0287 Uani
C2U C 0.8664(2) 0.1987(3) -0.1336(2) 0.0287 Uani
C2S C 0.8664(2) 0.1336(2) -0.1987(3) 0.0287 Uani
C2N C 0.8013(3) 0.1336(2) -0.1336(2) 0.0287 Uani
C2CC C 0.6987(3) 0.3664(2) 0.1336(2) 0.0287 Uani
C2AC C 0.6336(2) 0.3664(2) 0.1987(3) 0.0287 Uani
C2BB C 0.6336(2) 0.1336(2) 0.3013(3) 0.0287 Uani
C2WA C 0.6336(2) 0.1987(3) 0.3664(2) 0.0287 Uani
C2EA C 0.1336(2) -0.6336(2) -0.3013(3) 0.0287 Uani
C2GA C 0.1987(3) -0.6336(2) -0.3664(2) 0.0287 Uani
C2MC C 0.3664(2) -0.3664(2) -0.1987(3) 0.0287 Uani
C2HC C 0.3013(3) -0.3664(2) -0.1336(2) 0.0287 Uani
C2BC C 0.3013(3) -0.6336(2) -0.1336(2) 0.0287 Uani
C2XB C 0.3664(2) -0.6336(2) -0.1987(3) 0.0287 Uani
H1Q H 0.1194 -0.1194 -0.2278 0.0340 Uiso
H1K H 0.2278 0.1194 -0.1194 0.0340 Uiso
H1FC H 0.2722 0.3806 0.1194 0.0340 Uiso
H1JC H 0.3806 0.3806 0.2278 0.0340 Uiso
H1A H 0.1194 0.2278 -0.1194 0.0340 Uiso
H1AB H 0.3806 0.1194 -0.2722 0.0340 Uiso
H1YA H 0.3806 0.2278 -0.3806 0.0340 Uiso
H1O H 0.2278 -0.1194 -0.1194 0.0340 Uiso
H1UA H 0.1194 -0.2722 -0.3806 0.0340 Uiso
H1KA H 0.2278 -0.3806 -0.3806 0.0340 Uiso
H1D H -0.1194 -0.1194 -0.2278 0.0340 Uiso
H1NC H 0.3806 0.2722 0.1194 0.0340 Uiso
H1VB H 0.6194 0.2722 0.1194 0.0340 Uiso
H1U H 0.8806 0.2278 -0.1194 0.0340 Uiso
H1S H 0.8806 0.1194 -0.2278 0.0340 Uiso
H1CC H 0.7278 0.3806 0.1194 0.0340 Uiso
H1F H 0.1194 0.1194 -0.2278 0.0340 Uiso
H1FB H 0.2722 0.1194 -0.3806 0.0340 Uiso
H1V H 0.1194 -0.2278 -0.1194 0.0340 Uiso
H1PA H 0.1194 -0.3806 -0.2722 0.0340 Uiso
H1H H -0.2278 -0.1194 -0.1194 0.0340 Uiso
H1N H 0.7722 0.1194 -0.1194 0.0340 Uiso
H1AC H 0.6194 0.3806 0.2278 0.0340 Uiso
C3D C -0.1117(3) -0.1768(2) -0.1768(2) 0.0293 Uani
C3V C 0.1117(3) -0.1768(2) -0.1768(2) 0.0293 Uani
C3Q C 0.1768(2) -0.1117(3) -0.1768(2) 0.0293 Uani
C3K C 0.1768(2) 0.1117(3) -0.1768(2) 0.0293 Uani
C3A C 0.1768(2) 0.1768(2) -0.1117(3) 0.0293 Uani
C3FC C 0.3232(2) 0.3232(2) 0.1117(3) 0.0293 Uani
C3JC C 0.3232(2) 0.3883(3) 0.1768(2) 0.0293 Uani
C3NC C 0.3883(3) 0.3232(2) 0.1768(2) 0.0293 Uani
C3F C 0.1117(3) 0.1768(2) -0.1768(2) 0.0293 Uani
C3LB C 0.3232(2) -0.1117(3) -0.3232(2) 0.0293 Uani
C3FB C 0.3232(2) 0.1117(3) -0.3232(2) 0.0293 Uani
C3AB C 0.3883(3) 0.1768(2) -0.3232(2) 0.0293 Uani
C3YA C 0.3232(2) 0.1768(2) -0.3883(3) 0.0293 Uani
C3O C 0.1768(2) -0.1768(2) -0.1117(3) 0.0293 Uani
C3CA C -0.1117(3) -0.3232(2) -0.3232(2) 0.0293 Uani
C3UA C 0.1117(3) -0.3232(2) -0.3232(2) 0.0293 Uani
C3KA C 0.1768(2) -0.3232(2) -0.3883(3) 0.0293 Uani
C3PA C 0.1768(2) -0.3883(3) -0.3232(2) 0.0293 Uani
C3H C -0.1768(2) -0.1117(3) -0.1768(2) 0.0293 Uani
C3GC C -0.3232(2) -0.3232(2) 0.1117(3) 0.0293 Uani
C3AC C 0.6117(3) 0.3232(2) 0.1768(2) 0.0293 Uani
C3VB C 0.6768(2) 0.3232(2) 0.1117(3) 0.0293 Uani
C3IC C 0.6768(2) 0.3232(2) -0.1117(3) 0.0293 Uani
C3C C 0.8232(2) 0.1768(2) 0.1117(3) 0.0293 Uani
C3N C 0.8232(2) 0.1768(2) -0.1117(3) 0.0293 Uani
C3U C 0.8883(3) 0.1768(2) -0.1768(2) 0.0293 Uani
C3S C 0.8232(2) 0.1117(3) -0.1768(2) 0.0293 Uani
C3CC C 0.6768(2) 0.3883(3) 0.1768(2) 0.0293 Uani
C3QB C 0.3883(3) 0.1768(2) 0.3232(2) 0.0293 Uani
C3BB C 0.6117(3) 0.1768(2) 0.3232(2) 0.0293 Uani
C3GA C 0.1768(2) -0.6117(3) -0.3232(2) 0.0293 Uani
C3MC C 0.3232(2) -0.3883(3) -0.1768(2) 0.0293 Uani
C3BC C 0.3232(2) -0.6117(3) -0.1768(2) 0.0293 Uani
loop_
_atom_site_aniso_label
_atom_site_aniso_U_11
_atom_site_aniso_U_22
_atom_site_aniso_U_33
_atom_site_aniso_U_23
_atom_site_aniso_U_13
_atom_site_aniso_U_12
P1 0.0186(16) 0.0186(16) 0.0186(16) 0.000 0.000 0.000
O1 0.067 0.075 0.075 -0.041 0.041 -0.041
O3 0.042 0.042 0.085 0 0 0.012
W1 0.0291 0.0291 0.0431 0 0 0.00647
O5 0.025 0.025 0.025 -0.005 0.005 0.005
O1K 0.075 0.075 0.067 -0.041 0.041 -0.041
O1E 0.075 0.067 0.075 -0.041 0.041 -0.041
O1M 0.075 0.067 0.075 0.041 -0.041 -0.041
O1T 0.075 0.075 0.067 0.041 -0.041 -0.041
O1S 0.067 0.075 0.075 0.041 -0.041 -0.041
O1A 0.067 0.075 0.075 0.041 -0.041 -0.041
O1H 0.075 0.075 0.067 0.041 -0.041 -0.041
O1G 0.075 0.067 0.075 0.041 -0.041 -0.041
O1L 0.075 0.067 0.075 -0.041 0.041 -0.041
O1W 0.075 0.075 0.067 -0.041 0.041 -0.041
O1Q 0.067 0.075 0.075 -0.041 0.041 -0.041
O1B 0.067 0.075 0.075 0.041 0.041 0.041
O1J 0.075 0.075 0.067 0.041 0.041 0.041
O1F 0.075 0.067 0.075 0.041 0.041 0.041
O1N 0.075 0.067 0.075 -0.041 -0.041 0.041
O1V 0.075 0.075 0.067 -0.041 -0.041 0.041
O1R 0.067 0.075 0.075 -0.041 -0.041 0.041
O1C 0.067 0.075 0.075 -0.041 -0.041 0.041
O1I 0.075 0.075 0.067 -0.041 -0.041 0.041
O1D 0.075 0.067 0.075 -0.041 -0.041 0.041
O1O 0.075 0.067 0.075 0.041 0.041 0.041
O1U 0.075(4) 0.075(4) 0.067(5) 0.041(4) 0.041(4) 0.041(5)
O1P 0.067 0.075 0.075 0.041 0.041 0.041
O3A 0.042 0.042 0.085 0 0 0.012
O3B 0.042 0.042 0.085 0 0 -0.012
O3C 0.042 0.042 0.085 0 0 -0.012
O3D 0.085 0.042 0.042 0.012 0 0
O3J 0.042 0.085 0.042 0 -0.012 0
O3F 0.085 0.042 0.042 -0.012 0 0
O3I 0.042 0.085 0.042 0 0.012 0
O3K 0.042 0.085 0.042 0 -0.012 0
O3E 0.085 0.042 0.042 0.012 0 0
O3H 0.042 0.085 0.042 0 0.012 0
O3G 0.085(8) 0.042(3) 0.042(3) -0.012(4) 0.000 0.000
W1K 0.0291 0.0431 0.0291 0 -0.00647 0
W1E 0.0431 0.0291 0.0291 0.00647 0 0
W1F 0.0431 0.0291 0.0291 -0.00647 0 0
W1I 0.0291 0.0431 0.0291 0 0.00647 0
W1A 0.0291 0.0291 0.0431 0 0 0.00647
W1H 0.0291 0.0431 0.0291 0 0.00647 0
W1G 0.0431(4) 0.0291(3) 0.0291(3) -0.00647(16) 0.000 0.000
W1D 0.0431 0.0291 0.0291 0.00647 0 0
W1J 0.0291 0.0431 0.0291 0 -0.00647 0
W1B 0.0291 0.0291 0.0431 0 0 -0.00647
W1C 0.0291 0.0291 0.0431 0 0 -0.00647
O5M 0.025 0.025 0.025 0.005 -0.005 0.005
O5A 0.025 0.025 0.025 0.005 -0.005 0.005
O5L 0.025 0.025 0.025 -0.005 0.005 0.005
O5B 0.025 0.025 0.025 0.005 0.005 -0.005
O5N 0.025 0.025 0.025 -0.005 -0.005 -0.005
O5C 0.025(3) 0.025(3) 0.025(3) -0.005(4) -0.005(4) -0.005(4)
O5O 0.025 0.025 0.025 0.005 0.005 -0.005
C1 0.026 0.026 0.025 0.0024 0.0024 -0.002
Cu1 0.0209 0.0209 0.0212 0 0 0.0024
O2 0.0333 0.0297 0.035 0.0083 0.0097 0.0047
O4 0.082 0.082 0.077 0 0 0.046
C2 0.029 0.028 0.029 0.006 0.003 0.006
C3 0.031 0.031 0.026 0.003 0.003 0.003
C1GC 0.026 0.026 0.025 0.0024 0.0024 -0.002
C1D 0.025 0.026 0.026 -0.002 0.0024 0.0024
C1UA 0.025 0.026 0.026 -0.002 0.0024 0.0024
C1CA 0.025 0.026 0.026 -0.002 -0.0024 -0.0024
C1V 0.025 0.026 0.026 -0.002 -0.0024 -0.0024
C1Q 0.026 0.025 0.026 0.0024 0.002 -0.0024
C1FB 0.026 0.025 0.026 0.0024 0.002 -0.0024
C1LB 0.026 0.025 0.026 -0.0024 0.002 0.0024
C1K 0.026 0.025 0.026 -0.0024 0.002 0.0024
C1A 0.026 0.026 0.025 -0.0024 -0.0024 -0.002
C1FC 0.026 0.026 0.025 -0.0024 -0.0024 -0.002
C1JC 0.026 0.025 0.026 -0.0024 0.002 0.0024
C1AB 0.025 0.026 0.026 -0.002 -0.0024 -0.0024
C1KA 0.026 0.026 0.025 0.0024 0.0024 -0.002
C1NC 0.025 0.026 0.026 0.002 -0.0024 0.0024
C1BB 0.025 0.026 0.026 0.002 -0.0024 0.0024
C1QB 0.025 0.026 0.026 0.002 0.0024 -0.0024
C1AC 0.025 0.026 0.026 0.002 0.0024 -0.0024
C1VB 0.026 0.026 0.025 -0.0024 0.0024 0.002
C1N 0.026 0.026 0.025 -0.0024 0.0024 0.002
C1C 0.026 0.026 0.025 0.0024 -0.0024 0.002
C1IC 0.026 0.026 0.025 0.0024 -0.0024 0.002
C1U 0.025 0.026 0.026 0.002 0.0024 -0.0024
C1F 0.025 0.026 0.026 0.002 -0.0024 0.0024
C1YA 0.026 0.026 0.025 0.0024 -0.0024 0.002
C1O 0.026 0.026 0.025 0.0024 -0.0024 0.002
C1PA 0.026 0.025 0.026 0.0024 -0.002 0.0024
C1BC 0.026 0.025 0.026 0.0024 -0.002 0.0024
C1MC 0.026 0.025 0.026 -0.0024 -0.002 -0.0024
C1GA 0.026 0.025 0.026 -0.0024 -0.002 -0.0024
C1H 0.026 0.025 0.026 0.0024 -0.002 0.0024
C1S 0.026 0.025 0.026 -0.0024 -0.002 -0.0024
C1CC 0.026 0.025 0.026 -0.0024 -0.002 -0.0024
Cu1L 0.0209 0.0209 0.0212 0 0 0.0024
Cu1D 0.0212 0.0209 0.0209 0.0024 0 0
Cu1V 0.0212 0.0209 0.0209 0.0024 0 0
Cu1K 0.0209 0.0212 0.0209 0 -0.0024 0
Cu1Q 0.0209 0.0212 0.0209 0 -0.0024 0
Cu1A 0.0209 0.0209 0.0212 0 0 0.0024
Cu1M 0.0209 0.0209 0.0212 0 0 0.0024
Cu1BB 0.0212 0.0209 0.0209 -0.0024 0 0
Cu1QB 0.0212 0.0209 0.0209 -0.0024 0 0
Cu1C 0.0209 0.0209 0.0212 0 0 -0.0024
Cu1N 0.0209 0.0209 0.0212 0 0 -0.0024
Cu1PA 0.0209 0.0212 0.0209 0 0.0024 0
Cu1GA 0.0209 0.0212 0.0209 0 0.0024 0
O2GC 0.0297 0.0333 0.035 0.0097 0.0083 0.0047
O2LF 0.0333 0.0297 0.035 0.0083 0.0097 0.0047
O2ED 0.0297 0.0333 0.035 0.0097 0.0083 0.0047
O2D 0.035 0.0333 0.0297 0.0047 0.0083 0.0097
O2UA 0.035 0.0297 0.0333 0.0047 0.0097 0.0083
O2TD 0.035 0.0333 0.0297 0.0047 0.0083 0.0097
O2OD 0.035 0.0297 0.0333 0.0047 0.0097 0.0083
O2CA 0.035 0.0333 0.0297 0.0047 -0.0083 -0.0097
O2LE 0.035 0.0297 0.0333 0.0047 -0.0097 -0.0083
O2WC 0.035 0.0333 0.0297 0.0047 -0.0083 -0.0097
O2V 0.035 0.0297 0.0333 0.0047 -0.0097 -0.0083
O2BD 0.0297 0.035 0.0333 0.0097 -0.0047 -0.0083
O2EF 0.0333 0.035 0.0297 0.0083 -0.0047 -0.0097
O2FB 0.0297 0.035 0.0333 0.0097 -0.0047 -0.0083
O2Q 0.0333 0.035 0.0297 0.0083 -0.0047 -0.0097
O2YE 0.0297 0.035 0.0333 -0.0097 -0.0047 0.0083
O2LB 0.0333 0.035 0.0297 -0.0083 -0.0047 0.0097
O2K 0.0297 0.035 0.0333 -0.0097 -0.0047 0.0083
O2HD 0.0333 0.035 0.0297 -0.0083 -0.0047 0.0097
O2A 0.0333 0.0297 0.035 -0.0083 -0.0097 0.0047
O2FC 0.0297 0.0333 0.035 -0.0097 -0.0083 0.0047
O2MF 0.0333 0.0297 0.035 -0.0083 -0.0097 0.0047
O2DD 0.0297 0.0333 0.035 -0.0097 -0.0083 0.0047
O2TB 0.0333 0.0297 0.035 0.0083 0.0097 0.0047
O2M 0.0297 0.0333 0.035 0.0097 0.0083 0.0047
O2JC 0.0333 0.035 0.0297 -0.0083 -0.0047 0.0097
O2WF 0.0297 0.035 0.0333 -0.0097 -0.0047 0.0083
O2RC 0.0333 0.0297 0.035 0.0083 0.0097 0.0047
O2YF 0.0297 0.0333 0.035 0.0097 0.0083 0.0047
O2JF 0.035 0.0297 0.0333 0.0047 -0.0097 -0.0083
O2AB 0.035 0.0333 0.0297 0.0047 -0.0083 -0.0097
O2KA 0.0297 0.0333 0.035 0.0097 0.0083 0.0047
O2PD 0.0333 0.0297 0.035 0.0083 0.0097 0.0047
O2UB 0.0333 0.0297 0.035 -0.0083 -0.0097 0.0047
O2L 0.0297 0.0333 0.035 -0.0097 -0.0083 0.0047
O2SC 0.0333 0.0297 0.035 -0.0083 -0.0097 0.0047
O2XF 0.0297 0.0333 0.035 -0.0097 -0.0083 0.0047
O2NC 0.035 0.0297 0.0333 -0.0047 -0.0097 0.0083
O2BB 0.035 0.0333 0.0297 -0.0047 -0.0083 0.0097
O2HF 0.035 0.0297 0.0333 -0.0047 -0.0097 0.0083
O2RF 0.035 0.0333 0.0297 -0.0047 -0.0083 0.0097
O2QB 0.035 0.0297 0.0333 -0.0047 0.0097 -0.0083
O2UE 0.035 0.0333 0.0297 -0.0047 0.0083 -0.0097
O2GG 0.035 0.0297 0.0333 -0.0047 0.0097 -0.0083
O2AC 0.035 0.0333 0.0297 -0.0047 0.0083 -0.0097
O2ZF 0.0297 0.0333 0.035 -0.0097 0.0083 -0.0047
O2TC 0.0333 0.0297 0.035 -0.0083 0.0097 -0.0047
O2N 0.0297 0.0333 0.035 -0.0097 0.0083 -0.0047
O2VB 0.0333 0.0297 0.035 -0.0083 0.0097 -0.0047
O2GD 0.0297 0.0333 0.035 0.0097 -0.0083 -0.0047
O2C 0.0333 0.0297 0.035 0.0083 -0.0097 -0.0047
O2IC 0.0297 0.0333 0.035 0.0097 -0.0083 -0.0047
O2OF 0.0333 0.0297 0.035 0.0083 -0.0097 -0.0047
O2YC 0.035 0.0333 0.0297 -0.0047 0.0083 -0.0097
O2U 0.035 0.0297 0.0333 -0.0047 0.0097 -0.0083
O2PA 0.0333 0.035 0.0297 0.0083 0.0047 0.0097
O2BC 0.0297 0.035 0.0333 0.0097 0.0047 0.0083
O2DG 0.0333 0.035 0.0297 0.0083 0.0047 0.0097
O2XD 0.0297 0.035 0.0333 0.0097 0.0047 0.0083
O2MC 0.0333 0.035 0.0297 -0.0083 0.0047 -0.0097
O2UF 0.0297 0.035 0.0333 -0.0097 0.0047 -0.0083
O2IE 0.0333 0.035 0.0297 -0.0083 0.0047 -0.0097
O2GA 0.0297 0.035 0.0333 -0.0097 0.0047 -0.0083
O4V 0.077 0.082 0.082 0.046 0 0
O4Q 0.082 0.077 0.082 0 -0.046 0
O4M 0.082 0.082 0.077 0 0 0.046
O4A 0.082 0.082 0.077 0 0 0.046
O4K 0.082 0.077 0.082 0 -0.046 0
O4D 0.077 0.082 0.082 0.046 0 0
O4L 0.082 0.082 0.077 0 0 0.046
O4QB 0.077 0.082 0.082 -0.046 0 0
O4N 0.082 0.082 0.077 0 0 -0.046
O4C 0.082 0.082 0.077 0 0 -0.046
O4BB 0.077 0.082 0.082 -0.046 0 0
O4GA 0.082 0.077 0.082 0 0.046 0
O4PA 0.082 0.077 0.082 0 0.046 0
C2Q 0.029 0.029 0.028 0.006 -0.006 -0.003
C2K 0.028 0.029 0.029 -0.003 -0.006 0.006
C2FC 0.028 0.029 0.029 -0.003 -0.006 0.006
C2JC 0.029 0.029 0.028 -0.006 -0.006 0.003
C2NC 0.029 0.028 0.029 -0.006 -0.003 0.006
C2A 0.029 0.028 0.029 -0.006 -0.003 0.006
C2F 0.029 0.029 0.028 -0.006 -0.006 0.003
C2AB 0.029 0.029 0.028 0.006 -0.006 -0.003
C2YA 0.029 0.028 0.029 0.006 -0.003 -0.006
C2FB 0.028 0.029 0.029 0.003 -0.006 -0.006
C2O 0.028 0.029 0.029 0.003 -0.006 -0.006
C2V 0.029 0.028 0.029 0.006 -0.003 -0.006
C2UA 0.029 0.028 0.029 0.006 0.003 0.006
C2KA 0.028 0.029 0.029 0.003 0.006 0.006
C2PA 0.029 0.029 0.028 0.006 0.006 0.003
C2D 0.029 0.029 0.028 0.006 0.006 0.003
C2H 0.028 0.029 0.029 0.003 0.006 0.006
C2VB 0.029 0.028 0.029 -0.006 0.003 -0.006
C2IC 0.028 0.029 0.029 0.003 -0.006 -0.006
C2PC 0.029 0.028 0.029 0.006 -0.003 -0.006
C2J 0.028 0.029 0.029 0.003 -0.006 -0.006
C2C 0.029 0.028 0.029 0.006 -0.003 -0.006
C2U 0.029 0.028 0.029 -0.006 0.003 -0.006
C2S 0.029 0.029 0.028 -0.006 0.006 -0.003
C2N 0.028 0.029 0.029 -0.003 0.006 -0.006
C2CC 0.028 0.029 0.029 -0.003 0.006 -0.006
C2AC 0.029 0.029 0.028 -0.006 0.006 -0.003
C2BB 0.029 0.029 0.028 -0.006 -0.006 0.003
C2WA 0.029 0.028 0.029 -0.006 -0.003 0.006
C2EA 0.029 0.029 0.028 -0.006 0.006 -0.003
C2GA 0.028 0.029 0.029 -0.003 0.006 -0.006
C2MC 0.029 0.029 0.028 -0.006 0.006 -0.003
C2HC 0.028 0.029 0.029 -0.003 0.006 -0.006
C2BC 0.028 0.029 0.029 0.003 0.006 0.006
C2XB 0.029 0.029 0.028 0.006 0.006 0.003
C3D 0.026 0.031 0.031 0.003 0.003 0.003
C3V 0.026 0.031 0.031 0.003 -0.003 -0.003
C3Q 0.031 0.026 0.031 0.003 -0.003 -0.003
C3K 0.031 0.026 0.031 -0.003 -0.003 0.003
C3A 0.031 0.031 0.026 -0.003 -0.003 0.003
C3FC 0.031 0.031 0.026 -0.003 -0.003 0.003
C3JC 0.031 0.026 0.031 -0.003 -0.003 0.003
C3NC 0.026 0.031 0.031 -0.003 -0.003 0.003
C3F 0.026 0.031 0.031 -0.003 -0.003 0.003
C3LB 0.031 0.026 0.031 -0.003 -0.003 0.003
C3FB 0.031 0.026 0.031 0.003 -0.003 -0.003
C3AB 0.026 0.031 0.031 0.003 -0.003 -0.003
C3YA 0.031 0.031 0.026 0.003 -0.003 -0.003
C3O 0.031 0.031 0.026 0.003 -0.003 -0.003
C3CA 0.026 0.031 0.031 0.003 -0.003 -0.003
C3UA 0.026 0.031 0.031 0.003 0.003 0.003
C3KA 0.031 0.031 0.026 0.003 0.003 0.003
C3PA 0.031 0.026 0.031 0.003 0.003 0.003
C3H 0.031 0.026 0.031 0.003 0.003 0.003
C3GC 0.031 0.031 0.026 0.003 0.003 0.003
C3AC 0.026 0.031 0.031 -0.003 0.003 -0.003
C3VB 0.031 0.031 0.026 -0.003 0.003 -0.003
C3IC 0.031 0.031 0.026 0.003 -0.003 -0.003
C3C 0.031 0.031 0.026 0.003 -0.003 -0.003
C3N 0.031 0.031 0.026 -0.003 0.003 -0.003
C3U 0.026 0.031 0.031 -0.003 0.003 -0.003
C3S 0.031 0.026 0.031 -0.003 0.003 -0.003
C3CC 0.031 0.026 0.031 -0.003 0.003 -0.003
C3QB 0.026 0.031 0.031 -0.003 0.003 -0.003
C3BB 0.026 0.031 0.031 -0.003 -0.003 0.003
C3GA 0.031 0.026 0.031 -0.003 0.003 -0.003
C3MC 0.031 0.026 0.031 -0.003 0.003 -0.003
C3BC 0.031 0.026 0.031 0.003 0.003 0.003
loop_
_geom_bond_atom_site_label_1
_geom_bond_atom_site_label_2
_geom_bond_site_symmetry_1
_geom_bond_site_symmetry_2
C1 O2 1_555 1_555
Cu1 O2 1_555 1_555
P1 O5 1_555 1_555
O1 W1 1_555 1_555
O3 W1 1_555 1_555
O4 Cu1 1_555 1_555
W1 O5 1_555 1_555
C2 H1 1_555 1_555
C3 C1 1_555 1_555
O5 W1F 1_555 1_555
N1 C4 1_555 1_555
C1GC O2GC 1_555 1_555
C1D O2D 1_555 1_555
C1UA O2UA 1_555 1_555
C1CA O2CA 1_555 1_555
C1V O2WC 1_555 1_555
C1Q O2BD 1_555 1_555
C1FB O2EF 1_555 1_555
C1LB O2YE 1_555 1_555
C1K O2K 1_555 1_555
C1A O2A 1_555 1_555
C1FC O2FC 1_555 1_555
C1JC O2JC 1_555 1_555
C1AB O2JF 1_555 1_555
C1KA O2KA 1_555 1_555
C1NC O2NC 1_555 1_555
C1BB O2BB 1_555 1_555
C1QB O2QB 1_555 1_555
C1AC O2GG 1_555 1_555
C1VB O2ZF 1_555 1_555
C1N O2TC 1_555 1_555
C1C O2GD 1_555 1_555
C1IC O2IC 1_555 1_555
C1U O2YC 1_555 1_555
C1F C3F 1_555 1_555
C1YA C3YA 1_555 1_555
C1O C3O 1_555 1_555
C1PA O2PA 1_555 1_555
C1BC O2BC 1_555 1_555
C1MC O2MC 1_555 1_555
C1GA O2IE 1_555 1_555
C1H C3H 1_555 1_555
C1S C3S 1_555 1_555
C1CC C3CC 1_555 1_555
Cu1L O2LF 1_555 1_555
Cu1D O2D 1_555 1_555
Cu1V O2TD 1_555 1_555
Cu1K O2BD 1_555 1_555
Cu1Q O2FB 1_555 1_555
Cu1A O2A 1_555 1_555
Cu1M O2MF 1_555 1_555
Cu1BB O2NC 1_555 1_555
Cu1QB O2HF 1_555 1_555
Cu1C O2ZF 1_555 1_555
Cu1N O2N 1_555 1_555
Cu1PA O2PA 1_555 1_555
Cu1GA O2DG 1_555 1_555
O1K W1K 1_555 1_555
O1E W1 1_555 1_555
O1M W1 1_555 1_555
O1T W1F 1_555 1_555
O1S W1 1_555 1_555
O1A W1A 1_555 1_555
O1H W1H 1_555 1_555
O1G W1A 1_555 1_555
O1L W1A 1_555 1_555
O1W W1D 1_555 1_555
O1Q W1A 1_555 1_555
O1B W1J 1_555 1_555
O1J W1F 1_555 1_555
O1F W1F 1_555 1_555
O1N W1E 1_555 1_555
O1V W1E 1_555 1_555
O1R W1H 1_555 1_555
O1C W1I 1_555 1_555
O1I W1I 1_555 1_555
O1D W1D 1_555 1_555
O1O W1G 1_555 1_555
O1U W1K 1_555 1_555
O1P W1K 1_555 1_555
O2GC Cu1 1_555 1_555
O2LF C1GC 1_555 1_555
O2ED C1 1_555 1_555
O2UA Cu1D 1_555 1_555
O2TD C1UA 1_555 1_555
O2OD C1D 1_555 1_555
O2CA Cu1V 1_555 1_555
O2LE C1CA 1_555 1_555
O2WC Cu1D 1_555 1_555
O2V C1V 1_555 1_555
O2EF Cu1K 1_555 1_555
O2FB C1FB 1_555 1_555
O2Q C1Q 1_555 1_555
O2YE Cu1Q 1_555 1_555
O2LB C1LB 1_555 1_555
O2K Cu1K 1_555 1_555
O2HD C1K 1_555 1_555
O2FC Cu1A 1_555 1_555
O2MF C1FC 1_555 1_555
O2DD C1A 1_555 1_555
O2TB Cu1M 1_555 1_555
O2M Cu1M 1_555 1_555
O2WF C1JC 1_555 1_555
O2RC Cu1A 1_555 1_555
O2YF Cu1A 1_555 1_555
O2AB C1AB 1_555 1_555
O2PD C1KA 1_555 1_555
O2UB Cu1L 1_555 1_555
O2L Cu1L 1_555 1_555
O2SC Cu1 1_555 1_555
O2XF Cu1 1_555 1_555
O2BB Cu1BB 1_555 1_555
O2HF C1BB 1_555 1_555
O2RF C1NC 1_555 1_555
O2QB Cu1QB 1_555 1_555
O2UE C1QB 1_555 1_555
O2GG Cu1BB 1_555 1_555
O2AC C1AC 1_555 1_555
O2TC Cu1C 1_555 1_555
O2N C1N 1_555 1_555
O2VB C1VB 1_555 1_555
O2GD Cu1N 1_555 1_555
O2C C1C 1_555 1_555
O2IC Cu1C 1_555 1_555
O2OF C1IC 1_555 1_555
O2U C1U 1_555 1_555
O2BC Cu1PA 1_555 1_555
O2DG C1BC 1_555 1_555
O2XD C1PA 1_555 1_555
O2MC Cu1GA 1_555 1_555
O2UF C1MC 1_555 1_555
O2IE Cu1PA 1_555 1_555
O2GA C1GA 1_555 1_555
O3A W1A 1_555 1_555
O3B W1B 1_555 1_555
O3C W1C 1_555 1_555
O3D W1D 1_555 1_555
O3J W1J 1_555 1_555
O3F W1F 1_555 1_555
O3I W1I 1_555 1_555
O3K W1K 1_555 1_555
O3E W1E 1_555 1_555
O3H W1H 1_555 1_555
O3G W1G 1_555 1_555
O4V Cu1V 1_555 1_555
O4Q Cu1Q 1_555 1_555
O4M Cu1M 1_555 1_555
O4A Cu1A 1_555 1_555
O4K Cu1K 1_555 1_555
O4D Cu1D 1_555 1_555
O4L Cu1L 1_555 1_555
O4QB Cu1QB 1_555 1_555
O4N Cu1N 1_555 1_555
O4C Cu1C 1_555 1_555
O4BB Cu1BB 1_555 1_555
O4GA Cu1GA 1_555 1_555
O4PA Cu1PA 1_555 1_555
W1K O1 1_555 1_555
W1E O1K 1_555 1_555
W1F O1M 1_555 1_555
W1I O5 1_555 1_555
W1A O5A 1_555 1_555
W1H O1A 1_555 1_555
W1G O1H 1_555 1_555
W1D O1L 1_555 1_555
W1J O1W 1_555 1_555
W1B O1B 1_555 1_555
W1C O1C 1_555 1_555
C2Q H1Q 1_555 1_555
C2K H1K 1_555 1_555
C2FC H1FC 1_555 1_555
C2JC H1JC 1_555 1_555
C2NC H1NC 1_555 1_555
C2A H1A 1_555 1_555
C2F H1F 1_555 1_555
C2AB H1AB 1_555 1_555
C2YA H1YA 1_555 1_555
C2FB H1FB 1_555 1_555
C2O H1O 1_555 1_555
C2V H1V 1_555 1_555
C2UA H1UA 1_555 1_555
C2KA H1KA 1_555 1_555
C2PA H1PA 1_555 1_555
C2D H1D 1_555 1_555
C2H C3 1_555 1_555
C2VB H1VB 1_555 1_555
C2IC C3IC 1_555 1_555
C2PC C3IC 1_555 1_555
C2J C3C 1_555 1_555
C2C C3C 1_555 1_555
C2U H1U 1_555 1_555
C2S H1S 1_555 1_555
C2N H1N 1_555 1_555
C2CC H1CC 1_555 1_555
C2AC H1AC 1_555 1_555
C2BB C3BB 1_555 1_555
C2WA C3BB 1_555 1_555
C2EA C3GA 1_555 1_555
C2GA C3GA 1_555 1_555
C2MC C3MC 1_555 1_555
C2HC C3MC 1_555 1_555
C2BC C3BC 1_555 1_555
C2XB C3BC 1_555 1_555
H1H C2H 1_555 1_555
C3D C2 1_555 1_555
C3V C1V 1_555 1_555
C3Q C1Q 1_555 1_555
C3K C1K 1_555 1_555
C3A C1A 1_555 1_555
C3FC C1FC 1_555 1_555
C3JC C1JC 1_555 1_555
C3NC C1NC 1_555 1_555
C3F C2A 1_555 1_555
C3LB C1LB 1_555 1_555
C3FB C1FB 1_555 1_555
C3AB C1AB 1_555 1_555
C3YA C2YA 1_555 1_555
C3O C2O 1_555 1_555
C3CA C1CA 1_555 1_555
C3UA C1UA 1_555 1_555
C3KA C1KA 1_555 1_555
C3PA C1PA 1_555 1_555
C3H C2D 1_555 1_555
C3GC C1GC 1_555 1_555
C3AC C1AC 1_555 1_555
C3VB C1VB 1_555 1_555
C3IC C1IC 1_555 1_555
C3C C1C 1_555 1_555
C3N C1N 1_555 1_555
C3U C1U 1_555 1_555
C3S C2S 1_555 1_555
C3CC C2CC 1_555 1_555
C3QB C1QB 1_555 1_555
C3BB C1BB 1_555 1_555
C3GA C1GA 1_555 1_555
C3MC C1MC 1_555 1_555
C3BC C1BC 1_555 1_555
O5M P1 1_555 1_555
O5A P1 1_555 1_555
O5L P1 1_555 1_555
O5B P1 1_555 1_555
O5N P1 1_555 1_555
O5C P1 1_555 1_555
O5O P1 1_555 1_555
C4D N1 1_555 1_555
C4H N1 1_555 1_555
C4HA N1 1_555 1_555
W1 O5M 1_555 1_555
C2 C3 1_555 1_555
O5 O5M 1_555 1_555
O5 O5N 1_555 1_555
O5 O5O 1_555 1_555
C1D C3D 1_555 1_555
Cu1L O2ED 1_555 1_555
Cu1D O2LE 1_555 1_555
Cu1V O2OD 1_555 1_555
Cu1V O2V 1_555 1_555
Cu1K O2LB 1_555 1_555
Cu1Q O2Q 1_555 1_555
Cu1Q O2HD 1_555 1_555
Cu1M O2DD 1_555 1_555
Cu1BB O2UE 1_555 1_555
Cu1QB O2RF 1_555 1_555
Cu1QB O2AC 1_555 1_555
Cu1C O2C 1_555 1_555
Cu1N O2VB 1_555 1_555
Cu1N O2OF 1_555 1_555
Cu1PA O2UF 1_555 1_555
Cu1GA O2XD 1_555 1_555
Cu1GA O2GA 1_555 1_555
O1E W1E 1_555 1_555
O1T W1I 1_555 1_555
O1S W1I 1_555 1_555
O1G W1G 1_555 1_555
O1Q W1J 1_555 1_555
O1J W1J 1_555 1_555
O1F W1B 1_555 1_555
O1N W1B 1_555 1_555
O1V W1H 1_555 1_555
O1R W1B 1_555 1_555
O1I W1D 1_555 1_555
O1D W1C 1_555 1_555
O1O W1C 1_555 1_555
O1U W1G 1_555 1_555
O1P W1C 1_555 1_555
W1K O5M 1_555 1_555
W1K O5C 1_555 1_555
W1E O5M 1_555 1_555
W1E O5B 1_555 1_555
W1F O5N 1_555 1_555
W1I O5O 1_555 1_555
W1A O5L 1_555 1_555
W1H O5L 1_555 1_555
W1H O5B 1_555 1_555
W1G O5L 1_555 1_555
W1G O5C 1_555 1_555
W1D O5A 1_555 1_555
W1D O5O 1_555 1_555
W1J O5A 1_555 1_555
W1J O5N 1_555 1_555
W1B O5B 1_555 1_555
W1B O5N 1_555 1_555
W1C O5C 1_555 1_555
W1C O5O 1_555 1_555
C2Q C3V 1_555 1_555
C2Q C3Q 1_555 1_555
C2K C3K 1_555 1_555
C2K C3A 1_555 1_555
C2FC C3FC 1_555 1_555
C2FC C3JC 1_555 1_555
C2JC C3JC 1_555 1_555
C2JC C3NC 1_555 1_555
C2NC C3FC 1_555 1_555
C2NC C3NC 1_555 1_555
C2A C3A 1_555 1_555
C2F C3K 1_555 1_555
C2F C3F 1_555 1_555
C2AB C3FB 1_555 1_555
C2AB C3AB 1_555 1_555
C2YA C3AB 1_555 1_555
C2FB C3FB 1_555 1_555
C2FB C3YA 1_555 1_555
C2O C3Q 1_555 1_555
C2V C3V 1_555 1_555
C2V C3O 1_555 1_555
C2UA C3UA 1_555 1_555
C2UA C3KA 1_555 1_555
C2KA C3KA 1_555 1_555
C2KA C3PA 1_555 1_555
C2PA C3UA 1_555 1_555
C2PA C3PA 1_555 1_555
C2D C3D 1_555 1_555
C2H C3H 1_555 1_555
C2VB C3AC 1_555 1_555
C2VB C3VB 1_555 1_555
C2U C3N 1_555 1_555
C2U C3U 1_555 1_555
C2S C3U 1_555 1_555
C2N C3N 1_555 1_555
C2N C3S 1_555 1_555
C2CC C3VB 1_555 1_555
C2AC C3AC 1_555 1_555
C2AC C3CC 1_555 1_555
O5M O5B 1_555 1_555
O5M O5C 1_555 1_555
O5A O5L 1_555 1_555
O5A O5N 1_555 1_555
O5A O5O 1_555 1_555
O5L O5B 1_555 1_555
O5L O5C 1_555 1_555
O5B O5N 1_555 1_555
O5C O5O 1_555 1_555

#END
