
#######################################################################
#
#                 Cambridge Crystallographic Data Centre
#                                CCDC 
#
#######################################################################
#
# If this CIF has been generated from an entry in the Cambridge 
# Structural Database, then it will include bibliographic, chemical, 
# crystal, experimental, refinement or atomic coordinate data resulting 
# from the CCDC's data processing and validation procedures.
#
#######################################################################

data_SETDUS
_chemical_formula_moiety         '(C8 H10 Br1 Cu1 N6 1+)n,0.5n(O4 S1 2-)'
_chemical_name_systematic        
"catena-[(\m~4~-4,4'-But-2-ene-1,4-diyl)-bis(4H-1,2,4-triazole)-(\m~2~-bromo)-copper hemikis(sulfate)]"
_symmetry_cell_setting           monoclinic
_symmetry_space_group_name_H-M   'C 2/c'
_symmetry_Int_Tables_number      15
_space_group_name_Hall           '-C 2yc'
loop_
_symmetry_equiv_pos_site_id
_symmetry_equiv_pos_as_xyz
1 x,y,z
2 -x,y,1/2-z
3 1/2+x,1/2+y,z
4 1/2-x,1/2+y,1/2-z
5 -x,-y,-z
6 x,-y,1/2+z
7 1/2-x,1/2-y,-z
8 1/2+x,1/2-y,1/2+z
_cell_length_a                   12.813(6)
_cell_length_b                   18.557(8)
_cell_length_c                   7.259(3)
_cell_angle_alpha                90
_cell_angle_beta                 111.973(5)
_cell_angle_gamma                90
_cell_volume                     1600.6
_exptl_crystal_colour            blue
_exptl_crystal_description       needle
_cell_formula_units_Z            4
loop_
_atom_site_label
_atom_site_type_symbol
_atom_site_fract_x
_atom_site_fract_y
_atom_site_fract_z
_atom_site_U_iso_or_equiv
_atom_site_thermal_displace_type
O1 O 0.363(4) 0.912(3) 0.490(9) 0.0520 Uiso
S1 S 0.450(3) 0.9645(17) 0.555(6) 0.1230 Uiso
O2 O 0.435(5) 1.013(3) 0.389(8) 0.0520 Uiso
O3 O 0.562(3) 0.932(3) 0.616(8) 0.0520 Uiso
O1D O 0.637(4) 1.088(3) 0.510(9) 0.0520 Uiso
S1D S 0.550(3) 1.0355(17) 0.445(6) 0.1230 Uiso
O2D O 0.565(5) 0.987(3) 0.611(8) 0.0520 Uiso
O3D O 0.438(3) 1.068(3) 0.384(8) 0.0520 Uiso
Cu1 Cu 0.0000 0.0000 0.0000 0.0243 Uani
Br1 Br 0.0000 -0.1197(2) 0.2500 0.0750 Uani
N1 N 0.1146(17) 0.0484(10) 0.235(3) 0.0390 Uiso
N2 N 0.1180(16) 0.0448(10) 0.423(3) 0.0360 Uiso
C1 C 0.198(3) 0.0886(16) 0.245(5) 0.0650 Uiso
H1 H 0.2162 0.1001 0.1325 0.0780 Uiso
N3 N 0.258(2) 0.1127(13) 0.426(4) 0.0700 Uiso
C2 C 0.205(2) 0.0847(16) 0.537(5) 0.0630 Uiso
H2 H 0.2269 0.0919 0.6759 0.0750 Uiso
C3 C 0.297(2) 0.2398(19) 0.516(5) 0.0710 Uiso
H3 H 0.3508 0.2775 0.5581 0.0850 Uiso
C4 C 0.347(3) 0.1713(18) 0.504(6) 0.1100 Uiso
H4 H 0.4012 0.1576 0.6373 0.1320 Uiso
H5 H 0.3892 0.1756 0.4144 0.1320 Uiso
N1F N 0.3854(17) 0.4516(10) 0.765(3) 0.0390 Uiso
N2F N 0.3820(16) 0.4552(10) 0.577(3) 0.0360 Uiso
C1F C 0.302(3) 0.4114(16) 0.755(5) 0.0650 Uiso
H1F H 0.2838 0.3999 0.8675 0.0780 Uiso
N3F N 0.242(2) 0.3873(13) 0.574(4) 0.0700 Uiso
C2F C 0.295(2) 0.4153(16) 0.463(5) 0.0630 Uiso
H2F H 0.2731 0.4081 0.3241 0.0750 Uiso
C3F C 0.203(2) 0.2602(19) 0.484(5) 0.0710 Uiso
H3F H 0.1492 0.2225 0.4419 0.0850 Uiso
C4F C 0.153(3) 0.3287(18) 0.496(6) 0.1100 Uiso
H4F H 0.0988 0.3424 0.3627 0.1320 Uiso
H5F H 0.1108 0.3244 0.5856 0.1320 Uiso
Cu1A Cu 0.0000 0.0000 0.5000 0.0243 Uani
Cu1B Cu 0.5000 0.5000 1.0000 0.0243 Uani
Cu1C Cu 0.5000 0.5000 0.5000 0.0243 Uani
Br1D Br 0.0000 0.1197(2) -0.2500 0.0750 Uani
N1D N -0.1146(17) -0.0484(10) -0.235(3) 0.0390 Uiso
N2A N -0.1180(16) 0.0448(10) 0.077(3) 0.0360 Uiso
N2E N 0.1180(16) -0.0448(10) -0.077(3) 0.0360 Uiso
O4? O 0.448(4) 1.008(3) 0.728(7) 0.0520 Uiso
loop_
_atom_site_aniso_label
_atom_site_aniso_U_11
_atom_site_aniso_U_22
_atom_site_aniso_U_33
_atom_site_aniso_U_23
_atom_site_aniso_U_13
_atom_site_aniso_U_12
Cu1 0.046(3) 0.010(3) 0.020(3) -0.0040(17) 0.016(2) 0.0054(19)
Br1 0.136(5) 0.054(4) 0.044(3) 0.000 0.044(3) 0.000
Cu1A 0.046 0.01 0.02 0.004 0.016 -0.0054
Cu1B 0.046 0.01 0.02 -0.004 0.016 0.0054
Cu1C 0.046 0.01 0.02 0.004 0.016 -0.0054
Br1D 0.136 0.054 0.044 0 0.044 0
loop_
_geom_bond_atom_site_label_1
_geom_bond_atom_site_label_2
_geom_bond_site_symmetry_1
_geom_bond_site_symmetry_2
Cu1 Br1 1_555 1_555
Br1 Cu1A 1_555 1_555
N1 Cu1 1_555 1_555
N2 N1 1_555 1_555
C1 N1 1_555 1_555
H1 C1 1_555 1_555
N3 C1 1_555 1_555
C2 N2 1_555 1_555
H2 C2 1_555 1_555
C3 H3 1_555 1_555
C4 N3 1_555 1_555
H4 C4 1_555 1_555
H5 C4 1_555 1_555
O1 S1 1_555 1_555
S1 O2 1_555 1_555
O2 S1D 1_555 1_555
O3 S1 1_555 1_555
N1F N2F 1_555 1_555
N2F C2F 1_555 1_555
C1F N1F 1_555 1_555
H1F C1F 1_555 1_555
N3F C1F 1_555 1_555
C2F N3F 1_555 1_555
H2F C2F 1_555 1_555
C3F C3 1_555 1_555
H3F C3F 1_555 1_555
C4F N3F 1_555 1_555
H4F C4F 1_555 1_555
H5F C4F 1_555 1_555
Cu1A N2 1_555 1_555
Cu1B N1F 1_555 1_555
Cu1C N2F 1_555 1_555
Br1D Cu1 1_555 1_555
N1D Cu1 1_555 1_555
N2A Cu1 1_555 1_555
N2E Cu1 1_555 1_555
O1D S1D 1_555 1_555
S1D S1 1_555 1_555
O2D S1 1_555 1_555
O3D O2 1_555 1_555
N3 C2 1_555 1_555
C3 C4 1_555 1_555
O3 O2D 1_555 1_555
C3F C4F 1_555 1_555
S1D O2D 1_555 1_555
S1D O3D 1_555 1_555

#END
