
#######################################################################
#
#                 Cambridge Crystallographic Data Centre
#                                CCDC 
#
#######################################################################
#
# If this CIF has been generated from an entry in the Cambridge 
# Structural Database, then it will include bibliographic, chemical, 
# crystal, experimental, refinement or atomic coordinate data resulting 
# from the CCDC's data processing and validation procedures.
#
#######################################################################

data_MUDLON
_chemical_formula_moiety         
'(C40 H28 Mg1 N2 O10)n,6n(C3 H7 N1 O1),6n(H2 O1)'
_chemical_name_systematic        
"catena-((\m~4~-N,N,N',N'-tetrakis(4-carboxylatophenyl)biphenyl-4,4'-diamine radical cation)-diaqua-magnesium N,N-dimethylformamide solvate hexahydrate)"
_symmetry_cell_setting           orthorhombic
_symmetry_space_group_name_H-M   'I m m a'
_symmetry_Int_Tables_number      74
_space_group_name_Hall           '-I 2b 2'
loop_
_symmetry_equiv_pos_site_id
_symmetry_equiv_pos_as_xyz
1 x,y,z
2 -x,1/2-y,z
3 x,-y,-z
4 -x,1/2+y,-z
5 1/2+x,1/2+y,1/2+z
6 1/2-x,-y,1/2+z
7 1/2+x,1/2-y,1/2-z
8 1/2-x,y,1/2-z
9 -x,-y,-z
10 x,1/2+y,-z
11 -x,y,z
12 x,1/2-y,z
13 1/2-x,1/2-y,1/2-z
14 1/2+x,y,1/2-z
15 1/2-x,1/2+y,1/2+z
16 1/2+x,-y,1/2+z
_cell_length_a                   25.16(2)
_cell_length_b                   36.592(18)
_cell_length_c                   15.7272(18)
_cell_angle_alpha                90
_cell_angle_beta                 90
_cell_angle_gamma                90
_cell_volume                     14479.3
_exptl_crystal_colour            yellow
_exptl_crystal_description       plate
_cell_formula_units_Z            8
loop_
_atom_site_label
_atom_site_type_symbol
_atom_site_fract_x
_atom_site_fract_y
_atom_site_fract_z
_atom_site_U_iso_or_equiv
_atom_site_thermal_displace_type
C1 C 0.28885(19) 0.10066(15) 0.0468(4) 0.0727 Uani
C2 C 0.31264(19) 0.06817(14) 0.0656(3) 0.0670 Uani
H1 H 0.3014 0.0548 0.1125 0.0800 Uiso
C3 C 0.35343(19) 0.05500(15) 0.0150(4) 0.0760 Uani
H2 H 0.3690 0.0327 0.0286 0.0910 Uiso
C4 C 0.3713(2) 0.07368(18) -0.0538(4) 0.0793 Uani
C5 C 0.3460(2) 0.10687(16) -0.0737(4) 0.1020 Uani
H3 H 0.3567 0.1200 -0.1213 0.1220 Uiso
C6 C 0.3052(2) 0.12023(18) -0.0227(4) 0.1093 Uani
H4 H 0.2890 0.1424 -0.0358 0.1310 Uiso
C7 C 0.4140(2) 0.06179(19) -0.1123(5) 0.0907 Uani
C8 C 0.2046(2) 0.09049(16) 0.1257(5) 0.0780 Uani
C9 C 0.1870(2) 0.06516(18) 0.0692(4) 0.0917 Uani
H5 H 0.2010 0.0643 0.0145 0.1100 Uiso
C10 C 0.1475(2) 0.04025(16) 0.0943(4) 0.0877 Uani
H6 H 0.1379 0.0212 0.0581 0.1050 Uiso
C11 C 0.12276(19) 0.04383(17) 0.1724(4) 0.0730 Uani
C12 C 0.13999(19) 0.07154(16) 0.2265(4) 0.0757 Uani
H7 H 0.1241 0.0742 0.2796 0.0900 Uiso
C13 C 0.1802(2) 0.09520(16) 0.2029(4) 0.0867 Uani
H8 H 0.1906 0.1140 0.2389 0.1040 Uiso
C14 C 0.0783(2) 0.01977(17) 0.2039(6) 0.0870 Uani
C15 C 0.2452(2) 0.15275(16) 0.1138(4) 0.0813 Uani
C16 C 0.2900(2) 0.17219(16) 0.1317(5) 0.1017 Uani
H9 H 0.3222 0.1600 0.1372 0.1220 Uiso
C17 C 0.2883(2) 0.20953(19) 0.1419(4) 0.1003 Uani
H10 H 0.3193 0.2217 0.1575 0.1210 Uiso
C18 C 0.2420(3) 0.22988(15) 0.1297(4) 0.0893 Uani
C19 C 0.1973(3) 0.21040(18) 0.1165(5) 0.1153 Uani
H11 H 0.1650 0.2227 0.1149 0.1380 Uiso
C20 C 0.1974(3) 0.17130(17) 0.1047(5) 0.1143 Uani
H12 H 0.1662 0.1588 0.0915 0.1370 Uiso
Mg1 Mg 0.5000 0.00513(7) -0.16388(15) 0.0643 Uani
N1 N 0.24640(16) 0.11443(12) 0.0984(3) 0.0863 Uani
O1 O 0.05951(13) 0.02194(11) 0.2735(3) 0.0777 Uani
O2 O 0.06352(17) -0.00272(16) 0.1433(3) 0.1317 Uani
O3 O 0.44082(12) 0.03320(11) -0.0910(2) 0.0737 Uani
O4 O 0.4209(2) 0.07906(15) -0.1796(4) 0.1603 Uani
O5 O 0.5000 0.04776(13) -0.2536(3) 0.0773 Uani
O6 O 0.5000 -0.03321(12) -0.0653(3) 0.0633 Uani
C1K C 0.28885(19) 0.39934(15) 0.0468(4) 0.0727 Uani
C2K C 0.31264(19) 0.43183(14) 0.0656(3) 0.0670 Uani
H1K H 0.3014 0.4452 0.1125 0.0800 Uiso
C3K C 0.35343(19) 0.44500(15) 0.0150(4) 0.0760 Uani
H2K H 0.3690 0.4673 0.0286 0.0910 Uiso
C4K C 0.3713(2) 0.42632(18) -0.0538(4) 0.0793 Uani
C5K C 0.3460(2) 0.39313(16) -0.0737(4) 0.1020 Uani
H3K H 0.3567 0.3800 -0.1213 0.1220 Uiso
C6K C 0.3052(2) 0.37977(18) -0.0227(4) 0.1093 Uani
H4K H 0.2890 0.3576 -0.0358 0.1310 Uiso
C7K C 0.4140(2) 0.43821(19) -0.1123(5) 0.0907 Uani
C8K C 0.2046(2) 0.40951(16) 0.1257(5) 0.0780 Uani
C9K C 0.1870(2) 0.43484(18) 0.0692(4) 0.0917 Uani
H5K H 0.2010 0.4357 0.0145 0.1100 Uiso
C10K C 0.1475(2) 0.45975(16) 0.0943(4) 0.0877 Uani
H6K H 0.1379 0.4788 0.0581 0.1050 Uiso
C11K C 0.12276(19) 0.45617(17) 0.1724(4) 0.0730 Uani
C12K C 0.13999(19) 0.42846(16) 0.2265(4) 0.0757 Uani
H7K H 0.1241 0.4258 0.2796 0.0900 Uiso
C13K C 0.1802(2) 0.40480(16) 0.2029(4) 0.0867 Uani
H8K H 0.1906 0.3860 0.2389 0.1040 Uiso
C14K C 0.0783(2) 0.48023(17) 0.2039(6) 0.0870 Uani
C15K C 0.2452(2) 0.34725(16) 0.1138(4) 0.0813 Uani
C16K C 0.2900(2) 0.32781(16) 0.1317(5) 0.1017 Uani
H9K H 0.3222 0.3400 0.1372 0.1220 Uiso
C17K C 0.2883(2) 0.29047(19) 0.1419(4) 0.1003 Uani
H10K H 0.3193 0.2783 0.1575 0.1210 Uiso
C18K C 0.2420(3) 0.27012(15) 0.1297(4) 0.0893 Uani
C19K C 0.1973(3) 0.28960(18) 0.1165(5) 0.1153 Uani
H11K H 0.1650 0.2773 0.1149 0.1380 Uiso
C20K C 0.1974(3) 0.32870(17) 0.1047(5) 0.1143 Uani
H12K H 0.1662 0.3412 0.0915 0.1370 Uiso
Mg1E Mg 0.0000 -0.00513(7) 0.33612(15) 0.0643 Uani
Mg1A Mg 0.5000 0.49487(7) -0.16388(15) 0.0643 Uani
Mg1D Mg 0.0000 0.50513(7) 0.33612(15) 0.0643 Uani
N1K N 0.24640(16) 0.38557(12) 0.0984(3) 0.0863 Uani
O1K O 0.05951(13) 0.47806(11) 0.2735(3) 0.0777 Uani
O1E O 0.44049(13) -0.02194(11) -0.2265(3) 0.0777 Uani
O1O O 0.55951(13) -0.02194(11) -0.2265(3) 0.0777 Uani
O2K O 0.06352(17) 0.50272(16) 0.1433(3) 0.1317 Uani
O3K O 0.44082(12) 0.46680(11) -0.0910(2) 0.0737 Uani
O3J O 0.55918(12) 0.03320(11) -0.0910(2) 0.0737 Uani
O4K O 0.4209(2) 0.42094(15) -0.1796(4) 0.1603 Uani
loop_
_atom_site_aniso_label
_atom_site_aniso_U_11
_atom_site_aniso_U_22
_atom_site_aniso_U_33
_atom_site_aniso_U_23
_atom_site_aniso_U_13
_atom_site_aniso_U_12
C1 0.062(3) 0.062(4) 0.094(5) 0.017(4) 0.021(3) 0.009(3)
C2 0.067(3) 0.069(4) 0.065(4) 0.006(3) 0.014(3) 0.004(3)
C3 0.062(3) 0.073(4) 0.093(5) -0.004(4) 0.002(3) 0.003(3)
C4 0.079(4) 0.096(5) 0.063(4) 0.004(4) 0.012(3) 0.014(4)
C5 0.106(4) 0.085(4) 0.115(6) 0.040(4) 0.058(4) 0.033(4)
C6 0.107(5) 0.107(5) 0.114(6) 0.056(5) 0.055(4) 0.053(4)
C7 0.076(4) 0.090(5) 0.106(6) -0.001(4) 0.031(4) 0.023(4)
C8 0.070(4) 0.061(4) 0.103(6) 0.008(4) 0.025(4) -0.015(3)
C9 0.106(5) 0.100(5) 0.069(5) 0.009(4) 0.036(4) -0.007(4)
C10 0.100(4) 0.081(4) 0.082(5) -0.015(4) 0.018(4) -0.019(4)
C11 0.058(3) 0.089(4) 0.072(5) 0.000(4) 0.023(3) -0.006(3)
C12 0.066(3) 0.086(4) 0.075(5) 0.004(4) 0.025(3) -0.011(3)
C13 0.085(4) 0.080(4) 0.095(5) -0.019(4) 0.037(4) -0.009(3)
C14 0.068(4) 0.080(5) 0.113(7) -0.010(5) -0.018(4) -0.009(3)
C15 0.073(4) 0.068(4) 0.103(5) 0.009(4) 0.038(3) 0.019(4)
C16 0.074(4) 0.050(4) 0.181(7) 0.013(4) -0.001(4) -0.008(3)
C17 0.084(4) 0.087(5) 0.130(6) -0.006(4) -0.018(4) -0.009(4)
C18 0.082(4) 0.067(3) 0.119(5) -0.004(3) 0.032(4) -0.017(3)
C19 0.109(5) 0.075(5) 0.162(7) 0.002(5) 0.024(5) 0.022(4)
C20 0.108(5) 0.063(5) 0.172(8) -0.011(4) 0.028(5) -0.010(4)
Mg1 0.0517(13) 0.0856(18) 0.0557(17) -0.0045(14) 0.000 0.000
N1 0.067(3) 0.061(3) 0.131(5) 0.009(3) 0.036(3) 0.008(3)
O1 0.066 0.104 0.063 -0.01 0.024 -0.0068
O2 0.111(3) 0.177(5) 0.107(4) -0.003(4) 0.026(3) -0.069(3)
O3 0.063(2) 0.096(3) 0.062(3) 0.006(2) 0.0098(17) 0.021(2)
O4 0.156(4) 0.190(6) 0.135(5) 0.091(4) 0.090(4) 0.094(4)
O5 0.082(3) 0.084(3) 0.066(4) 0.017(3) 0.000 0.000
O6 0.067(3) 0.065(3) 0.058(3) 0.003(3) 0.000 0.000
C1K 0.062 0.062 0.094 -0.017 0.021 -0.009
C2K 0.067 0.069 0.065 -0.006 0.014 -0.004
C3K 0.062 0.073 0.093 0.004 0.002 -0.003
C4K 0.079 0.096 0.063 -0.004 0.012 -0.014
C5K 0.106 0.085 0.115 -0.04 0.058 -0.033
C6K 0.107 0.107 0.114 -0.056 0.055 -0.053
C7K 0.076 0.09 0.106 0.001 0.031 -0.023
C8K 0.07 0.061 0.103 -0.008 0.025 0.015
C9K 0.106 0.1 0.069 -0.009 0.036 0.007
C10K 0.1 0.081 0.082 0.015 0.018 0.019
C11K 0.058 0.089 0.072 0 0.023 0.006
C12K 0.066 0.086 0.075 -0.004 0.025 0.011
C13K 0.085 0.08 0.095 0.019 0.037 0.009
C14K 0.068 0.08 0.113 0.01 -0.018 0.009
C15K 0.073 0.068 0.103 -0.009 0.038 -0.019
C16K 0.074 0.05 0.181 -0.013 -0.001 0.008
C17K 0.084 0.087 0.13 0.006 -0.018 0.009
C18K 0.082 0.067 0.119 0.004 0.032 0.017
C19K 0.109 0.075 0.162 -0.002 0.024 -0.022
C20K 0.108 0.063 0.172 0.011 0.028 0.01
Mg1E 0.0517 0.0856 0.0557 0.0045 0 0
Mg1A 0.0517 0.0856 0.0557 0.0045 0 0
Mg1D 0.0517 0.0856 0.0557 -0.0045 0 0
N1K 0.067 0.061 0.131 -0.009 0.036 -0.008
O1K 0.066 0.104 0.063 0.01 0.024 0.0068
O1E 0.066 0.104 0.063 0.01 -0.024 -0.0068
O1O 0.066 0.104 0.063 0.01 0.024 0.0068
O2K 0.111 0.177 0.107 0.003 0.026 0.069
O3K 0.063 0.096 0.062 -0.006 0.0098 -0.021
O3J 0.063 0.096 0.062 0.006 -0.0098 -0.021
O4K 0.156 0.19 0.135 -0.091 0.09 -0.094
loop_
_geom_bond_atom_site_label_1
_geom_bond_atom_site_label_2
_geom_bond_site_symmetry_1
_geom_bond_site_symmetry_2
C1 C2 1_555 1_555
C2 H1 1_555 1_555
C3 C2 1_555 1_555
H2 C3 1_555 1_555
C4 C3 1_555 1_555
C5 C4 1_555 1_555
H3 C5 1_555 1_555
C6 C1 1_555 1_555
H4 C6 1_555 1_555
C7 C4 1_555 1_555
C8 C9 1_555 1_555
C9 H5 1_555 1_555
C10 C9 1_555 1_555
H6 C10 1_555 1_555
C11 C10 1_555 1_555
C12 C11 1_555 1_555
H7 C12 1_555 1_555
C13 C8 1_555 1_555
H8 C13 1_555 1_555
C14 C11 1_555 1_555
C15 C16 1_555 1_555
C16 H9 1_555 1_555
C17 C16 1_555 1_555
H10 C17 1_555 1_555
C18 C17 1_555 1_555
C19 C18 1_555 1_555
H11 C19 1_555 1_555
C20 C15 1_555 1_555
H12 C20 1_555 1_555
Mg1 O3 1_555 1_555
N1 C1 1_555 1_555
O1 C14 1_555 1_555
O2 C14 1_555 1_555
O3 C7 1_555 1_555
O4 C7 1_555 1_555
O5 Mg1 1_555 1_555
O6 Mg1 1_555 1_555
C1K C2K 1_555 1_555
C2K H1K 1_555 1_555
C3K C2K 1_555 1_555
H2K C3K 1_555 1_555
C4K C3K 1_555 1_555
C5K C4K 1_555 1_555
H3K C5K 1_555 1_555
C6K C1K 1_555 1_555
H4K C6K 1_555 1_555
C7K C4K 1_555 1_555
C8K C9K 1_555 1_555
C9K H5K 1_555 1_555
C10K C9K 1_555 1_555
H6K C10K 1_555 1_555
C11K C10K 1_555 1_555
C12K C11K 1_555 1_555
H7K C12K 1_555 1_555
C13K C8K 1_555 1_555
H8K C13K 1_555 1_555
C14K C11K 1_555 1_555
C15K C16K 1_555 1_555
C16K H9K 1_555 1_555
C17K C16K 1_555 1_555
H10K C17K 1_555 1_555
C18K C18 1_555 1_555
C19K C18K 1_555 1_555
H11K C19K 1_555 1_555
C20K C15K 1_555 1_555
H12K C20K 1_555 1_555
Mg1E O1 1_555 1_555
Mg1A O3K 1_555 1_555
Mg1D O1K 1_555 1_555
N1K C1K 1_555 1_555
O1K C14K 1_555 1_555
O1E Mg1 1_555 1_555
O1O Mg1 1_555 1_555
O2K C14K 1_555 1_555
O3K C7K 1_555 1_555
O3J Mg1 1_555 1_555
O4K C7K 1_555 1_555
C5 C6 1_555 1_555
C8 N1 1_555 1_555
C12 C13 1_555 1_555
C15 N1 1_555 1_555
C19 C20 1_555 1_555
C5K C6K 1_555 1_555
C8K N1K 1_555 1_555
C12K C13K 1_555 1_555
C15K N1K 1_555 1_555
C17K C18K 1_555 1_555
C19K C20K 1_555 1_555

#END
