
#######################################################################
#
#                 Cambridge Crystallographic Data Centre
#                                CCDC 
#
#######################################################################
#
# If this CIF has been generated from an entry in the Cambridge 
# Structural Database, then it will include bibliographic, chemical, 
# crystal, experimental, refinement or atomic coordinate data resulting 
# from the CCDC's data processing and validation procedures.
#
#######################################################################

data_HUMWIX
_chemical_name_common            UPC-16
_chemical_formula_moiety         
'(H3 O1 1+)3n,n(C264 H288 B8 Cl3 Cu10 Mn2 O48 3-),9n(C3 H7 N1 O1),4n(C4 H8 O2),27n(H2 O1)'
_chemical_name_systematic        
'catena-[tris(Oxonium) octakis(\m~6~-tris(4-carboxylato-2,3,5,6-tetramethylphenyl)borane)-tris(\m~4~-chloro)-deca-copper-di-manganese N,N-dimethylformamide 1,4-dioxane solvate hydrate]'
_symmetry_cell_setting           cubic
_symmetry_space_group_name_H-M   'P 4 3 2'
_symmetry_Int_Tables_number      207
_space_group_name_Hall           'P 4 2 3'
loop_
_symmetry_equiv_pos_site_id
_symmetry_equiv_pos_as_xyz
1 x,y,z
2 -x,-y,z
3 -x,y,-z
4 x,-y,-z
5 z,x,y
6 z,-x,-y
7 -z,-x,y
8 -z,x,-y
9 y,z,x
10 -y,z,-x
11 y,-z,-x
12 -y,-z,x
13 y,x,-z
14 -y,-x,-z
15 y,-x,z
16 -y,x,z
17 x,z,-y
18 -x,z,y
19 -x,-z,-y
20 x,-z,y
21 z,y,-x
22 z,-y,x
23 -z,y,x
24 -z,-y,-x
_cell_length_a                   22.7098(2)
_cell_length_b                   22.7098(2)
_cell_length_c                   22.7098(2)
_cell_angle_alpha                90
_cell_angle_beta                 90
_cell_angle_gamma                90
_cell_volume                     11712.2
_exptl_crystal_colour            colorless
_exptl_crystal_description       block
_cell_formula_units_Z            1
loop_
_atom_site_label
_atom_site_type_symbol
_atom_site_fract_x
_atom_site_fract_y
_atom_site_fract_z
Cu1 Cu 0.5000 0.38860(4) 0.0000
Cl1 Cl 0.5000 0.5000 0.0000
O1 O 0.45066(18) 0.3799(2) 0.06952(17)
C1 C 0.3151(3) 0.3160(3) 0.23028(19)
C2 C 0.3975(3) 0.3977(3) 0.08111(19)
B1 B 0.2866(3) 0.2866(3) 0.2866(3)
C3 C 0.3685(3) 0.3689(3) 0.13300(18)
C4 C 0.3498(3) 0.3099(3) 0.1295(2)
C5 C 0.3341(3) 0.3773(3) 0.2328(2)
C6 C 0.3621(3) 0.4018(2) 0.1846(3)
C7 C 0.3235(3) 0.2847(2) 0.1788(3)
C8 C 0.3044(3) 0.2209(2) 0.1732(3)
H1 H 0.3007 0.2039 0.2118
H2 H 0.3332 0.1994 0.1511
H3 H 0.2671 0.2190 0.1534
C9 C 0.3235(3) 0.4152(3) 0.2869(2)
H4 H 0.2830 0.4123 0.2984
H5 H 0.3328 0.4554 0.2779
H6 H 0.3481 0.4018 0.3185
C10 C 0.3572(3) 0.2760(3) 0.0720(3)
H7 H 0.3193 0.2638 0.0579
H8 H 0.3813 0.2419 0.0788
H9 H 0.3757 0.3008 0.0433
C11 C 0.3851(3) 0.4652(2) 0.1874(3)
H10 H 0.4096 0.4698 0.2215
H11 H 0.3525 0.4919 0.1898
H12 H 0.4077 0.4735 0.1526
O2 O 0.36914(18) 0.43359(18) 0.05242(16)
O1D O 0.06952(17) 0.45066(18) 0.3799(2)
C1D C 0.23028(19) 0.3151(3) 0.3160(3)
C2D C 0.08111(19) 0.3975(3) 0.3977(3)
C3D C 0.13300(18) 0.3685(3) 0.3689(3)
C4D C 0.1295(2) 0.3498(3) 0.3099(3)
C5D C 0.2328(2) 0.3341(3) 0.3773(3)
C6D C 0.1846(3) 0.3621(3) 0.4018(2)
C7D C 0.1788(3) 0.3235(3) 0.2847(2)
C8D C 0.1732(3) 0.3044(3) 0.2209(2)
H1D H 0.2118 0.3007 0.2039
H2D H 0.1511 0.3332 0.1994
H3D H 0.1534 0.2671 0.2190
C9D C 0.2869(2) 0.3235(3) 0.4152(3)
H4D H 0.2984 0.2830 0.4123
H5D H 0.2779 0.3328 0.4554
H6D H 0.3185 0.3481 0.4018
C10D C 0.0720(3) 0.3572(3) 0.2760(3)
H7D H 0.0579 0.3193 0.2638
H8D H 0.0788 0.3813 0.2419
H9D H 0.0433 0.3757 0.3008
C11D C 0.1874(3) 0.3851(3) 0.4652(2)
H10D H 0.2215 0.4096 0.4698
H11D H 0.1898 0.3525 0.4919
H12D H 0.1526 0.4077 0.4735
O2D O 0.05242(16) 0.36914(18) 0.43359(18)
O1H O 0.3799(2) 0.06952(17) 0.45066(18)
C1H C 0.3160(3) 0.23028(19) 0.3151(3)
C2H C 0.3977(3) 0.08111(19) 0.3975(3)
C3H C 0.3689(3) 0.13300(18) 0.3685(3)
C4H C 0.3099(3) 0.1295(2) 0.3498(3)
C5H C 0.3773(3) 0.2328(2) 0.3341(3)
C6H C 0.4018(2) 0.1846(3) 0.3621(3)
C7H C 0.2847(2) 0.1788(3) 0.3235(3)
C8H C 0.2209(2) 0.1732(3) 0.3044(3)
H1H H 0.2039 0.2118 0.3007
H2H H 0.1994 0.1511 0.3332
H3H H 0.2190 0.1534 0.2671
C9H C 0.4152(3) 0.2869(2) 0.3235(3)
H4H H 0.4123 0.2984 0.2830
H5H H 0.4554 0.2779 0.3328
H6H H 0.4018 0.3185 0.3481
C10H C 0.2760(3) 0.0720(3) 0.3572(3)
H7H H 0.2638 0.0579 0.3193
H8H H 0.2419 0.0788 0.3813
H9H H 0.3008 0.0433 0.3757
C11H C 0.4652(2) 0.1874(3) 0.3851(3)
H10H H 0.4698 0.2215 0.4096
H11H H 0.4919 0.1898 0.3525
H12H H 0.4735 0.1526 0.4077
O2H O 0.43359(18) 0.05242(16) 0.36914(18)
Cu1A Cu 0.5000 0.61140(4) 0.0000
O1A O 0.54934(18) 0.6201(2) 0.06952(17)
C1A C 0.6849(3) 0.6840(3) 0.23028(19)
C2A C 0.6025(3) 0.6023(3) 0.08111(19)
B1A B 0.7134(3) 0.7134(3) 0.2866(3)
C3A C 0.6315(3) 0.6311(3) 0.13300(18)
C4A C 0.6502(3) 0.6901(3) 0.1295(2)
C5A C 0.6659(3) 0.6227(3) 0.2328(2)
C6A C 0.6379(3) 0.5982(2) 0.1846(3)
C7A C 0.6765(3) 0.7153(2) 0.1788(3)
C8A C 0.6956(3) 0.7791(2) 0.1732(3)
H1A H 0.6993 0.7961 0.2118
H2A H 0.6668 0.8006 0.1511
H3A H 0.7329 0.7810 0.1534
C9A C 0.6765(3) 0.5848(3) 0.2869(2)
H4A H 0.7170 0.5877 0.2984
H5A H 0.6672 0.5446 0.2779
H6A H 0.6519 0.5982 0.3185
C10A C 0.6428(3) 0.7240(3) 0.0720(3)
H7A H 0.6807 0.7362 0.0579
H8A H 0.6187 0.7581 0.0788
H9A H 0.6243 0.6992 0.0433
C11A C 0.6149(3) 0.5348(2) 0.1874(3)
H10A H 0.5904 0.5302 0.2215
H11A H 0.6475 0.5081 0.1898
H12A H 0.5923 0.5265 0.1526
O2A O 0.63086(18) 0.56641(18) 0.05242(16)
O1F O 0.93048(17) 0.54934(18) 0.3799(2)
C1F C 0.76972(19) 0.6849(3) 0.3160(3)
C2F C 0.91889(19) 0.6025(3) 0.3977(3)
C3F C 0.86700(18) 0.6315(3) 0.3689(3)
C4F C 0.8705(2) 0.6502(3) 0.3099(3)
C5F C 0.7672(2) 0.6659(3) 0.3773(3)
C6F C 0.8154(3) 0.6379(3) 0.4018(2)
C7F C 0.8212(3) 0.6765(3) 0.2847(2)
C8F C 0.8268(3) 0.6956(3) 0.2209(2)
H1F H 0.7882 0.6993 0.2039
H2F H 0.8489 0.6668 0.1994
H3F H 0.8466 0.7329 0.2190
C9F C 0.7131(2) 0.6765(3) 0.4152(3)
H4F H 0.7016 0.7170 0.4123
H5F H 0.7221 0.6672 0.4554
H6F H 0.6815 0.6519 0.4018
C10F C 0.9280(3) 0.6428(3) 0.2760(3)
H7F H 0.9421 0.6807 0.2638
H8F H 0.9212 0.6187 0.2419
H9F H 0.9567 0.6243 0.3008
C11F C 0.8126(3) 0.6149(3) 0.4652(2)
H10F H 0.7785 0.5904 0.4698
H11F H 0.8102 0.6475 0.4919
H12F H 0.8474 0.5923 0.4735
O2F O 0.94758(16) 0.63086(18) 0.43359(18)
O1K O 0.6201(2) 0.93048(17) 0.45066(18)
C1K C 0.6840(3) 0.76972(19) 0.3151(3)
C2K C 0.6023(3) 0.91889(19) 0.3975(3)
C3K C 0.6311(3) 0.86700(18) 0.3685(3)
C4K C 0.6901(3) 0.8705(2) 0.3498(3)
C5K C 0.6227(3) 0.7672(2) 0.3341(3)
C6K C 0.5982(2) 0.8154(3) 0.3621(3)
C7K C 0.7153(2) 0.8212(3) 0.3235(3)
C8K C 0.7791(2) 0.8268(3) 0.3044(3)
H1K H 0.7961 0.7882 0.3007
H2K H 0.8006 0.8489 0.3332
H3K H 0.7810 0.8466 0.2671
C9K C 0.5848(3) 0.7131(2) 0.3235(3)
H4K H 0.5877 0.7016 0.2830
H5K H 0.5446 0.7221 0.3328
H6K H 0.5982 0.6815 0.3481
C10K C 0.7240(3) 0.9280(3) 0.3572(3)
H7K H 0.7362 0.9421 0.3193
H8K H 0.7581 0.9212 0.3813
H9K H 0.6992 0.9567 0.3757
C11K C 0.5348(2) 0.8126(3) 0.3851(3)
H10K H 0.5302 0.7785 0.4096
H11K H 0.5081 0.8102 0.3525
H12K H 0.5265 0.8474 0.4077
O2K O 0.56641(18) 0.94758(16) 0.36914(18)
Cu1D Cu 0.0000 0.5000 0.38860(4)
Cl1D Cl 0.0000 0.5000 0.5000
Cu1E Cu 0.0000 0.5000 0.61140(4)
O1E O 0.06952(17) 0.54934(18) 0.6201(2)
C1E C 0.23028(19) 0.6849(3) 0.6840(3)
C2E C 0.08111(19) 0.6025(3) 0.6023(3)
B1C B 0.2866(3) 0.7134(3) 0.7134(3)
C3E C 0.13300(18) 0.6315(3) 0.6311(3)
C4E C 0.1295(2) 0.6502(3) 0.6901(3)
C5E C 0.2328(2) 0.6659(3) 0.6227(3)
C6E C 0.1846(3) 0.6379(3) 0.5982(2)
C7E C 0.1788(3) 0.6765(3) 0.7153(2)
C8E C 0.1732(3) 0.6956(3) 0.7791(2)
H1E H 0.2118 0.6993 0.7961
H2E H 0.1511 0.6668 0.8006
H3E H 0.1534 0.7329 0.7810
C9E C 0.2869(2) 0.6765(3) 0.5848(3)
H4E H 0.2984 0.7170 0.5877
H5E H 0.2779 0.6672 0.5446
H6E H 0.3185 0.6519 0.5982
C10E C 0.0720(3) 0.6428(3) 0.7240(3)
H7E H 0.0579 0.6807 0.7362
H8E H 0.0788 0.6187 0.7581
H9E H 0.0433 0.6243 0.6992
C11E C 0.1874(3) 0.6149(3) 0.5348(2)
H10E H 0.2215 0.5904 0.5302
H11E H 0.1898 0.6475 0.5081
H12E H 0.1526 0.5923 0.5265
O2E O 0.05242(16) 0.63086(18) 0.56641(18)
O1J O 0.3799(2) 0.93048(17) 0.54934(18)
C1J C 0.3160(3) 0.76972(19) 0.6849(3)
C2J C 0.3977(3) 0.91889(19) 0.6025(3)
C3J C 0.3689(3) 0.86700(18) 0.6315(3)
C4J C 0.3099(3) 0.8705(2) 0.6502(3)
C5J C 0.3773(3) 0.7672(2) 0.6659(3)
C6J C 0.4018(2) 0.8154(3) 0.6379(3)
C7J C 0.2847(2) 0.8212(3) 0.6765(3)
C8J C 0.2209(2) 0.8268(3) 0.6956(3)
H1J H 0.2039 0.7882 0.6993
H2J H 0.1994 0.8489 0.6668
H3J H 0.2190 0.8466 0.7329
C9J C 0.4152(3) 0.7131(2) 0.6765(3)
H4J H 0.4123 0.7016 0.7170
H5J H 0.4554 0.7221 0.6672
H6J H 0.4018 0.6815 0.6519
C10J C 0.2760(3) 0.9280(3) 0.6428(3)
H7J H 0.2638 0.9421 0.6807
H8J H 0.2419 0.9212 0.6187
H9J H 0.3008 0.9567 0.6243
C11J C 0.4652(2) 0.8126(3) 0.6149(3)
H10J H 0.4698 0.7785 0.5904
H11J H 0.4919 0.8102 0.6475
H12J H 0.4735 0.8474 0.5923
O2J O 0.43359(18) 0.94758(16) 0.63086(18)
O1C O 0.45066(18) 0.6201(2) 0.93048(17)
C1C C 0.3151(3) 0.6840(3) 0.76972(19)
C2C C 0.3975(3) 0.6023(3) 0.91889(19)
C3C C 0.3685(3) 0.6311(3) 0.86700(18)
C4C C 0.3498(3) 0.6901(3) 0.8705(2)
C5C C 0.3341(3) 0.6227(3) 0.7672(2)
C6C C 0.3621(3) 0.5982(2) 0.8154(3)
C7C C 0.3235(3) 0.7153(2) 0.8212(3)
C8C C 0.3044(3) 0.7791(2) 0.8268(3)
H1C H 0.3007 0.7961 0.7882
H2C H 0.3332 0.8006 0.8489
H3C H 0.2671 0.7810 0.8466
C9C C 0.3235(3) 0.5848(3) 0.7131(2)
H4C H 0.2830 0.5877 0.7016
H5C H 0.3328 0.5446 0.7221
H6C H 0.3481 0.5982 0.6815
C10C C 0.3572(3) 0.7240(3) 0.9280(3)
H7C H 0.3193 0.7362 0.9421
H8C H 0.3813 0.7581 0.9212
H9C H 0.3757 0.6992 0.9567
C11C C 0.3851(3) 0.5348(2) 0.8126(3)
H10C H 0.4096 0.5302 0.7785
H11C H 0.3525 0.5081 0.8102
H12C H 0.4077 0.5265 0.8474
O2C O 0.36914(18) 0.56641(18) 0.94758(16)
Cu1D_2 Cu 1.0000 0.5000 0.38860(4)
Cl1D_2 Cl 1.0000 0.5000 0.5000
Cu1E_2 Cu 1.0000 0.5000 0.61140(4)
O1G O 0.93048(17) 0.45066(18) 0.6201(2)
C1G C 0.76972(19) 0.3151(3) 0.6840(3)
C2G C 0.91889(19) 0.3975(3) 0.6023(3)
B1B B 0.7134(3) 0.2866(3) 0.7134(3)
C3G C 0.86700(18) 0.3685(3) 0.6311(3)
C4G C 0.8705(2) 0.3498(3) 0.6901(3)
C5G C 0.7672(2) 0.3341(3) 0.6227(3)
C6G C 0.8154(3) 0.3621(3) 0.5982(2)
C7G C 0.8212(3) 0.3235(3) 0.7153(2)
C8G C 0.8268(3) 0.3044(3) 0.7791(2)
H1G H 0.7882 0.3007 0.7961
H2G H 0.8489 0.3332 0.8006
H3G H 0.8466 0.2671 0.7810
C9G C 0.7131(2) 0.3235(3) 0.5848(3)
H4G H 0.7016 0.2830 0.5877
H5G H 0.7221 0.3328 0.5446
H6G H 0.6815 0.3481 0.5982
C10G C 0.9280(3) 0.3572(3) 0.7240(3)
H7G H 0.9421 0.3193 0.7362
H8G H 0.9212 0.3813 0.7581
H9G H 0.9567 0.3757 0.6992
C11G C 0.8126(3) 0.3851(3) 0.5348(2)
H10G H 0.7785 0.4096 0.5302
H11G H 0.8102 0.3525 0.5081
H12G H 0.8474 0.4077 0.5265
O2G O 0.94758(16) 0.36914(18) 0.56641(18)
O1I O 0.6201(2) 0.06952(17) 0.54934(18)
C1I C 0.6840(3) 0.23028(19) 0.6849(3)
C2I C 0.6023(3) 0.08111(19) 0.6025(3)
C3I C 0.6311(3) 0.13300(18) 0.6315(3)
C4I C 0.6901(3) 0.1295(2) 0.6502(3)
C5I C 0.6227(3) 0.2328(2) 0.6659(3)
C6I C 0.5982(2) 0.1846(3) 0.6379(3)
C7I C 0.7153(2) 0.1788(3) 0.6765(3)
C8I C 0.7791(2) 0.1732(3) 0.6956(3)
H1I H 0.7961 0.2118 0.6993
H2I H 0.8006 0.1511 0.6668
H3I H 0.7810 0.1534 0.7329
C9I C 0.5848(3) 0.2869(2) 0.6765(3)
H4I H 0.5877 0.2984 0.7170
H5I H 0.5446 0.2779 0.6672
H6I H 0.5982 0.3185 0.6519
C10I C 0.7240(3) 0.0720(3) 0.6428(3)
H7I H 0.7362 0.0579 0.6807
H8I H 0.7581 0.0788 0.6187
H9I H 0.6992 0.0433 0.6243
C11I C 0.5348(2) 0.1874(3) 0.6149(3)
H10I H 0.5302 0.2215 0.5904
H11I H 0.5081 0.1898 0.6475
H12I H 0.5265 0.1526 0.5923
O2I O 0.56641(18) 0.05242(16) 0.63086(18)
O1B O 0.54934(18) 0.3799(2) 0.93048(17)
C1B C 0.6849(3) 0.3160(3) 0.76972(19)
C2B C 0.6025(3) 0.3977(3) 0.91889(19)
C3B C 0.6315(3) 0.3689(3) 0.86700(18)
C4B C 0.6502(3) 0.3099(3) 0.8705(2)
C5B C 0.6659(3) 0.3773(3) 0.7672(2)
C6B C 0.6379(3) 0.4018(2) 0.8154(3)
C7B C 0.6765(3) 0.2847(2) 0.8212(3)
C8B C 0.6956(3) 0.2209(2) 0.8268(3)
H1B H 0.6993 0.2039 0.7882
H2B H 0.6668 0.1994 0.8489
H3B H 0.7329 0.2190 0.8466
C9B C 0.6765(3) 0.4152(3) 0.7131(2)
H4B H 0.7170 0.4123 0.7016
H5B H 0.6672 0.4554 0.7221
H6B H 0.6519 0.4018 0.6815
C10B C 0.6428(3) 0.2760(3) 0.9280(3)
H7B H 0.6807 0.2638 0.9421
H8B H 0.6187 0.2419 0.9212
H9B H 0.6243 0.3008 0.9567
C11B C 0.6149(3) 0.4652(2) 0.8126(3)
H10B H 0.5904 0.4698 0.7785
H11B H 0.6475 0.4919 0.8102
H12B H 0.5923 0.4735 0.8474
O2B O 0.63086(18) 0.43359(18) 0.94758(16)
Cu1H Cu 0.38860(4) 0.0000 0.5000
Cu1I Cu 0.61140(4) 0.0000 0.5000
Cu1L Cu 0.38860(4) 0.5000 0.0000
O1L O 0.3799(2) 0.45066(18) -0.06952(17)
C1L C 0.3160(3) 0.3151(3) -0.23028(19)
C2L C 0.3977(3) 0.3975(3) -0.08111(19)
B1L B 0.2866(3) 0.2866(3) -0.2866(3)
C3L C 0.3689(3) 0.3685(3) -0.13300(18)
C4L C 0.3099(3) 0.3498(3) -0.1295(2)
C5L C 0.3773(3) 0.3341(3) -0.2328(2)
C6L C 0.4018(2) 0.3621(3) -0.1846(3)
C7L C 0.2847(2) 0.3235(3) -0.1788(3)
C8L C 0.2209(2) 0.3044(3) -0.1732(3)
H1L H 0.2039 0.3007 -0.2118
H2L H 0.1994 0.3332 -0.1511
H3L H 0.2190 0.2671 -0.1534
C9L C 0.4152(3) 0.3235(3) -0.2869(2)
H4L H 0.4123 0.2830 -0.2984
H5L H 0.4554 0.3328 -0.2779
H6L H 0.4018 0.3481 -0.3185
C10L C 0.2760(3) 0.3572(3) -0.0720(3)
H7L H 0.2638 0.3193 -0.0579
H8L H 0.2419 0.3813 -0.0788
H9L H 0.3008 0.3757 -0.0433
C11L C 0.4652(2) 0.3851(3) -0.1874(3)
H10L H 0.4698 0.4096 -0.2215
H11L H 0.4919 0.3525 -0.1898
H12L H 0.4735 0.4077 -0.1526
O2L O 0.43359(18) 0.36914(18) -0.05242(16)
O1P O 0.45066(18) 0.06952(17) -0.3799(2)
C1P C 0.3151(3) 0.23028(19) -0.3160(3)
C2P C 0.3975(3) 0.08111(19) -0.3977(3)
C3P C 0.3685(3) 0.13300(18) -0.3689(3)
C4P C 0.3498(3) 0.1295(2) -0.3099(3)
C5P C 0.3341(3) 0.2328(2) -0.3773(3)
C6P C 0.3621(3) 0.1846(3) -0.4018(2)
C7P C 0.3235(3) 0.1788(3) -0.2847(2)
C8P C 0.3044(3) 0.1732(3) -0.2209(2)
H1P H 0.3007 0.2118 -0.2039
H2P H 0.3332 0.1511 -0.1994
H3P H 0.2671 0.1534 -0.2190
C9P C 0.3235(3) 0.2869(2) -0.4152(3)
H4P H 0.2830 0.2984 -0.4123
H5P H 0.3328 0.2779 -0.4554
H6P H 0.3481 0.3185 -0.4018
C10P C 0.3572(3) 0.0720(3) -0.2760(3)
H7P H 0.3193 0.0579 -0.2638
H8P H 0.3813 0.0788 -0.2419
H9P H 0.3757 0.0433 -0.3008
C11P C 0.3851(3) 0.1874(3) -0.4652(2)
H10P H 0.4096 0.2215 -0.4698
H11P H 0.3525 0.1898 -0.4919
H12P H 0.4077 0.1526 -0.4735
O2P O 0.36914(18) 0.05242(16) -0.43359(18)
O1T O 0.06952(17) 0.3799(2) -0.45066(18)
C1T C 0.23028(19) 0.3160(3) -0.3151(3)
C2T C 0.08111(19) 0.3977(3) -0.3975(3)
C3T C 0.13300(18) 0.3689(3) -0.3685(3)
C4T C 0.1295(2) 0.3099(3) -0.3498(3)
C5T C 0.2328(2) 0.3773(3) -0.3341(3)
C6T C 0.1846(3) 0.4018(2) -0.3621(3)
C7T C 0.1788(3) 0.2847(2) -0.3235(3)
C8T C 0.1732(3) 0.2209(2) -0.3044(3)
H1T H 0.2118 0.2039 -0.3007
H2T H 0.1511 0.1994 -0.3332
H3T H 0.1534 0.2190 -0.2671
C9T C 0.2869(2) 0.4152(3) -0.3235(3)
H4T H 0.2984 0.4123 -0.2830
H5T H 0.2779 0.4554 -0.3328
H6T H 0.3185 0.4018 -0.3481
C10T C 0.0720(3) 0.2760(3) -0.3572(3)
H7T H 0.0579 0.2638 -0.3193
H8T H 0.0788 0.2419 -0.3813
H9T H 0.0433 0.3008 -0.3757
C11T C 0.1874(3) 0.4652(2) -0.3851(3)
H10T H 0.2215 0.4698 -0.4096
H11T H 0.1898 0.4919 -0.3525
H12T H 0.1526 0.4735 -0.4077
O2T O 0.05242(16) 0.43359(18) -0.36914(18)
O1L_2 O 0.3799(2) 0.45066(18) 0.93048(17)
C1L_2 C 0.3160(3) 0.3151(3) 0.76972(19)
C2L_2 C 0.3977(3) 0.3975(3) 0.91889(19)
B1L_2 B 0.2866(3) 0.2866(3) 0.7134(3)
C3L_2 C 0.3689(3) 0.3685(3) 0.86700(18)
C4L_2 C 0.3099(3) 0.3498(3) 0.8705(2)
C5L_2 C 0.3773(3) 0.3341(3) 0.7672(2)
C6L_2 C 0.4018(2) 0.3621(3) 0.8154(3)
C7L_2 C 0.2847(2) 0.3235(3) 0.8212(3)
C8L_2 C 0.2209(2) 0.3044(3) 0.8268(3)
H1L_2 H 0.2039 0.3007 0.7882
H2L_2 H 0.1994 0.3332 0.8489
H3L_2 H 0.2190 0.2671 0.8466
C9L_2 C 0.4152(3) 0.3235(3) 0.7131(2)
H4L_2 H 0.4123 0.2830 0.7016
H5L_2 H 0.4554 0.3328 0.7221
H6L_2 H 0.4018 0.3481 0.6815
C10L_2 C 0.2760(3) 0.3572(3) 0.9280(3)
H7L_2 H 0.2638 0.3193 0.9421
H8L_2 H 0.2419 0.3813 0.9212
H9L_2 H 0.3008 0.3757 0.9567
C11L_2 C 0.4652(2) 0.3851(3) 0.8126(3)
H10L_2 H 0.4698 0.4096 0.7785
H11L_2 H 0.4919 0.3525 0.8102
H12L_2 H 0.4735 0.4077 0.8474
O2L_2 O 0.43359(18) 0.36914(18) 0.94758(16)
O1P_2 O 0.45066(18) 0.06952(17) 0.6201(2)
C1P_2 C 0.3151(3) 0.23028(19) 0.6840(3)
C2P_2 C 0.3975(3) 0.08111(19) 0.6023(3)
C3P_2 C 0.3685(3) 0.13300(18) 0.6311(3)
C4P_2 C 0.3498(3) 0.1295(2) 0.6901(3)
C5P_2 C 0.3341(3) 0.2328(2) 0.6227(3)
C6P_2 C 0.3621(3) 0.1846(3) 0.5982(2)
C7P_2 C 0.3235(3) 0.1788(3) 0.7153(2)
C8P_2 C 0.3044(3) 0.1732(3) 0.7791(2)
H1P_2 H 0.3007 0.2118 0.7961
H2P_2 H 0.3332 0.1511 0.8006
H3P_2 H 0.2671 0.1534 0.7810
C9P_2 C 0.3235(3) 0.2869(2) 0.5848(3)
H4P_2 H 0.2830 0.2984 0.5877
H5P_2 H 0.3328 0.2779 0.5446
H6P_2 H 0.3481 0.3185 0.5982
C10P_2 C 0.3572(3) 0.0720(3) 0.7240(3)
H7P_2 H 0.3193 0.0579 0.7362
H8P_2 H 0.3813 0.0788 0.7581
H9P_2 H 0.3757 0.0433 0.6992
C11P_2 C 0.3851(3) 0.1874(3) 0.5348(2)
H10P_2 H 0.4096 0.2215 0.5302
H11P_2 H 0.3525 0.1898 0.5081
H12P_2 H 0.4077 0.1526 0.5265
O2P_2 O 0.36914(18) 0.05242(16) 0.56641(18)
O1T_2 O 0.06952(17) 0.3799(2) 0.54934(18)
C1T_2 C 0.23028(19) 0.3160(3) 0.6849(3)
C2T_2 C 0.08111(19) 0.3977(3) 0.6025(3)
C3T_2 C 0.13300(18) 0.3689(3) 0.6315(3)
C4T_2 C 0.1295(2) 0.3099(3) 0.6502(3)
C5T_2 C 0.2328(2) 0.3773(3) 0.6659(3)
C6T_2 C 0.1846(3) 0.4018(2) 0.6379(3)
C7T_2 C 0.1788(3) 0.2847(2) 0.6765(3)
C8T_2 C 0.1732(3) 0.2209(2) 0.6956(3)
H1T_2 H 0.2118 0.2039 0.6993
H2T_2 H 0.1511 0.1994 0.6668
H3T_2 H 0.1534 0.2190 0.7329
C9T_2 C 0.2869(2) 0.4152(3) 0.6765(3)
H4T_2 H 0.2984 0.4123 0.7170
H5T_2 H 0.2779 0.4554 0.6672
H6T_2 H 0.3185 0.4018 0.6519
C10T_2 C 0.0720(3) 0.2760(3) 0.6428(3)
H7T_2 H 0.0579 0.2638 0.6807
H8T_2 H 0.0788 0.2419 0.6187
H9T_2 H 0.0433 0.3008 0.6243
C11T_2 C 0.1874(3) 0.4652(2) 0.6149(3)
H10T_2 H 0.2215 0.4698 0.5904
H11T_2 H 0.1898 0.4919 0.6475
H12T_2 H 0.1526 0.4735 0.5923
O2T_2 O 0.05242(16) 0.43359(18) 0.63086(18)
Cu1M Cu 0.61140(4) 0.5000 0.0000
O1N O 0.3799(2) -0.45066(18) 0.06952(17)
C1N C 0.3160(3) -0.3151(3) 0.23028(19)
C2N C 0.3977(3) -0.3975(3) 0.08111(19)
B1N B 0.2866(3) -0.2866(3) 0.2866(3)
C3N C 0.3689(3) -0.3685(3) 0.13300(18)
C4N C 0.3099(3) -0.3498(3) 0.1295(2)
C5N C 0.3773(3) -0.3341(3) 0.2328(2)
C6N C 0.4018(2) -0.3621(3) 0.1846(3)
C7N C 0.2847(2) -0.3235(3) 0.1788(3)
C8N C 0.2209(2) -0.3044(3) 0.1732(3)
H1N H 0.2039 -0.3007 0.2118
H2N H 0.1994 -0.3332 0.1511
H3N H 0.2190 -0.2671 0.1534
C9N C 0.4152(3) -0.3235(3) 0.2869(2)
H4N H 0.4123 -0.2830 0.2984
H5N H 0.4554 -0.3328 0.2779
H6N H 0.4018 -0.3481 0.3185
C10N C 0.2760(3) -0.3572(3) 0.0720(3)
H7N H 0.2638 -0.3193 0.0579
H8N H 0.2419 -0.3813 0.0788
H9N H 0.3008 -0.3757 0.0433
C11N C 0.4652(2) -0.3851(3) 0.1874(3)
H10N H 0.4698 -0.4096 0.2215
H11N H 0.4919 -0.3525 0.1898
H12N H 0.4735 -0.4077 0.1526
O2N O 0.43359(18) -0.36914(18) 0.05242(16)
O1S O 0.45066(18) -0.06952(17) 0.3799(2)
C1S C 0.3151(3) -0.23028(19) 0.3160(3)
C2S C 0.3975(3) -0.08111(19) 0.3977(3)
C3S C 0.3685(3) -0.13300(18) 0.3689(3)
C4S C 0.3498(3) -0.1295(2) 0.3099(3)
C5S C 0.3341(3) -0.2328(2) 0.3773(3)
C6S C 0.3621(3) -0.1846(3) 0.4018(2)
C7S C 0.3235(3) -0.1788(3) 0.2847(2)
C8S C 0.3044(3) -0.1732(3) 0.2209(2)
H1S H 0.3007 -0.2118 0.2039
H2S H 0.3332 -0.1511 0.1994
H3S H 0.2671 -0.1534 0.2190
C9S C 0.3235(3) -0.2869(2) 0.4152(3)
H4S H 0.2830 -0.2984 0.4123
H5S H 0.3328 -0.2779 0.4554
H6S H 0.3481 -0.3185 0.4018
C10S C 0.3572(3) -0.0720(3) 0.2760(3)
H7S H 0.3193 -0.0579 0.2638
H8S H 0.3813 -0.0788 0.2419
H9S H 0.3757 -0.0433 0.3008
C11S C 0.3851(3) -0.1874(3) 0.4652(2)
H10S H 0.4096 -0.2215 0.4698
H11S H 0.3525 -0.1898 0.4919
H12S H 0.4077 -0.1526 0.4735
O2S O 0.36914(18) -0.05242(16) 0.43359(18)
O1U O 0.06952(17) -0.3799(2) 0.45066(18)
C1U C 0.23028(19) -0.3160(3) 0.3151(3)
C2U C 0.08111(19) -0.3977(3) 0.3975(3)
C3U C 0.13300(18) -0.3689(3) 0.3685(3)
C4U C 0.1295(2) -0.3099(3) 0.3498(3)
C5U C 0.2328(2) -0.3773(3) 0.3341(3)
C6U C 0.1846(3) -0.4018(2) 0.3621(3)
C7U C 0.1788(3) -0.2847(2) 0.3235(3)
C8U C 0.1732(3) -0.2209(2) 0.3044(3)
H1U H 0.2118 -0.2039 0.3007
H2U H 0.1511 -0.1994 0.3332
H3U H 0.1534 -0.2190 0.2671
C9U C 0.2869(2) -0.4152(3) 0.3235(3)
H4U H 0.2984 -0.4123 0.2830
H5U H 0.2779 -0.4554 0.3328
H6U H 0.3185 -0.4018 0.3481
C10U C 0.0720(3) -0.2760(3) 0.3572(3)
H7U H 0.0579 -0.2638 0.3193
H8U H 0.0788 -0.2419 0.3813
H9U H 0.0433 -0.3008 0.3757
C11U C 0.1874(3) -0.4652(2) 0.3851(3)
H10U H 0.2215 -0.4698 0.4096
H11U H 0.1898 -0.4919 0.3525
H12U H 0.1526 -0.4735 0.4077
O2U O 0.05242(16) -0.43359(18) 0.36914(18)
O1N_2 O 0.3799(2) 0.54934(18) 0.06952(17)
C1N_2 C 0.3160(3) 0.6849(3) 0.23028(19)
C2N_2 C 0.3977(3) 0.6025(3) 0.08111(19)
B1N_2 B 0.2866(3) 0.7134(3) 0.2866(3)
C3N_2 C 0.3689(3) 0.6315(3) 0.13300(18)
C4N_2 C 0.3099(3) 0.6502(3) 0.1295(2)
C5N_2 C 0.3773(3) 0.6659(3) 0.2328(2)
C6N_2 C 0.4018(2) 0.6379(3) 0.1846(3)
C7N_2 C 0.2847(2) 0.6765(3) 0.1788(3)
C8N_2 C 0.2209(2) 0.6956(3) 0.1732(3)
H1N_2 H 0.2039 0.6993 0.2118
H2N_2 H 0.1994 0.6668 0.1511
H3N_2 H 0.2190 0.7329 0.1534
C9N_2 C 0.4152(3) 0.6765(3) 0.2869(2)
H4N_2 H 0.4123 0.7170 0.2984
H5N_2 H 0.4554 0.6672 0.2779
H6N_2 H 0.4018 0.6519 0.3185
C10N_2 C 0.2760(3) 0.6428(3) 0.0720(3)
H7N_2 H 0.2638 0.6807 0.0579
H8N_2 H 0.2419 0.6187 0.0788
H9N_2 H 0.3008 0.6243 0.0433
C11N_2 C 0.4652(2) 0.6149(3) 0.1874(3)
H10N_2 H 0.4698 0.5904 0.2215
H11N_2 H 0.4919 0.6475 0.1898
H12N_2 H 0.4735 0.5923 0.1526
O2N_2 O 0.43359(18) 0.63086(18) 0.05242(16)
O1S_2 O 0.45066(18) 0.93048(17) 0.3799(2)
C1S_2 C 0.3151(3) 0.76972(19) 0.3160(3)
C2S_2 C 0.3975(3) 0.91889(19) 0.3977(3)
C3S_2 C 0.3685(3) 0.86700(18) 0.3689(3)
C4S_2 C 0.3498(3) 0.8705(2) 0.3099(3)
C5S_2 C 0.3341(3) 0.7672(2) 0.3773(3)
C6S_2 C 0.3621(3) 0.8154(3) 0.4018(2)
C7S_2 C 0.3235(3) 0.8212(3) 0.2847(2)
C8S_2 C 0.3044(3) 0.8268(3) 0.2209(2)
H1S_2 H 0.3007 0.7882 0.2039
H2S_2 H 0.3332 0.8489 0.1994
H3S_2 H 0.2671 0.8466 0.2190
C9S_2 C 0.3235(3) 0.7131(2) 0.4152(3)
H4S_2 H 0.2830 0.7016 0.4123
H5S_2 H 0.3328 0.7221 0.4554
H6S_2 H 0.3481 0.6815 0.4018
C10S_2 C 0.3572(3) 0.9280(3) 0.2760(3)
H7S_2 H 0.3193 0.9421 0.2638
H8S_2 H 0.3813 0.9212 0.2419
H9S_2 H 0.3757 0.9567 0.3008
C11S_2 C 0.3851(3) 0.8126(3) 0.4652(2)
H10S_2 H 0.4096 0.7785 0.4698
H11S_2 H 0.3525 0.8102 0.4919
H12S_2 H 0.4077 0.8474 0.4735
O2S_2 O 0.36914(18) 0.94758(16) 0.43359(18)
O1U_2 O 0.06952(17) 0.6201(2) 0.45066(18)
C1U_2 C 0.23028(19) 0.6840(3) 0.3151(3)
C2U_2 C 0.08111(19) 0.6023(3) 0.3975(3)
C3U_2 C 0.13300(18) 0.6311(3) 0.3685(3)
C4U_2 C 0.1295(2) 0.6901(3) 0.3498(3)
C5U_2 C 0.2328(2) 0.6227(3) 0.3341(3)
C6U_2 C 0.1846(3) 0.5982(2) 0.3621(3)
C7U_2 C 0.1788(3) 0.7153(2) 0.3235(3)
C8U_2 C 0.1732(3) 0.7791(2) 0.3044(3)
H1U_2 H 0.2118 0.7961 0.3007
H2U_2 H 0.1511 0.8006 0.3332
H3U_2 H 0.1534 0.7810 0.2671
C9U_2 C 0.2869(2) 0.5848(3) 0.3235(3)
H4U_2 H 0.2984 0.5877 0.2830
H5U_2 H 0.2779 0.5446 0.3328
H6U_2 H 0.3185 0.5982 0.3481
C10U_2 C 0.0720(3) 0.7240(3) 0.3572(3)
H7U_2 H 0.0579 0.7362 0.3193
H8U_2 H 0.0788 0.7581 0.3813
H9U_2 H 0.0433 0.6992 0.3757
C11U_2 C 0.1874(3) 0.5348(2) 0.3851(3)
H10U_2 H 0.2215 0.5302 0.4096
H11U_2 H 0.1898 0.5081 0.3525
H12U_2 H 0.1526 0.5265 0.4077
O2U_2 O 0.05242(16) 0.56641(18) 0.36914(18)
Cu1P Cu 0.5000 0.0000 -0.38860(4)
Cu1Q Cu 0.5000 0.0000 0.38860(4)
Cu1_2 Cu 0.5000 0.38860(4) 1.0000
Cu1A_2 Cu 0.5000 -0.38860(4) 0.0000
Cu1A_3 Cu 0.5000 0.61140(4) 1.0000
Cu1D_3 Cu 0.0000 -0.5000 0.38860(4)
Cu1E_3 Cu 0.0000 0.5000 -0.38860(4)
Cu1H_2 Cu 0.38860(4) 0.0000 -0.5000
Cu1H_3 Cu 0.38860(4) 1.0000 0.5000
Cu1I_2 Cu 0.61140(4) 1.0000 0.5000
Cu1L_2 Cu 0.38860(4) -0.5000 0.0000
Cu1L_3 Cu 0.38860(4) 0.5000 1.0000
Cu1M_2 Cu 0.61140(4) 0.5000 1.0000
Cu1P_2 Cu 0.5000 0.0000 0.61140(4)
Cu1P_3 Cu 0.5000 1.0000 0.61140(4)
Cu1Q_2 Cu 0.5000 1.0000 0.38860(4)
Cu1T Cu 0.0000 0.38860(4) -0.5000
Cu1T_2 Cu 0.0000 0.38860(4) 0.5000
Cu1T_3 Cu 1.0000 0.38860(4) 0.5000
Cu1U Cu 0.0000 -0.38860(4) 0.5000
Cu1U_2 Cu 0.0000 0.61140(4) 0.5000
Cu1U_3 Cu 1.0000 0.61140(4) 0.5000
Cl1H Cl 0.5000 0.0000 -0.5000
Cl1H_2 Cl 0.5000 0.0000 0.5000
O1B_2 O 0.54934(18) 0.3799(2) -0.06952(17)
O1C_2 O 0.45066(18) 0.6201(2) -0.06952(17)
O1D_2 O 1.06952(17) 0.45066(18) 0.3799(2)
O1E_2 O 1.06952(17) 0.54934(18) 0.6201(2)
O1F_2 O -0.06952(17) 0.54934(18) 0.3799(2)
O1G_2 O -0.06952(17) 0.45066(18) 0.6201(2)
O1J_2 O 0.3799(2) -0.06952(17) 0.54934(18)
O1K_2 O 0.6201(2) -0.06952(17) 0.45066(18)
O1M O 0.6201(2) 0.54934(18) -0.06952(17)
O1O O 0.6201(2) 0.45066(18) 0.06952(17)
O1Q O 0.54934(18) 0.06952(17) 0.3799(2)
O1R O 0.54934(18) -0.06952(17) -0.3799(2)
O2B_2 O 0.63086(18) 0.43359(18) -0.05242(16)
O2C_2 O 0.36914(18) 0.56641(18) -0.05242(16)
O2I_2 O 0.56641(18) 0.05242(16) -0.36914(18)
O2J_2 O 0.43359(18) -0.05242(16) -0.36914(18)
O2K_2 O 0.56641(18) -0.05242(16) 0.36914(18)
O2M O 0.56641(18) 0.63086(18) -0.05242(16)
O2O O 0.56641(18) 0.36914(18) 0.05242(16)
O2Q O 0.63086(18) 0.05242(16) 0.43359(18)
O2R O 0.63086(18) -0.05242(16) 0.56641(18)
O2T_3 O 1.05242(16) 0.43359(18) 0.63086(18)
O2U_3 O 1.05242(16) 0.56641(18) 0.36914(18)
O2V O -0.05242(16) 0.43359(18) 0.36914(18)
O2V_2 O 0.94758(16) 0.43359(18) 0.36914(18)
O2W O -0.05242(16) 0.56641(18) 0.63086(18)
O2W_2 O 0.94758(16) 0.56641(18) 0.63086(18)
Mn1? Mn 0.5000 0.38860(4) 0.0000
loop_
_geom_bond_atom_site_label_1
_geom_bond_atom_site_label_2
_geom_bond_site_symmetry_1
_geom_bond_site_symmetry_2
Cu1 Cl1 1_555 1_555
Cl1 Cu1A 1_555 1_555
O1 Cu1 1_555 1_555
C1 B1 1_555 1_555
C2 O1 1_555 1_555
B1 C1D 1_555 1_555
C3 C2 1_555 1_555
C4 C3 1_555 1_555
C5 C1 1_555 1_555
C6 C3 1_555 1_555
C7 C1 1_555 1_555
C8 C7 1_555 1_555
H1 C8 1_555 1_555
H2 C8 1_555 1_555
H3 C8 1_555 1_555
C9 C5 1_555 1_555
H4 C9 1_555 1_555
H5 C9 1_555 1_555
H6 C9 1_555 1_555
C10 C4 1_555 1_555
H7 C10 1_555 1_555
H8 C10 1_555 1_555
H9 C10 1_555 1_555
C11 C6 1_555 1_555
H10 C11 1_555 1_555
H11 C11 1_555 1_555
H12 C11 1_555 1_555
O2 C2 1_555 1_555
O1D C2D 1_555 1_555
C1D C5D 1_555 1_555
C2D C3D 1_555 1_555
C3D C4D 1_555 1_555
C4D C7D 1_555 1_555
C5D C6D 1_555 1_555
C6D C3D 1_555 1_555
C7D C1D 1_555 1_555
C8D C7D 1_555 1_555
H1D C8D 1_555 1_555
H2D C8D 1_555 1_555
H3D C8D 1_555 1_555
C9D C5D 1_555 1_555
H4D C9D 1_555 1_555
H5D C9D 1_555 1_555
H6D C9D 1_555 1_555
C10D C4D 1_555 1_555
H7D C10D 1_555 1_555
H8D C10D 1_555 1_555
H9D C10D 1_555 1_555
C11D C6D 1_555 1_555
H10D C11D 1_555 1_555
H11D C11D 1_555 1_555
H12D C11D 1_555 1_555
O2D C2D 1_555 1_555
O1H C2H 1_555 1_555
C1H B1 1_555 1_555
C2H C3H 1_555 1_555
C3H C4H 1_555 1_555
C4H C7H 1_555 1_555
C5H C1H 1_555 1_555
C6H C3H 1_555 1_555
C7H C1H 1_555 1_555
C8H C7H 1_555 1_555
H1H C8H 1_555 1_555
H2H C8H 1_555 1_555
H3H C8H 1_555 1_555
C9H C5H 1_555 1_555
H4H C9H 1_555 1_555
H5H C9H 1_555 1_555
H6H C9H 1_555 1_555
C10H C4H 1_555 1_555
H7H C10H 1_555 1_555
H8H C10H 1_555 1_555
H9H C10H 1_555 1_555
C11H C6H 1_555 1_555
H10H C11H 1_555 1_555
H11H C11H 1_555 1_555
H12H C11H 1_555 1_555
O2H C2H 1_555 1_555
Cu1A O1A 1_555 1_555
O1A C2A 1_555 1_555
C1A B1A 1_555 1_555
C2A C3A 1_555 1_555
B1A C1F 1_555 1_555
C3A C4A 1_555 1_555
C4A C7A 1_555 1_555
C5A C1A 1_555 1_555
C6A C3A 1_555 1_555
C7A C1A 1_555 1_555
C8A C7A 1_555 1_555
H1A C8A 1_555 1_555
H2A C8A 1_555 1_555
H3A C8A 1_555 1_555
C9A C5A 1_555 1_555
H4A C9A 1_555 1_555
H5A C9A 1_555 1_555
H6A C9A 1_555 1_555
C10A C4A 1_555 1_555
H7A C10A 1_555 1_555
H8A C10A 1_555 1_555
H9A C10A 1_555 1_555
C11A C6A 1_555 1_555
H10A C11A 1_555 1_555
H11A C11A 1_555 1_555
H12A C11A 1_555 1_555
O2A C2A 1_555 1_555
O1F C2F 1_555 1_555
C1F C5F 1_555 1_555
C2F C3F 1_555 1_555
C3F C4F 1_555 1_555
C4F C7F 1_555 1_555
C5F C6F 1_555 1_555
C6F C3F 1_555 1_555
C7F C1F 1_555 1_555
C8F C7F 1_555 1_555
H1F C8F 1_555 1_555
H2F C8F 1_555 1_555
H3F C8F 1_555 1_555
C9F C5F 1_555 1_555
H4F C9F 1_555 1_555
H5F C9F 1_555 1_555
H6F C9F 1_555 1_555
C10F C4F 1_555 1_555
H7F C10F 1_555 1_555
H8F C10F 1_555 1_555
H9F C10F 1_555 1_555
C11F C6F 1_555 1_555
H10F C11F 1_555 1_555
H11F C11F 1_555 1_555
H12F C11F 1_555 1_555
O2F C2F 1_555 1_555
O1K C2K 1_555 1_555
C1K B1A 1_555 1_555
C2K C3K 1_555 1_555
C3K C4K 1_555 1_555
C4K C7K 1_555 1_555
C5K C1K 1_555 1_555
C6K C3K 1_555 1_555
C7K C1K 1_555 1_555
C8K C7K 1_555 1_555
H1K C8K 1_555 1_555
H2K C8K 1_555 1_555
H3K C8K 1_555 1_555
C9K C5K 1_555 1_555
H4K C9K 1_555 1_555
H5K C9K 1_555 1_555
H6K C9K 1_555 1_555
C10K C4K 1_555 1_555
H7K C10K 1_555 1_555
H8K C10K 1_555 1_555
H9K C10K 1_555 1_555
C11K C6K 1_555 1_555
H10K C11K 1_555 1_555
H11K C11K 1_555 1_555
H12K C11K 1_555 1_555
O2K C2K 1_555 1_555
Cu1D O1D 1_555 1_555
Cl1D Cu1D 1_555 1_555
Cu1E Cl1D 1_555 1_555
O1E Cu1E 1_555 1_555
C1E B1C 1_555 1_555
C2E O1E 1_555 1_555
B1C C1J 1_555 1_555
C3E C2E 1_555 1_555
C4E C3E 1_555 1_555
C5E C1E 1_555 1_555
C6E C3E 1_555 1_555
C7E C1E 1_555 1_555
C8E C7E 1_555 1_555
H1E C8E 1_555 1_555
H2E C8E 1_555 1_555
H3E C8E 1_555 1_555
C9E C5E 1_555 1_555
H4E C9E 1_555 1_555
H5E C9E 1_555 1_555
H6E C9E 1_555 1_555
C10E C4E 1_555 1_555
H7E C10E 1_555 1_555
H8E C10E 1_555 1_555
H9E C10E 1_555 1_555
C11E C6E 1_555 1_555
H10E C11E 1_555 1_555
H11E C11E 1_555 1_555
H12E C11E 1_555 1_555
O2E C2E 1_555 1_555
O1J C2J 1_555 1_555
C1J C5J 1_555 1_555
C2J C3J 1_555 1_555
C3J C4J 1_555 1_555
C4J C7J 1_555 1_555
C5J C6J 1_555 1_555
C6J C3J 1_555 1_555
C7J C1J 1_555 1_555
C8J C7J 1_555 1_555
H1J C8J 1_555 1_555
H2J C8J 1_555 1_555
H3J C8J 1_555 1_555
C9J C5J 1_555 1_555
H4J C9J 1_555 1_555
H5J C9J 1_555 1_555
H6J C9J 1_555 1_555
C10J C4J 1_555 1_555
H7J C10J 1_555 1_555
H8J C10J 1_555 1_555
H9J C10J 1_555 1_555
C11J C6J 1_555 1_555
H10J C11J 1_555 1_555
H11J C11J 1_555 1_555
H12J C11J 1_555 1_555
O2J C2J 1_555 1_555
O1C C2C 1_555 1_555
C1C B1C 1_555 1_555
C2C C3C 1_555 1_555
C3C C4C 1_555 1_555
C4C C7C 1_555 1_555
C5C C1C 1_555 1_555
C6C C3C 1_555 1_555
C7C C1C 1_555 1_555
C8C C7C 1_555 1_555
H1C C8C 1_555 1_555
H2C C8C 1_555 1_555
H3C C8C 1_555 1_555
C9C C5C 1_555 1_555
H4C C9C 1_555 1_555
H5C C9C 1_555 1_555
H6C C9C 1_555 1_555
C10C C4C 1_555 1_555
H7C C10C 1_555 1_555
H8C C10C 1_555 1_555
H9C C10C 1_555 1_555
C11C C6C 1_555 1_555
H10C C11C 1_555 1_555
H11C C11C 1_555 1_555
H12C C11C 1_555 1_555
O2C C2C 1_555 1_555
Cu1D_2 O1F 1_555 1_555
Cl1D_2 Cu1D_2 1_555 1_555
Cu1E_2 Cl1D_2 1_555 1_555
O1G Cu1E_2 1_555 1_555
C1G B1B 1_555 1_555
C2G O1G 1_555 1_555
B1B C1I 1_555 1_555
C3G C2G 1_555 1_555
C4G C3G 1_555 1_555
C5G C1G 1_555 1_555
C6G C3G 1_555 1_555
C7G C1G 1_555 1_555
C8G C7G 1_555 1_555
H1G C8G 1_555 1_555
H2G C8G 1_555 1_555
H3G C8G 1_555 1_555
C9G C5G 1_555 1_555
H4G C9G 1_555 1_555
H5G C9G 1_555 1_555
H6G C9G 1_555 1_555
C10G C4G 1_555 1_555
H7G C10G 1_555 1_555
H8G C10G 1_555 1_555
H9G C10G 1_555 1_555
C11G C6G 1_555 1_555
H10G C11G 1_555 1_555
H11G C11G 1_555 1_555
H12G C11G 1_555 1_555
O2G C2G 1_555 1_555
O1I C2I 1_555 1_555
C1I C5I 1_555 1_555
C2I C3I 1_555 1_555
C3I C4I 1_555 1_555
C4I C7I 1_555 1_555
C5I C6I 1_555 1_555
C6I C3I 1_555 1_555
C7I C1I 1_555 1_555
C8I C7I 1_555 1_555
H1I C8I 1_555 1_555
H2I C8I 1_555 1_555
H3I C8I 1_555 1_555
C9I C5I 1_555 1_555
H4I C9I 1_555 1_555
H5I C9I 1_555 1_555
H6I C9I 1_555 1_555
C10I C4I 1_555 1_555
H7I C10I 1_555 1_555
H8I C10I 1_555 1_555
H9I C10I 1_555 1_555
C11I C6I 1_555 1_555
H10I C11I 1_555 1_555
H11I C11I 1_555 1_555
H12I C11I 1_555 1_555
O2I C2I 1_555 1_555
O1B C2B 1_555 1_555
C1B B1B 1_555 1_555
C2B C3B 1_555 1_555
C3B C4B 1_555 1_555
C4B C7B 1_555 1_555
C5B C1B 1_555 1_555
C6B C3B 1_555 1_555
C7B C1B 1_555 1_555
C8B C7B 1_555 1_555
H1B C8B 1_555 1_555
H2B C8B 1_555 1_555
H3B C8B 1_555 1_555
C9B C5B 1_555 1_555
H4B C9B 1_555 1_555
H5B C9B 1_555 1_555
H6B C9B 1_555 1_555
C10B C4B 1_555 1_555
H7B C10B 1_555 1_555
H8B C10B 1_555 1_555
H9B C10B 1_555 1_555
C11B C6B 1_555 1_555
H10B C11B 1_555 1_555
H11B C11B 1_555 1_555
H12B C11B 1_555 1_555
O2B C2B 1_555 1_555
Cu1H O1H 1_555 1_555
Cu1I O1I 1_555 1_555
Cu1L Cl1 1_555 1_555
O1L Cu1L 1_555 1_555
C1L B1L 1_555 1_555
C2L O1L 1_555 1_555
B1L C1P 1_555 1_555
C3L C2L 1_555 1_555
C4L C3L 1_555 1_555
C5L C1L 1_555 1_555
C6L C3L 1_555 1_555
C7L C1L 1_555 1_555
C8L C7L 1_555 1_555
H1L C8L 1_555 1_555
H2L C8L 1_555 1_555
H3L C8L 1_555 1_555
C9L C5L 1_555 1_555
H4L C9L 1_555 1_555
H5L C9L 1_555 1_555
H6L C9L 1_555 1_555
C10L C4L 1_555 1_555
H7L C10L 1_555 1_555
H8L C10L 1_555 1_555
H9L C10L 1_555 1_555
C11L C6L 1_555 1_555
H10L C11L 1_555 1_555
H11L C11L 1_555 1_555
H12L C11L 1_555 1_555
O2L Cu1 1_555 1_555
O1P C2P 1_555 1_555
C1P C5P 1_555 1_555
C2P C3P 1_555 1_555
C3P C4P 1_555 1_555
C4P C7P 1_555 1_555
C5P C6P 1_555 1_555
C6P C3P 1_555 1_555
C7P C1P 1_555 1_555
C8P C7P 1_555 1_555
H1P C8P 1_555 1_555
H2P C8P 1_555 1_555
H3P C8P 1_555 1_555
C9P C5P 1_555 1_555
H4P C9P 1_555 1_555
H5P C9P 1_555 1_555
H6P C9P 1_555 1_555
C10P C4P 1_555 1_555
H7P C10P 1_555 1_555
H8P C10P 1_555 1_555
H9P C10P 1_555 1_555
C11P C6P 1_555 1_555
H10P C11P 1_555 1_555
H11P C11P 1_555 1_555
H12P C11P 1_555 1_555
O2P C2P 1_555 1_555
O1T C2T 1_555 1_555
C1T B1L 1_555 1_555
C2T C3T 1_555 1_555
C3T C4T 1_555 1_555
C4T C7T 1_555 1_555
C5T C1T 1_555 1_555
C6T C3T 1_555 1_555
C7T C1T 1_555 1_555
C8T C7T 1_555 1_555
H1T C8T 1_555 1_555
H2T C8T 1_555 1_555
H3T C8T 1_555 1_555
C9T C5T 1_555 1_555
H4T C9T 1_555 1_555
H5T C9T 1_555 1_555
H6T C9T 1_555 1_555
C10T C4T 1_555 1_555
H7T C10T 1_555 1_555
H8T C10T 1_555 1_555
H9T C10T 1_555 1_555
C11T C6T 1_555 1_555
H10T C11T 1_555 1_555
H11T C11T 1_555 1_555
H12T C11T 1_555 1_555
O2T C2T 1_555 1_555
O1L_2 C2L_2 1_555 1_555
C1L_2 B1L_2 1_555 1_555
C2L_2 C3L_2 1_555 1_555
B1L_2 C1P_2 1_555 1_555
C3L_2 C4L_2 1_555 1_555
C4L_2 C7L_2 1_555 1_555
C5L_2 C1L_2 1_555 1_555
C6L_2 C3L_2 1_555 1_555
C7L_2 C1L_2 1_555 1_555
C8L_2 C7L_2 1_555 1_555
H1L_2 C8L_2 1_555 1_555
H2L_2 C8L_2 1_555 1_555
H3L_2 C8L_2 1_555 1_555
C9L_2 C5L_2 1_555 1_555
H4L_2 C9L_2 1_555 1_555
H5L_2 C9L_2 1_555 1_555
H6L_2 C9L_2 1_555 1_555
C10L_2 C4L_2 1_555 1_555
H7L_2 C10L_2 1_555 1_555
H8L_2 C10L_2 1_555 1_555
H9L_2 C10L_2 1_555 1_555
C11L_2 C6L_2 1_555 1_555
H10L_2 C11L_2 1_555 1_555
H11L_2 C11L_2 1_555 1_555
H12L_2 C11L_2 1_555 1_555
O2L_2 C2L_2 1_555 1_555
O1P_2 C2P_2 1_555 1_555
C1P_2 C5P_2 1_555 1_555
C2P_2 C3P_2 1_555 1_555
C3P_2 C4P_2 1_555 1_555
C4P_2 C7P_2 1_555 1_555
C5P_2 C6P_2 1_555 1_555
C6P_2 C3P_2 1_555 1_555
C7P_2 C1P_2 1_555 1_555
C8P_2 C7P_2 1_555 1_555
H1P_2 C8P_2 1_555 1_555
H2P_2 C8P_2 1_555 1_555
H3P_2 C8P_2 1_555 1_555
C9P_2 C5P_2 1_555 1_555
H4P_2 C9P_2 1_555 1_555
H5P_2 C9P_2 1_555 1_555
H6P_2 C9P_2 1_555 1_555
C10P_2 C4P_2 1_555 1_555
H7P_2 C10P_2 1_555 1_555
H8P_2 C10P_2 1_555 1_555
H9P_2 C10P_2 1_555 1_555
C11P_2 C6P_2 1_555 1_555
H10P_2 C11P_2 1_555 1_555
H11P_2 C11P_2 1_555 1_555
H12P_2 C11P_2 1_555 1_555
O2P_2 Cu1H 1_555 1_555
O1T_2 C2T_2 1_555 1_555
C1T_2 B1L_2 1_555 1_555
C2T_2 C3T_2 1_555 1_555
C3T_2 C4T_2 1_555 1_555
C4T_2 C7T_2 1_555 1_555
C5T_2 C1T_2 1_555 1_555
C6T_2 C3T_2 1_555 1_555
C7T_2 C1T_2 1_555 1_555
C8T_2 C7T_2 1_555 1_555
H1T_2 C8T_2 1_555 1_555
H2T_2 C8T_2 1_555 1_555
H3T_2 C8T_2 1_555 1_555
C9T_2 C5T_2 1_555 1_555
H4T_2 C9T_2 1_555 1_555
H5T_2 C9T_2 1_555 1_555
H6T_2 C9T_2 1_555 1_555
C10T_2 C4T_2 1_555 1_555
H7T_2 C10T_2 1_555 1_555
H8T_2 C10T_2 1_555 1_555
H9T_2 C10T_2 1_555 1_555
C11T_2 C6T_2 1_555 1_555
H10T_2 C11T_2 1_555 1_555
H11T_2 C11T_2 1_555 1_555
H12T_2 C11T_2 1_555 1_555
O2T_2 Cu1E 1_555 1_555
Cu1M Cl1 1_555 1_555
O1N C2N 1_555 1_555
C1N B1N 1_555 1_555
C2N C3N 1_555 1_555
B1N C1S 1_555 1_555
C3N C4N 1_555 1_555
C4N C7N 1_555 1_555
C5N C1N 1_555 1_555
C6N C3N 1_555 1_555
C7N C1N 1_555 1_555
C8N C7N 1_555 1_555
H1N C8N 1_555 1_555
H2N C8N 1_555 1_555
H3N C8N 1_555 1_555
C9N C5N 1_555 1_555
H4N C9N 1_555 1_555
H5N C9N 1_555 1_555
H6N C9N 1_555 1_555
C10N C4N 1_555 1_555
H7N C10N 1_555 1_555
H8N C10N 1_555 1_555
H9N C10N 1_555 1_555
C11N C6N 1_555 1_555
H10N C11N 1_555 1_555
H11N C11N 1_555 1_555
H12N C11N 1_555 1_555
O2N C2N 1_555 1_555
O1S C2S 1_555 1_555
C1S C5S 1_555 1_555
C2S C3S 1_555 1_555
C3S C4S 1_555 1_555
C4S C7S 1_555 1_555
C5S C6S 1_555 1_555
C6S C3S 1_555 1_555
C7S C1S 1_555 1_555
C8S C7S 1_555 1_555
H1S C8S 1_555 1_555
H2S C8S 1_555 1_555
H3S C8S 1_555 1_555
C9S C5S 1_555 1_555
H4S C9S 1_555 1_555
H5S C9S 1_555 1_555
H6S C9S 1_555 1_555
C10S C4S 1_555 1_555
H7S C10S 1_555 1_555
H8S C10S 1_555 1_555
H9S C10S 1_555 1_555
C11S C6S 1_555 1_555
H10S C11S 1_555 1_555
H11S C11S 1_555 1_555
H12S C11S 1_555 1_555
O2S Cu1H 1_555 1_555
O1U C2U 1_555 1_555
C1U B1N 1_555 1_555
C2U C3U 1_555 1_555
C3U C4U 1_555 1_555
C4U C7U 1_555 1_555
C5U C1U 1_555 1_555
C6U C3U 1_555 1_555
C7U C1U 1_555 1_555
C8U C7U 1_555 1_555
H1U C8U 1_555 1_555
H2U C8U 1_555 1_555
H3U C8U 1_555 1_555
C9U C5U 1_555 1_555
H4U C9U 1_555 1_555
H5U C9U 1_555 1_555
H6U C9U 1_555 1_555
C10U C4U 1_555 1_555
H7U C10U 1_555 1_555
H8U C10U 1_555 1_555
H9U C10U 1_555 1_555
C11U C6U 1_555 1_555
H10U C11U 1_555 1_555
H11U C11U 1_555 1_555
H12U C11U 1_555 1_555
O2U C2U 1_555 1_555
O1N_2 Cu1L 1_555 1_555
C1N_2 B1N_2 1_555 1_555
C2N_2 O1N_2 1_555 1_555
B1N_2 C1S_2 1_555 1_555
C3N_2 C2N_2 1_555 1_555
C4N_2 C3N_2 1_555 1_555
C5N_2 C1N_2 1_555 1_555
C6N_2 C3N_2 1_555 1_555
C7N_2 C1N_2 1_555 1_555
C8N_2 C7N_2 1_555 1_555
H1N_2 C8N_2 1_555 1_555
H2N_2 C8N_2 1_555 1_555
H3N_2 C8N_2 1_555 1_555
C9N_2 C5N_2 1_555 1_555
H4N_2 C9N_2 1_555 1_555
H5N_2 C9N_2 1_555 1_555
H6N_2 C9N_2 1_555 1_555
C10N_2 C4N_2 1_555 1_555
H7N_2 C10N_2 1_555 1_555
H8N_2 C10N_2 1_555 1_555
H9N_2 C10N_2 1_555 1_555
C11N_2 C6N_2 1_555 1_555
H10N_2 C11N_2 1_555 1_555
H11N_2 C11N_2 1_555 1_555
H12N_2 C11N_2 1_555 1_555
O2N_2 Cu1A 1_555 1_555
O1S_2 C2S_2 1_555 1_555
C1S_2 C5S_2 1_555 1_555
C2S_2 C3S_2 1_555 1_555
C3S_2 C4S_2 1_555 1_555
C4S_2 C7S_2 1_555 1_555
C5S_2 C6S_2 1_555 1_555
C6S_2 C3S_2 1_555 1_555
C7S_2 C1S_2 1_555 1_555
C8S_2 C7S_2 1_555 1_555
H1S_2 C8S_2 1_555 1_555
H2S_2 C8S_2 1_555 1_555
H3S_2 C8S_2 1_555 1_555
C9S_2 C5S_2 1_555 1_555
H4S_2 C9S_2 1_555 1_555
H5S_2 C9S_2 1_555 1_555
H6S_2 C9S_2 1_555 1_555
C10S_2 C4S_2 1_555 1_555
H7S_2 C10S_2 1_555 1_555
H8S_2 C10S_2 1_555 1_555
H9S_2 C10S_2 1_555 1_555
C11S_2 C6S_2 1_555 1_555
H10S_2 C11S_2 1_555 1_555
H11S_2 C11S_2 1_555 1_555
H12S_2 C11S_2 1_555 1_555
O2S_2 C2S_2 1_555 1_555
O1U_2 C2U_2 1_555 1_555
C1U_2 B1N_2 1_555 1_555
C2U_2 C3U_2 1_555 1_555
C3U_2 C4U_2 1_555 1_555
C4U_2 C7U_2 1_555 1_555
C5U_2 C1U_2 1_555 1_555
C6U_2 C3U_2 1_555 1_555
C7U_2 C1U_2 1_555 1_555
C8U_2 C7U_2 1_555 1_555
H1U_2 C8U_2 1_555 1_555
H2U_2 C8U_2 1_555 1_555
H3U_2 C8U_2 1_555 1_555
C9U_2 C5U_2 1_555 1_555
H4U_2 C9U_2 1_555 1_555
H5U_2 C9U_2 1_555 1_555
H6U_2 C9U_2 1_555 1_555
C10U_2 C4U_2 1_555 1_555
H7U_2 C10U_2 1_555 1_555
H8U_2 C10U_2 1_555 1_555
H9U_2 C10U_2 1_555 1_555
C11U_2 C6U_2 1_555 1_555
H10U_2 C11U_2 1_555 1_555
H11U_2 C11U_2 1_555 1_555
H12U_2 C11U_2 1_555 1_555
O2U_2 Cu1D 1_555 1_555
Cu1P O1P 1_555 1_555
Cu1Q O2H 1_555 1_555
Cu1_2 O1B 1_555 1_555
Cu1A_2 O2N 1_555 1_555
Cu1A_3 O1C 1_555 1_555
Cu1D_3 O2U 1_555 1_555
Cu1E_3 O2T 1_555 1_555
Cu1H_2 O2P 1_555 1_555
Cu1H_3 O1J 1_555 1_555
Cu1I_2 O1K 1_555 1_555
Cu1L_2 O1N 1_555 1_555
Cu1L_3 O2C 1_555 1_555
Cu1M_2 O2B 1_555 1_555
Cu1P_2 O2I 1_555 1_555
Cu1P_3 O2J 1_555 1_555
Cu1Q_2 O2K 1_555 1_555
Cu1T O1T 1_555 1_555
Cu1T_2 O2D 1_555 1_555
Cu1T_3 Cl1D_2 1_555 1_555
Cu1U O1U 1_555 1_555
Cu1U_2 Cl1D 1_555 1_555
Cu1U_3 O2F 1_555 1_555
Cl1H Cu1P 1_555 1_555
Cl1H_2 Cu1H 1_555 1_555
O1B_2 Cu1 1_555 1_555
O1C_2 Cu1A 1_555 1_555
O1D_2 Cu1D_2 1_555 1_555
O1E_2 Cu1E_2 1_555 1_555
O1F_2 Cu1D 1_555 1_555
O1G_2 Cu1E 1_555 1_555
O1J_2 Cu1H 1_555 1_555
O1K_2 Cu1I 1_555 1_555
O1M Cu1M 1_555 1_555
O1O Cu1M 1_555 1_555
O1Q Cu1Q 1_555 1_555
O1R Cu1P 1_555 1_555
O2B_2 Cu1M 1_555 1_555
O2C_2 Cu1L 1_555 1_555
O2I_2 Cu1P 1_555 1_555
O2J_2 Cu1P 1_555 1_555
O2K_2 Cu1Q 1_555 1_555
O2M Cu1A 1_555 1_555
O2O Cu1 1_555 1_555
O2Q Cu1I 1_555 1_555
O2R Cu1I 1_555 1_555
O2T_3 Cu1E_2 1_555 1_555
O2U_3 Cu1D_2 1_555 1_555
O2V Cu1D 1_555 1_555
O2V_2 Cu1D_2 1_555 1_555
O2W Cu1E 1_555 1_555
O2W_2 Cu1E_2 1_555 1_555
C4 C7 1_555 1_555
C5 C6 1_555 1_555
O2 Cu1L 1_555 1_555
C5H C6H 1_555 1_555
C5A C6A 1_555 1_555
O2A Cu1M 1_555 1_555
C5K C6K 1_555 1_555
Cl1D Cu1T_2 1_555 1_555
C4E C7E 1_555 1_555
C5E C6E 1_555 1_555
O2E Cu1U_2 1_555 1_555
C5C C6C 1_555 1_555
Cl1D_2 Cu1U_3 1_555 1_555
C4G C7G 1_555 1_555
C5G C6G 1_555 1_555
O2G Cu1T_3 1_555 1_555
C5B C6B 1_555 1_555
Cu1I Cl1H_2 1_555 1_555
C2L O2L 1_555 1_555
C4L C7L 1_555 1_555
C5L C6L 1_555 1_555
C5T C6T 1_555 1_555
O1L_2 Cu1L_3 1_555 1_555
C5L_2 C6L_2 1_555 1_555
O2L_2 Cu1_2 1_555 1_555
O1P_2 Cu1P_2 1_555 1_555
C2P_2 O2P_2 1_555 1_555
O1T_2 Cu1T_2 1_555 1_555
C2T_2 O2T_2 1_555 1_555
C5T_2 C6T_2 1_555 1_555
C5N C6N 1_555 1_555
O1S Cu1Q 1_555 1_555
C2S O2S 1_555 1_555
C5U C6U 1_555 1_555
C2N_2 O2N_2 1_555 1_555
C4N_2 C7N_2 1_555 1_555
C5N_2 C6N_2 1_555 1_555
O1S_2 Cu1Q_2 1_555 1_555
O2S_2 Cu1H_3 1_555 1_555
O1U_2 Cu1U_2 1_555 1_555
C2U_2 O2U_2 1_555 1_555
C5U_2 C6U_2 1_555 1_555
Cu1Q Cl1H_2 1_555 1_555
Cu1H_2 Cl1H 1_555 1_555
Cu1P_2 Cl1H_2 1_555 1_555

#END
