
#######################################################################
#
#                 Cambridge Crystallographic Data Centre
#                                CCDC 
#
#######################################################################
#
# If this CIF has been generated from an entry in the Cambridge 
# Structural Database, then it will include bibliographic, chemical, 
# crystal, experimental, refinement or atomic coordinate data resulting 
# from the CCDC's data processing and validation procedures.
#
#######################################################################

data_NAXKOO02
_chemical_name_common            amino-MIL53(Al)_NP_form
_chemical_formula_moiety         '(C8 H5 Al1 N1 O5)n,n(C1 O2)'
_chemical_name_systematic        
'catena-((\m~4~-2aminobenzene-1,4-dicarboxylato)-(\m~2~-oxo)-aluminium carbon dioxide clathrate)'
_symmetry_cell_setting           monoclinic
_symmetry_space_group_name_H-M   'C c'
_symmetry_Int_Tables_number      9
_space_group_name_Hall           'C -2yc'
loop_
_symmetry_equiv_pos_site_id
_symmetry_equiv_pos_as_xyz
1 x,y,z
2 x,-y,1/2+z
3 1/2+x,1/2+y,z
4 1/2+x,1/2-y,1/2+z
_cell_length_a                   20.4375(18)
_cell_length_b                   7.8496(7)
_cell_length_c                   6.5934(8)
_cell_angle_alpha                90
_cell_angle_beta                 111.801(10)
_cell_angle_gamma                90
_cell_volume                     982.103
_cell_formula_units_Z            4
loop_
_atom_site_label
_atom_site_type_symbol
_atom_site_fract_x
_atom_site_fract_y
_atom_site_fract_z
Al1 Al 0.00000 0.00000 0.00000
C1 C 0.179550(18) -0.23229(22) 0.46013(6)
C2 C 0.206410(9) -0.29350(11) 0.304650(30)
C3 C 0.278830(9) -0.33344(11) 0.369560(30)
C4 C 0.324380(18) -0.31217(22) 0.58994(6)
C5 C 0.297510(9) -0.25095(11) 0.745420(30)
C6 C 0.225100(9) -0.21101(11) 0.680510(30)
C7 C 0.10713(4) -0.1923(4) 0.39522(12)
O1 O 0.06716(4) -0.2110(5) 0.20182(15)
O2 O 0.08356(4) -0.1386(5) 0.53165(15)
C8 C 0.39679(4) -0.3521(4) 0.65485(12)
O3 O 0.42037(4) -0.4058(5) 0.51842(15)
O4 O 0.43676(4) -0.3334(5) 0.84825(15)
N1 N 0.160860(18) -0.31477(22) 0.08427(6)
O5 O 0.0026(23) -0.1103(22) -0.261(9)
Al1A Al 0.00000 0.00000 0.50000
Al1C Al 0.50000 -0.50000 0.50000
Al1B Al 0.50000 -0.50000 1.00000
Al1A_2 Al 0.00000 0.00000 -0.50000
O2A O 0.08356(4) 0.1386(5) 0.03165(15)
O3C O -0.07963(4) -0.0942(5) 0.01842(15)
O4B O -0.06324(4) 0.1666(5) -0.15175(15)
O5A O 0.0026(23) 0.1103(22) 0.239(9)
C9? C -0.0124(24) 0.469(9) 0.519(29)
O6? O -0.007(5) 0.508(13) 0.694(27)
O7? O -0.018(4) 0.430(6) 0.344(30)
loop_
_geom_bond_atom_site_label_1
_geom_bond_atom_site_label_2
_geom_bond_site_symmetry_1
_geom_bond_site_symmetry_2
Al1 O1 1_555 1_555
C1 C2 1_555 1_555
C2 C3 1_555 1_555
C3 C4 1_555 1_555
C4 C5 1_555 1_555
C5 C6 1_555 1_555
C6 C1 1_555 1_555
C7 C1 1_555 1_555
O1 C7 1_555 1_555
O2 C7 1_555 1_555
C8 C4 1_555 1_555
O3 C8 1_555 1_555
O4 C8 1_555 1_555
N1 C2 1_555 1_555
O5 Al1 1_555 1_555
Al1A O2 1_555 1_555
Al1C O3 1_555 1_555
Al1B O4 1_555 1_555
Al1A_2 O5 1_555 1_555
O2A Al1 1_555 1_555
O3C Al1 1_555 1_555
O4B Al1 1_555 1_555
O5A Al1 1_555 1_555
Al1A O5A 1_555 1_555

#END
