
#######################################################################
#
#                 Cambridge Crystallographic Data Centre
#                                CCDC 
#
#######################################################################
#
# If this CIF has been generated from an entry in the Cambridge 
# Structural Database, then it will include bibliographic, chemical, 
# crystal, experimental, refinement or atomic coordinate data resulting 
# from the CCDC's data processing and validation procedures.
#
#######################################################################

data_PIQMOT
_chemical_formula_moiety         
'(C39 H24 Ce1 N1 O6)n,1.5n(H2 O1),0.5n(C2 H6 O1),n(C3 H7 N1 O1)'
_chemical_name_systematic        
"catena-((\m~6~-4',4'',4'''-Nitrilotribiphenyl-4-carboxylato)-cerium dimethylformamide ethanol solvate sesquihydrate)"
_symmetry_cell_setting           orthorhombic
_symmetry_space_group_name_H-M   'P n c 2'
_symmetry_Int_Tables_number      30
_space_group_name_Hall           'P 2 -2bc'
loop_
_symmetry_equiv_pos_site_id
_symmetry_equiv_pos_as_xyz
1 x,y,z
2 -x,-y,z
3 x,1/2-y,1/2+z
4 -x,1/2+y,1/2+z
_cell_length_a                   22.1408(6)
_cell_length_b                   24.5577(8)
_cell_length_c                   7.3445(2)
_cell_angle_alpha                90
_cell_angle_beta                 90
_cell_angle_gamma                90
_cell_volume                     3993.4
_exptl_crystal_colour            yellow
_exptl_crystal_description       needle
_cell_formula_units_Z            4
loop_
_atom_site_label
_atom_site_type_symbol
_atom_site_fract_x
_atom_site_fract_y
_atom_site_fract_z
O7 O 0.5706(6) 0.4502(7) -0.297(6)
O8 O 0.4114(8) 0.0252(13) 1.079(5)
Ce1 Ce 0.26041(2) 0.267530(19) 0.78177(15)
O1 O 0.6315(4) -0.2036(3) 2.2505(13)
O2 O 0.6809(4) -0.2104(3) 1.9870(13)
O3 O -0.1977(3) -0.2141(3) 1.9873(12)
O4 O -0.1527(4) -0.1943(3) 2.2460(13)
O5 O 0.2649(4) 0.1324(4) 0.3398(13)
O6 O 0.2611(3) 0.1858(3) 0.5794(13)
N1 N 0.2419(4) -0.1669(4) 1.4042(15)
C1 C 0.2630(5) 0.1377(4) 0.5118(18)
C2 C 0.0152(4) -0.1767(4) 1.788(3)
C3 C 0.5738(4) -0.1787(4) 1.792(3)
H1 H 0.6098 -0.1747 1.7285
C4 C -0.0930(5) -0.1859(4) 1.784(3)
H2 H -0.1287 -0.1890 1.7184
C5 C 0.4628(5) -0.1792(4) 1.803(2)
C6 C 0.2381(5) -0.1295(4) 1.264(3)
C7 C 0.6304(6) -0.2015(5) 2.0832(17)
C8 C 0.5747(5) -0.1917(5) 1.9812(17)
C9 C -0.0949(5) -0.1869(5) 1.9719(19)
C10 C 0.2668(5) 0.0375(5) 0.563(2)
H3 H 0.2745 0.0323 0.4394
C11 C 0.1980(5) -0.0847(4) 1.257(2)
H4 H 0.1678 -0.0819 1.3445
C12 C 0.2508(7) -0.0018(8) 0.867(2)
C13 C 0.5183(5) -0.1971(5) 2.075(2)
H5 H 0.5182 -0.2047 2.1989
C14 C 0.2624(8) -0.0075(7) 0.678(2)
H6 H 0.2672 -0.0422 0.6301
C15 C 0.2827(6) -0.0934(5) 0.9812(18)
H7 H 0.3107 -0.0968 0.8875
C16 C -0.1513(5) -0.1995(4) 2.0781(17)
C17 C 0.2598(6) 0.0889(6) 0.630(2)
C18 C 0.2519(6) 0.0962(5) 0.812(4)
H8 H 0.2511 0.1313 0.8590
C19 C 0.2453(5) -0.0475(5) 0.9879(18)
C20 C -0.0412(5) -0.1812(6) 2.0691(18)
H9 H -0.0416 -0.1808 2.1957
C21 C 0.5190(6) -0.1720(4) 1.7048(18)
H10 H 0.5183 -0.1628 1.5819
C22 C 0.1252(5) -0.1515(4) 1.774(3)
H11 H 0.1225 -0.1374 1.8907
C23 C 0.4051(5) -0.1759(4) 1.6992(17)
C24 C 0.2958(4) -0.1695(5) 1.5047(17)
C25 C -0.0385(6) -0.1803(5) 1.6920(19)
H12 H -0.0381 -0.1790 1.5655
C26 C 0.2023(5) -0.0456(5) 1.1266(19)
H13 H 0.1755 -0.0165 1.1298
C27 C 0.0739(5) -0.1750(5) 1.6848(17)
C28 C 0.1351(5) -0.1972(5) 1.4216(17)
H14 H 0.1385 -0.2127 1.3066
C29 C 0.2788(6) -0.1337(5) 1.1106(18)
H15 H 0.3029 -0.1645 1.0992
C30 C 0.3571(5) -0.2127(4) 1.7334(15)
H16 H 0.3614 -0.2392 1.8227
C31 C 0.1798(5) -0.1508(4) 1.6768(17)
H17 H 0.2132 -0.1345 1.7313
C32 C 0.2449(6) 0.0514(6) 0.932(2)
H18 H 0.2362 0.0574 1.0539
C33 C 0.0129(6) -0.1760(6) 1.9758(19)
H19 H 0.0486 -0.1719 2.0413
C34 C 0.4637(5) -0.1913(5) 1.9837(18)
H20 H 0.4276 -0.1958 2.0466
C35 C 0.0809(5) -0.1976(5) 1.5114(18)
H21 H 0.0476 -0.2135 1.4551
C36 C 0.3442(4) -0.1320(4) 1.4680(18)
C37 C 0.1867(6) -0.1725(5) 1.5071(17)
C38 C 0.3965(5) -0.1359(5) 1.5640(17)
C39 C 0.3040(6) -0.2094(4) 1.6352(16)
Ce1A Ce -0.26041(2) -0.267530(19) 1.78177(15)
Ce1A_2 Ce 0.73959(2) -0.267530(19) 1.78177(15)
Ce1B Ce 0.26041(2) 0.232470(19) 0.28177(15)
Ce1C Ce -0.26041(2) -0.232470(19) 2.28177(15)
Ce1C_2 Ce 0.73959(2) -0.232470(19) 2.28177(15)
O1C O 0.3685(4) 0.2964(3) 0.7505(13)
O2A O 0.3191(4) 0.2104(3) 0.9870(13)
O2C O 0.3191(4) 0.2896(3) 0.4870(13)
O3A O 0.1977(3) 0.2141(3) 0.9873(12)
O3C O 0.1977(3) 0.2859(3) 0.4873(12)
O4C O 0.1527(4) 0.3057(3) 0.7460(13)
O5B O 0.2649(4) 0.3676(4) 0.8398(13)
O6B O 0.2611(3) 0.3142(3) 1.0794(13)
loop_
_geom_bond_atom_site_label_1
_geom_bond_atom_site_label_2
_geom_bond_site_symmetry_1
_geom_bond_site_symmetry_2
Ce1 O6 1_555 1_555
O1 C7 1_555 1_555
O2 C7 1_555 1_555
O3 C16 1_555 1_555
O4 C16 1_555 1_555
O5 C1 1_555 1_555
O6 C1 1_555 1_555
N1 C6 1_555 1_555
C1 C17 1_555 1_555
C2 C25 1_555 1_555
C3 H1 1_555 1_555
C4 H2 1_555 1_555
C5 C21 1_555 1_555
C6 C11 1_555 1_555
C7 C8 1_555 1_555
C8 C3 1_555 1_555
C9 C4 1_555 1_555
C10 H3 1_555 1_555
C11 H4 1_555 1_555
C12 C14 1_555 1_555
C13 C8 1_555 1_555
H5 C13 1_555 1_555
C14 C10 1_555 1_555
H6 C14 1_555 1_555
C15 H7 1_555 1_555
C16 C9 1_555 1_555
C17 C10 1_555 1_555
C18 C17 1_555 1_555
H8 C18 1_555 1_555
C19 C12 1_555 1_555
C20 C9 1_555 1_555
H9 C20 1_555 1_555
C21 C3 1_555 1_555
H10 C21 1_555 1_555
C22 H11 1_555 1_555
C23 C5 1_555 1_555
C24 N1 1_555 1_555
C25 C4 1_555 1_555
H12 C25 1_555 1_555
C26 C11 1_555 1_555
H13 C26 1_555 1_555
C27 C2 1_555 1_555
C28 H14 1_555 1_555
C29 C6 1_555 1_555
H15 C29 1_555 1_555
C30 C23 1_555 1_555
H16 C30 1_555 1_555
C31 C22 1_555 1_555
H17 C31 1_555 1_555
C32 C12 1_555 1_555
H18 C32 1_555 1_555
C33 C2 1_555 1_555
H19 C33 1_555 1_555
C34 C5 1_555 1_555
H20 C34 1_555 1_555
C35 C27 1_555 1_555
H21 C35 1_555 1_555
C36 C24 1_555 1_555
C37 N1 1_555 1_555
C38 C23 1_555 1_555
C39 C24 1_555 1_555
Ce1A O3 1_555 1_555
Ce1A_2 O2 1_555 1_555
Ce1B O5 1_555 1_555
Ce1C O3 1_555 1_555
Ce1C_2 O1 1_555 1_555
O1C Ce1 1_555 1_555
O2A Ce1 1_555 1_555
O2C Ce1 1_555 1_555
O3A Ce1 1_555 1_555
O3C Ce1 1_555 1_555
O4C Ce1 1_555 1_555
O5B Ce1 1_555 1_555
O6B Ce1 1_555 1_555
O2 Ce1C_2 1_555 1_555
O4 Ce1C 1_555 1_555
O6 Ce1B 1_555 1_555
C13 C34 1_555 1_555
C15 C19 1_555 1_555
C15 C29 1_555 1_555
C18 C32 1_555 1_555
C19 C26 1_555 1_555
C20 C33 1_555 1_555
C22 C27 1_555 1_555
C28 C35 1_555 1_555
C28 C37 1_555 1_555
C30 C39 1_555 1_555
C31 C37 1_555 1_555
C36 C38 1_555 1_555
Ce1B O2C 1_555 1_555
Ce1B O3C 1_555 1_555

#END
