
#######################################################################
#
#                 Cambridge Crystallographic Data Centre
#                                CCDC 
#
#######################################################################
#
# If this CIF has been generated from an entry in the Cambridge 
# Structural Database, then it will include bibliographic, chemical, 
# crystal, experimental, refinement or atomic coordinate data resulting 
# from the CCDC's data processing and validation procedures.
#
#######################################################################

data_MIZZOM
_chemical_formula_moiety         '(C13 H8 N2 Ni1 O6)n'
_chemical_name_systematic        
'catena-[(\m~3~-Hydrogen benzene-1,3,5-tricarboxylato)-(\m~2~-pyrazine)-nickel unknown solvate]'
_symmetry_cell_setting           hexagonal
_symmetry_space_group_name_H-M   'P 63/m m c'
_symmetry_Int_Tables_number      194
_space_group_name_Hall           '-P 6c 2c'
loop_
_symmetry_equiv_pos_site_id
_symmetry_equiv_pos_as_xyz
1 x,y,z
2 -x,-y,1/2+z
3 -y,x-y,z
4 -x+y,-x,z
5 x-y,x,1/2+z
6 y,-x+y,1/2+z
7 x-y,-y,-z
8 -x,-x+y,-z
9 y,x,-z
10 -y,-x,1/2-z
11 x,x-y,1/2-z
12 -x+y,y,1/2-z
13 -x,-y,-z
14 x,y,1/2-z
15 y,-x+y,-z
16 x-y,x,-z
17 -x+y,-x,1/2-z
18 -y,x-y,1/2-z
19 -x+y,y,z
20 x,x-y,z
21 -y,-x,z
22 y,x,1/2+z
23 -x,-x+y,1/2+z
24 x-y,-y,1/2+z
_cell_length_a                   9.5935(14)
_cell_length_b                   9.5935(14)
_cell_length_c                   13.836(3)
_cell_angle_alpha                90
_cell_angle_beta                 90
_cell_angle_gamma                120
_cell_volume                     1102.8
_exptl_crystal_colour            green
_exptl_crystal_description       block
_cell_formula_units_Z            2
loop_
_atom_site_label
_atom_site_type_symbol
_atom_site_fract_x
_atom_site_fract_y
_atom_site_fract_z
Ni1 Ni 0.0000 0.0000 0.2500
O1 O 0.2485(12) 0.2356(10) 0.2500
C1 C 0.310(2) 0.1549(12) 0.2500
C2 C 0.4997(17) 0.2499(9) 0.2500
C3 C 0.5839(9) 0.4161(9) 0.2500
H1 H 0.5267 0.4733 0.2500
N1 N 0.0000 0.0000 0.1002(6)
C4 C 0.1138(15) 0.1162(15) 0.0491(10)
O1B O 0.7644(10) 0.0129(16) 0.2500
C1B C 0.8451(12) 0.1551(23) 0.2500
C2B C 0.7501(9) 0.2498(19) 0.2500
C3B C 0.5839(9) 0.1678(13) 0.2500
H1B H 0.5267 0.0534 0.2500
O1C O 0.9871(16) 0.7515(12) 0.2500
C1C C 0.8449(23) 0.690(2) 0.2500
C2C C 0.7502(19) 0.5003(17) 0.2500
C3C C 0.8322(13) 0.4161(9) 0.2500
H1C H 0.9466 0.4733 0.2500
O1I O 0.7644(10) 0.7515(12) 0.2500
O1J O 0.2485(12) 0.0129(16) 0.2500
O1K O 0.9871(16) 0.2356(10) 0.2500
C4B C -0.1162(15) -0.0024(21) 0.0491(10)
C4C C 0.0024(21) -0.1138(15) 0.0491(10)
N1F N 0.0000 0.0000 -0.1002(6)
C4F C -0.0024(21) -0.1162(15) -0.0491(10)
C4G C -0.1138(15) 0.0024(21) -0.0491(10)
C4H C 0.1162(15) 0.1138(15) -0.0491(10)
C4L C -0.1138(15) -0.1162(15) -0.0491(10)
C4N C 0.1162(15) 0.0024(21) -0.0491(10)
C4O C -0.0024(21) 0.1138(15) -0.0491(10)
C4R C 0.0024(21) 0.1162(15) 0.0491(10)
C4S C 0.1138(15) -0.0024(21) 0.0491(10)
C4T C -0.1162(15) -0.1138(15) 0.0491(10)
Ni1_2 Ni 1.0000 0.0000 0.2500
Ni1_3 Ni 1.0000 1.0000 0.2500
Ni1A Ni 0.0000 0.0000 -0.2500
O1B_2 O -0.2356(10) 0.0129(16) 0.2500
O1C_2 O -0.0129(16) -0.2485(12) 0.2500
O1I_2 O -0.2356(10) -0.2485(12) 0.2500
O1K_2 O -0.0129(16) 0.2356(10) 0.2500
C1B_2 C -0.1549(12) 0.1551(23) 0.2500
C1C_2 C -0.1551(23) -0.310(2) 0.2500
N1I N 0.0000 0.0000 0.3998(6)
O2? O 0.3033(15) 0.3637(17) 0.2500
C5? C 0.3397(17) 0.2531(18) 0.2500
C6? C 0.5243(12) 0.3357(19) 0.2500
O3? O 0.2262(9) 0.1131(5) 0.2500
loop_
_geom_bond_atom_site_label_1
_geom_bond_atom_site_label_2
_geom_bond_site_symmetry_1
_geom_bond_site_symmetry_2
Ni1 O1 1_555 1_555
O1 C1 1_555 1_555
C1 C2 1_555 1_555
C2 C3 1_555 1_555
C3 H1 1_555 1_555
N1 Ni1 1_555 1_555
C4 N1 1_555 1_555
O1B C1B 1_555 1_555
C1B C2B 1_555 1_555
C2B C3B 1_555 1_555
C3B C2 1_555 1_555
H1B C3B 1_555 1_555
O1C C1C 1_555 1_555
C1C C2C 1_555 1_555
C2C C3 1_555 1_555
C3C C2B 1_555 1_555
H1C C3C 1_555 1_555
O1I C1C 1_555 1_555
O1J Ni1 1_555 1_555
O1K C1B 1_555 1_555
C4B N1 1_555 1_555
C4C N1 1_555 1_555
N1F C4F 1_555 1_555
C4F C4C 1_555 1_555
C4G C4B 1_555 1_555
C4H C4 1_555 1_555
C4L N1F 1_555 1_555
C4N N1F 1_555 1_555
C4O N1F 1_555 1_555
C4R N1 1_555 1_555
C4S N1 1_555 1_555
C4T N1 1_555 1_555
Ni1_2 O1B 1_555 1_555
Ni1_3 O1C 1_555 1_555
Ni1A N1F 1_555 1_555
O1B_2 Ni1 1_555 1_555
O1C_2 Ni1 1_555 1_555
O1I_2 Ni1 1_555 1_555
O1K_2 Ni1 1_555 1_555
C1B_2 O1B_2 1_555 1_555
C1C_2 O1C_2 1_555 1_555
N1I Ni1 1_555 1_555
C1 O1J 1_555 1_555
C2C C3C 1_555 1_555
O1I Ni1_3 1_555 1_555
O1K Ni1_2 1_555 1_555
N1F C4G 1_555 1_555
N1F C4H 1_555 1_555
C4L C4T 1_555 1_555
C4N C4S 1_555 1_555
C4O C4R 1_555 1_555
O1I_2 C1C_2 1_555 1_555
O1K_2 C1B_2 1_555 1_555

#END
