
#######################################################################
#
#                 Cambridge Crystallographic Data Centre
#                                CCDC 
#
#######################################################################
#
# If this CIF has been generated from an entry in the Cambridge 
# Structural Database, then it will include bibliographic, chemical, 
# crystal, experimental, refinement or atomic coordinate data resulting 
# from the CCDC's data processing and validation procedures.
#
#######################################################################

data_BUSQEM
_chemical_formula_moiety         '(C34 H16 Mn1 N10)n,n(C6 H6)'
_chemical_name_systematic        
"catena-((\m~4~-((1,1,2,2-tetracyanoethane-1,2-diyl)bis[benzene-4,1-diyl(2-cyanoethen-2-yl-1-ylidene)])diazanide)-(\m~2~-4,4'-bipyridine)-manganese benzene solvate)"
_symmetry_cell_setting           orthorhombic
_symmetry_space_group_name_H-M   'P c c m'
_symmetry_Int_Tables_number      49
_space_group_name_Hall           '-P 2 2c'
loop_
_symmetry_equiv_pos_site_id
_symmetry_equiv_pos_as_xyz
1 x,y,z
2 -x,-y,z
3 x,-y,1/2-z
4 -x,y,1/2-z
5 -x,-y,-z
6 x,y,-z
7 -x,y,1/2+z
8 x,-y,1/2+z
_cell_length_a                   11.616(3)
_cell_length_b                   12.503(3)
_cell_length_c                   14.891(4)
_cell_angle_alpha                90
_cell_angle_beta                 90
_cell_angle_gamma                90
_cell_volume                     2162.69
_exptl_crystal_colour            colorless
_exptl_crystal_description       prism
_cell_formula_units_Z            2
loop_
_atom_site_label
_atom_site_type_symbol
_atom_site_fract_x
_atom_site_fract_y
_atom_site_fract_z
Mn1 Mn 0.5000 0.5000 0.7500
N1 N 0.4986(2) 0.3747(2) 0.6458(2)
N2 N 0.9059(6) -0.1396(5) 0.6427(5)
N3 N 0.6955(2) 0.5000 0.7500
C1 C 0.5368(3) 0.3417(2) 0.5798(2)
C2 C 0.5827(4) 0.3021(4) 0.5000
C3 C 0.6768(5) 0.2264(4) 0.5000
C4 C 0.7243(4) 0.1880(4) 0.5804(3)
C5 C 0.8058(5) 0.1074(5) 0.5800(4)
C6 C 0.8435(7) 0.0638(6) 0.5000
C7 C 0.9362(8) -0.0272(7) 0.5000
C8 C 0.9229(4) -0.0920(3) 0.5797(4)
C9 C 0.7551(3) 0.4118(2) 0.7678(2)
C10 C 0.8743(2) 0.4080(2) 0.7681(2)
C11 C 0.9358(3) 0.5000 0.7500
H1 H 0.6994 0.2174 0.6359
H2 H 0.8365 0.0820 0.6352
H3 H 0.7140 0.3481 0.7813
H4 H 0.9133 0.3429 0.7808
Mn1D Mn 0.5000 0.5000 0.2500
Mn1_2 Mn 1.5000 -0.5000 0.7500
Mn1D_2 Mn 1.5000 -0.5000 0.2500
Mn1_3 Mn 1.5000 0.5000 0.7500
N1E N 0.4986(2) 0.3747(2) 0.3542(2)
N1A N 1.5014(2) -0.3747(2) 0.6458(2)
N1D N 1.5014(2) -0.3747(2) 0.3542(2)
N1A_2 N 0.5014(2) 0.6253(2) 0.6458(2)
N1B N 0.4986(2) 0.6253(2) 0.8542(2)
N1C N 0.5014(2) 0.3747(2) 0.8542(2)
N2A N 1.0941(6) 0.1396(5) 0.6427(5)
N2D N 1.0941(6) 0.1396(5) 0.3573(5)
N2E N 0.9059(6) -0.1396(5) 0.3573(5)
N3A N 1.3045(2) 0.5000 0.7500
N3A_2 N 0.3045(2) 0.5000 0.7500
C1E C 0.5368(3) 0.3417(2) 0.4202(2)
C1A C 1.4632(3) -0.3417(2) 0.5798(2)
C1D C 1.4632(3) -0.3417(2) 0.4202(2)
C2A C 1.4173(4) -0.3021(4) 0.5000
C3A C 1.3232(5) -0.2264(4) 0.5000
C4E C 0.7243(4) 0.1880(4) 0.4196(3)
C4A C 1.2757(4) -0.1880(4) 0.5804(3)
C4D C 1.2757(4) -0.1880(4) 0.4196(3)
C5E C 0.8058(5) 0.1074(5) 0.4200(4)
C5A C 1.1942(5) -0.1074(5) 0.5800(4)
C5D C 1.1942(5) -0.1074(5) 0.4200(4)
C6A C 1.1565(7) -0.0638(6) 0.5000
C7A C 1.0638(8) 0.0272(7) 0.5000
C8A C 1.0771(4) 0.0920(3) 0.5797(4)
C8D C 1.0771(4) 0.0920(3) 0.4203(4)
C8E C 0.9229(4) -0.0920(3) 0.4203(4)
C9B C 0.7551(3) 0.5882(2) 0.7322(2)
C9A C 1.2449(3) 0.5882(2) 0.7678(2)
C9C C 1.2449(3) 0.4118(2) 0.7322(2)
C10B C 0.8743(2) 0.5920(2) 0.7319(2)
C10A C 1.1257(2) 0.5920(2) 0.7681(2)
C10C C 1.1257(2) 0.4080(2) 0.7319(2)
C11A C 1.0642(3) 0.5000 0.7500
H1E H 0.6994 0.2174 0.3641
H1D H 1.3006 -0.2174 0.3641
H1A H 1.3006 -0.2174 0.6359
H2E H 0.8365 0.0820 0.3648
H2D H 1.1635 -0.0820 0.3648
H2A H 1.1635 -0.0820 0.6352
H3B H 0.7140 0.6519 0.7187
H3C H 1.2860 0.3481 0.7187
H3A H 1.2860 0.6519 0.7813
H4B H 0.9133 0.6571 0.7192
H4C H 1.0867 0.3429 0.7192
H4A H 1.0867 0.6571 0.7808
C12 C 0.117(2) 0.4691(18) 0.000000(10)
C13 C 0.033(2) 0.3934(9) 0.000000(10)
C14 C 0.080(2) 0.5767(17) 0.000000(10)
H5 H 0.1966 0.4508 0.0000
H6 H 0.0539 0.3199 0.0000
H7 H 0.1369 0.6314 0.0000
C12A C -0.117(2) 0.5309(18) 0.000000(10)
C13A C -0.033(2) 0.6066(9) 0.000000(10)
C14A C -0.080(2) 0.4233(17) 0.000000(10)
H5A H -0.1966 0.5492 0.0000
H6A H -0.0539 0.6801 0.0000
H7A H -0.1369 0.3686 0.0000
loop_
_geom_bond_atom_site_label_1
_geom_bond_atom_site_label_2
_geom_bond_site_symmetry_1
_geom_bond_site_symmetry_2
Mn1 N1 1_555 1_555
N1 C1 1_555 1_555
N2 C8 1_555 1_555
N3 Mn1 1_555 1_555
C1 C2 1_555 1_555
C2 C3 1_555 1_555
C3 C4 1_555 1_555
C4 C5 1_555 1_555
C5 C6 1_555 1_555
C6 C7 1_555 1_555
C7 C8 1_555 1_555
C9 N3 1_555 1_555
C10 C9 1_555 1_555
C11 C10 1_555 1_555
C12 C13 1_555 1_555
C13 H6 1_555 1_555
C14 C12 1_555 1_555
H1 C4 1_555 1_555
H2 C5 1_555 1_555
H3 C9 1_555 1_555
H4 C10 1_555 1_555
H5 C12 1_555 1_555
H7 C14 1_555 1_555
Mn1D N1E 1_555 1_555
Mn1_2 N1A 1_555 1_555
Mn1D_2 N1D 1_555 1_555
Mn1_3 N3A 1_555 1_555
N1E C1E 1_555 1_555
N1A C1A 1_555 1_555
N1D C1D 1_555 1_555
N1A_2 Mn1 1_555 1_555
N1B Mn1 1_555 1_555
N1C Mn1 1_555 1_555
N2A C8A 1_555 1_555
N2D C8D 1_555 1_555
N2E C8E 1_555 1_555
N3A C9A 1_555 1_555
N3A_2 Mn1 1_555 1_555
C1E C2 1_555 1_555
C1A C2A 1_555 1_555
C1D C2A 1_555 1_555
C2A C3A 1_555 1_555
C3A C4A 1_555 1_555
C4E C3 1_555 1_555
C4A C5A 1_555 1_555
C4D C3A 1_555 1_555
C5E C6 1_555 1_555
C5A C6A 1_555 1_555
C5D C4D 1_555 1_555
C6A C5D 1_555 1_555
C7A C7 1_555 1_555
C8A C7A 1_555 1_555
C8D C7A 1_555 1_555
C8E C7 1_555 1_555
C9B N3 1_555 1_555
C9A C10A 1_555 1_555
C9C N3A 1_555 1_555
C10B C11 1_555 1_555
C10A C11A 1_555 1_555
C10C C9C 1_555 1_555
C11A C11 1_555 1_555
C12A C13A 1_555 1_555
C13A C14 1_555 1_555
C14A C13 1_555 1_555
H1E C4E 1_555 1_555
H1D C4D 1_555 1_555
H1A C4A 1_555 1_555
H2E C5E 1_555 1_555
H2D C5D 1_555 1_555
H2A C5A 1_555 1_555
H3B C9B 1_555 1_555
H3C C9C 1_555 1_555
H3A C9A 1_555 1_555
H4B C10B 1_555 1_555
H4C C10C 1_555 1_555
H4A C10A 1_555 1_555
H5A C12A 1_555 1_555
H6A C13A 1_555 1_555
H7A C14A 1_555 1_555
C4E C5E 1_555 1_555
C6A C7A 1_555 1_555
C9B C10B 1_555 1_555
C10C C11A 1_555 1_555
C12A C14A 1_555 1_555

#END
