
#######################################################################
#
#                 Cambridge Crystallographic Data Centre
#                                CCDC 
#
#######################################################################
#
# If this CIF has been generated from an entry in the Cambridge 
# Structural Database, then it will include bibliographic, chemical, 
# crystal, experimental, refinement or atomic coordinate data resulting 
# from the CCDC's data processing and validation procedures.
#
#######################################################################

data_PEVTOA
_chemical_formula_moiety         '(C30 H38 Cu1 N6 O2 2+)n,2n(F6 P1 1-)'
_chemical_name_systematic        
'catena-(bis((\m~2~-1,2,-bis(4-Pyridyl)ethane)-(dimethylformamide-O))-copper(ii) bis(hexafluorophosphate))'
_symmetry_cell_setting           monoclinic
_symmetry_space_group_name_H-M   'C 2/c'
_symmetry_Int_Tables_number      15
_space_group_name_Hall           '-C 2yc'
loop_
_symmetry_equiv_pos_site_id
_symmetry_equiv_pos_as_xyz
1 x,y,z
2 1/2+x,1/2+y,z
3 -x,y,1/2-z
4 1/2-x,1/2+y,1/2-z
5 -x,-y,-z
6 1/2-x,1/2-y,-z
7 x,-y,1/2+z
8 1/2+x,1/2-y,1/2+z
_cell_length_a                   26.852(2)
_cell_length_b                   9.4757(5)
_cell_length_c                   20.534(2)
_cell_angle_alpha                90
_cell_angle_beta                 133.273(2)
_cell_angle_gamma                90
_cell_volume                     3804.08
_exptl_crystal_colour            sky-blue
_exptl_crystal_description       needle
_cell_formula_units_Z            4
loop_
_atom_site_label
_atom_site_type_symbol
_atom_site_fract_x
_atom_site_fract_y
_atom_site_fract_z
Cu1 Cu 0.0000 0.03637(8) 0.7500
O1 O -0.0334(2) 0.0094(3) 0.6024(3)
N1 N -0.0717(2) -0.1115(4) 0.7065(3)
N2 N -0.0646(2) -0.8098(4) 0.7212(3)
N3 N -0.0733(3) -0.1036(4) 0.4766(4)
C1 C -0.0866(3) -0.2185(5) 0.6521(4)
C2 C -0.1391(3) -0.3132(5) 0.6165(4)
C3 C -0.1790(3) -0.3010(5) 0.6353(4)
C4 C -0.1628(3) -0.1934(5) 0.6932(4)
C5 C -0.1109(3) -0.1028(5) 0.7252(4)
C6 C -0.1275(3) -0.7983(6) 0.6412(4)
C7 C -0.1753(3) -0.7040(6) 0.6230(4)
C8 C -0.1581(3) -0.6154(4) 0.6893(4)
C9 C -0.0921(3) -0.6243(5) 0.7704(4)
C10 C -0.0471(3) -0.7201(5) 0.7846(3)
C11 C -0.2358(3) -0.4038(5) 0.6002(4)
C12 C -0.2114(3) -0.5184(5) 0.6703(4)
C13 C -0.1246(4) -0.1091(8) 0.3800(6)
C14 C -0.0192(4) -0.2084(6) 0.5252(5)
C15 C -0.0743(3) -0.0041(5) 0.5211(4)
H1 H -0.0599 -0.2296 0.6376
H2 H -0.1476 -0.3867 0.5785
H3 H -0.1876 -0.1829 0.7105
H4 H -0.1015 -0.0285 0.7634
H5 H -0.1402 -0.8561 0.5940
H6 H -0.2201 -0.7015 0.5651
H7 H -0.0773 -0.5635 0.8177
H8 H -0.0016 -0.7230 0.8417
H9 H -0.2731 -0.3540 0.5852
H10 H -0.2502 -0.4484 0.5479
H11 H -0.2497 -0.5733 0.6490
H12 H -0.1923 -0.4730 0.7246
H13 H -0.1230 -0.0243 0.3566
H14 H -0.1162 -0.1873 0.3600
H15 H -0.1686 -0.1181 0.3599
H16 H -0.0212 -0.2617 0.5627
H17 H -0.0249 -0.2703 0.4841
H18 H 0.0240 -0.1631 0.5610
H19 H -0.1106 0.0626 0.4864
Cu1_2 Cu 0.0000 -0.96363(8) 0.7500
O1B O 0.0334(2) 0.0094(3) 0.8976(3)
N1B N 0.0717(2) -0.1115(4) 0.7935(3)
N2B N 0.0646(2) -0.8098(4) 0.7788(3)
N2_2 N -0.0646(2) 0.1902(4) 0.7212(3)
N2B_2 N 0.0646(2) 0.1902(4) 0.7788(3)
N3B N 0.0733(3) -0.1036(4) 1.0234(4)
C1B C 0.0866(3) -0.2185(5) 0.8479(4)
C2B C 0.1391(3) -0.3132(5) 0.8835(4)
C3B C 0.1790(3) -0.3010(5) 0.8647(4)
C4B C 0.1628(3) -0.1934(5) 0.8068(4)
C5B C 0.1109(3) -0.1028(5) 0.7748(4)
C6B C 0.1275(3) -0.7983(6) 0.8588(4)
C7B C 0.1753(3) -0.7040(6) 0.8770(4)
C8B C 0.1581(3) -0.6154(4) 0.8107(4)
C9B C 0.0921(3) -0.6243(5) 0.7296(4)
C10B C 0.0471(3) -0.7201(5) 0.7154(3)
C11B C 0.2358(3) -0.4038(5) 0.8998(4)
C12B C 0.2114(3) -0.5184(5) 0.8297(4)
C13B C 0.1246(4) -0.1091(8) 1.1200(6)
C14B C 0.0192(4) -0.2084(6) 0.9748(5)
C15B C 0.0743(3) -0.0041(5) 0.9789(4)
H1B H 0.0599 -0.2296 0.8624
H2B H 0.1476 -0.3867 0.9215
H3B H 0.1876 -0.1829 0.7895
H4B H 0.1015 -0.0285 0.7366
H5B H 0.1402 -0.8561 0.9060
H6B H 0.2201 -0.7015 0.9349
H7B H 0.0773 -0.5635 0.6823
H8B H 0.0016 -0.7230 0.6583
H9B H 0.2731 -0.3540 0.9148
H10B H 0.2502 -0.4484 0.9521
H11B H 0.2497 -0.5733 0.8510
H12B H 0.1923 -0.4730 0.7754
H13B H 0.1230 -0.0243 1.1434
H14B H 0.1162 -0.1873 1.1400
H15B H 0.1686 -0.1181 1.1401
H16B H 0.0212 -0.2617 0.9373
H17B H 0.0249 -0.2703 1.0159
H18B H -0.0240 -0.1631 0.9390
H19B H 0.1106 0.0626 1.0136
P1 P -0.3401(1) 0.0761(2) 0.5799(1)
F1 F -0.381(1) 0.131(3) 0.593(2)
F2 F -0.2918(5) 0.069(2) 0.5600(7)
F4 F -0.3423(8) 0.2123(9) 0.5361(9)
F5 F -0.4087(5) 0.090(2) 0.4831(8)
F9 F -0.3269(9) -0.070(1) 0.613(2)
F10 F -0.2697(3) 0.073(2) 0.6743(5)
F3? F -0.3264(9) 0.213(1) 0.632(1)
F6? F -0.386(2) -0.029(4) 0.501(3)
F7? F -0.332(2) -0.045(3) 0.547(2)
F8? F -0.3839(8) 0.022(2) 0.602(1)
loop_
_geom_bond_atom_site_label_1
_geom_bond_atom_site_label_2
_geom_bond_site_symmetry_1
_geom_bond_site_symmetry_2
Cu1 O1 1_555 1_555
P1 F1 1_555 1_555
F2 P1 1_555 1_555
F4 P1 1_555 1_555
F5 P1 1_555 1_555
F9 P1 1_555 1_555
F10 P1 1_555 1_555
O1 C15 1_555 1_555
N1 Cu1 1_555 1_555
N2 C6 1_555 1_555
N3 C13 1_555 1_555
C1 N1 1_555 1_555
C2 C1 1_555 1_555
C3 C2 1_555 1_555
C4 C3 1_555 1_555
C5 N1 1_555 1_555
C6 C7 1_555 1_555
C7 C8 1_555 1_555
C8 C9 1_555 1_555
C9 C10 1_555 1_555
C10 N2 1_555 1_555
C11 C3 1_555 1_555
C12 C8 1_555 1_555
C13 H13 1_555 1_555
C14 N3 1_555 1_555
C15 N3 1_555 1_555
H1 C1 1_555 1_555
H2 C2 1_555 1_555
H3 C4 1_555 1_555
H4 C5 1_555 1_555
H5 C6 1_555 1_555
H6 C7 1_555 1_555
H7 C9 1_555 1_555
H8 C10 1_555 1_555
H9 C11 1_555 1_555
H10 C11 1_555 1_555
H11 C12 1_555 1_555
H12 C12 1_555 1_555
H14 C13 1_555 1_555
H15 C13 1_555 1_555
H16 C14 1_555 1_555
H17 C14 1_555 1_555
H18 C14 1_555 1_555
H19 C15 1_555 1_555
Cu1_2 N2 1_555 1_555
O1B Cu1 1_555 1_555
N1B Cu1 1_555 1_555
N2B Cu1_2 1_555 1_555
N2_2 Cu1 1_555 1_555
N2B_2 Cu1 1_555 1_555
N3B C13B 1_555 1_555
C1B N1B 1_555 1_555
C2B C1B 1_555 1_555
C3B C2B 1_555 1_555
C4B C3B 1_555 1_555
C5B N1B 1_555 1_555
C6B N2B 1_555 1_555
C7B C6B 1_555 1_555
C8B C7B 1_555 1_555
C9B C8B 1_555 1_555
C10B N2B 1_555 1_555
C11B C3B 1_555 1_555
C12B C8B 1_555 1_555
C13B H13B 1_555 1_555
C14B N3B 1_555 1_555
C15B O1B 1_555 1_555
H1B C1B 1_555 1_555
H2B C2B 1_555 1_555
H3B C4B 1_555 1_555
H4B C5B 1_555 1_555
H5B C6B 1_555 1_555
H6B C7B 1_555 1_555
H7B C9B 1_555 1_555
H8B C10B 1_555 1_555
H9B C11B 1_555 1_555
H10B C11B 1_555 1_555
H11B C12B 1_555 1_555
H12B C12B 1_555 1_555
H14B C13B 1_555 1_555
H15B C13B 1_555 1_555
H16B C14B 1_555 1_555
H17B C14B 1_555 1_555
H18B C14B 1_555 1_555
H19B C15B 1_555 1_555
C4 C5 1_555 1_555
C11 C12 1_555 1_555
N3B C15B 1_555 1_555
C4B C5B 1_555 1_555
C9B C10B 1_555 1_555
C11B C12B 1_555 1_555

#END
