
#######################################################################
#
#                 Cambridge Crystallographic Data Centre
#                                CCDC 
#
#######################################################################
#
# If this CIF has been generated from an entry in the Cambridge 
# Structural Database, then it will include bibliographic, chemical, 
# crystal, experimental, refinement or atomic coordinate data resulting 
# from the CCDC's data processing and validation procedures.
#
#######################################################################

data_MURBEI
_chemical_name_common            InOF-13
_chemical_formula_moiety         
'(C32 H12 In2 O16 2-)n,2n(C6 H13 N2 1+),0.67n(C5 H11 N1 O1),6n(H2 O1)'
_chemical_name_systematic        
"catena-[bis(4-aza-1-azoniabicyclo[2.2.2]octane) bis(\m-biphenyl-3,3',5,5'-tetracarboxylato)-di-indium N,N-diethylformamide solvate hexahydrate]"
_symmetry_cell_setting           orthorhombic
_symmetry_space_group_name_H-M   'P 21 21 2'
_symmetry_Int_Tables_number      18
_space_group_name_Hall           'P 2 2ab'
loop_
_symmetry_equiv_pos_site_id
_symmetry_equiv_pos_as_xyz
1 x,y,z
2 -x,-y,z
3 1/2+x,1/2-y,-z
4 1/2-x,1/2+y,-z
_cell_length_a                   19.72440(10)
_cell_length_b                   17.08140(10)
_cell_length_c                   9.95540(10)
_cell_angle_alpha                90
_cell_angle_beta                 90
_cell_angle_gamma                90
_cell_volume                     3354.18
_exptl_crystal_colour            colorless
_exptl_crystal_description       bulk
_cell_formula_units_Z            2
loop_
_atom_site_label
_atom_site_type_symbol
_atom_site_fract_x
_atom_site_fract_y
_atom_site_fract_z
N1 N 0.1100(4) 1.1775(4) 0.8342(7)
N2 N 0.0780(6) 1.1294(7) 1.0546(13)
H7 H 0.1238 1.1957 0.7505
H8 H 0.2030 1.2000 0.9134
H9 H 0.1954 1.1123 0.8579
C17 C 0.1719(4) 1.1546(5) 0.9073(9)
H10 H 0.0338 1.2596 0.8503
H11 H 0.1050 1.2897 0.9100
C18 C 0.0745(5) 1.2439(6) 0.9019(12)
H12 H 0.0851 1.0710 0.7520
H13 H 0.0212 1.1294 0.7649
C19 C 0.0633(6) 1.1112(6) 0.8092(13)
H14 H 0.0759 1.2462 1.1106
H15 H 0.0048 1.2164 1.0513
C20 C 0.0546(7) 1.2135(6) 1.0402(12)
H16 H 0.1743 1.1616 1.1146
H17 H 0.1706 1.0729 1.0606
C21 C 0.1539(6) 1.1269(9) 1.0460(13)
H18 H -0.0012 1.0759 0.9588
H19 H 0.0674 1.0258 0.9536
C22 C 0.0485(7) 1.0794(7) 0.9463(14)
In1 In 0.181279(11) 0.840141(13) 0.91388(3)
O1 O 0.29948(14) 0.85524(16) 0.9265(4)
O2 O 0.22936(14) 0.95496(16) 0.9302(4)
O3 O 0.29863(15) 1.21519(16) 1.0695(4)
O4 O 0.40554(17) 1.24392(19) 1.1003(6)
O5 O 0.19374(16) 0.8345(2) 0.6838(3)
O6 O 0.11067(15) 0.90145(19) 0.7740(3)
O7 O 0.1971(2) 0.8341(3) 0.1587(3)
O8 O 0.1104(2) 0.8881(3) 0.0619(3)
H1 H 0.4235 0.9068 0.9517
H2 H 0.2821 1.0761 1.0078
H3 H 0.4799 1.1259 1.0654
H4 H 0.0395 0.9669 0.6140
H5 H 0.1833 0.8401 0.4175
H6 H 0.0418 0.9598 0.2082
C1 C 0.4639(2) 1.0119(3) 1.0096(6)
C2 C 0.4124(2) 0.9591(3) 0.9752(6)
C3 C 0.3459(2) 0.9828(3) 0.9754(5)
C4 C 0.3281(2) 1.0599(3) 1.0083(5)
C5 C 0.3796(2) 1.1121(3) 1.0416(5)
C6 C 0.4456(2) 1.0892(2) 1.0423(6)
C7 C 0.2892(2) 0.9273(2) 0.9391(5)
C8 C 0.3603(2) 1.1955(2) 1.0741(6)
C9 C 0.0296(3) 0.9736(4) 0.4137(5)
C10 C 0.0589(3) 0.9494(4) 0.5320(5)
C11 C 0.1161(3) 0.9003(3) 0.5384(5)
C12 C 0.1447(3) 0.8734(3) 0.4174(5)
C13 C 0.1152(3) 0.8969(4) 0.2994(5)
C14 C 0.0599(3) 0.9452(5) 0.2930(5)
C15 C 0.1422(2) 0.8766(3) 0.6725(4)
C16 C 0.1429(4) 0.8703(4) 0.1664(5)
O1A O 0.70052(14) 1.14476(16) 0.9265(4)
O2A O 0.77064(14) 1.04504(16) 0.9302(4)
O3A O 0.70137(15) 0.78481(16) 1.0695(4)
O4A O 0.59446(17) 0.75608(19) 1.1003(6)
H1A H 0.5765 1.0932 0.9517
H2A H 0.7179 0.9239 1.0078
H3A H 0.5201 0.8741 1.0654
C1A C 0.5361(2) 0.9881(3) 1.0096(6)
C2A C 0.5876(2) 1.0409(3) 0.9752(6)
C3A C 0.6541(2) 1.0172(3) 0.9754(5)
C4A C 0.6719(2) 0.9401(3) 1.0083(5)
C5A C 0.6204(2) 0.8879(3) 1.0416(5)
C6A C 0.5544(2) 0.9108(2) 1.0423(6)
C7A C 0.7108(2) 1.0727(2) 0.9391(5)
C8A C 0.6397(2) 0.8045(2) 1.0741(6)
O5A O -0.19374(16) 1.1655(2) 0.6838(3)
O6A O -0.11067(15) 1.09855(19) 0.7740(3)
O7A O -0.1971(2) 1.1659(3) 0.1587(3)
O8A O -0.1104(2) 1.1119(3) 0.0619(3)
H4A H -0.0395 1.0331 0.6140
H5A H -0.1833 1.1599 0.4175
H6A H -0.0418 1.0402 0.2082
C9A C -0.0296(3) 1.0264(4) 0.4137(5)
C10A C -0.0589(3) 1.0506(4) 0.5320(5)
C11A C -0.1161(3) 1.0997(3) 0.5384(5)
C12A C -0.1447(3) 1.1266(3) 0.4174(5)
C13A C -0.1152(3) 1.1031(4) 0.2994(5)
C14A C -0.0599(3) 1.0548(5) 0.2930(5)
C15A C -0.1422(2) 1.1234(3) 0.6725(4)
C16A C -0.1429(4) 1.1297(4) 0.1664(5)
In1A In -0.181279(11) 1.159859(13) 0.91388(3)
In1_2 In 0.181279(11) 0.840141(13) -0.08612(3)
In1A_2 In -0.181279(11) 1.159859(13) -0.08612(3)
In1A_3 In 0.818721(11) 1.159859(13) 0.91388(3)
In1B In 0.681279(11) 0.659859(13) 1.08612(3)
In1C In 0.318721(11) 1.340141(13) 1.08612(3)
O1A_2 O -0.29948(14) 1.14476(16) 0.9265(4)
O2A_2 O -0.22936(14) 1.04504(16) 0.9302(4)
O3B O -0.20137(15) 1.28481(16) 0.9305(4)
O3C O 0.20137(15) 0.71519(16) 0.9305(4)
O4B O -0.09446(17) 1.25608(19) 0.8997(6)
O4C O 0.09446(17) 0.74392(19) 0.8997(6)
O7_2 O 0.1971(2) 0.8341(3) 1.1587(3)
O7A_2 O -0.1971(2) 1.1659(3) 1.1587(3)
O8_2 O 0.1104(2) 0.8881(3) 1.0619(3)
O8A_2 O -0.1104(2) 1.1119(3) 1.0619(3)
loop_
_geom_bond_atom_site_label_1
_geom_bond_atom_site_label_2
_geom_bond_site_symmetry_1
_geom_bond_site_symmetry_2
In1 O1 1_555 1_555
O1 C7 1_555 1_555
O2 In1 1_555 1_555
O3 C8 1_555 1_555
O4 C8 1_555 1_555
O5 In1 1_555 1_555
O6 In1 1_555 1_555
O7 C16 1_555 1_555
O8 C16 1_555 1_555
H1 C2 1_555 1_555
H2 C4 1_555 1_555
H3 C6 1_555 1_555
H4 C10 1_555 1_555
H5 C12 1_555 1_555
H6 C14 1_555 1_555
C1 C2 1_555 1_555
C2 C3 1_555 1_555
C3 C4 1_555 1_555
C4 C5 1_555 1_555
C5 C6 1_555 1_555
C6 C1 1_555 1_555
C7 O2 1_555 1_555
C8 C5 1_555 1_555
C9 C10 1_555 1_555
C10 C11 1_555 1_555
C11 C12 1_555 1_555
C12 C13 1_555 1_555
C13 C14 1_555 1_555
C14 C9 1_555 1_555
C15 O5 1_555 1_555
C16 C13 1_555 1_555
N1 H7 1_555 1_555
N2 C20 1_555 1_555
H8 C17 1_555 1_555
H9 C17 1_555 1_555
C17 N1 1_555 1_555
H10 C18 1_555 1_555
H11 C18 1_555 1_555
C18 N1 1_555 1_555
H12 C19 1_555 1_555
H13 C19 1_555 1_555
C19 N1 1_555 1_555
H14 C20 1_555 1_555
H15 C20 1_555 1_555
C20 C18 1_555 1_555
H16 C21 1_555 1_555
H17 C21 1_555 1_555
C21 N2 1_555 1_555
H18 C22 1_555 1_555
H19 C22 1_555 1_555
C22 N2 1_555 1_555
O1A C7A 1_555 1_555
O2A C7A 1_555 1_555
O3A C8A 1_555 1_555
O4A C8A 1_555 1_555
H1A C2A 1_555 1_555
H2A C4A 1_555 1_555
H3A C6A 1_555 1_555
C1A C1 1_555 1_555
C2A C1A 1_555 1_555
C3A C2A 1_555 1_555
C4A C3A 1_555 1_555
C5A C4A 1_555 1_555
C6A C1A 1_555 1_555
C7A C3A 1_555 1_555
C8A C5A 1_555 1_555
O5A C15A 1_555 1_555
O6A C15A 1_555 1_555
O7A C16A 1_555 1_555
O8A C16A 1_555 1_555
H4A C10A 1_555 1_555
H5A C12A 1_555 1_555
H6A C14A 1_555 1_555
C9A C9 1_555 1_555
C10A C9A 1_555 1_555
C11A C10A 1_555 1_555
C12A C11A 1_555 1_555
C13A C12A 1_555 1_555
C14A C9A 1_555 1_555
C15A C11A 1_555 1_555
C16A C13A 1_555 1_555
In1A O5A 1_555 1_555
In1_2 O7 1_555 1_555
In1A_2 O7A 1_555 1_555
In1A_3 O1A 1_555 1_555
In1B O3A 1_555 1_555
In1C O3 1_555 1_555
O1A_2 In1A 1_555 1_555
O2A_2 In1A 1_555 1_555
O3B In1A 1_555 1_555
O3C In1 1_555 1_555
O4B In1A 1_555 1_555
O4C In1 1_555 1_555
O7_2 In1 1_555 1_555
O7A_2 In1A 1_555 1_555
O8_2 In1 1_555 1_555
O8A_2 In1A 1_555 1_555
O4 In1C 1_555 1_555
O6 C15 1_555 1_555
O8 In1_2 1_555 1_555
C3 C7 1_555 1_555
C11 C15 1_555 1_555
C17 C21 1_555 1_555
C19 C22 1_555 1_555
O2A In1A_3 1_555 1_555
O4A In1B 1_555 1_555
C5A C6A 1_555 1_555
O6A In1A 1_555 1_555
O8A In1A_2 1_555 1_555
C13A C14A 1_555 1_555

#END
