
#######################################################################
#
#                 Cambridge Crystallographic Data Centre
#                                CCDC 
#
#######################################################################
#
# If this CIF has been generated from an entry in the Cambridge 
# Structural Database, then it will include bibliographic, chemical, 
# crystal, experimental, refinement or atomic coordinate data resulting 
# from the CCDC's data processing and validation procedures.
#
#######################################################################

data_TUPDIT04
_chemical_formula_moiety         '(C18 H12 Cu1 N6 O4)n'
_chemical_name_systematic        
catena-[bis(\m-4-(1H-1,2,4-triazol-1-yl)benzoato)-copper]
_symmetry_cell_setting           orthorhombic
_symmetry_space_group_name_H-M   'P n n a'
_symmetry_Int_Tables_number      52
_space_group_name_Hall           '-P 2a 2bc'
loop_
_symmetry_equiv_pos_site_id
_symmetry_equiv_pos_as_xyz
1 x,y,z
2 1/2-x,-y,z
3 1/2-x,1/2+y,1/2-z
4 x,1/2-y,1/2-z
5 -x,-y,-z
6 1/2+x,y,-z
7 1/2+x,1/2-y,1/2+z
8 -x,1/2+y,1/2+z
_cell_length_a                   12.6868(9)
_cell_length_b                   9.9923(6)
_cell_length_c                   17.6153(7)
_cell_angle_alpha                90
_cell_angle_beta                 90
_cell_angle_gamma                90
_cell_volume                     2233.1
_exptl_crystal_colour            'dark blue'
_exptl_crystal_description       block
_cell_formula_units_Z            4
loop_
_atom_site_label
_atom_site_type_symbol
_atom_site_fract_x
_atom_site_fract_y
_atom_site_fract_z
Cu1 Cu 0.7500 0.0000 0.33611(3)
O1 O 0.6473(2) 0.0512(2) 0.41516(12)
O2 O 0.7244(2) 0.2367(3) 0.37826(15)
N1 N 0.4675(3) 0.4483(4) 0.66631(17)
N2 N 0.5211(4) 0.5430(5) 0.7063(3)
N3 N 0.3646(2) 0.5031(3) 0.75912(16)
C1 C 0.6640(3) 0.1756(4) 0.42127(18)
C2 C 0.6092(3) 0.2487(4) 0.48448(19)
C3 C 0.5248(3) 0.1943(4) 0.5213(2)
H1 H 0.4987 0.1116 0.5060
C4 C 0.4775(3) 0.2609(4) 0.5813(2)
H2 H 0.4196 0.2236 0.6059
C5 C 0.5161(3) 0.3807(4) 0.60384(19)
C6 C 0.6000(4) 0.4373(5) 0.5671(3)
H3 H 0.6264 0.5196 0.5827
C7 C 0.6444(4) 0.3710(4) 0.5070(3)
H4 H 0.7001 0.4106 0.4810
C8 C 0.4560(4) 0.5725(6) 0.7605(3)
H5 H 0.4711 0.6362 0.7974
C9 C 0.3753(3) 0.4261(4) 0.69853(18)
H6 H 0.3253 0.3653 0.6812
O1A O 0.8527(2) -0.0512(2) 0.41516(12)
O2A O 0.7756(2) -0.2367(3) 0.37826(15)
N1A N 1.0325(3) -0.4483(4) 0.66631(17)
N2A N 0.9789(4) -0.5430(5) 0.7063(3)
N3A N 1.1354(2) -0.5031(3) 0.75912(16)
C1A C 0.8360(3) -0.1756(4) 0.42127(18)
C2A C 0.8908(3) -0.2487(4) 0.48448(19)
C3A C 0.9752(3) -0.1943(4) 0.5213(2)
H1A H 1.0013 -0.1116 0.5060
C4A C 1.0225(3) -0.2609(4) 0.5813(2)
H2A H 1.0804 -0.2236 0.6059
C5A C 0.9839(3) -0.3807(4) 0.60384(19)
C6A C 0.9000(4) -0.4373(5) 0.5671(3)
H3A H 0.8736 -0.5196 0.5827
C7A C 0.8556(4) -0.3710(4) 0.5070(3)
H4A H 0.7999 -0.4106 0.4810
C8A C 1.0440(4) -0.5725(6) 0.7605(3)
H5A H 1.0289 -0.6362 0.7974
C9A C 1.1247(3) -0.4261(4) 0.69853(18)
H6A H 1.1747 -0.3653 0.6812
Cu1F Cu 0.2500 0.5000 0.83611(3)
Cu1F_2 Cu 1.2500 -0.5000 0.83611(3)
N3F N 0.8646(2) -0.0031(3) 0.25912(16)
N3G N 0.6354(2) 0.0031(3) 0.25912(16)
loop_
_geom_bond_atom_site_label_1
_geom_bond_atom_site_label_2
_geom_bond_site_symmetry_1
_geom_bond_site_symmetry_2
Cu1 O1 1_555 1_555
O1 C1 1_555 1_555
O2 Cu1 1_555 1_555
N1 N2 1_555 1_555
N2 C8 1_555 1_555
N3 C8 1_555 1_555
C1 O2 1_555 1_555
C2 C1 1_555 1_555
C3 C2 1_555 1_555
H1 C3 1_555 1_555
C4 C3 1_555 1_555
H2 C4 1_555 1_555
C5 N1 1_555 1_555
C6 C5 1_555 1_555
H3 C6 1_555 1_555
C7 C2 1_555 1_555
H4 C7 1_555 1_555
C8 H5 1_555 1_555
C9 N1 1_555 1_555
H6 C9 1_555 1_555
O1A Cu1 1_555 1_555
O2A Cu1 1_555 1_555
N1A N2A 1_555 1_555
N2A C8A 1_555 1_555
N3A C8A 1_555 1_555
C1A O1A 1_555 1_555
C2A C1A 1_555 1_555
C3A C2A 1_555 1_555
H1A C3A 1_555 1_555
C4A C3A 1_555 1_555
H2A C4A 1_555 1_555
C5A N1A 1_555 1_555
C6A C5A 1_555 1_555
H3A C6A 1_555 1_555
C7A C2A 1_555 1_555
H4A C7A 1_555 1_555
C8A H5A 1_555 1_555
C9A N1A 1_555 1_555
H6A C9A 1_555 1_555
Cu1F N3 1_555 1_555
Cu1F_2 N3A 1_555 1_555
N3F Cu1 1_555 1_555
N3G Cu1 1_555 1_555
N3 C9 1_555 1_555
C4 C5 1_555 1_555
C6 C7 1_555 1_555
O2A C1A 1_555 1_555
N3A C9A 1_555 1_555
C4A C5A 1_555 1_555
C6A C7A 1_555 1_555

#END
