
#######################################################################
#
#                 Cambridge Crystallographic Data Centre
#                                CCDC 
#
#######################################################################
#
# If this CIF has been generated from an entry in the Cambridge 
# Structural Database, then it will include bibliographic, chemical, 
# crystal, experimental, refinement or atomic coordinate data resulting 
# from the CCDC's data processing and validation procedures.
#
#######################################################################

data_XEQRAO
_chemical_formula_moiety         '(C28 H18 Cd1 O5)n,3.5n(H2 O1)'
_chemical_name_systematic        
"catena-[(\m~4~-4,4'-(9,10-anthracenediyl)dibenzoato)-aqua-cadmium hydrate]"
_symmetry_cell_setting           monoclinic
_symmetry_space_group_name_H-M   'C 2/c'
_symmetry_Int_Tables_number      15
_space_group_name_Hall           '-C 2yc'
loop_
_symmetry_equiv_pos_site_id
_symmetry_equiv_pos_as_xyz
1 x,y,z
2 -x,y,1/2-z
3 1/2+x,1/2+y,z
4 1/2-x,1/2+y,1/2-z
5 -x,-y,-z
6 x,-y,1/2+z
7 1/2-x,1/2-y,-z
8 1/2+x,1/2-y,1/2+z
_cell_length_a                   33.321(7)
_cell_length_b                   9.807(2)
_cell_length_c                   7.8951(16)
_cell_angle_alpha                90
_cell_angle_beta                 96.68(3)
_cell_angle_gamma                90
_cell_volume                     2562.44
_cell_formula_units_Z            4
loop_
_atom_site_label
_atom_site_type_symbol
_atom_site_fract_x
_atom_site_fract_y
_atom_site_fract_z
_atom_site_U_iso_or_equiv
_atom_site_thermal_displace_type
Cd1 Cd 0.5000 0.02921(5) 1.7500 0.0487 Uani
O1 O 0.45233(9) 0.1684(4) 1.6120(4) 0.0653 Uani
O2 O 0.5000 -0.2005(5) 1.7500 0.0799 Uani
H1 H 0.5168 -0.2284 1.8264 0.1200 Uiso
O3 O 0.45604(9) -0.0249(3) 1.4737(5) 0.0612 Uani
C1 C 0.43880(11) 0.0865(5) 1.4959(6) 0.0530 Uani
C2 C 0.40065(11) 0.1219(5) 1.3854(5) 0.0471 Uani
C3 C 0.37893(12) 0.0202(5) 1.2954(6) 0.0506 Uani
H2 H 0.3890 -0.0683 1.2982 0.0610 Uiso
C4 C 0.34218(12) 0.0492(4) 1.2007(6) 0.0505 Uani
H3 H 0.3276 -0.0203 1.1415 0.0600 Uiso
C5 C 0.32712(11) 0.1804(4) 1.1940(5) 0.0465 Uani
C6 C 0.34940(13) 0.2822(5) 1.2813(6) 0.0598 Uani
H4 H 0.3398 0.3713 1.2758 0.0720 Uiso
C7 C 0.38591(12) 0.2531(5) 1.3772(6) 0.0572 Uani
H5 H 0.4005 0.3226 1.4363 0.0690 Uiso
C8 C 0.28725(11) 0.2139(4) 1.0931(5) 0.0428 Uani
C9 C 0.28676(11) 0.2749(4) 0.9327(5) 0.0432 Uani
C10 C 0.25133(11) 0.1883(4) 1.1625(5) 0.0443 Uani
C11 C 0.25036(13) 0.1274(5) 1.3258(6) 0.0544 Uani
H6 H 0.2746 0.1026 1.3891 0.0650 Uiso
C12 C 0.21528(14) 0.1045(5) 1.3914(6) 0.0580 Uani
H7 H 0.2157 0.0647 1.4984 0.0690 Uiso
C13 C 0.17811(13) 0.1407(5) 1.2987(6) 0.0576 Uani
H8 H 0.1541 0.1248 1.3449 0.0690 Uiso
C14 C 0.32278(12) 0.3015(4) 0.8574(6) 0.0513 Uani
H9 H 0.3476 0.2786 0.9171 0.0620 Uiso
Cd1D Cd 0.5000 -0.02921(5) 1.2500 0.0487 Uani
Cd1F Cd 0.0000 0.47079(5) 0.2500 0.0487 Uani
Cd1B Cd 0.0000 0.52921(5) 0.7500 0.0487 Uani
O1F O 0.04767(9) 0.3316(4) 0.3880(4) 0.0653 Uani
O1A O 0.54767(9) 0.1684(4) 1.8880(4) 0.0653 Uani
H1A H 0.4832 -0.2284 1.6736 0.1200 Uiso
O3F O 0.04396(9) 0.5249(3) 0.5263(5) 0.0612 Uani
O3A O 0.54396(9) -0.0249(3) 2.0263(5) 0.0612 Uani
O3D O 0.54396(9) 0.0249(3) 1.5263(5) 0.0612 Uani
O3E O 0.45604(9) 0.0249(3) 1.9737(5) 0.0612 Uani
C1F C 0.06120(11) 0.4135(5) 0.5041(6) 0.0530 Uani
C2F C 0.09935(11) 0.3781(5) 0.6146(5) 0.0471 Uani
C3F C 0.12107(12) 0.4798(5) 0.7046(6) 0.0506 Uani
H2F H 0.1110 0.5683 0.7018 0.0610 Uiso
C4F C 0.15782(12) 0.4508(4) 0.7993(6) 0.0505 Uani
H3F H 0.1724 0.5203 0.8585 0.0600 Uiso
C5F C 0.17288(11) 0.3196(4) 0.8060(5) 0.0465 Uani
C6F C 0.15060(13) 0.2178(5) 0.7187(6) 0.0598 Uani
H4F H 0.1602 0.1287 0.7242 0.0720 Uiso
C7F C 0.11409(12) 0.2469(5) 0.6228(6) 0.0572 Uani
H5F H 0.0995 0.1774 0.5637 0.0690 Uiso
C8F C 0.21275(11) 0.2861(4) 0.9069(5) 0.0428 Uani
C9F C 0.21324(11) 0.2251(4) 1.0673(5) 0.0432 Uani
C10F C 0.24867(11) 0.3117(4) 0.8375(5) 0.0443 Uani
C11F C 0.24964(13) 0.3726(5) 0.6742(6) 0.0544 Uani
H6F H 0.2254 0.3974 0.6109 0.0650 Uiso
C12F C 0.28472(14) 0.3955(5) 0.6086(6) 0.0580 Uani
H7F H 0.2843 0.4353 0.5016 0.0690 Uiso
C13F C 0.32189(13) 0.3593(5) 0.7013(6) 0.0576 Uani
H8F H 0.3459 0.3752 0.6551 0.0690 Uiso
C14F C 0.17722(12) 0.1985(4) 1.1426(6) 0.0513 Uani
H9F H 0.1524 0.2214 1.0829 0.0620 Uiso
O4 O 0.9466(5) 0.8514(15) 0.030(2) 0.3685 Uani
O5 O 0.0551(5) 0.0740(14) 0.2551(18) 0.3554 Uani
loop_
_atom_site_aniso_label
_atom_site_aniso_U_11
_atom_site_aniso_U_22
_atom_site_aniso_U_33
_atom_site_aniso_U_23
_atom_site_aniso_U_13
_atom_site_aniso_U_12
Cd1 0.0318 0.059 0.0499 0 -0.01802 0
O1 0.0425 0.091 0.0555 0.0008 -0.023 0.0047
O2 0.094 0.061 0.08 0 -0.01 0
O3 0.0317 0.072 0.076 0.0129 -0.0108 0.0139
C1 0.0278 0.077 0.051 0.012 -0.0089 0.001
C2 0.0288 0.066 0.043 0.0047 -0.0111 0.0057
C3 0.0326 0.052 0.063 0.008 -0.0125 0.0066
C4 0.036 0.053 0.057 0.0003 -0.0179 0.0042
C5 0.0328 0.056 0.046 0.0026 -0.0151 0.0063
C6 0.046 0.053 0.073 -0.004 -0.025 0.0102
C7 0.043 0.061 0.061 -0.01 -0.022 0.005
C8 0.0328 0.045 0.046 -0.0001 -0.0149 0.0044
C9 0.0355 0.043 0.047 -0.0037 -0.0129 0.0054
C10 0.04 0.044 0.044 -0.0007 -0.0156 0.0049
C11 0.046 0.055 0.056 0.004 -0.0206 0.0034
C12 0.058 0.059 0.054 0.008 -0.006 -0.002
C13 0.046 0.06 0.065 0 -0.001 -0.001
C14 0.038 0.054 0.058 -0.001 -0.0114 0.0059
Cd1D 0.0318 0.059 0.0499 0 -0.01802 0
Cd1F 0.0318(2) 0.0590(3) 0.0499(3) 0.000 -0.01802(17) 0.000
Cd1B 0.0318 0.059 0.0499 0 -0.01802 0
O1F 0.0425(16) 0.091(2) 0.0555(19) 0.0008(17) -0.0230(14) 0.0047(16)
O1A 0.0425 0.091 0.0555 -0.0008 -0.023 -0.0047
O3F 0.0317(14) 0.072(2) 0.076(2) 0.0129(17) -0.0108(14) 0.0139(15)
O3A 0.0317 0.072 0.076 -0.0129 -0.0108 -0.0139
O3D 0.0317 0.072 0.076 0.0129 -0.0108 0.0139
O3E 0.0317 0.072 0.076 -0.0129 -0.0108 -0.0139
C1F 0.0278(18) 0.077(3) 0.051(3) 0.012(2) -0.0089(17) 0.001(2)
C2F 0.0288(18) 0.066(3) 0.043(2) 0.0047(19) -0.0111(16) 0.0057(17)
C3F 0.0326(19) 0.052(2) 0.063(3) 0.008(2) -0.0125(18) 0.0066(17)
C4F 0.036(2) 0.053(3) 0.057(3) 0.0003(19) -0.0179(18) 0.0042(17)
C5F 0.0328(18) 0.056(3) 0.046(2) 0.0026(19) -0.0151(16) 0.0063(17)
C6F 0.046(2) 0.053(3) 0.073(3) -0.004(2) -0.025(2) 0.0102(19)
C7F 0.043(2) 0.061(3) 0.061(3) -0.010(2) -0.022(2) 0.005(2)
C8F 0.0328(18) 0.045(2) 0.046(2) -0.0001(17) -0.0149(16) 0.0044(16)
C9F 0.0355(19) 0.043(2) 0.047(2) -0.0037(17) -0.0129(16) 0.0054(16)
C10F 0.040(2) 0.044(2) 0.044(2) -0.0007(17) -0.0156(16) 0.0049(16)
C11F 0.046(2) 0.055(3) 0.056(3) 0.004(2) -0.0206(19) 0.0034(19)
C12F 0.058(3) 0.059(3) 0.054(3) 0.008(2) -0.006(2) -0.002(2)
C13F 0.046(2) 0.060(3) 0.065(3) 0.000(2) -0.001(2) -0.001(2)
C14F 0.038(2) 0.054(3) 0.058(3) -0.001(2) -0.0114(18) 0.0059(18)
O4 0.382(18) 0.301(17) 0.41(2) 0.144(15) -0.007(16) 0.166(14)
O5 0.48(2) 0.237(12) 0.306(16) -0.120(11) -0.137(16) 0.131(14)
loop_
_geom_bond_atom_site_label_1
_geom_bond_atom_site_label_2
_geom_bond_site_symmetry_1
_geom_bond_site_symmetry_2
Cd1 O1 1_555 1_555
O1 C1 1_555 1_555
O2 Cd1 1_555 1_555
H1 O2 1_555 1_555
O3 Cd1 1_555 1_555
C1 O3 1_555 1_555
C2 C1 1_555 1_555
C3 C2 1_555 1_555
H2 C3 1_555 1_555
C4 C3 1_555 1_555
H3 C4 1_555 1_555
C5 C4 1_555 1_555
C6 C5 1_555 1_555
H4 C6 1_555 1_555
C7 C2 1_555 1_555
H5 C7 1_555 1_555
C8 C5 1_555 1_555
C9 C8 1_555 1_555
C10 C8 1_555 1_555
C11 C10 1_555 1_555
H6 C11 1_555 1_555
C12 C11 1_555 1_555
H7 C12 1_555 1_555
C13 C12 1_555 1_555
H8 C13 1_555 1_555
C14 C9 1_555 1_555
H9 C14 1_555 1_555
Cd1D O3 1_555 1_555
Cd1F O1F 1_555 1_555
Cd1B O3F 1_555 1_555
O1F C1F 1_555 1_555
O1A Cd1 1_555 1_555
H1A O2 1_555 1_555
O3F Cd1F 1_555 1_555
O3A Cd1 1_555 1_555
O3D Cd1 1_555 1_555
O3E Cd1 1_555 1_555
C1F O3F 1_555 1_555
C2F C1F 1_555 1_555
C3F C2F 1_555 1_555
H2F C3F 1_555 1_555
C4F C3F 1_555 1_555
H3F C4F 1_555 1_555
C5F C4F 1_555 1_555
C6F C5F 1_555 1_555
H4F C6F 1_555 1_555
C7F C2F 1_555 1_555
H5F C7F 1_555 1_555
C8F C5F 1_555 1_555
C9F C10 1_555 1_555
C10F C9 1_555 1_555
C11F C10F 1_555 1_555
H6F C11F 1_555 1_555
C12F C11F 1_555 1_555
H7F C12F 1_555 1_555
C13F C14 1_555 1_555
H8F C13F 1_555 1_555
C14F C13 1_555 1_555
H9F C14F 1_555 1_555
C6 C7 1_555 1_555
Cd1D O3D 1_555 1_555
C6F C7F 1_555 1_555
C8F C9F 1_555 1_555
C8F C10F 1_555 1_555
C9F C14F 1_555 1_555
C12F C13F 1_555 1_555

#END
