
#######################################################################
#
#                 Cambridge Crystallographic Data Centre
#                                CCDC 
#
#######################################################################
#
# If this CIF has been generated from an entry in the Cambridge 
# Structural Database, then it will include bibliographic, chemical, 
# crystal, experimental, refinement or atomic coordinate data resulting 
# from the CCDC's data processing and validation procedures.
#
#######################################################################

data_PEWXUL
_chemical_formula_moiety         '(C26 H24 N7 Ni1)n,n(C2 H3 N1),5n(H2 O1)'
_chemical_name_systematic        
'catena-((\m~2~-dicyanamide)-bis(\m~2~-1,2-bis(4-pyridyl)ethane)-nickel(ii) acetonitrile solvate pentahydrate)'
_symmetry_cell_setting           monoclinic
_symmetry_space_group_name_H-M   'C 2/c'
_symmetry_Int_Tables_number      15
_space_group_name_Hall           '-C 2yc'
loop_
_symmetry_equiv_pos_site_id
_symmetry_equiv_pos_as_xyz
1 x,y,z
2 1/2+x,1/2+y,z
3 -x,y,1/2-z
4 1/2-x,1/2+y,1/2-z
5 -x,-y,-z
6 1/2-x,1/2-y,-z
7 x,-y,1/2+z
8 1/2+x,1/2-y,1/2+z
_cell_length_a                   18.21(3)
_cell_length_b                   19.99(3)
_cell_length_c                   8.632(13)
_cell_angle_alpha                90
_cell_angle_beta                 100.39(5)
_cell_angle_gamma                90
_cell_volume                     3090.68
_exptl_crystal_colour            violet
_exptl_crystal_description       Prism
_cell_formula_units_Z            4
loop_
_atom_site_label
_atom_site_type_symbol
_atom_site_fract_x
_atom_site_fract_y
_atom_site_fract_z
_atom_site_U_iso_or_equiv
_atom_site_thermal_displace_type
O1 O 1.0000 0.017(1) 0.7500 0.3500 Uiso
O2 O 0.0720(8) 0.0527(8) 0.047(2) 0.3270 Uiso
O3 O 0.0566(8) 0.1640(7) 0.217(2) 0.3130 Uiso
N5 N 0.8435(9) 0.2283(7) 0.194(2) 0.2370 Uiso
N6 N 0.742(1) 0.2198(7) 0.028(2) 0.1190 Uiso
C14 C 0.7911(7) 0.2473(7) 0.102(2) 0.1350 Uiso
N6E N 0.758(1) 0.2802(7) -0.028(2) 0.1190 Uiso
C14E C 0.7089(7) 0.2527(7) -0.102(2) 0.1350 Uiso
Ni1 Ni 0.5000 0.17731(3) 0.2500 0.0152 Uani
N1 N 0.5795(2) 0.2541(1) 0.2745(4) 0.0201 Uani
N2 N 0.4131(2) 0.1041(2) 0.2169(4) 0.0245 Uani
N3 N 0.5010(2) 0.1707(2) 0.4902(4) 0.0239 Uani
N4 N 0.5000 0.1256(3) 0.7500 0.1068 Uani
C1 C 0.6310(2) 0.2641(2) 0.4045(5) 0.0271 Uani
C2 C 0.6824(3) 0.3150(2) 0.4164(5) 0.0378 Uani
C3 C 0.6821(3) 0.3591(2) 0.2938(5) 0.0394 Uani
C4 C 0.6273(3) 0.3501(2) 0.1612(5) 0.0433 Uani
C5 C 0.5778(2) 0.2974(2) 0.1555(5) 0.0298 Uani
C6 C 0.7400(4) 0.4142(3) 0.3048(7) 0.0753 Uani
C7 C 0.4200(2) 0.0455(2) 0.1446(5) 0.0368 Uani
C8 C 0.3663(3) -0.0046(2) 0.1307(6) 0.0508 Uani
C9 C 0.3012(3) 0.0057(3) 0.1842(6) 0.0550 Uani
C10 C 0.2930(3) 0.0668(3) 0.2551(6) 0.0509 Uani
C11 C 0.3501(2) 0.1143(2) 0.2717(5) 0.0335 Uani
C12 C 0.7410(4) 0.4532(4) 0.1665(8) 0.0890 Uani
C13 C 0.5007(3) 0.1542(2) 0.6154(5) 0.0366 Uani
H1 H 0.6321 0.2341 0.4913 0.0350 Uiso
H2 H 0.7191 0.3204 0.5127 0.0468 Uiso
H3 H 0.6240 0.3800 0.0735 0.0513 Uiso
H4 H 0.5405 0.2918 0.0636 0.0377 Uiso
H5 H 0.7346 0.4431 0.3879 0.0918 Uiso
H6 H 0.7896 0.3927 0.3337 0.0918 Uiso
H7 H 0.3435 0.1564 0.3250 0.0447 Uiso
H8 H 0.2471 0.0769 0.2925 0.0633 Uiso
H9 H 0.3750 -0.0464 0.0792 0.0619 Uiso
H10 H 0.4643 0.0375 0.1006 0.0468 Uiso
H11 H 0.6935 0.4732 0.1342 0.1071 Uiso
H12 H 0.7486 0.4229 0.0801 0.1071 Uiso
N1B N 0.4205(2) 0.2541(1) 0.2255(4) 0.0201 Uani
N2B N 0.5869(2) 0.1041(2) 0.2831(4) 0.0245 Uani
N3B N 0.4990(2) 0.1707(2) 0.0098(4) 0.0239 Uani
C9A C 0.8012(3) 0.5057(3) 0.1842(6) 0.0550 Uani
C12A C 0.2410(4) -0.0468(4) 0.1665(8) 0.0890 Uani
C13B C 0.4993(3) 0.1542(2) 0.8846(5) 0.0366 Uani
loop_
_atom_site_aniso_label
_atom_site_aniso_U_11
_atom_site_aniso_U_22
_atom_site_aniso_U_33
_atom_site_aniso_U_23
_atom_site_aniso_U_13
_atom_site_aniso_U_12
Ni1 0.0176(3) 0.0151(3) 0.0134(3) 0.0000 0.0041(2) 0.0000
N1 0.021(2) 0.018(2) 0.021(2) -0.001(1) 0.003(1) -0.004(1)
N2 0.027 0.024 0.021 0.004 0 -0.006
N3 0.030(2) 0.028(2) 0.014(2) 0.000(1) 0.005(1) 0.001(1)
N4 0.27(1) 0.038(4) 0.023(3) 0.0000 0.055(5) 0.0000
C1 0.027(2) 0.030(2) 0.022(2) 0.003(2) -0.002(2) -0.006(2)
C2 0.037(2) 0.043(3) 0.029(2) 0.002(2) -0.006(2) -0.017(2)
C3 0.042(3) 0.040(3) 0.033(2) 0.003(2) -0.002(2) -0.026(2)
C4 0.058(3) 0.040(3) 0.030(2) 0.011(2) 0.003(2) -0.026(2)
C5 0.032(2) 0.031(2) 0.024(2) 0.006(2) -0.001(2) -0.011(2)
C6 0.090(5) 0.072(4) 0.053(4) 0.017(3) -0.016(3) -0.063(4)
C7 0.045 0.023 0.037 -0.005 -0.007 -0.008
C8 0.061 0.031 0.051 0.005 -0.015 -0.02
C9 0.065 0.05 0.04 0.019 -0.017 -0.041
C10 0.034 0.072 0.046 0.022 0.005 -0.024
C11 0.031 0.037 0.033 0.008 0.007 -0.009
C12 0.098 0.094 0.063 0.023 -0.018 -0.078
C13 0.064(3) 0.023(2) 0.024(2) -0.003(2) 0.011(2) 0.000(2)
N1B 0.021 0.018 0.021 0.001 0.003 0.004
N2B 0.027 0.024 0.021 -0.004 0 0.006
N3B 0.03 0.028 0.014 0 0.005 -0.001
C9A 0.065 0.05 0.04 0.019 -0.017 -0.041
C12A 0.098 0.094 0.063 0.023 -0.018 -0.078
C13B 0.064 0.023 0.024 0.003 0.011 0
loop_
_geom_bond_atom_site_label_1
_geom_bond_atom_site_label_2
_geom_bond_site_symmetry_1
_geom_bond_site_symmetry_2
Ni1 N1 1_555 1_555
N1 C1 1_555 1_555
N2 Ni1 1_555 1_555
N3 Ni1 1_555 1_555
N4 C13 1_555 1_555
N5 C14 1_555 1_555
N6 C14 1_555 1_555
C1 C2 1_555 1_555
C2 C3 1_555 1_555
C3 C4 1_555 1_555
C4 C5 1_555 1_555
C5 N1 1_555 1_555
C6 C3 1_555 1_555
C7 N2 1_555 1_555
C8 C7 1_555 1_555
C9 C8 1_555 1_555
C10 C9 1_555 1_555
C11 N2 1_555 1_555
C12 C6 1_555 1_555
C13 N3 1_555 1_555
C14 N6E 1_555 1_555
H1 C1 1_555 1_555
H2 C2 1_555 1_555
H3 C4 1_555 1_555
H4 C5 1_555 1_555
H5 C6 1_555 1_555
H6 C6 1_555 1_555
H7 C11 1_555 1_555
H8 C10 1_555 1_555
H9 C8 1_555 1_555
H10 C7 1_555 1_555
H11 C12 1_555 1_555
H12 C12 1_555 1_555
N1B Ni1 1_555 1_555
N2B Ni1 1_555 1_555
N3B Ni1 1_555 1_555
N6E N6 1_555 1_555
C9A C12 1_555 1_555
C12A C9 1_555 1_555
C13B N4 1_555 1_555
C14E N6 1_555 1_555
C10 C11 1_555 1_555
N6E C14E 1_555 1_555

#END
