
#######################################################################
#
#                 Cambridge Crystallographic Data Centre
#                                CCDC 
#
#######################################################################
#
# If this CIF has been generated from an entry in the Cambridge 
# Structural Database, then it will include bibliographic, chemical, 
# crystal, experimental, refinement or atomic coordinate data resulting 
# from the CCDC's data processing and validation procedures.
#
#######################################################################

data_PEWXUL01
_chemical_formula_moiety         '(C26 H24 N7 Ni1)n,n(C2 H3 N1),5n(H2 O1)'
_chemical_name_systematic        
'catena-((\m~2~-dicyanamide)-bis(\m~2~-1,2-bis(4-pyridyl)ethane)-nickel(ii) acetonitrile solvate pentahydrate)'
_symmetry_cell_setting           monoclinic
_symmetry_space_group_name_H-M   'C 2/c'
_symmetry_Int_Tables_number      15
_space_group_name_Hall           '-C 2yc'
loop_
_symmetry_equiv_pos_site_id
_symmetry_equiv_pos_as_xyz
1 x,y,z
2 1/2+x,1/2+y,z
3 -x,y,1/2-z
4 1/2-x,1/2+y,1/2-z
5 -x,-y,-z
6 1/2-x,1/2-y,-z
7 x,-y,1/2+z
8 1/2+x,1/2-y,1/2+z
_cell_length_a                   18.28(5)
_cell_length_b                   19.91(4)
_cell_length_c                   8.63(4)
_cell_angle_alpha                90
_cell_angle_beta                 100.21(9)
_cell_angle_gamma                90
_cell_volume                     3091.19
_exptl_crystal_colour            violet
_exptl_crystal_description       Prism
_cell_formula_units_Z            4
_exptl_crystal_preparation       'rehydrated crystal'
loop_
_atom_site_label
_atom_site_type_symbol
_atom_site_fract_x
_atom_site_fract_y
_atom_site_fract_z
O1 O 1.0000 0.009(3) 0.7500
O2 O 0.946(2) -0.045(2) 0.957(4)
O3 O 0.062(2) 0.168(1) 0.222(4)
N5 N 0.843(2) 0.248(2) 0.188(4)
N6 N 0.743(2) 0.215(1) 0.040(4)
C14 C 0.794(2) 0.246(1) 0.106(3)
N5E N 0.657(2) 0.252(2) -0.188(4)
N6E N 0.757(2) 0.285(1) -0.040(4)
C14E C 0.706(2) 0.254(1) -0.106(3)
Ni1 Ni 0.5000 0.17556(8) 0.2500
N1 N 0.5794(4) 0.2526(3) 0.2756(8)
N2 N 0.9138(4) 0.6017(3) 0.2170(8)
N3 N 0.5005(4) 0.1689(3) 0.4895(9)
N4 N 0.5000 0.1243(7) 0.7500
C1 C 0.6293(5) 0.2634(5) 0.408(1)
C2 C 0.6821(5) 0.3137(4) 0.421(1)
C3 C 0.6839(6) 0.3562(5) 0.296(1)
C4 C 0.6316(6) 0.3456(5) 0.159(1)
C5 C 0.5806(6) 0.2946(5) 0.156(1)
C6 C 0.7426(7) 0.4104(6) 0.306(1)
C7 C 0.9204(6) 0.5436(4) 0.145(1)
C8 C 0.8674(7) 0.4939(5) 0.132(1)
C9 C 0.8020(7) 0.5047(6) 0.185(1)
C10 C 0.7935(6) 0.5646(6) 0.254(1)
C11 C 0.8506(5) 0.6115(5) 0.269(1)
C12 C 0.7423(8) 0.4512(7) 0.167(2)
C13 C 0.5001(6) 0.1528(5) 0.617(1)
H1 H 0.6290 0.2342 0.4968
H2 H 0.7182 0.3186 0.5150
H3 H 0.6299 0.3753 0.0701
H4 H 0.5426 0.2887 0.0614
H5 H 0.7909 0.3894 0.3285
H6 H 0.7375 0.4398 0.3883
H7 H 0.9645 0.5367 0.0979
H8 H 0.8775 0.4502 0.0826
H9 H 0.7487 0.5748 0.2950
H10 H 0.8449 0.6538 0.3226
H11 H 0.7471 0.4215 0.0774
H12 H 0.6942 0.4722 0.1378
Ni1A Ni 1.0000 0.67556(8) 0.2500
Ni1_2 Ni 0.5000 0.17556(8) 1.2500
Ni1A_2 Ni 0.0000 0.67556(8) 0.2500
N1B N 0.4206(4) 0.2526(3) 0.2244(8)
N2B N 0.0862(4) 0.6017(3) 0.2830(8)
N2A N 0.4138(4) 0.1017(3) 0.2170(8)
N2C N 0.5862(4) 0.1017(3) 0.2830(8)
N3B N 0.4995(4) 0.1689(3) 1.0105(9)
N3B_2 N 0.4995(4) 0.1689(3) 0.0105(9)
C1B C 0.3707(5) 0.2634(5) 0.092(1)
C2B C 0.3179(5) 0.3137(4) 0.079(1)
C3B C 0.3161(6) 0.3562(5) 0.204(1)
C4B C 0.3684(6) 0.3456(5) 0.341(1)
C5B C 0.4194(6) 0.2946(5) 0.344(1)
C6B C 0.2574(7) 0.4104(6) 0.194(1)
C7B C 0.0796(6) 0.5436(4) 0.355(1)
C8B C 0.1326(7) 0.4939(5) 0.368(1)
C9B C 0.1980(7) 0.5047(6) 0.315(1)
C10B C 0.2065(6) 0.5646(6) 0.246(1)
C11B C 0.1494(5) 0.6115(5) 0.231(1)
C12B C 0.2577(8) 0.4512(7) 0.333(2)
C13B C 0.4999(6) 0.1528(5) 0.883(1)
H1B H 0.3710 0.2342 0.0032
H2B H 0.2818 0.3186 -0.0150
H3B H 0.3701 0.3753 0.4299
H4B H 0.4574 0.2887 0.4386
H5B H 0.2091 0.3894 0.1715
H6B H 0.2625 0.4398 0.1117
H7B H 0.0355 0.5367 0.4021
H8B H 0.1225 0.4502 0.4174
H9B H 0.2513 0.5748 0.2050
H10B H 0.1551 0.6538 0.1774
H11B H 0.2529 0.4215 0.4226
H12B H 0.3058 0.4722 0.3622
loop_
_geom_bond_atom_site_label_1
_geom_bond_atom_site_label_2
_geom_bond_site_symmetry_1
_geom_bond_site_symmetry_2
Ni1 N1 1_555 1_555
N1 C1 1_555 1_555
N2 C7 1_555 1_555
N3 Ni1 1_555 1_555
N4 C13 1_555 1_555
N5 C14 1_555 1_555
N6 C14 1_555 1_555
C1 C2 1_555 1_555
C2 C3 1_555 1_555
C3 C4 1_555 1_555
C4 C5 1_555 1_555
C5 N1 1_555 1_555
C6 C3 1_555 1_555
C7 C8 1_555 1_555
C8 C9 1_555 1_555
C9 C10 1_555 1_555
C10 C11 1_555 1_555
C11 N2 1_555 1_555
C12 C6 1_555 1_555
C13 N3 1_555 1_555
C14 N6E 1_555 1_555
H1 C1 1_555 1_555
H2 C2 1_555 1_555
H3 C4 1_555 1_555
H4 C5 1_555 1_555
H5 C6 1_555 1_555
H6 C6 1_555 1_555
H7 C7 1_555 1_555
H8 C8 1_555 1_555
H9 C10 1_555 1_555
H10 C11 1_555 1_555
H11 C12 1_555 1_555
H12 C12 1_555 1_555
Ni1A N2 1_555 1_555
Ni1_2 N3B 1_555 1_555
Ni1A_2 N2B 1_555 1_555
N1B Ni1 1_555 1_555
N2B C7B 1_555 1_555
N2A Ni1 1_555 1_555
N2C Ni1 1_555 1_555
N3B C13B 1_555 1_555
N3B_2 Ni1 1_555 1_555
N5E C14E 1_555 1_555
N6E N6 1_555 1_555
C1B N1B 1_555 1_555
C2B C1B 1_555 1_555
C3B C2B 1_555 1_555
C4B C3B 1_555 1_555
C5B N1B 1_555 1_555
C6B C3B 1_555 1_555
C7B C8B 1_555 1_555
C8B C9B 1_555 1_555
C9B C10B 1_555 1_555
C10B C11B 1_555 1_555
C11B N2B 1_555 1_555
C12B C6B 1_555 1_555
C13B N4 1_555 1_555
C14E N6 1_555 1_555
H1B C1B 1_555 1_555
H2B C2B 1_555 1_555
H3B C4B 1_555 1_555
H4B C5B 1_555 1_555
H5B C6B 1_555 1_555
H6B C6B 1_555 1_555
H7B C7B 1_555 1_555
H8B C8B 1_555 1_555
H9B C10B 1_555 1_555
H10B C11B 1_555 1_555
H11B C12B 1_555 1_555
H12B C12B 1_555 1_555
C9 C12 1_555 1_555
N6E C14E 1_555 1_555
C4B C5B 1_555 1_555
C9B C12B 1_555 1_555

#END
