
#######################################################################
#
#                 Cambridge Crystallographic Data Centre
#                                CCDC 
#
#######################################################################
#
# If this CIF has been generated from an entry in the Cambridge 
# Structural Database, then it will include bibliographic, chemical, 
# crystal, experimental, refinement or atomic coordinate data resulting 
# from the CCDC's data processing and validation procedures.
#
#######################################################################

data_PEYSIW
_chemical_formula_moiety         '(C26 H24 N7 Ni1)n,1.5n(C2 H3 N1)'
_chemical_name_systematic        
'catena-((\m~2~-dicyanamide)-bis(\m~2~-1,2-bis(4-pyridyl)ethane)-nickel(ii) acetonitrile solvate)'
_symmetry_cell_setting           monoclinic
_symmetry_space_group_name_H-M   'C 2/c'
_symmetry_Int_Tables_number      15
_space_group_name_Hall           '-C 2yc'
loop_
_symmetry_equiv_pos_site_id
_symmetry_equiv_pos_as_xyz
1 x,y,z
2 1/2+x,1/2+y,z
3 -x,y,1/2-z
4 1/2-x,1/2+y,1/2-z
5 -x,-y,-z
6 1/2-x,1/2-y,-z
7 x,-y,1/2+z
8 1/2+x,1/2-y,1/2+z
_cell_length_a                   18.56(11)
_cell_length_b                   19.70(22)
_cell_length_c                   8.63(5)
_cell_angle_alpha                90
_cell_angle_beta                 100.29(20)
_cell_angle_gamma                90
_cell_volume                     3104.65
_exptl_crystal_colour            blue
_exptl_crystal_description       Prism
_cell_formula_units_Z            4
_exptl_crystal_preparation       'dehydrated crystal'
loop_
_atom_site_label
_atom_site_type_symbol
_atom_site_fract_x
_atom_site_fract_y
_atom_site_fract_z
N5 N 0.729(4) 0.222(3) -0.006(9)
N6 N 0.683(2) 0.250(2) -0.164(4)
C14 C 0.770(3) 0.227(3) 0.088(7)
N5E N 0.771(4) 0.278(3) 0.006(9)
N6E N 0.817(2) 0.250(2) 0.164(4)
C14E C 0.730(3) 0.273(3) -0.088(7)
Ni1 Ni 0.5000 0.1771(2) 0.2500
N1 N 0.5799(7) 0.2544(7) 0.280(2)
N2 N 0.9141(8) 0.6021(7) 0.221(2)
N3 N 0.4989(8) 0.1707(8) 0.012(2)
N4 N 0.5000 0.124(2) -0.2500
C1 C 0.582(1) 0.295(1) 0.162(2)
C2 C 0.637(1) 0.3481(10) 0.168(3)
C3 C 0.686(1) 0.355(1) 0.304(3)
C4 C 0.684(1) 0.312(1) 0.426(2)
C5 C 0.629(1) 0.2651(10) 0.412(2)
C6 C 0.744(2) 0.406(2) 0.312(3)
C7 C 0.853(1) 0.617(1) 0.274(3)
C8 C 0.795(1) 0.566(1) 0.259(3)
C9 C 0.807(2) 0.504(1) 0.190(3)
C10 C 0.870(2) 0.494(1) 0.135(4)
C11 C 0.922(1) 0.542(1) 0.148(2)
C12 C 0.740(2) 0.454(1) 0.184(3)
C13 C 0.499(1) 0.1551(10) -0.109(3)
H1 H 0.5470 0.2926 0.0557
H2 H 0.6422 0.3772 0.0757
H3 H 0.7184 0.3201 0.5325
H4 H 0.6267 0.2326 0.4954
H5 H 0.7412 0.4370 0.4036
H6 H 0.7909 0.3867 0.3332
H7 H 0.8477 0.6623 0.3265
H8 H 0.7491 0.5783 0.2986
H9 H 0.8807 0.4532 0.0783
H10 H 0.9721 0.5308 0.1155
H11 H 0.6928 0.4727 0.1670
H12 H 0.7378 0.4197 0.0916
Ni1A Ni 1.0000 0.6771(2) 0.2500
Ni1_2 Ni 0.5000 0.1771(2) -0.7500
Ni1A_2 Ni 0.0000 0.6771(2) 0.2500
N1B N 0.4201(7) 0.2544(7) 0.220(2)
N2B N 0.0859(8) 0.6021(7) 0.279(2)
N2A N 0.4141(8) 0.1021(7) 0.221(2)
N2C N 0.5859(8) 0.1021(7) 0.279(2)
N3B N 0.5011(8) 0.1707(8) -0.512(2)
N3B_2 N 0.5011(8) 0.1707(8) 0.488(2)
C1B C 0.418(1) 0.295(1) 0.338(2)
C2B C 0.363(1) 0.3481(10) 0.332(3)
C3B C 0.314(1) 0.355(1) 0.196(3)
C4B C 0.316(1) 0.312(1) 0.074(2)
C5B C 0.371(1) 0.2651(10) 0.088(2)
C6B C 0.256(2) 0.406(2) 0.188(3)
C7B C 0.147(1) 0.617(1) 0.226(3)
C8B C 0.205(1) 0.566(1) 0.241(3)
C9B C 0.193(2) 0.504(1) 0.310(3)
C10B C 0.130(2) 0.494(1) 0.365(4)
C11B C 0.078(1) 0.542(1) 0.352(2)
C12B C 0.260(2) 0.454(1) 0.316(3)
C13B C 0.501(1) 0.1551(10) -0.391(3)
H1B H 0.4530 0.2926 0.4443
H2B H 0.3578 0.3772 0.4243
H3B H 0.2816 0.3201 -0.0325
H4B H 0.3733 0.2326 0.0046
H5B H 0.2588 0.4370 0.0964
H6B H 0.2091 0.3867 0.1668
H7B H 0.1523 0.6623 0.1735
H8B H 0.2509 0.5783 0.2014
H9B H 0.1193 0.4532 0.4217
H10B H 0.0279 0.5308 0.3845
H11B H 0.3072 0.4727 0.3330
H12B H 0.2622 0.4197 0.4084
loop_
_geom_bond_atom_site_label_1
_geom_bond_atom_site_label_2
_geom_bond_site_symmetry_1
_geom_bond_site_symmetry_2
Ni1 N1 1_555 1_555
N1 C1 1_555 1_555
N2 C7 1_555 1_555
N3 Ni1 1_555 1_555
N4 C13 1_555 1_555
N5 N6 1_555 1_555
N6 C14E 1_555 1_555
C1 C2 1_555 1_555
C2 C3 1_555 1_555
C3 C4 1_555 1_555
C4 C5 1_555 1_555
C5 N1 1_555 1_555
C6 C3 1_555 1_555
C7 C8 1_555 1_555
C8 C9 1_555 1_555
C9 C10 1_555 1_555
C10 C11 1_555 1_555
C11 N2 1_555 1_555
C12 C6 1_555 1_555
C13 N3 1_555 1_555
C14 N5 1_555 1_555
H1 C1 1_555 1_555
H2 C2 1_555 1_555
H3 C4 1_555 1_555
H4 C5 1_555 1_555
H5 C6 1_555 1_555
H6 C6 1_555 1_555
H7 C7 1_555 1_555
H8 C8 1_555 1_555
H9 C10 1_555 1_555
H10 C11 1_555 1_555
H11 C12 1_555 1_555
H12 C12 1_555 1_555
Ni1A N2 1_555 1_555
Ni1_2 N3B 1_555 1_555
Ni1A_2 N2B 1_555 1_555
N1B Ni1 1_555 1_555
N2B C7B 1_555 1_555
N2A Ni1 1_555 1_555
N2C Ni1 1_555 1_555
N3B C13B 1_555 1_555
N3B_2 Ni1 1_555 1_555
N5E N5 1_555 1_555
N6E C14 1_555 1_555
C1B N1B 1_555 1_555
C2B C1B 1_555 1_555
C3B C2B 1_555 1_555
C4B C3B 1_555 1_555
C5B N1B 1_555 1_555
C6B C3B 1_555 1_555
C7B C8B 1_555 1_555
C8B C9B 1_555 1_555
C9B C10B 1_555 1_555
C10B C11B 1_555 1_555
C11B N2B 1_555 1_555
C12B C6B 1_555 1_555
C13B N4 1_555 1_555
C14E N5 1_555 1_555
H1B C1B 1_555 1_555
H2B C2B 1_555 1_555
H3B C4B 1_555 1_555
H4B C5B 1_555 1_555
H5B C6B 1_555 1_555
H6B C6B 1_555 1_555
H7B C7B 1_555 1_555
H8B C8B 1_555 1_555
H9B C10B 1_555 1_555
H10B C11B 1_555 1_555
H11B C12B 1_555 1_555
H12B C12B 1_555 1_555
C9 C12 1_555 1_555
C14 N5E 1_555 1_555
N5E N6E 1_555 1_555
N5E C14E 1_555 1_555
C4B C5B 1_555 1_555
C9B C12B 1_555 1_555

#END
