
#######################################################################
#
#                 Cambridge Crystallographic Data Centre
#                                CCDC 
#
#######################################################################
#
# If this CIF has been generated from an entry in the Cambridge 
# Structural Database, then it will include bibliographic, chemical, 
# crystal, experimental, refinement or atomic coordinate data resulting 
# from the CCDC's data processing and validation procedures.
#
#######################################################################

data_KEZVOC
_chemical_formula_moiety         '(C128 H114 Cl2 N42 O8 Zn9)n,0.5n(C3 H7 N1 O1)'
_chemical_name_systematic        
'catena-(bis(\m~2~-3,5-bis(3-carboxyphenyl)-1,2,4-triazole)-dodecakis(\m~3~-5,6-dimethyl-1H-benzotriazole)-dichloro-nona-zinc N,N-dimethylformamide solvate)'
_symmetry_cell_setting           monoclinic
_symmetry_space_group_name_H-M   'C 2/c'
_symmetry_Int_Tables_number      15
_space_group_name_Hall           '-C 2yc'
loop_
_symmetry_equiv_pos_site_id
_symmetry_equiv_pos_as_xyz
1 x,y,z
2 -x,y,1/2-z
3 1/2+x,1/2+y,z
4 1/2-x,1/2+y,1/2-z
5 -x,-y,-z
6 x,-y,1/2+z
7 1/2-x,1/2-y,-z
8 1/2+x,1/2-y,1/2+z
_cell_length_a                   48.197(10)
_cell_length_b                   17.145(3)
_cell_length_c                   27.248(5)
_cell_angle_alpha                90
_cell_angle_beta                 117.37(3)
_cell_angle_gamma                90
_cell_volume                     19995.5
_exptl_crystal_colour            colorless
_exptl_crystal_description       block
_cell_formula_units_Z            4
loop_
_atom_site_label
_atom_site_type_symbol
_atom_site_fract_x
_atom_site_fract_y
_atom_site_fract_z
_atom_site_U_iso_or_equiv
_atom_site_thermal_displace_type
C1 C 0.22270(12) 0.3518(3) 0.4085(2) 0.0347 Uani
C2 C 0.23247(13) 0.2747(3) 0.4243(2) 0.0427 Uani
H1 H 0.2536 0.2619 0.4419 0.0510 Uiso
C3 C 0.20971(14) 0.2180(3) 0.4129(2) 0.0455 Uani
C4 C 0.17687(14) 0.2380(3) 0.3833(2) 0.0443 Uani
C5 C 0.16755(13) 0.3135(3) 0.3697(2) 0.0428 Uani
H2 H 0.1465 0.3270 0.3520 0.0520 Uiso
C6 C 0.19118(12) 0.3705(3) 0.3835(2) 0.0365 Uani
C7 C 0.21972(17) 0.1345(3) 0.4321(3) 0.0719 Uani
H3 H 0.2195 0.1046 0.4022 0.1080 Uiso
H4 H 0.2055 0.1117 0.4437 0.1080 Uiso
H5 H 0.2404 0.1346 0.4625 0.1080 Uiso
C8 C 0.15271(15) 0.1752(4) 0.3684(3) 0.0731 Uani
H6 H 0.1323 0.1976 0.3482 0.1100 Uiso
H7 H 0.1544 0.1512 0.4015 0.1100 Uiso
H8 H 0.1559 0.1367 0.3460 0.1100 Uiso
C9 C 0.14414(12) 0.5965(4) 0.2355(2) 0.0493 Uani
C10 C 0.11309(18) 0.5781(5) 0.2005(3) 0.0899 Uani
H9 H 0.1004 0.5538 0.2133 0.1080 Uiso
C11 C 0.1022(2) 0.5981(5) 0.1453(4) 0.1010 Uani
C12 C 0.12124(19) 0.6376(5) 0.1261(3) 0.0844 Uani
C13 C 0.15163(14) 0.6550(4) 0.1607(2) 0.0613 Uani
H10 H 0.1644 0.6796 0.1482 0.0740 Uiso
C14 C 0.16259(12) 0.6336(3) 0.2162(2) 0.0444 Uani
C15 C 0.0678(3) 0.5748(7) 0.1040(5) 0.1670 Uani
H11 H 0.0680 0.5367 0.0784 0.2510 Uiso
H12 H 0.0565 0.6201 0.0842 0.2510 Uiso
H13 H 0.0577 0.5532 0.1243 0.2510 Uiso
C16 C 0.1081(2) 0.6580(6) 0.0643(4) 0.1321 Uani
H14 H 0.1234 0.6874 0.0587 0.1980 Uiso
H15 H 0.0895 0.6885 0.0528 0.1980 Uiso
H16 H 0.1034 0.6108 0.0431 0.1980 Uiso
C17 C 0.27951(13) 0.5449(3) 0.2917(2) 0.0450 Uani
C18 C 0.28947(13) 0.4843(3) 0.3281(2) 0.0416 Uani
C19 C 0.30797(15) 0.4233(4) 0.3230(3) 0.0610 Uani
H17 H 0.3144 0.3817 0.3476 0.0730 Uiso
C20 C 0.31604(15) 0.4271(4) 0.2816(3) 0.0595 Uani
C21 C 0.30731(15) 0.4919(4) 0.2457(3) 0.0601 Uani
C22 C 0.28883(14) 0.5498(4) 0.2501(2) 0.0526 Uani
H18 H 0.2826 0.5918 0.2258 0.0630 Uiso
C23 C 0.3355(2) 0.3616(5) 0.2750(4) 0.1033 Uani
H19 H 0.3537 0.3833 0.2744 0.1550 Uiso
H20 H 0.3232 0.3344 0.2411 0.1550 Uiso
H21 H 0.3418 0.3260 0.3055 0.1550 Uiso
C24 C 0.3176(2) 0.4965(5) 0.2003(3) 0.0967 Uani
H22 H 0.3124 0.5469 0.1830 0.1450 Uiso
H23 H 0.3071 0.4568 0.1732 0.1450 Uiso
H24 H 0.3398 0.4887 0.2162 0.1450 Uiso
C25 C 0.31496(12) 0.5571(3) 0.5357(2) 0.0391 Uani
C26 C 0.34396(13) 0.5210(4) 0.5698(3) 0.0524 Uani
H25 H 0.3500 0.4751 0.5592 0.0630 Uiso
C27 C 0.36296(13) 0.5571(4) 0.6196(3) 0.0576 Uani
C28 C 0.35404(14) 0.6293(4) 0.6347(2) 0.0544 Uani
C29 C 0.32548(13) 0.6623(4) 0.6008(2) 0.0489 Uani
H26 H 0.3192 0.7078 0.6114 0.0580 Uiso
C30 C 0.30590(11) 0.6266(3) 0.5499(2) 0.0376 Uani
C31 C 0.39408(15) 0.5184(5) 0.6573(3) 0.1009 Uani
H27 H 0.3952 0.5091 0.6929 0.1510 Uiso
H28 H 0.4109 0.5520 0.6613 0.1510 Uiso
H29 H 0.3957 0.4697 0.6414 0.1510 Uiso
C32 C 0.37596(16) 0.6702(5) 0.6882(3) 0.0848 Uani
H30 H 0.3650 0.7116 0.6955 0.1270 Uiso
H31 H 0.3934 0.6915 0.6847 0.1270 Uiso
H32 H 0.3834 0.6335 0.7181 0.1270 Uiso
C33 C 0.16307(11) 0.6251(3) 0.4515(2) 0.0350 Uani
C34 C 0.13913(13) 0.6013(4) 0.4637(3) 0.0523 Uani
H33 H 0.1253 0.5621 0.4432 0.0630 Uiso
C35 C 0.13642(14) 0.6366(4) 0.5063(3) 0.0652 Uani
C36 C 0.15769(15) 0.6991(4) 0.5375(3) 0.0603 Uani
C37 C 0.18070(13) 0.7225(3) 0.5247(2) 0.0471 Uani
H34 H 0.1936 0.7642 0.5431 0.0560 Uiso
C38 C 0.18442(12) 0.6821(3) 0.4832(2) 0.0362 Uani
C39 C 0.11181(18) 0.6077(5) 0.5234(4) 0.1088 Uani
H35 H 0.0968 0.6482 0.5169 0.1630 Uiso
H36 H 0.1219 0.5943 0.5619 0.1630 Uiso
H37 H 0.1014 0.5626 0.5019 0.1630 Uiso
C40 C 0.15414(19) 0.7366(5) 0.5837(3) 0.0973 Uani
H38 H 0.1730 0.7641 0.6071 0.1460 Uiso
H39 H 0.1502 0.6972 0.6048 0.1460 Uiso
H40 H 0.1369 0.7725 0.5689 0.1460 Uiso
C41 C 0.25390(12) 0.8273(3) 0.3509(2) 0.0379 Uani
C42 C 0.26541(13) 0.8799(3) 0.3246(2) 0.0494 Uani
H41 H 0.2647 0.8684 0.2906 0.0590 Uiso
C43 C 0.27768(14) 0.9488(3) 0.3517(3) 0.0537 Uani
C44 C 0.27707(14) 0.9681(3) 0.4028(3) 0.0539 Uani
C45 C 0.26449(13) 0.9174(3) 0.4263(2) 0.0474 Uani
H42 H 0.2631 0.9311 0.4581 0.0570 Uiso
C46 C 0.25362(12) 0.8435(3) 0.4007(2) 0.0383 Uani
C47 C 0.29277(17) 1.0040(4) 0.3277(3) 0.0844 Uani
H43 H 0.2908 0.9832 0.2936 0.1260 Uiso
H44 H 0.3145 1.0100 0.3534 0.1260 Uiso
H45 H 0.2826 1.0538 0.3211 0.1260 Uiso
C48 C 0.29248(17) 1.0423(4) 0.4335(3) 0.0777 Uani
H46 H 0.2928 1.0423 0.4690 0.1170 Uiso
H47 H 0.2809 1.0866 0.4126 0.1170 Uiso
H48 H 0.3135 1.0448 0.4385 0.1170 Uiso
C49 C 0.33174(17) 0.3537(4) 0.4755(3) 0.0611 Uani
C50 C 0.35617(14) 0.2930(4) 0.5068(2) 0.0482 Uani
C51 C 0.34749(14) 0.2182(4) 0.5139(3) 0.0562 Uani
H49 H 0.3264 0.2058 0.4991 0.0670 Uiso
C52 C 0.36972(13) 0.1615(4) 0.5427(3) 0.0566 Uani
H50 H 0.3636 0.1112 0.5461 0.0680 Uiso
C53 C 0.40149(12) 0.1815(3) 0.5665(2) 0.0435 Uani
C54 C 0.41032(13) 0.2564(3) 0.5620(2) 0.0532 Uani
H51 H 0.4313 0.2703 0.5792 0.0640 Uiso
C55 C 0.38780(14) 0.3108(4) 0.5317(3) 0.0587 Uani
H52 H 0.3940 0.3609 0.5279 0.0700 Uiso
C56 C 0.42499(12) 0.1208(3) 0.5954(2) 0.0435 Uani
C57 C 0.46815(13) 0.0656(3) 0.6452(2) 0.0478 Uani
C58 C 0.50133(12) 0.0463(4) 0.6846(2) 0.0481 Uani
C59 C 0.51074(14) -0.0300(4) 0.6970(3) 0.0649 Uani
H53 H 0.4968 -0.0705 0.6795 0.0780 Uiso
C60 C 0.54114(14) -0.0458(4) 0.7359(3) 0.0690 Uani
H54 H 0.5472 -0.0974 0.7454 0.0830 Uiso
C61 C 0.56264(13) 0.0126(4) 0.7610(3) 0.0510 Uani
C62 C 0.55290(14) 0.0888(4) 0.7467(3) 0.0676 Uani
H55 H 0.5672 0.1290 0.7628 0.0810 Uiso
C63 C 0.52272(13) 0.1066(4) 0.7094(3) 0.0610 Uani
H56 H 0.5166 0.1583 0.7007 0.0730 Uiso
C64 C 0.59566(15) -0.0065(5) 0.8003(3) 0.0621 Uani
Cl1 Cl 0.2370(4) 0.7363(14) 0.1973(8) 0.0985 Uani
N1 N 0.23916(9) 0.4191(2) 0.41446(18) 0.0378 Uani
N2 N 0.21833(9) 0.4766(2) 0.39303(18) 0.0373 Uani
N3 N 0.18904(9) 0.4495(2) 0.37404(18) 0.0390 Uani
N4 N 0.16167(10) 0.5829(3) 0.29073(18) 0.0422 Uani
N5 N 0.19033(10) 0.6091(2) 0.30472(17) 0.0366 Uani
N6 N 0.19181(10) 0.6401(2) 0.26062(18) 0.0381 Uani
N7 N 0.26112(10) 0.5917(3) 0.30483(19) 0.0414 Uani
N8 N 0.26009(10) 0.5606(3) 0.34913(19) 0.0405 Uani
N9 N 0.27723(11) 0.4951(3) 0.36382(19) 0.0468 Uani
N10 N 0.29187(10) 0.5363(2) 0.48448(18) 0.0379 Uani
N11 N 0.26965(9) 0.5918(2) 0.46830(17) 0.0342 Uani
N12 N 0.27746(9) 0.6474(2) 0.50750(18) 0.0366 Uani
N13 N 0.17261(9) 0.5963(2) 0.41542(18) 0.0354 Uani
N14 N 0.19920(9) 0.6340(2) 0.42554(18) 0.0348 Uani
N15 N 0.20696(9) 0.6858(2) 0.46564(18) 0.0361 Uani
N16 N 0.24423(10) 0.7506(2) 0.33785(18) 0.0394 Uani
N17 N 0.23944(9) 0.7233(2) 0.37986(17) 0.0320 Uani
N18 N 0.24446(9) 0.7771(2) 0.41744(17) 0.0347 Uani
N19 N 0.41799(11) 0.0461(3) 0.5894(2) 0.0669 Uani
N20 N 0.44631(11) 0.0106(3) 0.6222(2) 0.0657 Uani
N21 N 0.45545(10) 0.1345(3) 0.6292(2) 0.0511 Uani
H57 H 0.4646 0.1791 0.6384 0.0620 Uiso
O1 O 0.30381(10) 0.3389(3) 0.46220(19) 0.0655 Uani
O2 O 0.34000(11) 0.4173(3) 0.4663(2) 0.0849 Uani
O3 O 0.61626(10) 0.0449(3) 0.81305(19) 0.0727 Uani
O4 O 0.60297(9) -0.0747(3) 0.8179(2) 0.0742 Uani
Zn1 Zn 0.284817(14) 0.44236(4) 0.43527(3) 0.0396 Uani
Zn2 Zn 0.153055(13) 0.52754(4) 0.34825(3) 0.0369 Uani
Zn3 Zn 0.233394(15) 0.68484(4) 0.27035(3) 0.0403 Uani
Zn4 Zn 0.229540(13) 0.60082(3) 0.38809(2) 0.0329 Uani
Zn5 Zn 0.2500 0.7500 0.5000 0.0345 Uani
C1F C 0.27730(12) 1.1482(3) 0.5915(2) 0.0347 Uani
C2F C 0.26753(13) 1.2253(3) 0.5757(2) 0.0427 Uani
H1F H 0.2464 1.2381 0.5581 0.0510 Uiso
C3F C 0.29029(14) 1.2820(3) 0.5871(2) 0.0455 Uani
C4F C 0.32313(14) 1.2620(3) 0.6167(2) 0.0443 Uani
C5F C 0.33245(13) 1.1865(3) 0.6303(2) 0.0428 Uani
H2F H 0.3535 1.1730 0.6480 0.0520 Uiso
C6F C 0.30882(12) 1.1295(3) 0.6165(2) 0.0365 Uani
C7F C 0.28028(17) 1.3655(3) 0.5679(3) 0.0719 Uani
H3F H 0.2805 1.3954 0.5978 0.1080 Uiso
H4F H 0.2945 1.3883 0.5563 0.1080 Uiso
H5F H 0.2596 1.3654 0.5375 0.1080 Uiso
C8F C 0.34729(15) 1.3248(4) 0.6316(3) 0.0731 Uani
H6F H 0.3677 1.3024 0.6518 0.1100 Uiso
H7F H 0.3456 1.3488 0.5985 0.1100 Uiso
H8F H 0.3441 1.3633 0.6540 0.1100 Uiso
C9F C 0.35586(12) 0.9035(4) 0.7645(2) 0.0493 Uani
C10F C 0.38691(18) 0.9219(5) 0.7995(3) 0.0899 Uani
H9F H 0.3996 0.9462 0.7867 0.1080 Uiso
C11F C 0.3978(2) 0.9019(5) 0.8547(4) 0.1010 Uani
C12F C 0.37876(19) 0.8624(5) 0.8739(3) 0.0844 Uani
C13F C 0.34837(14) 0.8450(4) 0.8393(2) 0.0613 Uani
H10F H 0.3356 0.8204 0.8518 0.0740 Uiso
C14F C 0.33741(12) 0.8664(3) 0.7838(2) 0.0444 Uani
C15F C 0.4322(3) 0.9252(7) 0.8960(5) 0.1670 Uani
H11F H 0.4320 0.9633 0.9216 0.2510 Uiso
H12F H 0.4435 0.8799 0.9158 0.2510 Uiso
H13F H 0.4423 0.9468 0.8757 0.2510 Uiso
C16F C 0.3919(2) 0.8420(6) 0.9357(4) 0.1321 Uani
H14F H 0.3766 0.8126 0.9413 0.1980 Uiso
H15F H 0.4105 0.8115 0.9472 0.1980 Uiso
H16F H 0.3966 0.8892 0.9569 0.1980 Uiso
C17F C 0.22049(13) 0.9551(3) 0.7083(2) 0.0450 Uani
C18F C 0.21053(13) 1.0157(3) 0.6719(2) 0.0416 Uani
C19F C 0.19203(15) 1.0767(4) 0.6770(3) 0.0610 Uani
H17F H 0.1856 1.1183 0.6524 0.0730 Uiso
C20F C 0.18396(15) 1.0729(4) 0.7184(3) 0.0595 Uani
C21F C 0.19269(15) 1.0081(4) 0.7543(3) 0.0601 Uani
C22F C 0.21117(14) 0.9502(4) 0.7499(2) 0.0526 Uani
H18F H 0.2174 0.9082 0.7742 0.0630 Uiso
C23F C 0.1645(2) 1.1384(5) 0.7250(4) 0.1033 Uani
H19F H 0.1463 1.1167 0.7256 0.1550 Uiso
H20F H 0.1768 1.1656 0.7589 0.1550 Uiso
H21F H 0.1582 1.1740 0.6945 0.1550 Uiso
C24F C 0.1824(2) 1.0035(5) 0.7997(3) 0.0967 Uani
H22F H 0.1876 0.9531 0.8170 0.1450 Uiso
H23F H 0.1929 1.0432 0.8268 0.1450 Uiso
H24F H 0.1602 1.0113 0.7838 0.1450 Uiso
C25F C 0.18504(12) 0.9429(3) 0.4643(2) 0.0391 Uani
C26F C 0.15604(13) 0.9790(4) 0.4302(3) 0.0524 Uani
H25F H 0.1500 1.0249 0.4408 0.0630 Uiso
C27F C 0.13704(13) 0.9429(4) 0.3804(3) 0.0576 Uani
C28F C 0.14596(14) 0.8707(4) 0.3653(2) 0.0544 Uani
C29F C 0.17452(13) 0.8377(4) 0.3992(2) 0.0489 Uani
H26F H 0.1808 0.7922 0.3886 0.0580 Uiso
C30F C 0.19410(11) 0.8734(3) 0.4501(2) 0.0376 Uani
C31F C 0.10592(15) 0.9816(5) 0.3427(3) 0.1009 Uani
H27F H 0.1048 0.9909 0.3071 0.1510 Uiso
H28F H 0.0891 0.9480 0.3387 0.1510 Uiso
H29F H 0.1043 1.0303 0.3586 0.1510 Uiso
C32F C 0.12404(16) 0.8298(5) 0.3118(3) 0.0848 Uani
H30F H 0.1350 0.7884 0.3045 0.1270 Uiso
H31F H 0.1066 0.8085 0.3153 0.1270 Uiso
H32F H 0.1166 0.8665 0.2819 0.1270 Uiso
C33F C 0.33693(11) 0.8749(3) 0.5485(2) 0.0350 Uani
C34F C 0.36087(13) 0.8987(4) 0.5363(3) 0.0523 Uani
H33F H 0.3747 0.9379 0.5568 0.0630 Uiso
C35F C 0.36358(14) 0.8634(4) 0.4937(3) 0.0652 Uani
C36F C 0.34231(15) 0.8009(4) 0.4625(3) 0.0603 Uani
C37F C 0.31930(13) 0.7775(3) 0.4753(2) 0.0471 Uani
H34F H 0.3064 0.7358 0.4569 0.0560 Uiso
C38F C 0.31558(12) 0.8179(3) 0.5168(2) 0.0362 Uani
C39F C 0.38819(18) 0.8923(5) 0.4766(4) 0.1088 Uani
H35F H 0.4032 0.8518 0.4831 0.1630 Uiso
H36F H 0.3781 0.9057 0.4381 0.1630 Uiso
H37F H 0.3986 0.9374 0.4981 0.1630 Uiso
C40F C 0.34586(19) 0.7634(5) 0.4163(3) 0.0973 Uani
H38F H 0.3270 0.7359 0.3929 0.1460 Uiso
H39F H 0.3498 0.8028 0.3952 0.1460 Uiso
H40F H 0.3631 0.7275 0.4311 0.1460 Uiso
C41F C 0.24610(12) 0.6727(3) 0.6491(2) 0.0379 Uani
C42F C 0.23459(13) 0.6201(3) 0.6754(2) 0.0494 Uani
H41F H 0.2353 0.6316 0.7094 0.0590 Uiso
C43F C 0.22232(14) 0.5512(3) 0.6483(3) 0.0537 Uani
C44F C 0.22293(14) 0.5319(3) 0.5972(3) 0.0539 Uani
C45F C 0.23551(13) 0.5826(3) 0.5737(2) 0.0474 Uani
H42F H 0.2369 0.5689 0.5419 0.0570 Uiso
C46F C 0.24638(12) 0.6565(3) 0.5993(2) 0.0383 Uani
C47F C 0.20723(17) 0.4960(4) 0.6723(3) 0.0844 Uani
H43F H 0.2092 0.5168 0.7064 0.1260 Uiso
H44F H 0.1855 0.4900 0.6466 0.1260 Uiso
H45F H 0.2174 0.4462 0.6789 0.1260 Uiso
C48F C 0.20752(17) 0.4577(4) 0.5665(3) 0.0777 Uani
H46F H 0.2072 0.4577 0.5310 0.1170 Uiso
H47F H 0.2191 0.4134 0.5874 0.1170 Uiso
H48F H 0.1865 0.4552 0.5615 0.1170 Uiso
C49F C 0.16826(17) 1.1463(4) 0.5245(3) 0.0611 Uani
C50F C 0.14383(14) 1.2070(4) 0.4932(2) 0.0482 Uani
C51F C 0.15251(14) 1.2818(4) 0.4861(3) 0.0562 Uani
H49F H 0.1736 1.2942 0.5009 0.0670 Uiso
C52F C 0.13028(13) 1.3385(4) 0.4573(3) 0.0566 Uani
H50F H 0.1364 1.3888 0.4539 0.0680 Uiso
C53F C 0.09851(12) 1.3185(3) 0.4335(2) 0.0435 Uani
C54F C 0.08968(13) 1.2436(3) 0.4380(2) 0.0532 Uani
H51F H 0.0687 1.2297 0.4208 0.0640 Uiso
C55F C 0.11220(14) 1.1892(4) 0.4683(3) 0.0587 Uani
H52F H 0.1060 1.1391 0.4721 0.0700 Uiso
C56F C 0.07501(12) 1.3792(3) 0.4046(2) 0.0435 Uani
C57F C 0.03185(13) 1.4344(3) 0.3548(2) 0.0478 Uani
C58F C -0.00133(12) 1.4537(4) 0.3154(2) 0.0481 Uani
C59F C -0.01074(14) 1.5300(4) 0.3030(3) 0.0649 Uani
H53F H 0.0032 1.5705 0.3205 0.0780 Uiso
C60F C -0.04114(14) 1.5458(4) 0.2641(3) 0.0690 Uani
H54F H -0.0472 1.5974 0.2546 0.0830 Uiso
C61F C -0.06264(13) 1.4874(4) 0.2390(3) 0.0510 Uani
C62F C -0.05290(14) 1.4112(4) 0.2533(3) 0.0676 Uani
H55F H -0.0672 1.3710 0.2372 0.0810 Uiso
C63F C -0.02272(13) 1.3934(4) 0.2906(3) 0.0610 Uani
H56F H -0.0166 1.3417 0.2993 0.0730 Uiso
C64F C -0.09566(15) 1.5065(5) 0.1997(3) 0.0621 Uani
Cl1F Cl 0.2630(4) 0.7637(14) 0.8027(8) 0.0985 Uani
N1F N 0.26084(9) 1.0809(2) 0.58554(18) 0.0378 Uani
N2F N 0.28167(9) 1.0234(2) 0.60697(18) 0.0373 Uani
N3F N 0.31096(9) 1.0505(2) 0.62596(18) 0.0390 Uani
N4F N 0.33833(10) 0.9171(3) 0.70927(18) 0.0422 Uani
N5F N 0.30967(10) 0.8909(2) 0.69528(17) 0.0366 Uani
N6F N 0.30819(10) 0.8599(2) 0.73938(18) 0.0381 Uani
N7F N 0.23888(10) 0.9083(3) 0.69517(19) 0.0414 Uani
N8F N 0.23991(10) 0.9394(3) 0.65087(19) 0.0405 Uani
N9F N 0.22277(11) 1.0049(3) 0.63618(19) 0.0468 Uani
N10F N 0.20813(10) 0.9637(2) 0.51552(18) 0.0379 Uani
N11F N 0.23035(9) 0.9082(2) 0.53170(17) 0.0342 Uani
N12F N 0.22254(9) 0.8526(2) 0.49250(18) 0.0366 Uani
N13F N 0.32739(9) 0.9037(2) 0.58458(18) 0.0354 Uani
N14F N 0.30080(9) 0.8660(2) 0.57446(18) 0.0348 Uani
N15F N 0.29304(9) 0.8142(2) 0.53436(18) 0.0361 Uani
N16F N 0.25577(10) 0.7494(2) 0.66215(18) 0.0394 Uani
N17F N 0.26056(9) 0.7767(2) 0.62014(17) 0.0320 Uani
N18F N 0.25554(9) 0.7229(2) 0.58256(17) 0.0347 Uani
N19F N 0.08201(11) 1.4539(3) 0.4106(2) 0.0669 Uani
N20F N 0.05369(11) 1.4894(3) 0.3778(2) 0.0657 Uani
N21F N 0.04455(10) 1.3655(3) 0.3708(2) 0.0511 Uani
H57F H 0.0354 1.3209 0.3616 0.0620 Uiso
O1F O 0.19619(10) 1.1611(3) 0.53780(19) 0.0655 Uani
O2F O 0.16000(11) 1.0827(3) 0.5337(2) 0.0849 Uani
O3F O -0.11626(10) 1.4551(3) 0.18695(19) 0.0727 Uani
O4F O -0.10297(9) 1.5747(3) 0.1821(2) 0.0742 Uani
Zn1F Zn 0.215183(14) 1.05764(4) 0.56473(3) 0.0396 Uani
Zn2F Zn 0.346945(13) 0.97246(4) 0.65175(3) 0.0369 Uani
Zn3F Zn 0.266606(15) 0.81516(4) 0.72965(3) 0.0403 Uani
Zn4F Zn 0.270460(13) 0.89918(3) 0.61191(2) 0.0329 Uani
O3A O 0.38374(10) 1.0449(3) 0.68695(19) 0.0727 Uani
O3G O 0.11626(10) 0.4551(3) 0.31305(19) 0.0727 Uani
O4A O 0.39703(9) 0.9253(3) 0.6821(2) 0.0742 Uani
O4G O 0.10297(9) 0.5747(3) 0.3179(2) 0.0742 Uani
Zn2A Zn -0.153055(13) 1.52754(4) 0.15175(3) 0.0369 Uani
Zn2G Zn 0.653055(13) -0.02754(4) 0.84825(3) 0.0369 Uani
Cl2? Cl 0.2695(3) 0.7530(8) 0.2323(6) 0.1172 Uani
Cl3? Cl 0.2262(7) 0.728(2) 0.1963(10) 0.1053 Uani
loop_
_atom_site_aniso_label
_atom_site_aniso_U_11
_atom_site_aniso_U_22
_atom_site_aniso_U_33
_atom_site_aniso_U_23
_atom_site_aniso_U_13
_atom_site_aniso_U_12
C1 0.033(3) 0.027(3) 0.037(3) 0.004(2) 0.010(3) 0.002(2)
C2 0.036(3) 0.038(3) 0.047(4) 0.004(3) 0.013(3) 0.006(3)
C3 0.065(4) 0.020(3) 0.048(4) 0.003(3) 0.023(3) -0.003(3)
C4 0.049(4) 0.037(3) 0.046(4) -0.001(3) 0.021(3) -0.013(3)
C5 0.034(3) 0.037(3) 0.051(4) -0.002(3) 0.014(3) -0.004(3)
C6 0.032(3) 0.028(3) 0.046(3) 0.001(3) 0.015(3) -0.007(2)
C7 0.099(6) 0.039(4) 0.079(5) 0.008(4) 0.042(5) 0.007(4)
C8 0.069(5) 0.051(4) 0.094(6) -0.008(4) 0.033(4) -0.022(4)
C9 0.024(3) 0.063(4) 0.042(4) 0.003(3) -0.001(3) -0.013(3)
C10 0.077(4) 0.113(5) 0.077(4) 0.019(3) 0.033(3) -0.020(3)
C11 0.077(4) 0.122(5) 0.086(4) 0.011(4) 0.022(3) -0.023(4)
C12 0.079(4) 0.105(4) 0.059(4) 0.017(3) 0.023(3) -0.008(3)
C13 0.045(4) 0.086(5) 0.035(4) 0.003(4) 0.003(3) -0.007(4)
C14 0.028(3) 0.048(4) 0.040(4) -0.002(3) 0.001(3) 0.005(3)
C15 0.152(6) 0.185(6) 0.157(6) 0.011(4) 0.065(5) -0.022(4)
C16 0.124(5) 0.155(6) 0.114(5) 0.018(4) 0.052(4) -0.010(4)
C17 0.041(4) 0.043(4) 0.048(4) 0.004(3) 0.018(3) -0.001(3)
C18 0.039(3) 0.036(3) 0.053(4) 0.000(3) 0.024(3) 0.003(3)
C19 0.064(5) 0.045(4) 0.077(5) 0.003(4) 0.035(4) 0.009(3)
C20 0.057(4) 0.062(4) 0.067(5) 0.004(4) 0.035(4) 0.011(4)
C21 0.057(4) 0.069(5) 0.062(5) -0.003(4) 0.034(4) 0.002(4)
C22 0.057(4) 0.056(4) 0.049(4) 0.014(3) 0.028(3) 0.012(3)
C23 0.115(7) 0.091(6) 0.134(8) 0.013(6) 0.083(7) 0.041(6)
C24 0.118(7) 0.116(7) 0.081(6) 0.020(5) 0.067(6) 0.035(6)
C25 0.025(3) 0.038(3) 0.043(3) 0.008(3) 0.006(3) -0.004(3)
C26 0.032(3) 0.051(4) 0.059(4) 0.008(3) 0.008(3) 0.004(3)
C27 0.031(3) 0.066(5) 0.057(4) 0.019(4) 0.004(3) 0.005(3)
C28 0.038(4) 0.064(4) 0.043(4) 0.004(3) 0.003(3) -0.013(3)
C29 0.042(4) 0.059(4) 0.040(4) 0.002(3) 0.014(3) -0.009(3)
C30 0.025(3) 0.040(3) 0.036(3) 0.004(3) 0.004(3) -0.003(3)
C31 0.040(4) 0.110(7) 0.090(6) 0.026(5) -0.024(4) 0.010(4)
C32 0.057(5) 0.121(7) 0.050(4) -0.017(4) 0.002(4) -0.022(5)
C33 0.020(3) 0.037(3) 0.041(3) -0.003(3) 0.008(3) -0.006(2)
C34 0.032(3) 0.065(4) 0.058(4) -0.014(4) 0.019(3) -0.018(3)
C35 0.040(4) 0.085(5) 0.072(5) -0.006(4) 0.027(4) -0.013(4)
C36 0.049(4) 0.080(5) 0.059(4) -0.016(4) 0.031(4) -0.009(4)
C37 0.032(3) 0.050(4) 0.050(4) -0.009(3) 0.011(3) -0.008(3)
C38 0.027(3) 0.043(3) 0.033(3) -0.008(3) 0.009(3) -0.003(3)
C39 0.091(6) 0.151(9) 0.119(7) -0.037(6) 0.078(6) -0.051(6)
C40 0.105(7) 0.128(7) 0.096(6) -0.041(6) 0.078(6) -0.024(6)
C41 0.030(3) 0.033(3) 0.041(3) 0.000(3) 0.008(3) -0.004(2)
C42 0.056(4) 0.044(4) 0.050(4) 0.014(3) 0.026(3) -0.005(3)
C43 0.053(4) 0.036(4) 0.064(5) 0.014(3) 0.020(4) -0.012(3)
C44 0.051(4) 0.028(3) 0.071(5) 0.003(3) 0.018(4) -0.010(3)
C45 0.042(4) 0.038(3) 0.053(4) -0.004(3) 0.014(3) -0.003(3)
C46 0.030(3) 0.034(3) 0.043(4) 0.002(3) 0.010(3) -0.001(3)
C47 0.085(6) 0.051(4) 0.124(7) 0.028(5) 0.054(5) -0.014(4)
C48 0.080(5) 0.038(4) 0.108(6) -0.005(4) 0.037(5) -0.018(4)
C49 0.060(5) 0.060(5) 0.050(4) 0.000(4) 0.014(4) 0.029(4)
C50 0.046(4) 0.048(4) 0.044(4) 0.005(3) 0.015(3) 0.020(3)
C51 0.033(3) 0.062(4) 0.064(4) 0.008(4) 0.014(3) 0.017(3)
C52 0.036(4) 0.051(4) 0.077(5) 0.011(4) 0.021(3) 0.010(3)
C53 0.030(3) 0.046(4) 0.044(4) 0.001(3) 0.008(3) 0.008(3)
C54 0.030(3) 0.050(4) 0.060(4) 0.012(3) 0.004(3) 0.004(3)
C55 0.046(4) 0.042(4) 0.069(5) 0.005(3) 0.010(3) 0.011(3)
C56 0.025(3) 0.049(4) 0.042(4) 0.010(3) 0.003(3) 0.007(3)
C57 0.026(3) 0.050(4) 0.055(4) 0.007(3) 0.008(3) 0.010(3)
C58 0.025(3) 0.054(4) 0.048(4) 0.006(3) 0.002(3) 0.013(3)
C59 0.033(4) 0.058(4) 0.074(5) 0.001(4) -0.001(3) 0.010(3)
C60 0.037(4) 0.059(4) 0.088(5) 0.015(4) 0.009(4) 0.019(3)
C61 0.027(3) 0.063(4) 0.054(4) 0.003(3) 0.011(3) 0.014(3)
C62 0.029(3) 0.073(5) 0.078(5) -0.002(4) 0.005(3) 0.002(3)
C63 0.033(3) 0.047(4) 0.077(5) 0.010(4) 0.003(3) 0.010(3)
C64 0.029(4) 0.084(6) 0.059(5) 0.008(4) 0.008(3) 0.020(4)
Cl1 0.130(10) 0.087(8) 0.085(6) 0.017(5) 0.055(6) 0.036(7)
N1 0.027(2) 0.027(2) 0.053(3) 0.004(2) 0.013(2) 0.001(2)
N2 0.024(2) 0.030(3) 0.046(3) 0.004(2) 0.006(2) -0.001(2)
N3 0.026(2) 0.035(3) 0.046(3) -0.001(2) 0.008(2) -0.004(2)
N4 0.027(3) 0.050(3) 0.038(3) 0.006(2) 0.005(2) -0.007(2)
N5 0.031(3) 0.039(3) 0.035(3) -0.001(2) 0.011(2) -0.002(2)
N6 0.039(3) 0.036(3) 0.032(3) 0.001(2) 0.010(2) -0.004(2)
N7 0.035(3) 0.046(3) 0.045(3) 0.009(2) 0.020(2) 0.008(2)
N8 0.040(3) 0.036(3) 0.043(3) 0.008(2) 0.017(2) 0.006(2)
N9 0.047(3) 0.041(3) 0.048(3) 0.005(2) 0.018(3) 0.003(2)
N10 0.026(2) 0.028(2) 0.048(3) 0.003(2) 0.007(2) 0.002(2)
N11 0.030(2) 0.031(2) 0.031(3) 0.000(2) 0.005(2) -0.004(2)
N12 0.026(2) 0.037(3) 0.037(3) 0.000(2) 0.006(2) -0.005(2)
N13 0.020(2) 0.038(3) 0.043(3) -0.008(2) 0.010(2) -0.010(2)
N14 0.024(2) 0.030(2) 0.042(3) -0.001(2) 0.008(2) -0.003(2)
N15 0.031(2) 0.037(3) 0.038(3) -0.009(2) 0.014(2) -0.009(2)
N16 0.039(3) 0.037(3) 0.036(3) 0.005(2) 0.012(2) -0.007(2)
N17 0.028(2) 0.028(2) 0.033(3) -0.001(2) 0.008(2) -0.0035(19)
N18 0.035(3) 0.027(2) 0.036(3) 0.000(2) 0.011(2) -0.007(2)
N19 0.029(3) 0.051(3) 0.090(4) 0.010(3) 0.001(3) 0.014(3)
N20 0.025(3) 0.054(3) 0.087(4) 0.006(3) -0.001(3) 0.014(3)
N21 0.029(3) 0.045(3) 0.060(3) 0.005(3) 0.004(2) 0.000(2)
O1 0.040(3) 0.063(3) 0.080(3) 0.015(2) 0.016(2) 0.023(2)
O2 0.070(3) 0.055(3) 0.105(4) 0.019(3) 0.019(3) 0.019(3)
O3 0.024(2) 0.084(4) 0.080(3) -0.007(3) -0.002(2) 0.015(2)
O4 0.035(3) 0.085(4) 0.080(4) 0.013(3) 0.007(2) 0.022(2)
Zn1 0.0293(4) 0.0325(4) 0.0495(4) 0.0074(3) 0.0117(3) 0.0055(3)
Zn2 0.0221(3) 0.0355(4) 0.0406(4) -0.0031(3) 0.0038(3) -0.0066(3)
Zn3 0.0428(4) 0.0381(4) 0.0371(4) 0.0045(3) 0.0160(3) 0.0011(3)
Zn4 0.0255(3) 0.0303(3) 0.0345(4) 0.0017(3) 0.0067(3) -0.0024(3)
Zn5 0.0272(5) 0.0336(5) 0.0358(5) -0.0049(4) 0.0086(4) -0.0084(4)
C1F 0.033 0.027 0.037 0.004 0.01 0.002
C2F 0.036 0.038 0.047 0.004 0.013 0.006
C3F 0.065 0.02 0.048 0.003 0.023 -0.003
C4F 0.049 0.037 0.046 -0.001 0.021 -0.013
C5F 0.034 0.037 0.051 -0.002 0.014 -0.004
C6F 0.032 0.028 0.046 0.001 0.015 -0.007
C7F 0.099 0.039 0.079 0.008 0.042 0.007
C8F 0.069 0.051 0.094 -0.008 0.033 -0.022
C9F 0.024 0.063 0.042 0.003 -0.001 -0.013
C10F 0.077 0.113 0.077 0.019 0.033 -0.02
C11F 0.077 0.122 0.086 0.011 0.022 -0.023
C12F 0.079 0.105 0.059 0.017 0.023 -0.008
C13F 0.045 0.086 0.035 0.003 0.003 -0.007
C14F 0.028 0.048 0.04 -0.002 0.001 0.005
C15F 0.152 0.185 0.157 0.011 0.065 -0.022
C16F 0.124 0.155 0.114 0.018 0.052 -0.01
C17F 0.041 0.043 0.048 0.004 0.018 -0.001
C18F 0.039 0.036 0.053 0 0.024 0.003
C19F 0.064 0.045 0.077 0.003 0.035 0.009
C20F 0.057 0.062 0.067 0.004 0.035 0.011
C21F 0.057 0.069 0.062 -0.003 0.034 0.002
C22F 0.057 0.056 0.049 0.014 0.028 0.012
C23F 0.115 0.091 0.134 0.013 0.083 0.041
C24F 0.118 0.116 0.081 0.02 0.067 0.035
C25F 0.025 0.038 0.043 0.008 0.006 -0.004
C26F 0.032 0.051 0.059 0.008 0.008 0.004
C27F 0.031 0.066 0.057 0.019 0.004 0.005
C28F 0.038 0.064 0.043 0.004 0.003 -0.013
C29F 0.042 0.059 0.04 0.002 0.014 -0.009
C30F 0.025 0.04 0.036 0.004 0.004 -0.003
C31F 0.04 0.11 0.09 0.026 -0.024 0.01
C32F 0.057 0.121 0.05 -0.017 0.002 -0.022
C33F 0.02 0.037 0.041 -0.003 0.008 -0.006
C34F 0.032 0.065 0.058 -0.014 0.019 -0.018
C35F 0.04 0.085 0.072 -0.006 0.027 -0.013
C36F 0.049 0.08 0.059 -0.016 0.031 -0.009
C37F 0.032 0.05 0.05 -0.009 0.011 -0.008
C38F 0.027 0.043 0.033 -0.008 0.009 -0.003
C39F 0.091 0.151 0.119 -0.037 0.078 -0.051
C40F 0.105 0.128 0.096 -0.041 0.078 -0.024
C41F 0.03 0.033 0.041 0 0.008 -0.004
C42F 0.056 0.044 0.05 0.014 0.026 -0.005
C43F 0.053 0.036 0.064 0.014 0.02 -0.012
C44F 0.051 0.028 0.071 0.003 0.018 -0.01
C45F 0.042 0.038 0.053 -0.004 0.014 -0.003
C46F 0.03 0.034 0.043 0.002 0.01 -0.001
C47F 0.085 0.051 0.124 0.028 0.054 -0.014
C48F 0.08 0.038 0.108 -0.005 0.037 -0.018
C49F 0.06 0.06 0.05 0 0.014 0.029
C50F 0.046 0.048 0.044 0.005 0.015 0.02
C51F 0.033 0.062 0.064 0.008 0.014 0.017
C52F 0.036 0.051 0.077 0.011 0.021 0.01
C53F 0.03 0.046 0.044 0.001 0.008 0.008
C54F 0.03 0.05 0.06 0.012 0.004 0.004
C55F 0.046 0.042 0.069 0.005 0.01 0.011
C56F 0.025 0.049 0.042 0.01 0.003 0.007
C57F 0.026 0.05 0.055 0.007 0.008 0.01
C58F 0.025 0.054 0.048 0.006 0.002 0.013
C59F 0.033 0.058 0.074 0.001 -0.001 0.01
C60F 0.037 0.059 0.088 0.015 0.009 0.019
C61F 0.027 0.063 0.054 0.003 0.011 0.014
C62F 0.029 0.073 0.078 -0.002 0.005 0.002
C63F 0.033 0.047 0.077 0.01 0.003 0.01
C64F 0.029 0.084 0.059 0.008 0.008 0.02
Cl1F 0.13 0.087 0.085 0.017 0.055 0.036
N1F 0.027 0.027 0.053 0.004 0.013 0.001
N2F 0.024 0.03 0.046 0.004 0.006 -0.001
N3F 0.026 0.035 0.046 -0.001 0.008 -0.004
N4F 0.027 0.05 0.038 0.006 0.005 -0.007
N5F 0.031 0.039 0.035 -0.001 0.011 -0.002
N6F 0.039 0.036 0.032 0.001 0.01 -0.004
N7F 0.035 0.046 0.045 0.009 0.02 0.008
N8F 0.04 0.036 0.043 0.008 0.017 0.006
N9F 0.047 0.041 0.048 0.005 0.018 0.003
N10F 0.026 0.028 0.048 0.003 0.007 0.002
N11F 0.03 0.031 0.031 0 0.005 -0.004
N12F 0.026 0.037 0.037 0 0.006 -0.005
N13F 0.02 0.038 0.043 -0.008 0.01 -0.01
N14F 0.024 0.03 0.042 -0.001 0.008 -0.003
N15F 0.031 0.037 0.038 -0.009 0.014 -0.009
N16F 0.039 0.037 0.036 0.005 0.012 -0.007
N17F 0.028 0.028 0.033 -0.001 0.008 -0.0035
N18F 0.035 0.027 0.036 0 0.011 -0.007
N19F 0.029 0.051 0.09 0.01 0.001 0.014
N20F 0.025 0.054 0.087 0.006 -0.001 0.014
N21F 0.029 0.045 0.06 0.005 0.004 0
O1F 0.04 0.063 0.08 0.015 0.016 0.023
O2F 0.07 0.055 0.105 0.019 0.019 0.019
O3F 0.024 0.084 0.08 -0.007 -0.002 0.015
O4F 0.035 0.085 0.08 0.013 0.007 0.022
Zn1F 0.0293 0.0325 0.0495 0.0074 0.0117 0.0055
Zn2F 0.0221 0.0355 0.0406 -0.0031 0.0038 -0.0066
Zn3F 0.0428 0.0381 0.0371 0.0045 0.016 0.0011
Zn4F 0.0255 0.0303 0.0345 0.0017 0.0067 -0.0024
O3A 0.024 0.084 0.08 0.007 -0.002 -0.015
O3G 0.024 0.084 0.08 0.007 -0.002 -0.015
O4A 0.035 0.085 0.08 -0.013 0.007 -0.022
O4G 0.035 0.085 0.08 -0.013 0.007 -0.022
Zn2A 0.0221 0.0355 0.0406 0.0031 0.0038 0.0066
Zn2G 0.0221 0.0355 0.0406 0.0031 0.0038 0.0066
Cl2? 0.108(10) 0.131(11) 0.101(9) 0.015(8) 0.038(8) 0.004(9)
Cl3? 0.16(2) 0.083(8) 0.044(6) 0.020(5) 0.022(9) 0.025(14)
loop_
_geom_bond_atom_site_label_1
_geom_bond_atom_site_label_2
_geom_bond_site_symmetry_1
_geom_bond_site_symmetry_2
C1 C2 1_555 1_555
C2 H1 1_555 1_555
C3 C2 1_555 1_555
C4 C3 1_555 1_555
C5 C4 1_555 1_555
H2 C5 1_555 1_555
C6 C1 1_555 1_555
C7 C3 1_555 1_555
H3 C7 1_555 1_555
H4 C7 1_555 1_555
H5 C7 1_555 1_555
C8 C4 1_555 1_555
H6 C8 1_555 1_555
H7 C8 1_555 1_555
H8 C8 1_555 1_555
C9 C10 1_555 1_555
C10 H9 1_555 1_555
C11 C10 1_555 1_555
C12 C11 1_555 1_555
C13 C12 1_555 1_555
H10 C13 1_555 1_555
C14 C9 1_555 1_555
C15 C11 1_555 1_555
H11 C15 1_555 1_555
H12 C15 1_555 1_555
H13 C15 1_555 1_555
C16 C12 1_555 1_555
H14 C16 1_555 1_555
H15 C16 1_555 1_555
H16 C16 1_555 1_555
C17 C18 1_555 1_555
C18 C19 1_555 1_555
C19 H17 1_555 1_555
C20 C19 1_555 1_555
C21 C20 1_555 1_555
C22 C17 1_555 1_555
H18 C22 1_555 1_555
C23 C20 1_555 1_555
H19 C23 1_555 1_555
H20 C23 1_555 1_555
H21 C23 1_555 1_555
C24 C21 1_555 1_555
H22 C24 1_555 1_555
H23 C24 1_555 1_555
H24 C24 1_555 1_555
C25 C26 1_555 1_555
C26 H25 1_555 1_555
C27 C26 1_555 1_555
C28 C27 1_555 1_555
C29 C28 1_555 1_555
H26 C29 1_555 1_555
C30 C25 1_555 1_555
C31 C27 1_555 1_555
H27 C31 1_555 1_555
H28 C31 1_555 1_555
H29 C31 1_555 1_555
C32 C28 1_555 1_555
H30 C32 1_555 1_555
H31 C32 1_555 1_555
H32 C32 1_555 1_555
C33 C34 1_555 1_555
C34 H33 1_555 1_555
C35 C34 1_555 1_555
C36 C35 1_555 1_555
C37 C36 1_555 1_555
H34 C37 1_555 1_555
C38 C33 1_555 1_555
C39 C35 1_555 1_555
H35 C39 1_555 1_555
H36 C39 1_555 1_555
H37 C39 1_555 1_555
C40 C36 1_555 1_555
H38 C40 1_555 1_555
H39 C40 1_555 1_555
H40 C40 1_555 1_555
C41 C42 1_555 1_555
C42 H41 1_555 1_555
C43 C42 1_555 1_555
C44 C43 1_555 1_555
C45 C44 1_555 1_555
H42 C45 1_555 1_555
C46 C41 1_555 1_555
C47 C43 1_555 1_555
H43 C47 1_555 1_555
H44 C47 1_555 1_555
H45 C47 1_555 1_555
C48 C44 1_555 1_555
H46 C48 1_555 1_555
H47 C48 1_555 1_555
H48 C48 1_555 1_555
C49 C50 1_555 1_555
C50 C51 1_555 1_555
C51 H49 1_555 1_555
C52 C51 1_555 1_555
H50 C52 1_555 1_555
C53 C52 1_555 1_555
C54 C53 1_555 1_555
H51 C54 1_555 1_555
C55 C50 1_555 1_555
H52 C55 1_555 1_555
C56 C53 1_555 1_555
C57 C58 1_555 1_555
C58 C59 1_555 1_555
C59 H53 1_555 1_555
C60 C59 1_555 1_555
H54 C60 1_555 1_555
C61 C60 1_555 1_555
C62 C61 1_555 1_555
H55 C62 1_555 1_555
C63 C58 1_555 1_555
H56 C63 1_555 1_555
C64 C61 1_555 1_555
Cl1 Zn3 1_555 1_555
N1 C1 1_555 1_555
N2 N1 1_555 1_555
N3 C6 1_555 1_555
N4 C9 1_555 1_555
N5 N4 1_555 1_555
N6 C14 1_555 1_555
N7 C17 1_555 1_555
N8 N7 1_555 1_555
N9 C18 1_555 1_555
N10 C25 1_555 1_555
N11 N10 1_555 1_555
N12 C30 1_555 1_555
N13 C33 1_555 1_555
N14 N13 1_555 1_555
N15 C38 1_555 1_555
N16 C41 1_555 1_555
N17 N16 1_555 1_555
N18 C46 1_555 1_555
N19 C56 1_555 1_555
N20 C57 1_555 1_555
N21 C56 1_555 1_555
H57 N21 1_555 1_555
O1 C49 1_555 1_555
O2 C49 1_555 1_555
O3 C64 1_555 1_555
O4 C64 1_555 1_555
Zn1 N1 1_555 1_555
Zn2 N3 1_555 1_555
Zn3 N6 1_555 1_555
Zn4 N2 1_555 1_555
Zn5 N12 1_555 1_555
C1F C2F 1_555 1_555
C2F H1F 1_555 1_555
C3F C2F 1_555 1_555
C4F C3F 1_555 1_555
C5F C4F 1_555 1_555
H2F C5F 1_555 1_555
C6F C1F 1_555 1_555
C7F C3F 1_555 1_555
H3F C7F 1_555 1_555
H4F C7F 1_555 1_555
H5F C7F 1_555 1_555
C8F C4F 1_555 1_555
H6F C8F 1_555 1_555
H7F C8F 1_555 1_555
H8F C8F 1_555 1_555
C9F C10F 1_555 1_555
C10F H9F 1_555 1_555
C11F C10F 1_555 1_555
C12F C11F 1_555 1_555
C13F C12F 1_555 1_555
H10F C13F 1_555 1_555
C14F C9F 1_555 1_555
C15F C11F 1_555 1_555
H11F C15F 1_555 1_555
H12F C15F 1_555 1_555
H13F C15F 1_555 1_555
C16F C12F 1_555 1_555
H14F C16F 1_555 1_555
H15F C16F 1_555 1_555
H16F C16F 1_555 1_555
C17F C18F 1_555 1_555
C18F C19F 1_555 1_555
C19F H17F 1_555 1_555
C20F C19F 1_555 1_555
C21F C20F 1_555 1_555
C22F C17F 1_555 1_555
H18F C22F 1_555 1_555
C23F C20F 1_555 1_555
H19F C23F 1_555 1_555
H20F C23F 1_555 1_555
H21F C23F 1_555 1_555
C24F C21F 1_555 1_555
H22F C24F 1_555 1_555
H23F C24F 1_555 1_555
H24F C24F 1_555 1_555
C25F C26F 1_555 1_555
C26F H25F 1_555 1_555
C27F C26F 1_555 1_555
C28F C27F 1_555 1_555
C29F C28F 1_555 1_555
H26F C29F 1_555 1_555
C30F C25F 1_555 1_555
C31F C27F 1_555 1_555
H27F C31F 1_555 1_555
H28F C31F 1_555 1_555
H29F C31F 1_555 1_555
C32F C28F 1_555 1_555
H30F C32F 1_555 1_555
H31F C32F 1_555 1_555
H32F C32F 1_555 1_555
C33F C34F 1_555 1_555
C34F H33F 1_555 1_555
C35F C34F 1_555 1_555
C36F C35F 1_555 1_555
C37F C36F 1_555 1_555
H34F C37F 1_555 1_555
C38F C33F 1_555 1_555
C39F C35F 1_555 1_555
H35F C39F 1_555 1_555
H36F C39F 1_555 1_555
H37F C39F 1_555 1_555
C40F C36F 1_555 1_555
H38F C40F 1_555 1_555
H39F C40F 1_555 1_555
H40F C40F 1_555 1_555
C41F C42F 1_555 1_555
C42F H41F 1_555 1_555
C43F C42F 1_555 1_555
C44F C43F 1_555 1_555
C45F C44F 1_555 1_555
H42F C45F 1_555 1_555
C46F C41F 1_555 1_555
C47F C43F 1_555 1_555
H43F C47F 1_555 1_555
H44F C47F 1_555 1_555
H45F C47F 1_555 1_555
C48F C44F 1_555 1_555
H46F C48F 1_555 1_555
H47F C48F 1_555 1_555
H48F C48F 1_555 1_555
C49F C50F 1_555 1_555
C50F C51F 1_555 1_555
C51F H49F 1_555 1_555
C52F C51F 1_555 1_555
H50F C52F 1_555 1_555
C53F C52F 1_555 1_555
C54F C53F 1_555 1_555
H51F C54F 1_555 1_555
C55F C50F 1_555 1_555
H52F C55F 1_555 1_555
C56F C53F 1_555 1_555
C57F C58F 1_555 1_555
C58F C59F 1_555 1_555
C59F H53F 1_555 1_555
C60F C59F 1_555 1_555
H54F C60F 1_555 1_555
C61F C60F 1_555 1_555
C62F C61F 1_555 1_555
H55F C62F 1_555 1_555
C63F C58F 1_555 1_555
H56F C63F 1_555 1_555
C64F C61F 1_555 1_555
Cl1F Zn3F 1_555 1_555
N1F C1F 1_555 1_555
N2F N1F 1_555 1_555
N3F C6F 1_555 1_555
N4F C9F 1_555 1_555
N5F N4F 1_555 1_555
N6F C14F 1_555 1_555
N7F C17F 1_555 1_555
N8F N7F 1_555 1_555
N9F C18F 1_555 1_555
N10F C25F 1_555 1_555
N11F N10F 1_555 1_555
N12F Zn5 1_555 1_555
N13F C33F 1_555 1_555
N14F N13F 1_555 1_555
N15F Zn5 1_555 1_555
N16F C41F 1_555 1_555
N17F N16F 1_555 1_555
N18F Zn5 1_555 1_555
N19F C56F 1_555 1_555
N20F C57F 1_555 1_555
N21F C56F 1_555 1_555
H57F N21F 1_555 1_555
O1F C49F 1_555 1_555
O2F C49F 1_555 1_555
O3F C64F 1_555 1_555
O4F C64F 1_555 1_555
Zn1F N1F 1_555 1_555
Zn2F N3F 1_555 1_555
Zn3F N6F 1_555 1_555
Zn4F N2F 1_555 1_555
O3A Zn2F 1_555 1_555
O3G Zn2 1_555 1_555
O4A Zn2F 1_555 1_555
O4G Zn2 1_555 1_555
Zn2A O3F 1_555 1_555
Zn2G O3 1_555 1_555
C5 C6 1_555 1_555
C13 C14 1_555 1_555
C21 C22 1_555 1_555
C29 C30 1_555 1_555
C37 C38 1_555 1_555
C45 C46 1_555 1_555
C54 C55 1_555 1_555
C57 N21 1_555 1_555
C62 C63 1_555 1_555
N2 N3 1_555 1_555
N4 Zn2 1_555 1_555
N5 N6 1_555 1_555
N5 Zn4 1_555 1_555
N7 Zn3 1_555 1_555
N8 N9 1_555 1_555
N8 Zn4 1_555 1_555
N9 Zn1 1_555 1_555
N10 Zn1 1_555 1_555
N11 N12 1_555 1_555
N11 Zn4 1_555 1_555
N13 Zn2 1_555 1_555
N14 N15 1_555 1_555
N14 Zn4 1_555 1_555
N15 Zn5 1_555 1_555
N16 Zn3 1_555 1_555
N17 N18 1_555 1_555
N17 Zn4 1_555 1_555
N18 Zn5 1_555 1_555
N19 N20 1_555 1_555
O1 Zn1 1_555 1_555
O2 Zn1 1_555 1_555
O4 Zn2G 1_555 1_555
C5F C6F 1_555 1_555
C13F C14F 1_555 1_555
C21F C22F 1_555 1_555
C29F C30F 1_555 1_555
C30F N12F 1_555 1_555
C37F C38F 1_555 1_555
C38F N15F 1_555 1_555
C45F C46F 1_555 1_555
C46F N18F 1_555 1_555
C54F C55F 1_555 1_555
C57F N21F 1_555 1_555
C62F C63F 1_555 1_555
N2F N3F 1_555 1_555
N4F Zn2F 1_555 1_555
N5F N6F 1_555 1_555
N5F Zn4F 1_555 1_555
N7F Zn3F 1_555 1_555
N8F N9F 1_555 1_555
N8F Zn4F 1_555 1_555
N9F Zn1F 1_555 1_555
N10F Zn1F 1_555 1_555
N11F N12F 1_555 1_555
N11F Zn4F 1_555 1_555
N13F Zn2F 1_555 1_555
N14F N15F 1_555 1_555
N14F Zn4F 1_555 1_555
N16F Zn3F 1_555 1_555
N17F N18F 1_555 1_555
N17F Zn4F 1_555 1_555
N19F N20F 1_555 1_555
O1F Zn1F 1_555 1_555
O2F Zn1F 1_555 1_555
O4F Zn2A 1_555 1_555

#END
