
#######################################################################
#
#                 Cambridge Crystallographic Data Centre
#                                CCDC 
#
#######################################################################
#
# If this CIF has been generated from an entry in the Cambridge 
# Structural Database, then it will include bibliographic, chemical, 
# crystal, experimental, refinement or atomic coordinate data resulting 
# from the CCDC's data processing and validation procedures.
#
#######################################################################

data_EZIMAC
_chemical_name_common            
catena-[(mu!5$-5-(Pyridin-3-ylethynyl)benzene-1,3-dicarboxylato-N,O,O',O'',O''')-copper(ii)]
_chemical_formula_moiety         '(C15 H7 Cu1 N1 O4)n'
_chemical_name_systematic        
catena-[(\m~5~-5-(Pyridin-3-ylethynyl)isophthalato-N,O,O',O'',O''')-copper(ii)]
_symmetry_cell_setting           rhombohedral
_symmetry_space_group_name_H-M   'R -3 c'
_symmetry_Int_Tables_number      167
_space_group_name_Hall           '-R 3 2"c'
loop_
_symmetry_equiv_pos_site_id
_symmetry_equiv_pos_as_xyz
1 x,y,z
2 -y,x-y,z
3 -x+y,-x,z
4 y,x,1/2-z
5 x-y,-y,1/2-z
6 -x,-x+y,1/2-z
7 2/3+x,1/3+y,1/3+z
8 2/3-y,1/3+x-y,1/3+z
9 2/3-x+y,1/3-x,1/3+z
10 2/3+y,1/3+x,5/6-z
11 2/3+x-y,1/3-y,5/6-z
12 2/3-x,1/3-x+y,5/6-z
13 1/3+x,2/3+y,2/3+z
14 1/3-y,2/3+x-y,2/3+z
15 1/3-x+y,2/3-x,2/3+z
16 1/3+y,2/3+x,1/6-z
17 1/3+x-y,2/3-y,1/6-z
18 1/3-x,2/3-x+y,1/6-z
19 -x,-y,-z
20 y,-x+y,-z
21 x-y,x,-z
22 -y,-x,1/2+z
23 -x+y,y,1/2+z
24 x,x-y,1/2+z
25 1/3-x,2/3-y,2/3-z
26 1/3+y,2/3-x+y,2/3-z
27 1/3+x-y,2/3+x,2/3-z
28 1/3-y,2/3-x,1/6+z
29 1/3-x+y,2/3+y,1/6+z
30 1/3+x,2/3+x-y,1/6+z
31 2/3-x,1/3-y,1/3-z
32 2/3+y,1/3-x+y,1/3-z
33 2/3+x-y,1/3+x,1/3-z
34 2/3-y,1/3-x,5/6+z
35 2/3-x+y,1/3+y,5/6+z
36 2/3+x,1/3+x-y,5/6+z
_cell_length_a                   18.218(3)
_cell_length_b                   18.218(3)
_cell_length_c                   72.761(15)
_cell_angle_alpha                90
_cell_angle_beta                 90
_cell_angle_gamma                120
_cell_volume                     20913.7
_exptl_crystal_colour            blue
_exptl_crystal_description       'hexagonal plate'
_cell_formula_units_Z            36
_exptl_crystal_preparation       
'The as-synthesised crystal was vacuum-dried at 200 deg.C overnight to remove solvent molecules'
loop_
_atom_site_label
_atom_site_type_symbol
_atom_site_fract_x
_atom_site_fract_y
_atom_site_fract_z
_atom_site_U_iso_or_equiv
_atom_site_thermal_displace_type
Cu1 Cu 0.786118(13) 1.171247(14) 0.931043(3) 0.0154 Uani
O1 O 0.68182(9) 1.13062(9) 0.917561(17) 0.0237 Uani
O2 O 0.72091(9) 1.08286(9) 0.893107(18) 0.0235 Uani
O3 O 0.43824(9) 1.16274(10) 0.915886(19) 0.0255 Uani
O4 O 0.35247(9) 1.12239(10) 0.891213(18) 0.0243 Uani
N1 N 0.39984(10) 0.87006(10) 0.78883(2) 0.0198 Uani
C1 C 0.43052(12) 0.90731(12) 0.80503(2) 0.0206 Uani
H1 H 0.4813 0.9607 0.8052 0.0250 Uiso
C2 C 0.32821(13) 0.79490(12) 0.78864(2) 0.0256 Uani
H2 H 0.3058 0.7685 0.7771 0.0310 Uiso
C3 C 0.28529(15) 0.75397(14) 0.80454(3) 0.0343 Uani
H3 H 0.2349 0.7004 0.8039 0.0410 Uiso
C4 C 0.31728(15) 0.79267(15) 0.82135(3) 0.0343 Uani
H4 H 0.2891 0.7659 0.8324 0.0410 Uiso
C5 C 0.39127(13) 0.87126(13) 0.82177(2) 0.0238 Uani
C6 C 0.42597(14) 0.91733(14) 0.83857(3) 0.0269 Uani
C7 C 0.45452(13) 0.95909(14) 0.85214(3) 0.0263 Uani
C8 C 0.48513(13) 1.01071(13) 0.86848(2) 0.0241 Uani
C9 C 0.56150(13) 1.02828(13) 0.87668(2) 0.0239 Uani
H5 H 0.5951 1.0073 0.8714 0.0290 Uiso
C10 C 0.58811(12) 1.07691(12) 0.89266(2) 0.0206 Uani
C11 C 0.53940(12) 1.10803(12) 0.90030(2) 0.0212 Uani
H6 H 0.5574 1.1402 0.9113 0.0250 Uiso
C12 C 0.46441(12) 1.09244(13) 0.89190(2) 0.0213 Uani
C13 C 0.43687(13) 1.04368(13) 0.87602(2) 0.0238 Uani
H7 H 0.3855 1.0327 0.8703 0.0290 Uiso
C14 C 0.67022(12) 1.09784(12) 0.90168(2) 0.0195 Uani
C15 C 0.41455(12) 1.12865(12) 0.90033(2) 0.0202 Uani
Cu1I Cu 0.837914(14) 1.119451(13) 0.902290(3) 0.0154 Uani
Cu1B Cu 0.385129(19) 1.213882(13) 0.931043(3) 0.0154 Uani
Cu1J Cu 0.281538(19) 1.162086(14) 0.902290(3) 0.0154 Uani
Cu1IA Cu 0.452785(13) 0.948204(19) 0.764376(3) 0.0154 Uani
O2I O 0.74953(9) 1.05424(9) 0.940226(18) 0.0235 Uani
O3A O 0.83726(10) 1.27550(13) 0.915886(19) 0.0255 Uani
O4J O 0.89675(13) 1.21094(10) 0.942120(18) 0.0243 Uani
N1CA N 0.73317(10) 1.19645(14) 0.95550(2) 0.0198 Uani
loop_
_atom_site_aniso_label
_atom_site_aniso_U_11
_atom_site_aniso_U_22
_atom_site_aniso_U_33
_atom_site_aniso_U_23
_atom_site_aniso_U_13
_atom_site_aniso_U_12
Cu1 0.01902(12) 0.02004(12) 0.01075(10) -0.00043(7) 0.00008(7) 0.01249(9)
O1 0.0245(7) 0.0373(8) 0.0151(5) -0.0069(5) -0.0037(5) 0.0199(6)
O2 0.0230(6) 0.0338(7) 0.0193(6) -0.0074(5) -0.0040(5) 0.0184(6)
O3 0.0240(7) 0.0372(8) 0.0204(6) -0.0094(5) -0.0046(5) 0.0192(6)
O4 0.0245(7) 0.0377(8) 0.0176(6) -0.0057(5) -0.0037(5) 0.0208(6)
N1 0.0261(8) 0.0168(7) 0.0139(6) 0.0010(5) -0.0005(5) 0.0088(6)
C1 0.0250(9) 0.0198(8) 0.0149(7) -0.0015(6) -0.0020(6) 0.0096(7)
C2 0.0311(10) 0.0199(8) 0.0165(7) 0.0001(6) -0.0004(7) 0.0058(8)
C3 0.0352(11) 0.0265(10) 0.0225(9) 0.0020(7) 0.0018(8) 0.0015(9)
C4 0.0392(12) 0.0323(11) 0.0177(8) 0.0023(7) 0.0040(8) 0.0075(9)
C5 0.0289(9) 0.0269(9) 0.0139(7) -0.0011(6) -0.0009(6) 0.0126(8)
C6 0.0313(10) 0.0320(10) 0.0181(8) -0.0016(7) 0.0011(7) 0.0164(9)
C7 0.0286(10) 0.0349(11) 0.0199(8) -0.0049(7) -0.0023(7) 0.0192(9)
C8 0.0251(9) 0.0326(10) 0.0163(7) -0.0057(7) -0.0031(6) 0.0156(8)
C9 0.0269(9) 0.0335(10) 0.0161(7) -0.0053(7) -0.0018(6) 0.0188(8)
C10 0.0221(8) 0.0277(9) 0.0156(7) -0.0026(6) -0.0010(6) 0.0151(7)
C11 0.0228(8) 0.0273(9) 0.0160(7) -0.0042(6) -0.0029(6) 0.0144(7)
C12 0.0220(8) 0.0283(9) 0.0153(7) -0.0032(6) -0.0019(6) 0.0139(7)
C13 0.0239(9) 0.0331(10) 0.0174(7) -0.0045(7) -0.0040(6) 0.0164(8)
C14 0.0222(8) 0.0231(8) 0.0165(7) -0.0016(6) -0.0018(6) 0.0138(7)
C15 0.0197(8) 0.0250(9) 0.0157(7) -0.0002(6) 0.0000(6) 0.0110(7)
Cu1I 0.02004 0.01902 0.01075 -8e-05 0.00043 0.01249
Cu1B 0.01408 0.01902 0.01075 -8e-05 -0.00051 0.00653
Cu1J 0.01408 0.02004 0.01075 -0.00043 -0.00051 0.00755
Cu1IA 0.01902 0.01408 0.01075 0.00051 8e-05 0.00653
O2I 0.0338 0.023 0.0193 0.004 0.0074 0.0184
O3A 0.0372 0.0228 0.0204 0.0048 0.0094 0.018
O4J 0.0206 0.0377 0.0176 -0.0057 -0.002 0.0169
N1CA 0.0261 0.0253 0.0139 -0.0015 -0.0005 0.0173
loop_
_geom_bond_atom_site_label_1
_geom_bond_atom_site_label_2
_geom_bond_site_symmetry_1
_geom_bond_site_symmetry_2
Cu1 O1 1_555 1_555
O1 C14 1_555 1_555
O2 C14 1_555 1_555
O3 C15 1_555 1_555
O4 C15 1_555 1_555
N1 C1 1_555 1_555
C1 H1 1_555 1_555
C2 N1 1_555 1_555
H2 C2 1_555 1_555
C3 C2 1_555 1_555
H3 C3 1_555 1_555
C4 C3 1_555 1_555
H4 C4 1_555 1_555
C5 C1 1_555 1_555
C6 C5 1_555 1_555
C7 C6 1_555 1_555
C8 C7 1_555 1_555
C9 C8 1_555 1_555
H5 C9 1_555 1_555
C10 C9 1_555 1_555
C11 C10 1_555 1_555
H6 C11 1_555 1_555
C12 C11 1_555 1_555
C13 C8 1_555 1_555
H7 C13 1_555 1_555
C14 C10 1_555 1_555
C15 C12 1_555 1_555
Cu1I O2 1_555 1_555
Cu1B O3 1_555 1_555
Cu1J O4 1_555 1_555
Cu1IA N1 1_555 1_555
O2I Cu1 1_555 1_555
O3A Cu1 1_555 1_555
O4J Cu1 1_555 1_555
N1CA Cu1 1_555 1_555
C4 C5 1_555 1_555
C12 C13 1_555 1_555

#END
