
#######################################################################
#
#                 Cambridge Crystallographic Data Centre
#                                CCDC 
#
#######################################################################
#
# If this CIF has been generated from an entry in the Cambridge 
# Structural Database, then it will include bibliographic, chemical, 
# crystal, experimental, refinement or atomic coordinate data resulting 
# from the CCDC's data processing and validation procedures.
#
#######################################################################

data_XOPVOO
_chemical_formula_moiety         '(C39 H24 N6 Ni3 O18)0.33n,3n(C3 H7 N1 O1)'
_chemical_name_systematic        
"catena-[(\m~3~-Dihydrogen 1,3,5-benzenetricarboxylato-O,O',O'')-(\m~3~-hydrogen 1,3,5-benzenetricarboxylato-O,O',O'')-(\m~3~-1,3,5-benzenetricarboxylato-O,O',O'',O''',O'''',O''''')-tris(\m~2~-pyrazine-N,N')-tri-nickel(ii) dimethylformamide solvate]"
_symmetry_cell_setting           hexagonal
_symmetry_space_group_name_H-M   'P 6/m m m'
_symmetry_Int_Tables_number      191
_space_group_name_Hall           '-P 6 2'
loop_
_symmetry_equiv_pos_site_id
_symmetry_equiv_pos_as_xyz
1 x,y,z
2 x-y,x,z
3 -y,x-y,z
4 -x+y,-x,z
5 y,-x+y,z
6 x,x-y,-z
7 y,x,-z
8 -x+y,y,-z
9 -x,-y,z
10 -y,-x,-z
11 x-y,-y,-z
12 -x,-x+y,-z
13 -x,-y,-z
14 -x+y,-x,-z
15 y,-x+y,-z
16 x-y,x,-z
17 -y,x-y,-z
18 -x,-x+y,z
19 -y,-x,z
20 x-y,-y,z
21 x,y,-z
22 y,x,z
23 -x+y,y,z
24 x,x-y,z
_cell_length_a                   9.6103(3)
_cell_length_b                   9.6103(3)
_cell_length_c                   6.9723(5)
_cell_angle_alpha                90
_cell_angle_beta                 90
_cell_angle_gamma                120
_cell_volume                     557.674
_exptl_crystal_colour            'dark green'
_exptl_crystal_description       platy
_cell_formula_units_Z            1
loop_
_atom_site_label
_atom_site_type_symbol
_atom_site_fract_x
_atom_site_fract_y
_atom_site_fract_z
Ni1 Ni 1.0000 0.0000 0.0000
N1 N 1.0000 0.0000 0.3005(14)
O1 O 0.7629(7) 0.0000(9) 0.0000
C1 C 0.7467(7) 0.2533(9) 0.0000
C2 C 0.5825(7) 0.1648(9) 0.0000
H1 H 0.5254 0.0507 0.0000
C3 C 0.8296(7) 0.1704(9) 0.0000
C4 C 1.0694(18) 0.139(4) 0.401(2)
N1E N 1.0000 0.0000 -0.3005(14)
N1E_2 N 1.0000 0.0000 0.6995(14)
N1_2 N 1.0000 0.0000 -0.6995(14)
O1D O 1.0000(9) 0.2371(11) 0.0000
O1A O 0.7629(11) -0.2371(7) 0.0000
O1B O 1.0000(9) -0.2371(11) 0.0000
O1C O 1.2371(11) 0.2371(7) 0.0000
O1G O 1.2371(11) 0.0000(9) 0.0000
C1C C 0.5066(11) 0.2533(7) 0.0000
C1A C 0.4934(11) -0.2533(7) 0.0000
C1B C 0.7467(9) 0.4934(11) 0.0000
C2B C 0.8352(9) 0.4177(11) 0.0000
C2C C 0.5823(11) 0.4175(7) 0.0000
H1B H 0.9493 0.4747 0.0000
H1C H 0.5253 0.4746 0.0000
C3A C 0.6592(11) -0.1704(7) 0.0000
C3C C 0.3408(11) 0.1704(7) 0.0000
C3D C 1.1704(9) 0.3408(11) 0.0000
C4A C 0.9304(44) 0.0694(18) 0.401(2)
C4B C 0.861(4) -0.0696(44) 0.401(2)
C4C C 1.0696(44) -0.0694(18) 0.401(2)
C4D C 1.139(4) 0.0696(44) 0.401(2)
C4S C 0.9304(44) -0.139(4) 0.401(2)
C4G C 1.0696(44) 0.139(4) 0.599(2)
C4E C 1.0694(18) -0.0696(44) -0.401(2)
C4J C 0.9304(44) -0.139(4) -0.401(2)
C4I C 0.861(4) -0.0694(18) -0.401(2)
C4G_2 C 1.0696(44) 0.139(4) -0.401(2)
C4F C 1.139(4) 0.0694(18) -0.401(2)
C4O C 0.9304(44) 0.0694(18) -0.401(2)
C4C_2 C 1.0696(44) -0.0694(18) -0.599(2)
C4K C 0.9306(18) 0.0696(44) 0.599(2)
C4I_2 C 0.861(4) -0.0694(18) 0.599(2)
C4E_2 C 1.0694(18) -0.0696(44) 0.599(2)
C4F_2 C 1.139(4) 0.0694(18) 0.599(2)
C4L C 0.9306(18) -0.139(4) 0.599(2)
C4H C 0.9306(18) -0.139(4) -0.599(2)
C4B_2 C 0.861(4) -0.0696(44) -0.599(2)
C4_2 C 1.0694(18) 0.139(4) -0.599(2)
C4D_2 C 1.139(4) 0.0696(44) -0.599(2)
C4Q C 0.9306(18) 0.0696(44) -0.599(2)
C5? C 0.6573(7) 0.1852(9) 0.0000
O2? O 0.8819(7) 0.1181(9) 0.0000
C6? C 0.7197(7) 0.0702(9) 0.0000
O3? O 0.7197(7) 0.0702(9) 0.0000
C7? C 1.118(3) 0.118(3) 0.401(2)
loop_
_geom_bond_atom_site_label_1
_geom_bond_atom_site_label_2
_geom_bond_site_symmetry_1
_geom_bond_site_symmetry_2
Ni1 N1 1_555 1_555
N1 C4 1_555 1_555
O1 Ni1 1_555 1_555
C1 C2 1_555 1_555
C2 H1 1_555 1_555
C3 O1 1_555 1_555
C4 C4A 1_555 1_555
N1E Ni1 1_555 1_555
N1E_2 C4G 1_555 1_555
N1_2 C4C_2 1_555 1_555
O1D Ni1 1_555 1_555
O1A Ni1 1_555 1_555
O1B Ni1 1_555 1_555
O1C Ni1 1_555 1_555
O1G Ni1 1_555 1_555
C1C C2 1_555 1_555
C1A C3A 1_555 1_555
C1B C2B 1_555 1_555
C2B C1 1_555 1_555
C2C C1C 1_555 1_555
H1B C2B 1_555 1_555
H1C C2C 1_555 1_555
C3A O1 1_555 1_555
C3C C1C 1_555 1_555
C3D O1D 1_555 1_555
C4A N1 1_555 1_555
C4B N1 1_555 1_555
C4C N1 1_555 1_555
C4D N1 1_555 1_555
C4S N1 1_555 1_555
C4G C4 1_555 1_555
C4E N1E 1_555 1_555
C4J N1E 1_555 1_555
C4I N1E 1_555 1_555
C4G_2 N1E 1_555 1_555
C4F N1E 1_555 1_555
C4O N1E 1_555 1_555
C4C_2 C4E 1_555 1_555
C4K N1E_2 1_555 1_555
C4I_2 N1E_2 1_555 1_555
C4E_2 N1E_2 1_555 1_555
C4F_2 N1E_2 1_555 1_555
C4L N1E_2 1_555 1_555
C4H N1_2 1_555 1_555
C4B_2 N1_2 1_555 1_555
C4_2 N1_2 1_555 1_555
C4D_2 N1_2 1_555 1_555
C4Q N1_2 1_555 1_555
C1 C3 1_555 1_555
C3 O1D 1_555 1_555
C4 C4D 1_555 1_555
O1A C3A 1_555 1_555
O1C C3D 1_555 1_555
C1B C2C 1_555 1_555
C4A C4B 1_555 1_555
C4A C4K 1_555 1_555
C4B C4S 1_555 1_555
C4B C4I_2 1_555 1_555
C4C C4D 1_555 1_555
C4C C4S 1_555 1_555
C4C C4E_2 1_555 1_555
C4D C4F_2 1_555 1_555
C4S C4L 1_555 1_555
C4G C4K 1_555 1_555
C4G C4F_2 1_555 1_555
C4E C4J 1_555 1_555
C4E C4F 1_555 1_555
C4J C4I 1_555 1_555
C4J C4H 1_555 1_555
C4I C4O 1_555 1_555
C4I C4B_2 1_555 1_555
C4G_2 C4F 1_555 1_555
C4G_2 C4O 1_555 1_555
C4G_2 C4_2 1_555 1_555
C4F C4D_2 1_555 1_555
C4O C4Q 1_555 1_555
C4C_2 C4H 1_555 1_555
C4C_2 C4D_2 1_555 1_555
C4K C4I_2 1_555 1_555
C4I_2 C4L 1_555 1_555
C4E_2 C4F_2 1_555 1_555
C4E_2 C4L 1_555 1_555
C4H C4B_2 1_555 1_555
C4B_2 C4Q 1_555 1_555
C4_2 C4D_2 1_555 1_555
C4_2 C4Q 1_555 1_555

#END
