
#######################################################################
#
#                 Cambridge Crystallographic Data Centre
#                                CCDC 
#
#######################################################################
#
# If this CIF has been generated from an entry in the Cambridge 
# Structural Database, then it will include bibliographic, chemical, 
# crystal, experimental, refinement or atomic coordinate data resulting 
# from the CCDC's data processing and validation procedures.
#
#######################################################################

data_XOPVII
_chemical_formula_moiety         '(C40 H26 N6 Ni2 O8)n,3n(C3 H7 N1 O1)'
_chemical_name_systematic        
"catena-[(\m~4~-1,2,4,5-Benzenetetracarboxylato)-tris(\m~2~-4,4'-bipyridine-N,N')-di-nickel(ii) dimethylformamide solvate]"
_symmetry_cell_setting           triclinic
_symmetry_space_group_name_H-M   'P -1'
_symmetry_Int_Tables_number      2
_space_group_name_Hall           '-P 1'
loop_
_symmetry_equiv_pos_site_id
_symmetry_equiv_pos_as_xyz
1 x,y,z
2 -x,-y,-z
_cell_length_a                   8.793(2)
_cell_length_b                   10.091(3)
_cell_length_c                   15.404(4)
_cell_angle_alpha                87.826(4)
_cell_angle_beta                 88.941(5)
_cell_angle_gamma                73.318(4)
_cell_volume                     1308.29
_exptl_crystal_colour            green
_exptl_crystal_description       block
_cell_formula_units_Z            1
loop_
_atom_site_label
_atom_site_type_symbol
_atom_site_fract_x
_atom_site_fract_y
_atom_site_fract_z
Ni1 Ni 0.94777(5) -0.07877(4) 0.64312(3)
O1 O 0.7871(3) -0.1901(2) 0.66471(15)
O2 O 0.7257(3) -0.3420(3) 0.58210(19)
O3 O 0.9351(3) -0.1135(2) 0.51367(14)
O4 O 0.8681(3) -0.0097(2) 0.38405(14)
N1 N 0.7637(3) 0.1125(3) 0.64504(18)
N2 N 0.1298(3) 0.7296(3) 0.65139(18)
N3 N 0.9732(3) -0.0539(3) 0.77574(18)
C1 C 0.6255(5) 0.1161(4) 0.6817(3)
H1 H 0.6127 0.0348 0.7070
C2 C 0.4998(5) 0.2343(4) 0.6844(3)
H2 H 0.4046 0.2308 0.7103
C3 C 0.5132(4) 0.3559(4) 0.6494(2)
C4 C 0.6563(5) 0.3540(4) 0.6136(3)
H3 H 0.6736 0.4354 0.5912
C5 C 0.7758(5) 0.2304(4) 0.6105(3)
H4 H 0.8703 0.2306 0.5824
C6 C 0.1185(6) 0.6195(4) 0.6087(3)
H5 H 0.0256 0.6256 0.5788
C7 C 0.2415(6) 0.4960(4) 0.6076(3)
H6 H 0.2301 0.4217 0.5771
C8 C 0.3792(4) 0.4845(4) 0.6515(2)
C9 C 0.3894(5) 0.5969(4) 0.6945(3)
H7 H 0.4813 0.5945 0.7242
C10 C 0.2608(5) 0.7155(4) 0.6934(3)
H8 H 0.2690 0.7899 0.7249
C11 C 0.9224(7) -0.1255(5) 0.8352(3)
H9 H 0.8772 -0.1927 0.8175
C12 C 0.9316(8) -0.1079(6) 0.9225(3)
H10 H 0.8932 -0.1633 0.9616
C13 C 0.9950(5) -0.0118(4) 0.9532(2)
C14 C 1.0495(7) 0.0639(5) 0.8911(3)
H11 H 1.0954 0.1316 0.9070
C15 C 1.0356(6) 0.0389(5) 0.8043(3)
H12 H 1.0735 0.0920 0.7634
C16 C 0.7195(4) -0.2235(4) 0.6005(2)
C17 C 0.6124(4) -0.1076(3) 0.5461(2)
C18 C 0.4498(4) -0.0758(3) 0.5634(2)
H13 H 0.4149 -0.1281 0.6061
C19 C 0.6614(4) -0.0290(3) 0.4797(2)
C20 C 0.8353(4) -0.0522(3) 0.4581(2)
Ni1A Ni 0.05223(5) 0.07877(4) 0.35688(3)
Ni1A_2 Ni 1.05223(5) 0.07877(4) 0.35688(3)
Ni1_2 Ni -0.05223(5) 0.92123(4) 0.64312(3)
Ni1_3 Ni -0.05223(5) -0.07877(4) 0.64312(3)
Ni1A_3 Ni 1.05223(5) 0.07877(4) 1.35688(3)
Ni1_4 Ni 1.94777(5) -1.07877(4) 0.64312(3)
O1A O 0.2129(3) 0.1901(2) 0.33529(15)
O2A O 0.2743(3) 0.3420(3) 0.41790(19)
O3A O 0.0649(3) 0.1135(2) 0.48633(14)
O4A O 0.1319(3) 0.0097(2) 0.61595(14)
O4A_2 O 1.1319(3) 0.0097(2) 0.61595(14)
O4_2 O -0.1319(3) -0.0097(2) 0.38405(14)
N1_2 N 1.7637(3) -0.8875(3) 0.64504(18)
N1A N 0.2363(3) -0.1125(3) 0.35496(18)
N2_2 N 1.1298(3) -0.2704(3) 0.65139(18)
N2A N -0.1298(3) 0.2704(3) 0.34861(18)
N3A N 1.0268(3) 0.0539(3) 1.22426(18)
N3A_2 N 0.0268(3) 0.0539(3) 0.22426(18)
C1_2 C 1.6255(5) -0.8839(4) 0.6817(3)
H1_2 H 1.6127 -0.9652 0.7070
C2_2 C 1.4998(5) -0.7657(4) 0.6844(3)
H2_2 H 1.4046 -0.7692 0.7103
C3_2 C 1.5132(4) -0.6441(4) 0.6494(2)
C4_2 C 1.6563(5) -0.6460(4) 0.6136(3)
H3_2 H 1.6736 -0.5646 0.5912
C5_2 C 1.7758(5) -0.7696(4) 0.6105(3)
H4_2 H 1.8703 -0.7694 0.5824
C6_2 C 1.1185(6) -0.3805(4) 0.6087(3)
H5_2 H 1.0256 -0.3744 0.5788
C7_2 C 1.2415(6) -0.5040(4) 0.6076(3)
H6_2 H 1.2301 -0.5783 0.5771
C8_2 C 1.3792(4) -0.5155(4) 0.6515(2)
C9_2 C 1.3894(5) -0.4031(4) 0.6945(3)
H7_2 H 1.4813 -0.4055 0.7242
C10_2 C 1.2608(5) -0.2845(4) 0.6934(3)
H8_2 H 1.2690 -0.2101 0.7249
C11A C 1.0776(7) 0.1255(5) 1.1648(3)
H9A H 1.1228 0.1927 1.1825
C12A C 1.0684(8) 0.1079(6) 1.0775(3)
H10A H 1.1068 0.1633 1.0384
C13A C 1.0050(5) 0.0118(4) 1.0468(2)
C14A C 0.9505(7) -0.0639(5) 1.1089(3)
H11A H 0.9046 -0.1316 1.0930
C15A C 0.9644(6) -0.0389(5) 1.1957(3)
H12A H 0.9265 -0.0920 1.2366
C16A C 0.2805(4) 0.2235(4) 0.3995(2)
C17A C 0.3876(4) 0.1076(3) 0.4539(2)
C18A C 0.5502(4) 0.0758(3) 0.4366(2)
H13A H 0.5851 0.1281 0.3939
C19A C 0.3386(4) 0.0290(3) 0.5203(2)
C20A C 0.1647(4) 0.0522(3) 0.5419(2)
loop_
_geom_bond_atom_site_label_1
_geom_bond_atom_site_label_2
_geom_bond_site_symmetry_1
_geom_bond_site_symmetry_2
Ni1 O1 1_555 1_555
O1 C16 1_555 1_555
O2 C16 1_555 1_555
O3 Ni1 1_555 1_555
O4 C20 1_555 1_555
N1 Ni1 1_555 1_555
N2 C6 1_555 1_555
N3 Ni1 1_555 1_555
C1 N1 1_555 1_555
H1 C1 1_555 1_555
C2 C1 1_555 1_555
H2 C2 1_555 1_555
C3 C2 1_555 1_555
C4 C3 1_555 1_555
H3 C4 1_555 1_555
C5 N1 1_555 1_555
H4 C5 1_555 1_555
C6 H5 1_555 1_555
C7 C6 1_555 1_555
H6 C7 1_555 1_555
C8 C3 1_555 1_555
C9 C8 1_555 1_555
H7 C9 1_555 1_555
C10 N2 1_555 1_555
H8 C10 1_555 1_555
C11 N3 1_555 1_555
H9 C11 1_555 1_555
C12 C11 1_555 1_555
H10 C12 1_555 1_555
C13 C12 1_555 1_555
C14 C13 1_555 1_555
H11 C14 1_555 1_555
C15 N3 1_555 1_555
H12 C15 1_555 1_555
C16 C17 1_555 1_555
C17 C18 1_555 1_555
C18 H13 1_555 1_555
C19 C17 1_555 1_555
C20 O3 1_555 1_555
Ni1A O1A 1_555 1_555
Ni1A_2 O4 1_555 1_555
Ni1_2 N2 1_555 1_555
Ni1_3 O4A 1_555 1_555
Ni1A_3 N3A 1_555 1_555
Ni1_4 N1_2 1_555 1_555
O1A C16A 1_555 1_555
O2A C16A 1_555 1_555
O3A Ni1A 1_555 1_555
O4A C20A 1_555 1_555
O4A_2 Ni1 1_555 1_555
O4_2 Ni1A 1_555 1_555
N1_2 C1_2 1_555 1_555
N1A Ni1A 1_555 1_555
N2_2 Ni1 1_555 1_555
N2A Ni1A 1_555 1_555
N3A C11A 1_555 1_555
N3A_2 Ni1A 1_555 1_555
C1_2 H1_2 1_555 1_555
C2_2 C1_2 1_555 1_555
H2_2 C2_2 1_555 1_555
C3_2 C2_2 1_555 1_555
C4_2 C3_2 1_555 1_555
H3_2 C4_2 1_555 1_555
C5_2 N1_2 1_555 1_555
H4_2 C5_2 1_555 1_555
C6_2 N2_2 1_555 1_555
H5_2 C6_2 1_555 1_555
C7_2 C6_2 1_555 1_555
H6_2 C7_2 1_555 1_555
C8_2 C3_2 1_555 1_555
C9_2 C8_2 1_555 1_555
H7_2 C9_2 1_555 1_555
C10_2 N2_2 1_555 1_555
H8_2 C10_2 1_555 1_555
C11A H9A 1_555 1_555
C12A C11A 1_555 1_555
H10A C12A 1_555 1_555
C13A C13 1_555 1_555
C14A C13A 1_555 1_555
H11A C14A 1_555 1_555
C15A N3A 1_555 1_555
H12A C15A 1_555 1_555
C16A C17A 1_555 1_555
C17A C18A 1_555 1_555
C18A C19 1_555 1_555
H13A C18A 1_555 1_555
C19A C18 1_555 1_555
C20A O3A 1_555 1_555
C4 C5 1_555 1_555
C7 C8 1_555 1_555
C9 C10 1_555 1_555
C14 C15 1_555 1_555
C19 C20 1_555 1_555
C4_2 C5_2 1_555 1_555
C7_2 C8_2 1_555 1_555
C9_2 C10_2 1_555 1_555
C12A C13A 1_555 1_555
C14A C15A 1_555 1_555
C17A C19A 1_555 1_555
C19A C20A 1_555 1_555

#END
