
#######################################################################
#
#                 Cambridge Crystallographic Data Centre
#                                CCDC 
#
#######################################################################
#
# If this CIF has been generated from an entry in the Cambridge 
# Structural Database, then it will include bibliographic, chemical, 
# crystal, experimental, refinement or atomic coordinate data resulting 
# from the CCDC's data processing and validation procedures.
#
#######################################################################

data_KISXIU
_chemical_name_common            UMCM-1
_chemical_formula_moiety         '(C132 H72 O39 Zn12)n'
_chemical_name_systematic        
'catena-(tetrakis(\m~6~-1,3,5-tris(4-Carboxyphenyl)benzene)-tris(\m~4~-terephthalato)-tris(\m~4~-oxo)-dodeca-zinc unknown solvate)'
_symmetry_cell_setting           hexagonal
_symmetry_space_group_name_H-M   'P 63/m'
_symmetry_Int_Tables_number      176
_space_group_name_Hall           '-P 6c'
loop_
_symmetry_equiv_pos_site_id
_symmetry_equiv_pos_as_xyz
1 x,y,z
2 x-y,x,1/2+z
3 -y,x-y,z
4 -x+y,-x,z
5 y,-x+y,1/2+z
6 -x,-y,1/2+z
7 -x,-y,-z
8 -x+y,-x,1/2-z
9 y,-x+y,-z
10 x-y,x,-z
11 -y,x-y,1/2-z
12 x,y,1/2-z
_cell_length_a                   41.5262(8)
_cell_length_b                   41.5262(8)
_cell_length_c                   17.4916(5)
_cell_angle_alpha                90
_cell_angle_beta                 90
_cell_angle_gamma                120
_cell_volume                     26121.9
_exptl_crystal_colour            colorless
_exptl_crystal_description       needle
_cell_formula_units_Z            2
loop_
_atom_site_label
_atom_site_type_symbol
_atom_site_fract_x
_atom_site_fract_y
_atom_site_fract_z
_atom_site_U_iso_or_equiv
_atom_site_thermal_displace_type
Zn1 Zn 0.408872(17) 0.478573(17) 0.7500 0.0388 Uani
Zn2 Zn 0.371697(12) 0.401780(12) 0.65940(3) 0.0377 Uani
Zn3 Zn 0.321403(17) 0.426884(18) 0.7500 0.0384 Uani
O1 O 0.36837(8) 0.42712(8) 0.7500 0.0338 Uani
O2 O 0.44036(7) 0.48834(8) 0.66172(17) 0.0672 Uani
O3 O 0.29409(7) 0.40576(8) 0.65650(16) 0.0615 Uani
O4 O 0.32984(7) 0.38893(8) 0.59358(15) 0.0630 Uani
O5 O 0.37194(8) 0.35689(7) 0.68635(16) 0.0642 Uani
O6 O 0.41627(7) 0.43381(8) 0.60158(16) 0.0646 Uani
O7 O 0.33005(11) 0.47651(11) 0.7500 0.0937 Uani
O8 O 0.39180(11) 0.51371(10) 0.7500 0.0701 Uani
C1 C 0.44022(11) 0.46764(13) 0.6095(3) 0.0550 Uani
C2 C 0.47125(11) 0.48438(12) 0.5524(3) 0.0592 Uani
C3 C 0.47281(13) 0.46394(12) 0.4927(3) 0.0892 Uani
H1 H 0.4542 0.4387 0.4876 0.1080 Uiso
C4 C 0.49836(14) 0.52102(13) 0.5589(3) 0.0897 Uani
H2 H 0.4977 0.5354 0.5989 0.1110 Uiso
C5 C 0.30300(11) 0.39458(12) 0.5982(3) 0.0531 Uani
C6 C 0.28037(11) 0.38864(13) 0.5282(3) 0.0611 Uani
C7 C 0.25427(13) 0.39989(16) 0.5230(3) 0.0954 Uani
H3 H 0.2498 0.4107 0.5651 0.1140 Uiso
C8 C 0.23496(14) 0.39527(18) 0.4567(3) 0.1061 Uani
H4 H 0.2172 0.4027 0.4555 0.1270 Uiso
C9 C 0.24069(12) 0.38026(15) 0.3922(3) 0.0796 Uani
C10 C 0.26575(14) 0.36747(18) 0.3984(3) 0.1069 Uani
H5 H 0.2696 0.3558 0.3570 0.1280 Uiso
C11 C 0.28522(13) 0.37195(16) 0.4663(3) 0.0947 Uani
H6 H 0.3019 0.3633 0.4690 0.1140 Uiso
C12 C 0.22157(12) 0.37804(16) 0.3191(3) 0.0844 Uani
C13 C 0.23818(18) 0.3794(2) 0.2500 0.0842 Uani
H7 H 0.2615 0.3813 0.2500 0.1010 Uiso
C14 C 0.18659(12) 0.37495(15) 0.3183(2) 0.0862 Uani
H8 H 0.1748 0.3735 0.3644 0.1030 Uiso
C15 C 0.16897(17) 0.3739(2) 0.2500 0.0812 Uani
C16 C 0.13259(18) 0.3726(2) 0.2500 0.0768 Uani
C17 C 0.1091(4) 0.3590(4) 0.1870(9) 0.0934 Uani
H9 H 0.1162 0.3510 0.1437 0.1120 Uiso
C18 C 0.0757(4) 0.3576(4) 0.1896(8) 0.0768 Uani
H10 H 0.0595 0.3468 0.1487 0.0920 Uiso
C19 C 0.06457(16) 0.37122(19) 0.2500 0.0616 Uani
C20 C 0.0871(3) 0.3846(4) 0.1863(8) 0.0779 Uani
H11 H 0.0800 0.3925 0.1429 0.0940 Uiso
C21 C 0.1209(4) 0.3855(5) 0.3092(9) 0.0961 Uani
H12 H 0.1370 0.3960 0.3504 0.1160 Uiso
C22 C 0.37170(16) 0.34263(16) 0.7500 0.0528 Uani
C23 C 0.35873(19) 0.50747(18) 0.7500 0.0626 Uani
C24 C 0.35421(16) 0.54155(16) 0.7500 0.0698 Uani
C25 C 0.3216(2) 0.5386(2) 0.7822(7) 0.1016 Uani
H13 H 0.3033 0.5162 0.8026 0.1230 Uiso
C26 C 0.3170(2) 0.5690(2) 0.7830(7) 0.1080 Uani
H14 H 0.2959 0.5674 0.8053 0.1310 Uiso
C27 C 0.34434(17) 0.60319(16) 0.7500 0.0910 Uani
C28 C 0.3766(2) 0.6057(2) 0.7242(13) 0.1069 Uani
H15 H 0.3956 0.6284 0.7066 0.1290 Uiso
C29 C 0.3813(2) 0.57519(19) 0.7238(8) 0.0836 Uani
H16 H 0.4034 0.5776 0.7054 0.1000 Uiso
C30 C 0.33839(16) 0.63596(16) 0.7500 0.1052 Uani
C31 C 0.30294(16) 0.63107(17) 0.7500 0.1084 Uani
H17 H 0.2827 0.6071 0.7500 0.1330 Uiso
O2K O 0.44036(7) 0.48834(8) 0.83828(17) 0.0672 Uani
O3K O 0.29409(7) 0.40576(8) 0.84350(16) 0.0615 Uani
Zn2K Zn 0.371697(12) 0.401780(12) 0.84060(3) 0.0377 Uani
C4F C 0.50164(14) 0.47898(13) 0.4411(3) 0.0897 Uani
C3F C 0.52719(13) 0.53606(12) 0.5073(3) 0.0892 Uani
C12K C 0.22157(12) 0.37804(16) 0.1809(3) 0.0844 Uani
C14K C 0.18659(12) 0.37495(15) 0.1817(2) 0.0862 Uani
C17K C 0.1091(4) 0.3590(4) 0.3130(9) 0.0934 Uani
C21K C 0.1209(4) 0.3855(5) 0.1908(9) 0.0961 Uani
C20K C 0.0871(3) 0.3846(4) 0.3137(8) 0.0779 Uani
C22A C 0.02907(23) 0.37170(16) 0.2500 0.0528 Uani
C18K C 0.0757(4) 0.3576(4) 0.3104(8) 0.0768 Uani
O5K O 0.37194(8) 0.35689(7) 0.81365(16) 0.0642 Uani
C19D C 0.37122(19) 0.30665(25) 0.7500 0.0616 Uani
C25K C 0.3216(2) 0.5386(2) 0.7178(7) 0.1016 Uani
C29K C 0.3813(2) 0.57519(19) 0.7762(8) 0.0836 Uani
C26K C 0.3170(2) 0.5690(2) 0.7170(7) 0.1080 Uani
C28K C 0.3766(2) 0.6057(2) 0.7758(13) 0.1069 Uani
C31B C 0.36893(17) 0.67187(23) 0.7500 0.1084 Uani
C30C C 0.29757(23) 0.66161(16) 0.7500 0.1052 Uani
loop_
_atom_site_aniso_label
_atom_site_aniso_U_11
_atom_site_aniso_U_22
_atom_site_aniso_U_33
_atom_site_aniso_U_23
_atom_site_aniso_U_13
_atom_site_aniso_U_12
Zn1 0.0348(4) 0.0429(4) 0.0428(5) 0.000 0.000 0.0226(3)
Zn2 0.0395(3) 0.0437(3) 0.0359(3) 0.0031(2) 0.0012(2) 0.0253(2)
Zn3 0.0359(4) 0.0429(4) 0.0408(5) 0.000 0.000 0.0229(3)
O1 0.0352(18) 0.0369(18) 0.035(2) 0.000 0.000 0.0223(15)
O2 0.0599(18) 0.0661(19) 0.064(2) 0.0005(17) 0.0263(16) 0.0229(16)
O3 0.0556(17) 0.098(2) 0.037(2) -0.0088(17) -0.0110(15) 0.0429(17)
O4 0.0590(18) 0.099(2) 0.048(2) -0.0094(16) -0.0137(15) 0.0523(17)
O5 0.113 0.0602 0.045 0.0017 0.0014 0.0624
O6 0.0549(18) 0.0647(19) 0.063(2) 0.0061(17) 0.0232(16) 0.0214(16)
O7 0.055(3) 0.032(2) 0.193(6) 0.000 0.000 0.021(2)
O8 0.057(3) 0.050(2) 0.117(4) 0.000 0.000 0.037(2)
C1 0.048(3) 0.065(3) 0.053(3) 0.021(3) 0.014(2) 0.029(2)
C2 0.056(3) 0.064(3) 0.051(3) 0.010(2) 0.018(2) 0.025(2)
C3 0.077(3) 0.060(3) 0.097(5) -0.013(3) 0.040(3) 0.009(3)
C4 0.082(3) 0.062(3) 0.093(4) -0.011(3) 0.046(3) 0.012(3)
C5 0.046(2) 0.072(3) 0.038(3) -0.002(2) -0.011(2) 0.027(2)
C6 0.052(3) 0.109(4) 0.034(3) -0.007(3) -0.004(2) 0.049(3)
C7 0.092(4) 0.196(6) 0.045(4) -0.014(4) -0.012(3) 0.107(4)
C8 0.102(4) 0.232(7) 0.045(4) -0.013(4) -0.011(3) 0.129(5)
C9 0.058(3) 0.168(5) 0.036(3) -0.008(3) -0.005(2) 0.074(3)
C10 0.099(4) 0.221(7) 0.050(4) -0.036(4) -0.023(3) 0.117(5)
C11 0.083(4) 0.184(6) 0.056(4) -0.019(4) -0.030(3) 0.096(4)
C12 0.066(3) 0.185(6) 0.028(3) -0.001(3) -0.005(2) 0.082(4)
C13 0.066(4) 0.178(8) 0.034(5) 0.000 0.000 0.080(5)
C14 0.063(3) 0.193(6) 0.028(3) 0.000(3) 0.002(2) 0.083(4)
C15 0.056(4) 0.183(8) 0.033(4) 0.000 0.000 0.081(5)
C16 0.073(5) 0.165(7) 0.021(4) 0.000 0.000 0.081(5)
C17 0.080(10) 0.212(18) 0.043(7) -0.066(11) -0.033(7) 0.114(12)
C18 0.082(9) 0.145(12) 0.033(7) -0.019(9) -0.013(6) 0.079(11)
C19 0.044(4) 0.105(5) 0.042(4) 0.000 0.000 0.042(4)
C20 0.066 0.157 0.043 0.019 0.005 0.08
C21 0.086(10) 0.207(18) 0.019(7) 0.002(10) -0.019(7) 0.091(13)
C22 0.064 0.057 0.049 0 0 0.039
C23 0.074(5) 0.060(4) 0.077(5) 0.000 0.000 0.051(4)
C24 0.052(4) 0.045(4) 0.120(6) 0.000 0.000 0.030(3)
C25 0.060(5) 0.050(5) 0.21(2) 0.017(7) 0.037(7) 0.039(4)
C26 0.060(5) 0.053(5) 0.22(2) 0.023(7) 0.045(8) 0.035(4)
C27 0.043(4) 0.034(3) 0.197(9) 0.000 0.000 0.020(3)
C28 0.048(4) 0.048(4) 0.23(4) 0.019(8) 0.014(8) 0.028(4)
C29 0.051(4) 0.040(4) 0.16(2) 0.015(6) 0.020(6) 0.023(4)
C30 0.034(3) 0.035(3) 0.245(10) 0.000 0.000 0.016(3)
C31 0.039(4) 0.045(4) 0.244(10) 0.000 0.000 0.023(3)
O2K 0.0599 0.0661 0.064 -0.0005 -0.0263 0.0229
O3K 0.0556 0.098 0.037 0.0088 0.011 0.0429
Zn2K 0.0395 0.0437 0.0359 -0.0031 -0.0012 0.0253
C4F 0.082 0.062 0.093 -0.011 0.046 0.012
C3F 0.077 0.06 0.097 -0.013 0.04 0.009
C12K 0.066 0.185 0.028 0.001 0.005 0.082
C14K 0.063 0.193 0.028 0 -0.002 0.083
C17K 0.08 0.212 0.043 0.066 0.033 0.114
C21K 0.086 0.207 0.019 -0.002 0.019 0.091
C20K 0.066(8) 0.157(13) 0.043(7) -0.019(10) -0.005(6) 0.080(10)
C22A 0.043 0.064 0.049 0 0 0.025
C18K 0.082 0.145 0.033 0.019 0.013 0.079
O5K 0.113 0.0602 0.045 -0.0017 -0.0014 0.0624
C19D 0.105 0.065 0.042 0 0 0.063
C25K 0.06 0.05 0.21 -0.017 -0.037 0.039
C29K 0.051 0.04 0.16 -0.015 -0.02 0.023
C26K 0.06 0.053 0.22 -0.023 -0.045 0.035
C28K 0.048 0.048 0.23 -0.019 -0.014 0.028
C31B 0.045 0.038 0.244 0 0 0.022
C30C 0.037 0.034 0.245 0 0 0.018
loop_
_geom_bond_atom_site_label_1
_geom_bond_atom_site_label_2
_geom_bond_site_symmetry_1
_geom_bond_site_symmetry_2
Zn1 O1 1_555 1_555
Zn2 O1 1_555 1_555
Zn3 O1 1_555 1_555
O1 Zn2K 1_555 1_555
O2 Zn1 1_555 1_555
O3 Zn3 1_555 1_555
O4 Zn2 1_555 1_555
O5 Zn2 1_555 1_555
O6 Zn2 1_555 1_555
O7 Zn3 1_555 1_555
O8 Zn1 1_555 1_555
C1 O2 1_555 1_555
C2 C1 1_555 1_555
C3 C2 1_555 1_555
H1 C3 1_555 1_555
C4 C2 1_555 1_555
H2 C4 1_555 1_555
C5 O3 1_555 1_555
C6 C5 1_555 1_555
C7 C6 1_555 1_555
H3 C7 1_555 1_555
C8 C7 1_555 1_555
H4 C8 1_555 1_555
C9 C8 1_555 1_555
C10 C9 1_555 1_555
H5 C10 1_555 1_555
C11 C6 1_555 1_555
H6 C11 1_555 1_555
C12 C9 1_555 1_555
C13 C12 1_555 1_555
H7 C13 1_555 1_555
C14 C12 1_555 1_555
H8 C14 1_555 1_555
C15 C14 1_555 1_555
C16 C15 1_555 1_555
C17 C16 1_555 1_555
H9 C17 1_555 1_555
C18 C17 1_555 1_555
H10 C18 1_555 1_555
C19 C18 1_555 1_555
C20 C17 1_555 1_555
H11 C20 1_555 1_555
C21 C16 1_555 1_555
H12 C21 1_555 1_555
C22 O5 1_555 1_555
C23 O7 1_555 1_555
C24 C23 1_555 1_555
C25 C24 1_555 1_555
H13 C25 1_555 1_555
C26 C25 1_555 1_555
H14 C26 1_555 1_555
C27 C26 1_555 1_555
C28 C27 1_555 1_555
H15 C28 1_555 1_555
C29 C24 1_555 1_555
H16 C29 1_555 1_555
C30 C27 1_555 1_555
C31 C30 1_555 1_555
H17 C31 1_555 1_555
O2K Zn1 1_555 1_555
O3K Zn3 1_555 1_555
Zn2K O5K 1_555 1_555
C4F C3 1_555 1_555
C3F C4 1_555 1_555
C12K C13 1_555 1_555
C14K C15 1_555 1_555
C17K C16 1_555 1_555
C21K C16 1_555 1_555
C20K C19 1_555 1_555
C22A C19 1_555 1_555
C18K C19 1_555 1_555
O5K C22 1_555 1_555
C19D C22 1_555 1_555
C25K C24 1_555 1_555
C29K C24 1_555 1_555
C26K C26 1_555 1_555
C28K C27 1_555 1_555
C31B C30 1_555 1_555
C30C C31 1_555 1_555
O4 C5 1_555 1_555
O6 C1 1_555 1_555
O8 C23 1_555 1_555
C10 C11 1_555 1_555
C17 C21K 1_555 1_555
C18 C20 1_555 1_555
C18 C21K 1_555 1_555
C19 C20 1_555 1_555
C20 C21K 1_555 1_555
C21 C17K 1_555 1_555
C21 C18K 1_555 1_555
C21 C20K 1_555 1_555
C25 C25K 1_555 1_555
C27 C26K 1_555 1_555
C28 C28K 1_555 1_555
C28 C29 1_555 1_555
C28 C29K 1_555 1_555
C29 C29K 1_555 1_555
C29 C28K 1_555 1_555
C12K C14K 1_555 1_555
C17K C18K 1_555 1_555
C17K C20K 1_555 1_555
C20K C18K 1_555 1_555
C25K C26K 1_555 1_555
C29K C28K 1_555 1_555

#END
