
#######################################################################
#
#                 Cambridge Crystallographic Data Centre
#                                CCDC 
#
#######################################################################
#
# If this CIF has been generated from an entry in the Cambridge 
# Structural Database, then it will include bibliographic, chemical, 
# crystal, experimental, refinement or atomic coordinate data resulting 
# from the CCDC's data processing and validation procedures.
#
#######################################################################

data_POWPAU
_chemical_name_common            MOF-205-NH2
_chemical_formula_moiety         '(C144 H81 N3 O39 Zn12)n'
_chemical_name_systematic        
'catena-[tetrakis(\m-benzene-1,3,5-tris(4-benzoato))-tris(\m-4-aminophthalene-2,6-dicarboxylato)-tris(\m-oxo)-dodeca-zinc unknown solvate]'
_symmetry_cell_setting           cubic
_symmetry_space_group_name_H-M   'P m -3 n'
_symmetry_Int_Tables_number      223
_space_group_name_Hall           '-P 4n 2 3'
loop_
_symmetry_equiv_pos_site_id
_symmetry_equiv_pos_as_xyz
1 x,y,z
2 -x,-y,z
3 -x,y,-z
4 x,-y,-z
5 z,x,y
6 z,-x,-y
7 -z,-x,y
8 -z,x,-y
9 y,z,x
10 -y,z,-x
11 y,-z,-x
12 -y,-z,x
13 1/2+y,1/2+x,1/2-z
14 1/2-y,1/2-x,1/2-z
15 1/2+y,1/2-x,1/2+z
16 1/2-y,1/2+x,1/2+z
17 1/2+x,1/2+z,1/2-y
18 1/2-x,1/2+z,1/2+y
19 1/2-x,1/2-z,1/2-y
20 1/2+x,1/2-z,1/2+y
21 1/2+z,1/2+y,1/2-x
22 1/2+z,1/2-y,1/2+x
23 1/2-z,1/2+y,1/2+x
24 1/2-z,1/2-y,1/2-x
25 -x,-y,-z
26 x,y,-z
27 x,-y,z
28 -x,y,z
29 -z,-x,-y
30 -z,x,y
31 z,x,-y
32 z,-x,y
33 -y,-z,-x
34 y,-z,x
35 -y,z,x
36 y,z,-x
37 1/2-y,1/2-x,1/2+z
38 1/2+y,1/2+x,1/2+z
39 1/2-y,1/2+x,1/2-z
40 1/2+y,1/2-x,1/2-z
41 1/2-x,1/2-z,1/2+y
42 1/2+x,1/2-z,1/2-y
43 1/2+x,1/2+z,1/2+y
44 1/2-x,1/2+z,1/2-y
45 1/2-z,1/2-y,1/2+x
46 1/2-z,1/2+y,1/2-x
47 1/2+z,1/2-y,1/2-x
48 1/2+z,1/2+y,1/2+x
_cell_length_a                   30.310(4)
_cell_length_b                   30.310(4)
_cell_length_c                   30.310(4)
_cell_angle_alpha                90
_cell_angle_beta                 90
_cell_angle_gamma                90
_cell_volume                     27845.7
_exptl_crystal_colour            'light brown'
_exptl_crystal_description       'truncated cube'
_cell_formula_units_Z            2
_chemical_properties_physical    Moisture-sensitive
_exptl_crystal_recrystallization_method 'solvothermal reaction'
_exptl_crystal_preparation       'gas adsorption'
loop_
_atom_site_label
_atom_site_type_symbol
_atom_site_fract_x
_atom_site_fract_y
_atom_site_fract_z
Zn1 Zn 0.5000 0.051912(10) 0.787468(7)
O1 O 0.44885(5) 0.08768(6) 0.77581(5)
O2 O 0.5000 0.03639(9) 0.84962(5)
O3 O 0.5000 0.0000 0.7500
C1 C 0.41715(6) 0.08285(6) 0.7500
C2 C 0.38268(7) 0.11732(7) 0.7500
C3 C 0.39055(19) 0.15965(18) 0.7661(3)
H1 H 0.4186 0.1662 0.7776
C4 C 0.3588(2) 0.1922(2) 0.7658(3)
H2 H 0.3654 0.2207 0.7763
C5 C 0.31744(8) 0.18256(8) 0.7500
C6 C 0.28297(8) 0.21703(8) 0.7500
C7 C 0.2500 0.21780(8) 0.71780(8)
H3 H 0.2500 0.1959 0.6959
C8 C 0.5000 0.0000 0.86848(10)
C9 C 0.5000 0.01258(13) 0.91776(13)
C10 C 0.5000 0.0545(2) 0.93717(15)
H4 H 0.5000 0.0800 0.9194
C11 C 0.5000 0.0582(2) 0.98270(15)
H5 H 0.5000 0.0864 0.9956
C12 C 0.5000 0.02067(14) 1.01001(10)
C13 C 0.5000 -0.0238(2) 0.94303(13)
H6 H 0.5000 -0.0518 0.9296
O1G O 0.22419(5) 0.44885(5) 0.91232(6)
C1G C 0.2500 0.41715(6) 0.91715(6)
C2G C 0.2500 0.38268(7) 0.88268(7)
C3G C 0.2339(3) 0.39055(19) 0.84035(18)
H1G H 0.2224 0.4186 0.8338
C4G C 0.2342(3) 0.3588(2) 0.8078(2)
H2G H 0.2237 0.3654 0.7793
C5G C 0.2500 0.31744(8) 0.81744(8)
C6G C 0.2500 0.28297(8) 0.78297(8)
C7G C 0.28220(8) 0.2500 0.78220(8)
H3G H 0.3041 0.2500 0.8041
O1J O 0.08768(6) 0.22419(5) 0.55115(5)
C1J C 0.08285(6) 0.2500 0.58285(6)
C2J C 0.11732(7) 0.2500 0.61732(7)
C3J C 0.15965(18) 0.2339(3) 0.60945(19)
H1J H 0.1662 0.2224 0.5814
C4J C 0.1922(2) 0.2342(3) 0.6412(2)
H2J H 0.2207 0.2237 0.6346
C5J C 0.18256(8) 0.2500 0.68256(8)
C6J C 0.21703(8) 0.2500 0.71703(8)
C7J C 0.21780(8) 0.28220(8) 0.7500
H3J H 0.1959 0.3041 0.7500
O1M O 0.41232(6) 0.05115(5) 0.72419(5)
C3M C 0.34035(18) 0.10945(19) 0.7339(3)
H1M H 0.3338 0.0814 0.7224
C4M C 0.3078(2) 0.1412(2) 0.7342(3)
H2M H 0.2793 0.1346 0.7237
O1Q O 0.05115(5) 0.27581(5) 0.58768(6)
C3Q C 0.10945(19) 0.2661(3) 0.65965(18)
H1Q H 0.0814 0.2776 0.6662
C4Q C 0.1412(2) 0.2658(3) 0.6922(2)
H2Q H 0.1346 0.2763 0.7207
O1U O 0.27581(5) 0.41232(6) 0.94885(5)
C3U C 0.2661(3) 0.34035(18) 0.89055(19)
H1U H 0.2776 0.3338 0.9186
C4U C 0.2658(3) 0.3078(2) 0.8588(2)
H2U H 0.2763 0.2793 0.8654
O2A O 0.5000 -0.03639(9) 0.84962(5)
C9A C 0.5000 -0.01258(13) 0.91776(13)
C10A C 0.5000 -0.0545(2) 0.93717(15)
H4A H 0.5000 -0.0800 0.9194
C11A C 0.5000 -0.0582(2) 0.98270(15)
H5A H 0.5000 -0.0864 0.9956
C12A C 0.5000 -0.02067(14) 1.01001(10)
C13A C 0.5000 0.0238(2) 0.94303(13)
H6A H 0.5000 0.0518 0.9296
O2B O 0.5000 0.03639(9) 1.15038(5)
C8B C 0.5000 0.0000 1.13152(10)
C9B C 0.5000 0.01258(13) 1.08224(13)
C10B C 0.5000 0.0545(2) 1.06283(15)
H4B H 0.5000 0.0800 1.0806
C11B C 0.5000 0.0582(2) 1.01730(15)
H5B H 0.5000 0.0864 1.0044
C12B C 0.5000 0.02067(14) 0.98999(10)
C13B C 0.5000 -0.0238(2) 1.05697(13)
H6B H 0.5000 -0.0518 1.0704
O2C O 0.5000 -0.03639(9) 1.15038(5)
C9C C 0.5000 -0.01258(13) 1.08224(13)
C10C C 0.5000 -0.0545(2) 1.06283(15)
H4C H 0.5000 -0.0800 1.0806
C11C C 0.5000 -0.0582(2) 1.01730(15)
H5C H 0.5000 -0.0864 1.0044
C12C C 0.5000 -0.02067(14) 0.98999(10)
C13C C 0.5000 0.0238(2) 1.05697(13)
H6C H 0.5000 0.0518 1.0704
Zn1A Zn 0.5000 -0.051912(10) 0.787468(7)
O1A O 0.55115(5) -0.08768(6) 0.77581(5)
C1A C 0.58285(6) -0.08285(6) 0.7500
C2A C 0.61732(7) -0.11732(7) 0.7500
C3A C 0.60945(19) -0.15965(18) 0.7661(3)
H1A H 0.5814 -0.1662 0.7776
C4A C 0.6412(2) -0.1922(2) 0.7658(3)
H2A H 0.6346 -0.2207 0.7763
C5A C 0.68256(8) -0.18256(8) 0.7500
C6A C 0.71703(8) -0.21703(8) 0.7500
C7A C 0.7500 -0.21780(8) 0.71780(8)
H3A H 0.7500 -0.1959 0.6959
O1E O 0.77581(5) -0.44885(5) 0.91232(6)
C1E C 0.7500 -0.41715(6) 0.91715(6)
C2E C 0.7500 -0.38268(7) 0.88268(7)
C3E C 0.7661(3) -0.39055(19) 0.84035(18)
H1E H 0.7776 -0.4186 0.8338
C4E C 0.7658(3) -0.3588(2) 0.8078(2)
H2E H 0.7763 -0.3654 0.7793
C5E C 0.7500 -0.31744(8) 0.81744(8)
C6E C 0.7500 -0.28297(8) 0.78297(8)
C7E C 0.71780(8) -0.2500 0.78220(8)
H3E H 0.6959 -0.2500 0.8041
O1I O 0.91232(6) -0.22419(5) 0.55115(5)
C1I C 0.91715(6) -0.2500 0.58285(6)
C2I C 0.88268(7) -0.2500 0.61732(7)
C3I C 0.84035(18) -0.2339(3) 0.60945(19)
H1I H 0.8338 -0.2224 0.5814
C4I C 0.8078(2) -0.2342(3) 0.6412(2)
H2I H 0.7793 -0.2237 0.6346
C5I C 0.81744(8) -0.2500 0.68256(8)
C6I C 0.78297(8) -0.2500 0.71703(8)
C7I C 0.78220(8) -0.28220(8) 0.7500
H3I H 0.8041 -0.3041 0.7500
O1L O 0.58768(6) -0.05115(5) 0.72419(5)
C3L C 0.65965(18) -0.10945(19) 0.7339(3)
H1L H 0.6662 -0.0814 0.7224
C4L C 0.6922(2) -0.1412(2) 0.7342(3)
H2L H 0.7207 -0.1346 0.7237
O1S O 0.94885(5) -0.27581(5) 0.58768(6)
C3S C 0.89055(19) -0.2661(3) 0.65965(18)
H1S H 0.9186 -0.2776 0.6662
C4S C 0.8588(2) -0.2658(3) 0.6922(2)
H2S H 0.8654 -0.2763 0.7207
O1V O 0.72419(5) -0.41232(6) 0.94885(5)
C3V C 0.7339(3) -0.34035(18) 0.89055(19)
H1V H 0.7224 -0.3338 0.9186
C4V C 0.7342(3) -0.3078(2) 0.8588(2)
H2V H 0.7237 -0.2793 0.8654
Zn1B Zn 0.5000 0.051912(10) 1.212532(7)
O1B O 0.55115(5) 0.08768(6) 1.22419(5)
O3B O 0.5000 0.0000 1.2500
C1B C 0.58285(6) 0.08285(6) 1.2500
C2B C 0.61732(7) 0.11732(7) 1.2500
C3B C 0.60945(19) 0.15965(18) 1.2339(3)
H1B H 0.5814 0.1662 1.2224
C4B C 0.6412(2) 0.1922(2) 1.2342(3)
H2B H 0.6346 0.2207 1.2237
C5B C 0.68256(8) 0.18256(8) 1.2500
C6B C 0.71703(8) 0.21703(8) 1.2500
C7B C 0.7500 0.21780(8) 1.28220(8)
H3B H 0.7500 0.1959 1.3041
O1D O 0.77581(5) 0.44885(5) 1.08768(6)
C1D C 0.7500 0.41715(6) 1.08285(6)
C2D C 0.7500 0.38268(7) 1.11732(7)
C3D C 0.7661(3) 0.39055(19) 1.15965(18)
H1D H 0.7776 0.4186 1.1662
C4D C 0.7658(3) 0.3588(2) 1.1922(2)
H2D H 0.7763 0.3654 1.2207
C5D C 0.7500 0.31744(8) 1.18256(8)
C6D C 0.7500 0.28297(8) 1.21703(8)
C7D C 0.71780(8) 0.2500 1.21780(8)
H3D H 0.6959 0.2500 1.1959
O1K O 0.91232(6) 0.22419(5) 1.44885(5)
C1K C 0.91715(6) 0.2500 1.41715(6)
C2K C 0.88268(7) 0.2500 1.38268(7)
C3K C 0.84035(18) 0.2339(3) 1.39055(19)
H1K H 0.8338 0.2224 1.4186
C4K C 0.8078(2) 0.2342(3) 1.3588(2)
H2K H 0.7793 0.2237 1.3654
C5K C 0.81744(8) 0.2500 1.31744(8)
C6K C 0.78297(8) 0.2500 1.28297(8)
C7K C 0.78220(8) 0.28220(8) 1.2500
H3K H 0.8041 0.3041 1.2500
O1N O 0.58768(6) 0.05115(5) 1.27581(5)
C3N C 0.65965(18) 0.10945(19) 1.2661(3)
H1N H 0.6662 0.0814 1.2776
C4N C 0.6922(2) 0.1412(2) 1.2658(3)
H2N H 0.7207 0.1346 1.2763
O1P O 0.94885(5) 0.27581(5) 1.41232(6)
C3P C 0.89055(19) 0.2661(3) 1.34035(18)
H1P H 0.9186 0.2776 1.3338
C4P C 0.8588(2) 0.2658(3) 1.3078(2)
H2P H 0.8654 0.2763 1.2793
O1W O 0.72419(5) 0.41232(6) 1.05115(5)
C3W C 0.7339(3) 0.34035(18) 1.10945(19)
H1W H 0.7224 0.3338 1.0814
C4W C 0.7342(3) 0.3078(2) 1.1412(2)
H2W H 0.7237 0.2793 1.1346
Zn1C Zn 0.5000 -0.051912(10) 1.212532(7)
O1C O 0.44885(5) -0.08768(6) 1.22419(5)
C1C C 0.41715(6) -0.08285(6) 1.2500
C2C C 0.38268(7) -0.11732(7) 1.2500
C3C C 0.39055(19) -0.15965(18) 1.2339(3)
H1C H 0.4186 -0.1662 1.2224
C4C C 0.3588(2) -0.1922(2) 1.2342(3)
H2C H 0.3654 -0.2207 1.2237
C5C C 0.31744(8) -0.18256(8) 1.2500
C6C C 0.28297(8) -0.21703(8) 1.2500
C7C C 0.2500 -0.21780(8) 1.28220(8)
H3C H 0.2500 -0.1959 1.3041
O1F O 0.22419(5) -0.44885(5) 1.08768(6)
C1F C 0.2500 -0.41715(6) 1.08285(6)
C2F C 0.2500 -0.38268(7) 1.11732(7)
C3F C 0.2339(3) -0.39055(19) 1.15965(18)
H1F H 0.2224 -0.4186 1.1662
C4F C 0.2342(3) -0.3588(2) 1.1922(2)
H2F H 0.2237 -0.3654 1.2207
C5F C 0.2500 -0.31744(8) 1.18256(8)
C6F C 0.2500 -0.28297(8) 1.21703(8)
C7F C 0.28220(8) -0.2500 1.21780(8)
H3F H 0.3041 -0.2500 1.1959
O1H O 0.08768(6) -0.22419(5) 1.44885(5)
C1H C 0.08285(6) -0.2500 1.41715(6)
C2H C 0.11732(7) -0.2500 1.38268(7)
C3H C 0.15965(18) -0.2339(3) 1.39055(19)
H1H H 0.1662 -0.2224 1.4186
C4H C 0.1922(2) -0.2342(3) 1.3588(2)
H2H H 0.2207 -0.2237 1.3654
C5H C 0.18256(8) -0.2500 1.31744(8)
C6H C 0.21703(8) -0.2500 1.28297(8)
C7H C 0.21780(8) -0.28220(8) 1.2500
H3H H 0.1959 -0.3041 1.2500
O1O O 0.41232(6) -0.05115(5) 1.27581(5)
C3O C 0.34035(18) -0.10945(19) 1.2661(3)
H1O H 0.3338 -0.0814 1.2776
C4O C 0.3078(2) -0.1412(2) 1.2658(3)
H2O H 0.2793 -0.1346 1.2763
O1R O 0.05115(5) -0.27581(5) 1.41232(6)
C3R C 0.10945(19) -0.2661(3) 1.34035(18)
H1R H 0.0814 -0.2776 1.3338
C4R C 0.1412(2) -0.2658(3) 1.3078(2)
H2R H 0.1346 -0.2763 1.2793
O1T O 0.27581(5) -0.41232(6) 1.05115(5)
C3T C 0.2661(3) -0.34035(18) 1.10945(19)
H1T H 0.2776 -0.3338 1.0814
C4T C 0.2658(3) -0.3078(2) 1.1412(2)
H2T H 0.2763 -0.2793 1.1346
Zn1F Zn 0.212532(7) -0.5000 1.051912(10)
O2F O 0.15038(5) -0.5000 1.03639(9)
O3F O 0.2500 -0.5000 1.0000
C8F C 0.13152(10) -0.5000 1.0000
C9F C 0.08224(13) -0.5000 1.01258(13)
C10F C 0.06283(15) -0.5000 1.0545(2)
H4F H 0.0806 -0.5000 1.0800
C11F C 0.01730(15) -0.5000 1.0582(2)
H5F H 0.0044 -0.5000 1.0864
C12F C -0.01001(10) -0.5000 1.02067(14)
C13F C 0.05697(13) -0.5000 0.9762(2)
H6F H 0.0704 -0.5000 0.9482
O2G O 0.15038(5) -0.5000 0.96361(9)
C9G C 0.08224(13) -0.5000 0.98742(13)
C10G C 0.06283(15) -0.5000 0.9455(2)
H4G H 0.0806 -0.5000 0.9200
C11G C 0.01730(15) -0.5000 0.9418(2)
H5G H 0.0044 -0.5000 0.9136
C12G C -0.01001(10) -0.5000 0.97933(14)
C13G C 0.05697(13) -0.5000 1.0238(2)
H6G H 0.0704 -0.5000 1.0518
O2D O -0.15038(5) -0.5000 1.03639(9)
C8D C -0.13152(10) -0.5000 1.0000
C9D C -0.08224(13) -0.5000 1.01258(13)
C10D C -0.06283(15) -0.5000 1.0545(2)
H4D H -0.0806 -0.5000 1.0800
C11D C -0.01730(15) -0.5000 1.0582(2)
H5D H -0.0044 -0.5000 1.0864
C12D C 0.01001(10) -0.5000 1.02067(14)
C13D C -0.05697(13) -0.5000 0.9762(2)
H6D H -0.0704 -0.5000 0.9482
O2E O -0.15038(5) -0.5000 0.96361(9)
C9E C -0.08224(13) -0.5000 0.98742(13)
C10E C -0.06283(15) -0.5000 0.9455(2)
H4E H -0.0806 -0.5000 0.9200
C11E C -0.01730(15) -0.5000 0.9418(2)
H5E H -0.0044 -0.5000 0.9136
C12E C 0.01001(10) -0.5000 0.97933(14)
C13E C -0.05697(13) -0.5000 1.0238(2)
H6E H -0.0704 -0.5000 1.0518
Zn1G Zn 0.212532(7) 0.5000 0.948088(10)
O2G_2 O 0.15038(5) 0.5000 0.96361(9)
C8F_2 C 0.13152(10) 0.5000 1.0000
C9G_2 C 0.08224(13) 0.5000 0.98742(13)
C10G_2 C 0.06283(15) 0.5000 0.9455(2)
H4G_2 H 0.0806 0.5000 0.9200
C11G_2 C 0.01730(15) 0.5000 0.9418(2)
H5G_2 H 0.0044 0.5000 0.9136
C12G_2 C -0.01001(10) 0.5000 0.97933(14)
C13G_2 C 0.05697(13) 0.5000 1.0238(2)
H6G_2 H 0.0704 0.5000 1.0518
O2F_2 O 0.15038(5) 0.5000 1.03639(9)
C9F_2 C 0.08224(13) 0.5000 1.01258(13)
C10F_2 C 0.06283(15) 0.5000 1.0545(2)
H4F_2 H 0.0806 0.5000 1.0800
C11F_2 C 0.01730(15) 0.5000 1.0582(2)
H5F_2 H 0.0044 0.5000 1.0864
C12F_2 C -0.01001(10) 0.5000 1.02067(14)
C13F_2 C 0.05697(13) 0.5000 0.9762(2)
H6F_2 H 0.0704 0.5000 0.9482
O2E_2 O -0.15038(5) 0.5000 0.96361(9)
C8D_2 C -0.13152(10) 0.5000 1.0000
C9E_2 C -0.08224(13) 0.5000 0.98742(13)
C10E_2 C -0.06283(15) 0.5000 0.9455(2)
H4E_2 H -0.0806 0.5000 0.9200
C11E_2 C -0.01730(15) 0.5000 0.9418(2)
H5E_2 H -0.0044 0.5000 0.9136
C12E_2 C 0.01001(10) 0.5000 0.97933(14)
C13E_2 C -0.05697(13) 0.5000 1.0238(2)
H6E_2 H -0.0704 0.5000 1.0518
O2D_2 O -0.15038(5) 0.5000 1.03639(9)
C9D_2 C -0.08224(13) 0.5000 1.01258(13)
C10D_2 C -0.06283(15) 0.5000 1.0545(2)
H4D_2 H -0.0806 0.5000 1.0800
C11D_2 C -0.01730(15) 0.5000 1.0582(2)
H5D_2 H -0.0044 0.5000 1.0864
C12D_2 C 0.01001(10) 0.5000 1.02067(14)
C13D_2 C -0.05697(13) 0.5000 0.9762(2)
H6D_2 H -0.0704 0.5000 0.9482
Zn1H Zn 0.051912(10) -0.212532(7) 1.5000
Zn1J Zn 0.051912(10) 0.212532(7) 0.5000
Zn1L Zn 0.551912(10) 0.0000 0.712532(7)
Zn1M Zn 0.448088(10) 0.0000 0.712532(7)
Zn1U Zn 0.287468(7) 0.448088(10) 1.0000
Zn1W Zn 0.712532(7) 0.448088(10) 1.0000
Zn1D Zn -0.212532(7) -0.5000 1.051912(10)
Zn1D_2 Zn -0.212532(7) 0.5000 1.051912(10)
Zn1D_3 Zn 0.787468(7) 0.5000 1.051912(10)
Zn1E Zn -0.212532(7) -0.5000 0.948088(10)
Zn1E_2 Zn -0.212532(7) 0.5000 0.948088(10)
Zn1E_3 Zn 0.787468(7) -0.5000 0.948088(10)
Zn1F_2 Zn 0.212532(7) 0.5000 1.051912(10)
Zn1G_2 Zn 0.212532(7) -0.5000 0.948088(10)
Zn1I Zn 0.948088(10) -0.212532(7) 0.5000
Zn1K Zn 0.948088(10) 0.212532(7) 1.5000
Zn1N Zn 0.551912(10) 0.0000 1.287468(7)
Zn1O Zn 0.448088(10) 0.0000 1.287468(7)
Zn1P Zn 1.0000 0.287468(7) 1.448088(10)
Zn1Q Zn 0.0000 0.287468(7) 0.551912(10)
Zn1R Zn 0.0000 -0.287468(7) 1.448088(10)
Zn1S Zn 1.0000 -0.287468(7) 0.551912(10)
Zn1T Zn 0.287468(7) -0.448088(10) 1.0000
Zn1U_2 Zn 0.287468(7) -0.551912(10) 1.0000
Zn1V Zn 0.712532(7) -0.448088(10) 1.0000
O1X O 0.55115(5) -0.08768(6) 1.22419(5)
O1Y O 0.44885(5) 0.08768(6) 1.22419(5)
O1Z O 0.44885(5) -0.08768(6) 0.77581(5)
O1AA O 0.55115(5) 0.08768(6) 0.77581(5)
O1BA O 0.22419(5) 0.55115(5) 0.91232(6)
O1CA O 0.22419(5) -0.55115(5) 1.08768(6)
O1GA O 0.08768(6) 0.22419(5) 0.44885(5)
O1IA O 0.08768(6) -0.22419(5) 1.55115(5)
O1LA O 0.41232(6) -0.05115(5) 0.72419(5)
O1MA O 0.58768(6) 0.05115(5) 0.72419(5)
O1RA O 0.72419(5) 0.41232(6) 0.94885(5)
O1TA O 0.27581(5) 0.41232(6) 1.05115(5)
O2H O 0.03639(9) -0.15038(5) 1.5000
O2J O 0.03639(9) 0.15038(5) 0.5000
O2L O 0.53639(9) 0.0000 0.65038(5)
O2M O 0.46361(9) 0.0000 0.65038(5)
O2U O 0.34962(5) 0.46361(9) 1.0000
O2W O 0.65038(5) 0.46361(9) 1.0000
O3D O 0.7500 0.5000 1.0000
O3F_2 O 0.2500 0.5000 1.0000
O3H O 0.0000 -0.2500 1.5000
O3J O 0.0000 0.2500 0.5000
C14? C 0.3736(5) 0.1381(7) 0.7880(4)
H7? H 0.3885 0.1308 0.8143
C15? C 0.3417(6) 0.1705(7) 0.7874(4)
H8? H 0.3359 0.1855 0.8138
N1? N 0.5000 0.1012(3) 1.0000
H9? H 0.5000 0.1238 0.9823
H10? H 0.5000 0.1052 1.0284
loop_
_geom_bond_atom_site_label_1
_geom_bond_atom_site_label_2
_geom_bond_site_symmetry_1
_geom_bond_site_symmetry_2
Zn1 O1 1_555 1_555
O1 C1 1_555 1_555
O2 Zn1 1_555 1_555
O3 Zn1 1_555 1_555
C1 C2 1_555 1_555
C2 C3 1_555 1_555
C3 H1 1_555 1_555
C4 C3 1_555 1_555
H2 C4 1_555 1_555
C5 C4 1_555 1_555
C6 C5 1_555 1_555
C7 C6 1_555 1_555
H3 C7 1_555 1_555
C8 O2 1_555 1_555
C9 C8 1_555 1_555
C10 C9 1_555 1_555
H4 C10 1_555 1_555
C11 C10 1_555 1_555
H5 C11 1_555 1_555
C12 C13C 1_555 1_555
C13 H6 1_555 1_555
H6 C9A 1_555 1_555
O1G C1G 1_555 1_555
C1G C2G 1_555 1_555
C2G C3G 1_555 1_555
C3G H1G 1_555 1_555
C4G C3G 1_555 1_555
H2G C4G 1_555 1_555
C5G C4G 1_555 1_555
C6G C5G 1_555 1_555
C7G C6 1_555 1_555
H3G C7G 1_555 1_555
O1J C1J 1_555 1_555
C1J C2J 1_555 1_555
C2J C3J 1_555 1_555
C3J H1J 1_555 1_555
C4J C3J 1_555 1_555
H2J C4J 1_555 1_555
C5J C4J 1_555 1_555
C6J C7 1_555 1_555
C7J C6G 1_555 1_555
H3J C7J 1_555 1_555
O1M C1 1_555 1_555
C3M C2 1_555 1_555
H1M C3M 1_555 1_555
C4M C5 1_555 1_555
H2M C4M 1_555 1_555
O1Q C1J 1_555 1_555
C3Q C2J 1_555 1_555
H1Q C3Q 1_555 1_555
C4Q C5J 1_555 1_555
H2Q C4Q 1_555 1_555
O1U C1G 1_555 1_555
C3U C2G 1_555 1_555
H1U C3U 1_555 1_555
C4U C5G 1_555 1_555
H2U C4U 1_555 1_555
O2A C8 1_555 1_555
C9A C8 1_555 1_555
C10A C13 1_555 1_555
H4A C10A 1_555 1_555
C11A C13 1_555 1_555
H5A C11A 1_555 1_555
C12A C13B 1_555 1_555
C13A C10 1_555 1_555
H6A C9 1_555 1_555
O2B C8B 1_555 1_555
C8B C9B 1_555 1_555
C9B C10B 1_555 1_555
C10B H4B 1_555 1_555
C11B C11 1_555 1_555
H5B C11 1_555 1_555
C12B C13A 1_555 1_555
C13B H6B 1_555 1_555
H6B C9C 1_555 1_555
O2C C8B 1_555 1_555
C9C C8B 1_555 1_555
C10C C13B 1_555 1_555
H4C C10C 1_555 1_555
C11C C11A 1_555 1_555
H5C C11A 1_555 1_555
C12C C13 1_555 1_555
C13C C10B 1_555 1_555
H6C C9B 1_555 1_555
Zn1A O3 1_555 1_555
O1A Zn1A 1_555 1_555
C1A O1A 1_555 1_555
C2A C1A 1_555 1_555
C3A C2A 1_555 1_555
H1A C3A 1_555 1_555
C4A C3A 1_555 1_555
H2A C4A 1_555 1_555
C5A C4A 1_555 1_555
C6A C5A 1_555 1_555
C7A C6A 1_555 1_555
H3A C7A 1_555 1_555
O1E C1E 1_555 1_555
C1E C2E 1_555 1_555
C2E C3E 1_555 1_555
C3E H1E 1_555 1_555
C4E C3E 1_555 1_555
H2E C4E 1_555 1_555
C5E C4E 1_555 1_555
C6E C5E 1_555 1_555
C7E C6A 1_555 1_555
H3E C7E 1_555 1_555
O1I C1I 1_555 1_555
C1I C2I 1_555 1_555
C2I C3I 1_555 1_555
C3I H1I 1_555 1_555
C4I C3I 1_555 1_555
H2I C4I 1_555 1_555
C5I C4I 1_555 1_555
C6I C7A 1_555 1_555
C7I C6E 1_555 1_555
H3I C7I 1_555 1_555
O1L C1A 1_555 1_555
C3L C2A 1_555 1_555
H1L C3L 1_555 1_555
C4L C5A 1_555 1_555
H2L C4L 1_555 1_555
O1S C1I 1_555 1_555
C3S C2I 1_555 1_555
H1S C3S 1_555 1_555
C4S C5I 1_555 1_555
H2S C4S 1_555 1_555
O1V C1E 1_555 1_555
C3V C2E 1_555 1_555
H1V C3V 1_555 1_555
C4V C5E 1_555 1_555
H2V C4V 1_555 1_555
Zn1B O2B 1_555 1_555
O1B Zn1B 1_555 1_555
O3B Zn1B 1_555 1_555
C1B O1B 1_555 1_555
C2B C1B 1_555 1_555
C3B C2B 1_555 1_555
H1B C3B 1_555 1_555
C4B C3B 1_555 1_555
H2B C4B 1_555 1_555
C5B C4B 1_555 1_555
C6B C5B 1_555 1_555
C7B C6B 1_555 1_555
H3B C7B 1_555 1_555
O1D C1D 1_555 1_555
C1D C2D 1_555 1_555
C2D C3D 1_555 1_555
C3D H1D 1_555 1_555
C4D C3D 1_555 1_555
H2D C4D 1_555 1_555
C5D C4D 1_555 1_555
C6D C5D 1_555 1_555
C7D C6B 1_555 1_555
H3D C7D 1_555 1_555
O1K C1K 1_555 1_555
C1K C2K 1_555 1_555
C2K C3K 1_555 1_555
C3K H1K 1_555 1_555
C4K C3K 1_555 1_555
H2K C4K 1_555 1_555
C5K C4K 1_555 1_555
C6K C7B 1_555 1_555
C7K C6D 1_555 1_555
H3K C7K 1_555 1_555
O1N C1B 1_555 1_555
C3N C2B 1_555 1_555
H1N C3N 1_555 1_555
C4N C5B 1_555 1_555
H2N C4N 1_555 1_555
O1P C1K 1_555 1_555
C3P C2K 1_555 1_555
H1P C3P 1_555 1_555
C4P C5K 1_555 1_555
H2P C4P 1_555 1_555
O1W C1D 1_555 1_555
C3W C2D 1_555 1_555
H1W C3W 1_555 1_555
C4W C5D 1_555 1_555
H2W C4W 1_555 1_555
Zn1C O2C 1_555 1_555
O1C Zn1C 1_555 1_555
C1C O1C 1_555 1_555
C2C C1C 1_555 1_555
C3C C2C 1_555 1_555
H1C C3C 1_555 1_555
C4C C3C 1_555 1_555
H2C C4C 1_555 1_555
C5C C4C 1_555 1_555
C6C C5C 1_555 1_555
C7C C6C 1_555 1_555
H3C C7C 1_555 1_555
O1F C1F 1_555 1_555
C1F C2F 1_555 1_555
C2F C3F 1_555 1_555
C3F H1F 1_555 1_555
C4F C3F 1_555 1_555
H2F C4F 1_555 1_555
C5F C4F 1_555 1_555
C6F C5F 1_555 1_555
C7F C6C 1_555 1_555
H3F C7F 1_555 1_555
O1H C1H 1_555 1_555
C1H C2H 1_555 1_555
C2H C3H 1_555 1_555
C3H H1H 1_555 1_555
C4H C3H 1_555 1_555
H2H C4H 1_555 1_555
C5H C4H 1_555 1_555
C6H C7C 1_555 1_555
C7H C6F 1_555 1_555
H3H C7H 1_555 1_555
O1O C1C 1_555 1_555
C3O C2C 1_555 1_555
H1O C3O 1_555 1_555
C4O C5C 1_555 1_555
H2O C4O 1_555 1_555
O1R C1H 1_555 1_555
C3R C2H 1_555 1_555
H1R C3R 1_555 1_555
C4R C5H 1_555 1_555
H2R C4R 1_555 1_555
O1T C1F 1_555 1_555
C3T C2F 1_555 1_555
H1T C3T 1_555 1_555
C4T C5F 1_555 1_555
H2T C4T 1_555 1_555
Zn1F O1F 1_555 1_555
O2F Zn1F 1_555 1_555
O3F Zn1F 1_555 1_555
C8F O2F 1_555 1_555
C9F C8F 1_555 1_555
C10F C9F 1_555 1_555
H4F C10F 1_555 1_555
C11F C10F 1_555 1_555
H5F C11F 1_555 1_555
C12F C13E 1_555 1_555
C13F H6F 1_555 1_555
H6F C9G 1_555 1_555
O2G C8F 1_555 1_555
C9G C8F 1_555 1_555
C10G C13F 1_555 1_555
H4G C10G 1_555 1_555
C11G C13F 1_555 1_555
H5G C11G 1_555 1_555
C12G C13D 1_555 1_555
C13G C10F 1_555 1_555
H6G C9F 1_555 1_555
O2D C8D 1_555 1_555
C8D C9D 1_555 1_555
C9D C10D 1_555 1_555
C10D H4D 1_555 1_555
C11D C11F 1_555 1_555
H5D C11F 1_555 1_555
C12D C13G 1_555 1_555
C13D H6D 1_555 1_555
H6D C9E 1_555 1_555
O2E C8D 1_555 1_555
C9E C8D 1_555 1_555
C10E C13D 1_555 1_555
H4E C10E 1_555 1_555
C11E C11G 1_555 1_555
H5E C11G 1_555 1_555
C12E C13F 1_555 1_555
C13E C10D 1_555 1_555
H6E C9D 1_555 1_555
Zn1G O1G 1_555 1_555
O2G_2 Zn1G 1_555 1_555
C8F_2 O2G_2 1_555 1_555
C9G_2 C8F_2 1_555 1_555
C10G_2 C9G_2 1_555 1_555
H4G_2 C10G_2 1_555 1_555
C11G_2 C10G_2 1_555 1_555
H5G_2 C11G_2 1_555 1_555
C12G_2 C13D_2 1_555 1_555
C13G_2 H6G_2 1_555 1_555
H6G_2 C9F_2 1_555 1_555
O2F_2 C8F_2 1_555 1_555
C9F_2 C8F_2 1_555 1_555
C10F_2 C13G_2 1_555 1_555
H4F_2 C10F_2 1_555 1_555
C11F_2 C13G_2 1_555 1_555
H5F_2 C11F_2 1_555 1_555
C12F_2 C13E_2 1_555 1_555
C13F_2 C10G_2 1_555 1_555
H6F_2 C9G_2 1_555 1_555
O2E_2 C8D_2 1_555 1_555
C8D_2 C9E_2 1_555 1_555
C9E_2 C10E_2 1_555 1_555
C10E_2 H4E_2 1_555 1_555
C11E_2 C11G_2 1_555 1_555
H5E_2 C11G_2 1_555 1_555
C12E_2 C13F_2 1_555 1_555
C13E_2 H6E_2 1_555 1_555
H6E_2 C9D_2 1_555 1_555
O2D_2 C8D_2 1_555 1_555
C9D_2 C8D_2 1_555 1_555
C10D_2 C13E_2 1_555 1_555
H4D_2 C10D_2 1_555 1_555
C11D_2 C11F_2 1_555 1_555
H5D_2 C11F_2 1_555 1_555
C12D_2 C13G_2 1_555 1_555
C13D_2 C10E_2 1_555 1_555
H6D_2 C9E_2 1_555 1_555
Zn1H O1H 1_555 1_555
Zn1J O1J 1_555 1_555
Zn1L O3 1_555 1_555
Zn1M O3 1_555 1_555
Zn1U O1U 1_555 1_555
Zn1W O1W 1_555 1_555
Zn1D O2D 1_555 1_555
Zn1D_2 O2D_2 1_555 1_555
Zn1D_3 O1D 1_555 1_555
Zn1E O2E 1_555 1_555
Zn1E_2 O2E_2 1_555 1_555
Zn1E_3 O1E 1_555 1_555
Zn1F_2 O2F_2 1_555 1_555
Zn1G_2 O3F 1_555 1_555
Zn1I O1I 1_555 1_555
Zn1K O1K 1_555 1_555
Zn1N O3B 1_555 1_555
Zn1O O3B 1_555 1_555
Zn1P O1P 1_555 1_555
Zn1Q O1Q 1_555 1_555
Zn1R O1R 1_555 1_555
Zn1S O1S 1_555 1_555
Zn1T O1T 1_555 1_555
Zn1U_2 O3F 1_555 1_555
Zn1V O1V 1_555 1_555
O1X Zn1C 1_555 1_555
O1Y Zn1B 1_555 1_555
O1Z Zn1A 1_555 1_555
O1AA Zn1 1_555 1_555
O1BA Zn1G 1_555 1_555
O1CA Zn1F 1_555 1_555
O1GA Zn1J 1_555 1_555
O1IA Zn1H 1_555 1_555
O1LA Zn1M 1_555 1_555
O1MA Zn1L 1_555 1_555
O1RA Zn1W 1_555 1_555
O1TA Zn1U 1_555 1_555
O2H Zn1H 1_555 1_555
O2J Zn1J 1_555 1_555
O2L Zn1L 1_555 1_555
O2M Zn1M 1_555 1_555
O2U Zn1U 1_555 1_555
O2W Zn1W 1_555 1_555
O3D Zn1W 1_555 1_555
O3F_2 Zn1G 1_555 1_555
O3H Zn1H 1_555 1_555
O3J Zn1J 1_555 1_555
C9 C9A 1_555 1_555
C11 C13A 1_555 1_555
H5 C11B 1_555 1_555
C13 C13A 1_555 1_555
C6G C7G 1_555 1_555
C5J C6J 1_555 1_555
C6J C7J 1_555 1_555
O1M Zn1M 1_555 1_555
C3M C4M 1_555 1_555
C3Q C4Q 1_555 1_555
C3U C4U 1_555 1_555
O2A Zn1A 1_555 1_555
C9A C10A 1_555 1_555
C10A C11A 1_555 1_555
H5A C11C 1_555 1_555
C13A H6A 1_555 1_555
C9B C9C 1_555 1_555
C10B C11B 1_555 1_555
C11B H5B 1_555 1_555
C11B C13C 1_555 1_555
C13B C11C 1_555 1_555
C13B C13C 1_555 1_555
C9C C10C 1_555 1_555
C10C C11C 1_555 1_555
C11C H5C 1_555 1_555
C13C H6C 1_555 1_555
C6E C7E 1_555 1_555
C5I C6I 1_555 1_555
C6I C7I 1_555 1_555
O1L Zn1L 1_555 1_555
C3L C4L 1_555 1_555
C3S C4S 1_555 1_555
C3V C4V 1_555 1_555
O3B Zn1C 1_555 1_555
C6D C7D 1_555 1_555
C5K C6K 1_555 1_555
C6K C7K 1_555 1_555
O1N Zn1N 1_555 1_555
C3N C4N 1_555 1_555
C3P C4P 1_555 1_555
C3W C4W 1_555 1_555
C6F C7F 1_555 1_555
C5H C6H 1_555 1_555
C6H C7H 1_555 1_555
O1O Zn1O 1_555 1_555
C3O C4O 1_555 1_555
C3R C4R 1_555 1_555
C3T C4T 1_555 1_555
O3F Zn1T 1_555 1_555
C9F C9G 1_555 1_555
C11F C13G 1_555 1_555
H5F C11D 1_555 1_555
C13F C13G 1_555 1_555
O2G Zn1G_2 1_555 1_555
C9G C10G 1_555 1_555
C10G C11G 1_555 1_555
H5G C11E 1_555 1_555
C13G H6G 1_555 1_555
C9D C9E 1_555 1_555
C10D C11D 1_555 1_555
C11D H5D 1_555 1_555
C11D C13E 1_555 1_555
C13D C11E 1_555 1_555
C13D C13E 1_555 1_555
C9E C10E 1_555 1_555
C10E C11E 1_555 1_555
C11E H5E 1_555 1_555
C13E H6E 1_555 1_555
C9G_2 C9F_2 1_555 1_555
C11G_2 C13F_2 1_555 1_555
H5G_2 C11E_2 1_555 1_555
C13G_2 C13F_2 1_555 1_555
C9F_2 C10F_2 1_555 1_555
C10F_2 C11F_2 1_555 1_555
H5F_2 C11D_2 1_555 1_555
C13F_2 H6F_2 1_555 1_555
C9E_2 C9D_2 1_555 1_555
C10E_2 C11E_2 1_555 1_555
C11E_2 H5E_2 1_555 1_555
C11E_2 C13D_2 1_555 1_555
C13E_2 C11D_2 1_555 1_555
C13E_2 C13D_2 1_555 1_555
C9D_2 C10D_2 1_555 1_555
C10D_2 C11D_2 1_555 1_555
C11D_2 H5D_2 1_555 1_555
C13D_2 H6D_2 1_555 1_555
Zn1U O3F_2 1_555 1_555
Zn1D_3 O3D 1_555 1_555
Zn1F_2 O3F_2 1_555 1_555
Zn1Q O3J 1_555 1_555
Zn1R O3H 1_555 1_555

#END
