
#######################################################################
#
#                 Cambridge Crystallographic Data Centre
#                                CCDC 
#
#######################################################################
#
# If this CIF has been generated from an entry in the Cambridge 
# Structural Database, then it will include bibliographic, chemical, 
# crystal, experimental, refinement or atomic coordinate data resulting 
# from the CCDC's data processing and validation procedures.
#
#######################################################################

data_COTYIV
_chemical_formula_moiety         '(C27 H9 Cu5 N36 4-)n,4(C2 H8 N1 1+)'
_chemical_name_systematic        
"catena-[tetrakis(diethylammonium) tris(\m-5,5',5''-benzene-1,3,5-triyltris(tetrazol-1-yl))-penta-copper unknown solvate]"
_symmetry_cell_setting           orthorhombic
_symmetry_space_group_name_H-M   'F d d d'
_symmetry_Int_Tables_number      70
_space_group_name_Hall           '-F 2uv 2vw'
loop_
_symmetry_equiv_pos_site_id
_symmetry_equiv_pos_as_xyz
1 x,y,z
2 3/4-x,3/4-y,z
3 3/4-x,y,3/4-z
4 x,3/4-y,3/4-z
5 x,1/2+y,1/2+z
6 3/4-x,1/4-y,1/2+z
7 3/4-x,1/2+y,1/4-z
8 x,1/4-y,1/4-z
9 1/2+x,y,1/2+z
10 1/4-x,3/4-y,1/2+z
11 1/4-x,y,1/4-z
12 1/2+x,3/4-y,1/4-z
13 1/2+x,1/2+y,z
14 1/4-x,1/4-y,z
15 1/4-x,1/2+y,3/4-z
16 1/2+x,1/4-y,3/4-z
17 -x,-y,-z
18 1/4+x,1/4+y,-z
19 1/4+x,-y,1/4+z
20 -x,1/4+y,1/4+z
21 -x,1/2-y,1/2-z
22 1/4+x,3/4+y,1/2-z
23 1/4+x,1/2-y,3/4+z
24 -x,3/4+y,3/4+z
25 1/2-x,-y,1/2-z
26 3/4+x,1/4+y,1/2-z
27 3/4+x,-y,3/4+z
28 1/2-x,1/4+y,3/4+z
29 1/2-x,1/2-y,-z
30 3/4+x,3/4+y,-z
31 3/4+x,1/2-y,1/4+z
32 1/2-x,3/4+y,1/4+z
_cell_length_a                   16.180(2)
_cell_length_b                   43.077(5)
_cell_length_c                   45.485(6)
_cell_angle_alpha                90
_cell_angle_beta                 90
_cell_angle_gamma                90
_cell_volume                     31702.4
_exptl_crystal_colour            brown
_exptl_crystal_description       block
_cell_formula_units_Z            16
loop_
_atom_site_label
_atom_site_type_symbol
_atom_site_fract_x
_atom_site_fract_y
_atom_site_fract_z
_atom_site_U_iso_or_equiv
_atom_site_thermal_displace_type
Cu1 Cu 0.6250 0.42783(2) 0.1250 0.0323 Uani
Cu2 Cu 0.50118(3) 0.42879(2) 0.06245(2) 0.0337 Uani
Cu3 Cu 0.43155(4) 0.40796(2) -0.01052(2) 0.0421 Uani
C1 C 0.5333(3) 0.49541(9) 0.16348(9) 0.0437 Uani
C2 C 0.5823(3) 0.47863(9) 0.18251(9) 0.0380 Uani
H1 H 0.5962 0.4583 0.1778 0.0460 Uiso
C3 C 0.6116(3) 0.49157(9) 0.20858(9) 0.0347 Uani
C4 C 0.5909(3) 0.52226(9) 0.21518(10) 0.0467 Uani
H2 H 0.6100 0.5313 0.2325 0.0560 Uiso
C5 C 0.5421(3) 0.53926(10) 0.19614(10) 0.0513 Uani
C6 C 0.5118(3) 0.52553(10) 0.17050(10) 0.0527 Uani
H3 H 0.4770 0.5367 0.1581 0.0630 Uiso
C7 C 0.3750 0.3750 0.10576(11) 0.0263 Uani
C8 C 0.3026(3) 0.36899(9) 0.12112(8) 0.0343 Uani
H4 H 0.2540 0.3650 0.1109 0.0410 Uiso
C9 C 0.3023(3) 0.36891(10) 0.15178(9) 0.0390 Uani
C10 C 0.3750 0.3750 0.16647(13) 0.0463 Uani
H5 H 0.3750 0.3750 0.1869 0.0550 Uiso
C11 C 0.3750 0.3750 0.07342(11) 0.0267 Uani
N1 N 0.4347(2) 0.49453(7) 0.12222(7) 0.0893 Uani
C12 C 0.4994(2) 0.48255(7) 0.13639(6) 0.0460 Uani
N2 N 0.52790(16) 0.45872(5) 0.12062(5) 0.0306 Uani
N3 N 0.48074(17) 0.45600(6) 0.09671(5) 0.0378 Uani
N4 N 0.4231(2) 0.47812(7) 0.09769(6) 0.0743 Uani
N5 N 0.71463(16) 0.45163(5) 0.22553(4) 0.0296 Uani
N6 N 0.74250(17) 0.44224(5) 0.25162(5) 0.0340 Uani
N7 N 0.70570(18) 0.45930(6) 0.27226(5) 0.0493 Uani
N8 N 0.65510(19) 0.47923(6) 0.25892(5) 0.0517 Uani
C13 C 0.66062(19) 0.47448(6) 0.23004(5) 0.0357 Uani
N9 N 0.5251(3) 0.61853(8) 0.21847(8) 0.0580 Uani
N10 N 0.4569(3) 0.61507(9) 0.20313(11) 0.0893 Uani
N11 N 0.4529(3) 0.58603(9) 0.19246(11) 0.0887 Uani
N12 N 0.3986(2) 0.38740(7) 0.02872(6) 0.0291 Uani
N13 N 0.4150(2) 0.39574(7) 0.05676(6) 0.0282 Uani
C14 C 0.22713(17) 0.36390(7) 0.16880(6) 0.0413 Uani
N14 N 0.2183(2) 0.37230(8) 0.19679(6) 0.0813 Uani
N15 N 0.14379(19) 0.36321(8) 0.20574(6) 0.0713 Uani
N16 N 0.10657(15) 0.34919(6) 0.18326(5) 0.0365 Uani
N17 N 0.15806(15) 0.34961(6) 0.16044(5) 0.0276 Uani
C15 C 0.5208(4) 0.57175(10) 0.20259(11) 0.0577 Uani
N18 N 0.5676(3) 0.59127(7) 0.21874(8) 0.0479 Uani
C8A C 0.4474(3) 0.38101(9) 0.12112(8) 0.0343 Uani
H4A H 0.4960 0.3850 0.1109 0.0410 Uiso
C9A C 0.4477(3) 0.38109(10) 0.15178(9) 0.0390 Uani
N12A N 0.3514(2) 0.36260(7) 0.02872(6) 0.0291 Uani
N13A N 0.3350(2) 0.35426(7) 0.05676(6) 0.0282 Uani
C14A C 0.52287(17) 0.38610(7) 0.16880(6) 0.0413 Uani
N14A N 0.5317(2) 0.37770(8) 0.19679(6) 0.0813 Uani
N15A N 0.60621(19) 0.38679(8) 0.20574(6) 0.0713 Uani
N16A N 0.64343(15) 0.40081(6) 0.18326(5) 0.0365 Uani
N17A N 0.59194(15) 0.40039(6) 0.16044(5) 0.0276 Uani
Cu2A Cu 0.24882(3) 0.32121(2) 0.06245(2) 0.0337 Uani
Cu3A Cu 0.31845(4) 0.34204(2) -0.01052(2) 0.0421 Uani
C1A C 0.2167(3) 0.25459(9) 0.16348(9) 0.0437 Uani
C2A C 0.1677(3) 0.27137(9) 0.18251(9) 0.0380 Uani
H1A H 0.1538 0.2917 0.1778 0.0460 Uiso
C3A C 0.1384(3) 0.25843(9) 0.20858(9) 0.0347 Uani
C4A C 0.1591(3) 0.22774(9) 0.21518(10) 0.0467 Uani
H2A H 0.1400 0.2187 0.2325 0.0560 Uiso
C5A C 0.2079(3) 0.21074(10) 0.19614(10) 0.0513 Uani
C6A C 0.2382(3) 0.22447(10) 0.17050(10) 0.0527 Uani
H3A H 0.2730 0.2133 0.1581 0.0630 Uiso
N1A N 0.3153(2) 0.25547(7) 0.12222(7) 0.0893 Uani
C12A C 0.2506(2) 0.26745(7) 0.13639(6) 0.0460 Uani
N2A N 0.22210(16) 0.29128(5) 0.12062(5) 0.0306 Uani
N3A N 0.26926(17) 0.29400(6) 0.09671(5) 0.0378 Uani
N4A N 0.3269(2) 0.27188(7) 0.09769(6) 0.0743 Uani
N5A N 0.03537(16) 0.29837(5) 0.22553(4) 0.0296 Uani
N6A N 0.00750(17) 0.30776(5) 0.25162(5) 0.0340 Uani
N7A N 0.04430(18) 0.29070(6) 0.27226(5) 0.0493 Uani
N8A N 0.09490(19) 0.27077(6) 0.25892(5) 0.0517 Uani
C13A C 0.08938(19) 0.27552(6) 0.23004(5) 0.0357 Uani
N9A N 0.2249(3) 0.13147(8) 0.21847(8) 0.0580 Uani
N10A N 0.2931(3) 0.13493(9) 0.20313(11) 0.0893 Uani
N11A N 0.2971(3) 0.16397(9) 0.19246(11) 0.0887 Uani
C15A C 0.2292(4) 0.17825(10) 0.20259(11) 0.0577 Uani
N18A N 0.1824(3) 0.15873(7) 0.21874(8) 0.0479 Uani
Cu1A Cu 0.1250 0.32217(2) 0.1250 0.0323 Uani
Cu2J Cu 0.74882(3) 0.42879(2) 0.18755(2) 0.0337 Uani
Cu2K Cu 0.00118(3) 0.32121(2) 0.18755(2) 0.0337 Uani
Cu3J Cu 0.81845(4) 0.40796(2) 0.26052(2) 0.0421 Uani
Cu3K Cu -0.06845(4) 0.34204(2) 0.26052(2) 0.0421 Uani
Cu3R Cu 0.68155(4) 0.59204(2) 0.23948(2) 0.0421 Uani
Cu3S Cu 0.56845(4) 0.65796(2) 0.23948(2) 0.0421 Uani
Cu3DA Cu 0.18155(4) 0.09204(2) 0.23948(2) 0.0421 Uani
Cu3EA Cu 0.06845(4) 0.15796(2) 0.23948(2) 0.0421 Uani
N2J N 0.72210(16) 0.45872(5) 0.12938(5) 0.0306 Uani
N5J N 0.53537(16) 0.45163(5) 0.02447(4) 0.0296 Uani
N5K N 0.21463(16) 0.29837(5) 0.02447(4) 0.0296 Uani
N6J N 0.50750(17) 0.44224(5) -0.00162(5) 0.0340 Uani
N6K N 0.24250(17) 0.30776(5) -0.00162(5) 0.0340 Uani
N9W N 0.4749(3) 0.36853(8) -0.03153(8) 0.0580 Uani
N9Z N 0.2751(3) 0.38147(8) -0.03153(8) 0.0580 Uani
N16J N 0.14343(15) 0.34919(6) 0.06674(5) 0.0365 Uani
N16K N 0.60657(15) 0.40081(6) 0.06674(5) 0.0365 Uani
N17K N 0.65806(15) 0.40039(6) 0.08956(5) 0.0276 Uani
N18W N 0.4324(3) 0.34127(7) -0.03126(8) 0.0479 Uani
N18Z N 0.3176(3) 0.40873(7) -0.03126(8) 0.0479 Uani
N19 N 0.8261(13) 0.5497(4) -0.0568(5) 0.3980 Uani
H6 H 0.7932 0.5309 -0.0581 0.4770 Uiso
H7 H 0.8837 0.5435 -0.0560 0.4770 Uiso
C16 C 0.8123(18) 0.5690(5) -0.0850(6) 0.5900 Uani
H8 H 0.8240 0.5564 -0.1019 0.8830 Uiso
H9 H 0.8484 0.5867 -0.0849 0.8830 Uiso
H10 H 0.7559 0.5759 -0.0858 0.8830 Uiso
C17 C 0.8044(14) 0.5664(4) -0.0280(4) 0.3187 Uani
H11 H 0.8091 0.5522 -0.0119 0.4790 Uiso
H12 H 0.7488 0.5741 -0.0291 0.4790 Uiso
H13 H 0.8417 0.5835 -0.0251 0.4790 Uiso
N20 N 1.197(2) 0.4377(4) -0.1662(3) 0.4470 Uani
H14 H 1.1914 0.4276 -0.1851 0.5370 Uiso
H15 H 1.2108 0.4592 -0.1704 0.5370 Uiso
C18 C 1.1066(19) 0.4392(11) -0.1538(11) 0.7000 Uiso
H16 H 1.0710 0.4486 -0.1681 1.0500 Uiso
H17 H 1.1060 0.4513 -0.1361 1.0500 Uiso
H18 H 1.0876 0.4185 -0.1497 1.0500 Uiso
C19 C 1.2749(19) 0.4241(8) -0.1529(6) 0.5500 Uani
H19 H 1.3159 0.4217 -0.1679 0.8280 Uiso
H20 H 1.2626 0.4042 -0.1444 0.8280 Uiso
H21 H 1.2955 0.4377 -0.1379 0.8280 Uiso
loop_
_atom_site_aniso_label
_atom_site_aniso_U_11
_atom_site_aniso_U_22
_atom_site_aniso_U_33
_atom_site_aniso_U_23
_atom_site_aniso_U_13
_atom_site_aniso_U_12
Cu1 0.0393(5) 0.0316(4) 0.0260(4) 0.000 -0.0057(3) 0.000
Cu2 0.0429(4) 0.0319(3) 0.0263(3) -0.0014(2) -0.0064(2) -0.0113(2)
Cu3 0.0709(5) 0.0303(3) 0.0251(3) 0.0004(2) -0.0031(3) -0.0251(3)
C1 0.065(3) 0.034(2) 0.032(2) -0.0133(19) -0.023(2) 0.018(2)
C2 0.052(3) 0.023(2) 0.039(3) -0.0123(18) -0.017(2) 0.017(2)
C3 0.047(3) 0.025(2) 0.032(2) -0.0085(18) -0.010(2) 0.0181(19)
C4 0.070(4) 0.030(2) 0.040(3) -0.014(2) -0.027(2) 0.017(2)
C5 0.075(4) 0.032(2) 0.047(3) -0.012(2) -0.030(3) 0.025(2)
C6 0.080(4) 0.039(3) 0.039(3) -0.012(2) -0.039(3) 0.030(2)
C7 0.032(4) 0.029(3) 0.018(3) 0.000 0.000 -0.007(3)
C8 0.037(3) 0.045(2) 0.021(2) -0.0022(18) -0.0031(19) -0.012(2)
C9 0.043(3) 0.049(3) 0.025(2) -0.002(2) 0.002(2) -0.013(2)
C10 0.047(5) 0.070(4) 0.022(3) 0.000 0.000 -0.021(4)
C11 0.028(3) 0.029(3) 0.023(3) 0.000 0.000 -0.007(3)
N1 0.115(4) 0.081(3) 0.072(3) -0.049(3) -0.066(3) 0.067(3)
C12 0.061(3) 0.035(2) 0.042(3) -0.009(2) -0.021(2) 0.022(2)
N2 0.041(2) 0.0253(17) 0.0256(18) -0.0043(14) -0.0130(16) 0.0036(15)
N3 0.054(3) 0.0298(18) 0.0296(19) -0.0056(15) -0.0170(18) 0.0111(17)
N4 0.097(4) 0.072(3) 0.054(3) -0.034(2) -0.051(3) 0.041(3)
N5 0.044 0.0198 0.0249 -0.002 -0.0061 0.0091
N6 0.058 0.0241 0.02 -0.0028 -0.0112 0.0187
N7 0.074 0.046 0.028 -0.002 -0.015 0.039
N8 0.077 0.045 0.033 -0.0128 -0.015 0.032
C13 0.054 0.026 0.027 -0.0086 -0.017 0.012
N9 0.088 0.038 0.048 -0.0132 -0.032 0.032
N10 0.117 0.049 0.102 -0.031 -0.069 0.053
N11 0.116 0.045 0.105 -0.041 -0.074 0.047
N12 0.041(2) 0.0261(17) 0.0202(17) -0.0003(13) -0.0043(15) -0.0120(15)
N13 0.038(2) 0.0268(17) 0.0199(17) -0.0026(14) -0.0047(15) -0.0108(15)
C14 0.041 0.055 0.028 -0.003 0.005 -0.016
N14 0.072 0.139 0.033 -0.035 0.021 -0.062
N15 0.064 0.111 0.039 -0.03 0.018 -0.03
N16 0.044 0.042 0.0236 -0.0042 0.0069 -0.0054
N17 0.03 0.0291 0.0237 -0.0001 0.0085 -0.0014
C15 0.092 0.034 0.047 -0.017 -0.041 0.035
N18 0.076 0.0267 0.041 -0.014 -0.025 0.0306
C8A 0.037 0.045 0.021 0.0022 0.0031 -0.012
C9A 0.043 0.049 0.025 0.002 -0.002 -0.013
N12A 0.041 0.0261 0.0202 0.0003 0.0043 -0.012
N13A 0.038 0.0268 0.0199 0.0026 0.0047 -0.0108
C14A 0.041 0.055 0.028 0.003 -0.005 -0.016
N14A 0.072 0.139 0.033 0.035 -0.021 -0.062
N15A 0.064 0.111 0.039 0.03 -0.018 -0.03
N16A 0.044 0.042 0.0236 0.0042 -0.0069 -0.0054
N17A 0.03 0.0291 0.0237 0.0001 -0.0085 -0.0014
Cu2A 0.0429 0.0319 0.0263 0.0014 0.0064 -0.0113
Cu3A 0.0709 0.0303 0.0251 -0.0004 0.0031 -0.0251
C1A 0.065 0.034 0.032 0.0133 0.023 0.018
C2A 0.052 0.023 0.039 0.0123 0.017 0.017
C3A 0.047 0.025 0.032 0.0085 0.01 0.0181
C4A 0.07 0.03 0.04 0.014 0.027 0.017
C5A 0.075 0.032 0.047 0.012 0.03 0.025
C6A 0.08 0.039 0.039 0.012 0.039 0.03
N1A 0.115 0.081 0.072 0.049 0.066 0.067
C12A 0.061 0.035 0.042 0.009 0.021 0.022
N2A 0.041 0.0253 0.0256 0.0043 0.013 0.0036
N3A 0.054 0.0298 0.0296 0.0056 0.017 0.0111
N4A 0.097 0.072 0.054 0.034 0.051 0.041
N5A 0.044 0.0198 0.0249 0.002 0.0061 0.0091
N6A 0.058 0.0241 0.02 0.0028 0.0112 0.0187
N7A 0.074 0.046 0.028 0.002 0.015 0.039
N8A 0.077 0.045 0.033 0.0128 0.015 0.032
C13A 0.054 0.026 0.027 0.0086 0.017 0.012
N9A 0.088 0.038 0.048 0.0132 0.032 0.032
N10A 0.117 0.049 0.102 0.031 0.069 0.053
N11A 0.116 0.045 0.105 0.041 0.074 0.047
C15A 0.092 0.034 0.047 0.017 0.041 0.035
N18A 0.076 0.0267 0.041 0.014 0.025 0.0306
Cu1A 0.0393 0.0316 0.026 0 0.0057 0
Cu2J 0.0429 0.0319 0.0263 0.0014 -0.0064 0.0113
Cu2K 0.0429 0.0319 0.0263 -0.0014 0.0064 0.0113
Cu3J 0.0709 0.0303 0.0251 -0.0004 -0.0031 0.0251
Cu3K 0.0709 0.0303 0.0251 0.0004 0.0031 0.0251
Cu3R 0.0709 0.0303 0.0251 -0.0004 -0.0031 0.0251
Cu3S 0.0709 0.0303 0.0251 0.0004 0.0031 0.0251
Cu3DA 0.0709 0.0303 0.0251 -0.0004 -0.0031 0.0251
Cu3EA 0.0709 0.0303 0.0251 0.0004 0.0031 0.0251
N2J 0.041 0.0253 0.0256 0.0043 -0.013 -0.0036
N5J 0.044 0.0198 0.0249 0.002 -0.0061 -0.0091
N5K 0.044 0.0198 0.0249 -0.002 0.0061 -0.0091
N6J 0.058 0.0241 0.02 0.0028 -0.0112 -0.0187
N6K 0.058 0.0241 0.02 -0.0028 0.0112 -0.0187
N9W 0.088 0.038 0.048 -0.0132 0.032 -0.032
N9Z 0.088 0.038 0.048 0.0132 -0.032 -0.032
N16J 0.044 0.042 0.0236 0.0042 0.0069 0.0054
N16K 0.044 0.042 0.0236 -0.0042 -0.0069 0.0054
N17K 0.03 0.0291 0.0237 -0.0001 -0.0085 0.0014
N18W 0.076 0.0267 0.041 -0.014 0.025 -0.0306
N18Z 0.076 0.0267 0.041 0.014 -0.025 -0.0306
N19 0.36(3) 0.234(19) 0.60(4) -0.11(2) 0.05(3) 0.051(17)
C16 0.47(5) 0.25(2) 1.05(10) 0.21(4) -0.37(5) 0.04(2)
C17 0.43(3) 0.206(17) 0.32(2) -0.062(17) 0.16(2) -0.059(18)
N20 0.92(6) 0.262(16) 0.159(12) 0.083(11) 0.21(2) 0.22(3)
C19 0.88(8) 0.42(4) 0.35(4) -0.12(3) 0.16(4) 0.20(5)
loop_
_geom_bond_atom_site_label_1
_geom_bond_atom_site_label_2
_geom_bond_site_symmetry_1
_geom_bond_site_symmetry_2
Cu1 N2 1_555 1_555
Cu2 N3 1_555 1_555
Cu3 N12 1_555 1_555
C1 C2 1_555 1_555
C2 H1 1_555 1_555
C3 C2 1_555 1_555
C4 C3 1_555 1_555
H2 C4 1_555 1_555
C5 C4 1_555 1_555
C6 C1 1_555 1_555
H3 C6 1_555 1_555
C7 C8 1_555 1_555
C8 H4 1_555 1_555
C9 C8 1_555 1_555
C10 C9 1_555 1_555
H5 C10 1_555 1_555
C11 C7 1_555 1_555
N1 C12 1_555 1_555
C12 C1 1_555 1_555
N2 C12 1_555 1_555
N3 N2 1_555 1_555
N4 N1 1_555 1_555
N5 N6 1_555 1_555
N6 N7 1_555 1_555
N7 N8 1_555 1_555
N8 C13 1_555 1_555
C13 C3 1_555 1_555
N9 N10 1_555 1_555
N10 N11 1_555 1_555
N11 C15 1_555 1_555
N12 N13 1_555 1_555
N13 Cu2 1_555 1_555
C14 C9 1_555 1_555
N14 C14 1_555 1_555
N15 N14 1_555 1_555
N16 N15 1_555 1_555
N17 C14 1_555 1_555
C15 C5 1_555 1_555
N18 N9 1_555 1_555
N19 H6 1_555 1_555
H7 N19 1_555 1_555
C16 N19 1_555 1_555
H8 C16 1_555 1_555
H9 C16 1_555 1_555
H10 C16 1_555 1_555
C17 N19 1_555 1_555
H11 C17 1_555 1_555
H12 C17 1_555 1_555
H13 C17 1_555 1_555
N20 H14 1_555 1_555
H15 N20 1_555 1_555
C18 N20 1_555 1_555
H16 C18 1_555 1_555
H17 C18 1_555 1_555
H18 C18 1_555 1_555
C19 N20 1_555 1_555
H19 C19 1_555 1_555
H20 C19 1_555 1_555
H21 C19 1_555 1_555
C8A C7 1_555 1_555
H4A C8A 1_555 1_555
C9A C10 1_555 1_555
N12A N12 1_555 1_555
N13A C11 1_555 1_555
C14A C9A 1_555 1_555
N14A C14A 1_555 1_555
N15A N14A 1_555 1_555
N16A N15A 1_555 1_555
N17A Cu1 1_555 1_555
Cu2A N13A 1_555 1_555
Cu3A N12A 1_555 1_555
C1A C2A 1_555 1_555
C2A H1A 1_555 1_555
C3A C2A 1_555 1_555
C4A C3A 1_555 1_555
H2A C4A 1_555 1_555
C5A C4A 1_555 1_555
C6A C1A 1_555 1_555
H3A C6A 1_555 1_555
N1A C12A 1_555 1_555
C12A C1A 1_555 1_555
N2A C12A 1_555 1_555
N3A Cu2A 1_555 1_555
N4A N1A 1_555 1_555
N5A N6A 1_555 1_555
N6A N7A 1_555 1_555
N7A N8A 1_555 1_555
N8A C13A 1_555 1_555
C13A C3A 1_555 1_555
N9A N10A 1_555 1_555
N10A N11A 1_555 1_555
N11A C15A 1_555 1_555
C15A C5A 1_555 1_555
N18A N9A 1_555 1_555
Cu1A N17 1_555 1_555
Cu2J N5 1_555 1_555
Cu2K N16 1_555 1_555
Cu3J N6 1_555 1_555
Cu3K N6A 1_555 1_555
Cu3R N18 1_555 1_555
Cu3S N9 1_555 1_555
Cu3DA N9A 1_555 1_555
Cu3EA N18A 1_555 1_555
N2J Cu1 1_555 1_555
N5J Cu2 1_555 1_555
N5K Cu2A 1_555 1_555
N6J Cu3 1_555 1_555
N6K Cu3A 1_555 1_555
N9W Cu3 1_555 1_555
N9Z Cu3A 1_555 1_555
N16J Cu2A 1_555 1_555
N16K Cu2 1_555 1_555
N17K Cu1 1_555 1_555
N18W Cu3A 1_555 1_555
N18Z Cu3 1_555 1_555
C5 C6 1_555 1_555
C11 N13 1_555 1_555
N3 N4 1_555 1_555
N5 C13 1_555 1_555
N16 N17 1_555 1_555
C15 N18 1_555 1_555
C8A C9A 1_555 1_555
N12A N13A 1_555 1_555
C14A N17A 1_555 1_555
N16A N17A 1_555 1_555
N16A Cu2J 1_555 1_555
C5A C6A 1_555 1_555
N2A N3A 1_555 1_555
N2A Cu1A 1_555 1_555
N3A N4A 1_555 1_555
N5A C13A 1_555 1_555
N5A Cu2K 1_555 1_555
C15A N18A 1_555 1_555
N5J N6J 1_555 1_555
N5K N6K 1_555 1_555
N9W N18W 1_555 1_555
N9Z N18Z 1_555 1_555
N16K N17K 1_555 1_555

#END
