
#######################################################################
#
#                 Cambridge Crystallographic Data Centre
#                                CCDC 
#
#######################################################################
#
# If this CIF has been generated from an entry in the Cambridge 
# Structural Database, then it will include bibliographic, chemical, 
# crystal, experimental, refinement or atomic coordinate data resulting 
# from the CCDC's data processing and validation procedures.
#
#######################################################################

data_KOMGUP
_chemical_formula_moiety         '(C5 H6 N8 O3 Zn2)n,3n(H2 O1)'
_chemical_name_systematic        
"catena-(bis(\m~3~-3-Amino-1,2,4-triazolato)-(\m~2~-carbonato-O,O')-di-zinc(ii) trihydrate)"
_symmetry_cell_setting           orthorhombic
_symmetry_space_group_name_H-M   'P n m a'
_symmetry_Int_Tables_number      62
_space_group_name_Hall           '-P 2ac 2n'
loop_
_symmetry_equiv_pos_site_id
_symmetry_equiv_pos_as_xyz
1 x,y,z
2 1/2-x,-y,1/2+z
3 -x,1/2+y,-z
4 1/2+x,1/2-y,1/2-z
5 -x,-y,-z
6 1/2+x,y,1/2-z
7 x,1/2-y,z
8 1/2-x,1/2+y,1/2+z
_cell_length_a                   9.8055(11)
_cell_length_b                   16.1941(19)
_cell_length_c                   9.3531(11)
_cell_angle_alpha                90
_cell_angle_beta                 90
_cell_angle_gamma                90
_cell_volume                     1485.19
_exptl_crystal_colour            colorless
_exptl_crystal_description       block
_cell_formula_units_Z            4
loop_
_atom_site_label
_atom_site_type_symbol
_atom_site_fract_x
_atom_site_fract_y
_atom_site_fract_z
_atom_site_U_iso_or_equiv
_atom_site_thermal_displace_type
Zn1 Zn 0.87998(4) 0.41766(3) 0.05950(5) 0.0332 Uani
N1 N 1.0609(3) 0.4402(2) 0.1455(4) 0.0370 Uani
N2 N 1.1513(4) 0.4989(2) 0.0976(4) 0.0398 Uani
N3 N 1.2428(3) 0.4408(2) 0.2863(4) 0.0385 Uani
N4 N 1.0608(6) 0.3512(4) 0.3466(7) 0.1103 Uani
H1 H 0.9787 0.3352 0.3296 0.1320 Uiso
H2 H 1.1044 0.3317 0.4188 0.1320 Uiso
O1 O 0.8378(5) 0.3180(2) -0.0418(4) 0.0697 Uani
O2 O 0.8901(6) 0.2500 0.1502(7) 0.0777 Uani
C1 C 1.1210(4) 0.4068(3) 0.2597(6) 0.0470 Uani
C2 C 1.2542(4) 0.4972(3) 0.1824(5) 0.0480 Uani
H3 H 1.3292 0.5319 0.1726 0.0580 Uiso
C3 C 0.8596(6) 0.2500 0.0247(8) 0.0423 Uani
Zn1D Zn 1.12002(4) 0.58234(3) -0.05950(5) 0.0332 Uani
Zn1E Zn 1.37998(4) 0.41766(3) 0.44050(5) 0.0332 Uani
Zn1F Zn 0.87998(4) 0.08234(3) 0.05950(5) 0.0332 Uani
Zn1A Zn 0.62002(4) 0.58234(3) -0.44050(5) 0.0332 Uani
N1D N 0.9391(3) 0.5598(2) -0.1455(4) 0.0370 Uani
N2D N 0.8487(4) 0.5011(2) -0.0976(4) 0.0398 Uani
N3D N 0.7572(3) 0.5592(2) -0.2863(4) 0.0385 Uani
N3E N 0.7428(3) 0.4408(2) 0.2137(4) 0.0385 Uani
N3A N 1.2572(3) 0.5592(2) -0.2137(4) 0.0385 Uani
N4D N 0.9392(6) 0.6488(4) -0.3466(7) 0.1103 Uani
H1D H 1.0213 0.6648 -0.3296 0.1320 Uiso
H2D H 0.8956 0.6683 -0.4188 0.1320 Uiso
O1F O 0.8378(5) 0.1820(2) -0.0418(4) 0.0697 Uani
O1D O 1.1622(5) 0.6820(2) 0.0418(4) 0.0697 Uani
C1D C 0.8790(4) 0.5932(3) -0.2597(6) 0.0470 Uani
C2D C 0.7458(4) 0.5028(3) -0.1824(5) 0.0480 Uani
H3D H 0.6708 0.4681 -0.1726 0.0580 Uiso
O3 O 0.734(3) 0.7500 -0.039(2) 0.3340 Uiso
H4 H 0.7781 0.7500 -0.1105 0.5010 Uiso
H5 H 0.6489 0.7500 -0.0558 0.5010 Uiso
O4 O 1.0007(15) 0.6469(11) 0.3233(17) 0.1800 Uiso
H6 H 1.0506 0.6322 0.3932 0.2700 Uiso
H7 H 1.0446 0.6802 0.2703 0.2700 Uiso
O5 O 0.821(3) 0.6913(15) 0.197(3) 0.3360 Uiso
H8 H 0.8456 0.6963 0.2835 0.5040 Uiso
H9 H 0.8707 0.7221 0.1444 0.5040 Uiso
loop_
_atom_site_aniso_label
_atom_site_aniso_U_11
_atom_site_aniso_U_22
_atom_site_aniso_U_33
_atom_site_aniso_U_23
_atom_site_aniso_U_13
_atom_site_aniso_U_12
Zn1 0.0271(3) 0.0354(4) 0.0370(4) 0.00306(18) 0.00030(19) -0.00606(17)
N1 0.0305 0.0385 0.042 0.0082 -0.006 -0.0105
N2 0.0323 0.038 0.049 0.0126 -0.0053 -0.0094
N3 0.0347 0.0377 0.043 0.0069 -0.0083 -0.0091
N4 0.076 0.131 0.124 0.089 -0.055 -0.058
O1 0.123(3) 0.0300(18) 0.056(2) 0.0010(16) -0.018(2) -0.004(2)
O2 0.103(5) 0.066(4) 0.064(4) 0.000 -0.025(3) 0.000
C1 0.039 0.051 0.051 0.016 -0.012 -0.0152
C2 0.036 0.047 0.061 0.015 -0.011 -0.0139
C3 0.039(3) 0.036(3) 0.052(4) 0.000 0.000(3) 0.000
Zn1D 0.0271 0.0354 0.037 0.00306 0.0003 -0.00606
Zn1E 0.0271 0.0354 0.037 -0.00306 -0.0003 -0.00606
Zn1F 0.0271 0.0354 0.037 -0.00306 0.0003 0.00606
Zn1A 0.0271 0.0354 0.037 -0.00306 -0.0003 -0.00606
N1D 0.0305 0.0385 0.042 0.0082 -0.006 -0.0105
N2D 0.0323 0.038 0.049 0.0126 -0.0053 -0.0094
N3D 0.0347 0.0377 0.043 0.0069 -0.0083 -0.0091
N3E 0.0347(18) 0.0377(18) 0.043(2) -0.0069(16) 0.0083(16) -0.0091(14)
N3A 0.0347 0.0377 0.043 -0.0069 0.0083 -0.0091
N4D 0.076 0.131 0.124 0.089 -0.055 -0.058
O1F 0.123 0.03 0.056 -0.001 -0.018 0.004
O1D 0.123 0.03 0.056 0.001 -0.018 -0.004
C1D 0.039 0.051 0.051 0.016 -0.012 -0.0152
C2D 0.036 0.047 0.061 0.015 -0.011 -0.0139
loop_
_geom_bond_atom_site_label_1
_geom_bond_atom_site_label_2
_geom_bond_site_symmetry_1
_geom_bond_site_symmetry_2
Zn1 N1 1_555 1_555
N1 N2 1_555 1_555
N2 C2 1_555 1_555
N3 C1 1_555 1_555
N4 H1 1_555 1_555
H2 N4 1_555 1_555
O1 Zn1 1_555 1_555
O2 C3 1_555 1_555
C1 N1 1_555 1_555
C2 N3 1_555 1_555
H3 C2 1_555 1_555
C3 O1 1_555 1_555
O3 H4 1_555 1_555
H5 O3 1_555 1_555
O4 H6 1_555 1_555
H7 O4 1_555 1_555
O5 H8 1_555 1_555
H9 O5 1_555 1_555
Zn1D N2 1_555 1_555
Zn1E N3 1_555 1_555
Zn1F O1F 1_555 1_555
Zn1A N3D 1_555 1_555
N1D Zn1D 1_555 1_555
N2D Zn1 1_555 1_555
N3D C1D 1_555 1_555
N3E Zn1 1_555 1_555
N3A Zn1D 1_555 1_555
N4D H1D 1_555 1_555
H2D N4D 1_555 1_555
O1F C3 1_555 1_555
O1D Zn1D 1_555 1_555
C1D N1D 1_555 1_555
C2D N2D 1_555 1_555
H3D C2D 1_555 1_555
N4 C1 1_555 1_555
N1D N2D 1_555 1_555
N3D C2D 1_555 1_555
N4D C1D 1_555 1_555

#END
