
#######################################################################
#
#                 Cambridge Crystallographic Data Centre
#                                CCDC 
#
#######################################################################
#
# If this CIF has been generated from an entry in the Cambridge 
# Structural Database, then it will include bibliographic, chemical, 
# crystal, experimental, refinement or atomic coordinate data resulting 
# from the CCDC's data processing and validation procedures.
#
#######################################################################

data_KOMHIE
_chemical_formula_moiety         '(C10 H14 N8 O4 Zn2)n,n(H2 O1)'
_chemical_name_systematic        
"catena-(bis(\m~3~-3-Amino-1,2,4-triazolato)-(\m~2~-adipato-O,O')-di-zinc(ii) monohydrate)"
_symmetry_cell_setting           tetragonal
_symmetry_space_group_name_H-M   'P 4/n n c'
_symmetry_Int_Tables_number      126
_space_group_name_Hall           '-P 4a 2bc'
loop_
_symmetry_equiv_pos_site_id
_symmetry_equiv_pos_as_xyz
1 x,y,z
2 1/2-y,x,z
3 y,1/2-x,z
4 y,x,1/2-z
5 1/2-x,1/2-y,z
6 1/2-x,y,1/2-z
7 x,1/2-y,1/2-z
8 1/2-y,1/2-x,1/2-z
9 -x,-y,-z
10 1/2+y,-x,-z
11 -y,1/2+x,-z
12 -y,-x,1/2+z
13 1/2+x,1/2+y,-z
14 1/2+x,-y,1/2+z
15 -x,1/2+y,1/2+z
16 1/2+y,1/2+x,1/2+z
_cell_length_a                   12.7035(11)
_cell_length_b                   12.7035(11)
_cell_length_c                   25.438(5)
_cell_angle_alpha                90
_cell_angle_beta                 90
_cell_angle_gamma                90
_cell_volume                     4105.16
_exptl_crystal_colour            colorless
_exptl_crystal_description       plate
_cell_formula_units_Z            8
loop_
_atom_site_label
_atom_site_type_symbol
_atom_site_fract_x
_atom_site_fract_y
_atom_site_fract_z
_atom_site_U_iso_or_equiv
_atom_site_thermal_displace_type
O3 O 0.7500 0.7500 0.377(5) 0.2500 Uiso
Zn1 Zn 0.53734(6) 0.43131(7) 0.43804(3) 0.0453 Uani
N1 N 0.6303(4) 0.4726(4) 0.4990(2) 0.0443 Uani
N2 N 0.7743(5) 0.4772(5) 0.54803(19) 0.0487 Uani
N3 N 0.6022(5) 0.5034(4) 0.54976(19) 0.0453 Uani
C1 C 0.6904(6) 0.5039(6) 0.5770(3) 0.0523 Uani
C2 C 0.7309(5) 0.4593(6) 0.5006(2) 0.0527 Uani
H1 H 0.7701 0.4390 0.4714 0.0630 Uiso
O1 O 0.6433(8) 0.4582(8) 0.3834(3) 0.1413 Uani
O2 O 0.5113(7) 0.4131(6) 0.3373(3) 0.1140 Uani
C3 C 0.6024(11) 0.4395(9) 0.3415(4) 0.0990 Uani
N4 N 0.714(4) 0.533(3) 0.6287(14) 0.1133 Uani
H2 H 0.6635 0.5334 0.6535 0.1380 Uiso
H3 H 0.7805 0.5507 0.6372 0.1380 Uiso
H4 H 0.6340 0.3715 0.2690 0.1740 Uiso
C5 C 0.7763(18) 0.423(3) 0.2978(7) 0.2083 Uani
C6 C 0.648(2) 0.409(3) 0.2490(11) 0.1433 Uani
H17 H 0.5737 0.4162 0.2426 0.2190 Uiso
C7 C 0.677(3) 0.465(5) 0.2986(16) 0.1530 Uani
Zn1J Zn 0.56869(7) 0.03734(6) 0.56196(3) 0.0453 Uani
Zn1H Zn 0.46266(6) 0.56869(7) 0.56196(3) 0.0453 Uani
Zn1I Zn 0.93131(7) 0.46266(6) 0.56196(3) 0.0453 Uani
Zn1E Zn 0.96266(6) 0.43131(7) 0.06196(3) 0.0453 Uani
Zn1B Zn 0.43131(7) -0.03734(6) 0.43804(3) 0.0453 Uani
Zn1A Zn 0.06869(7) 0.53734(6) 0.43804(3) 0.0453 Uani
Zn1D Zn 0.96266(6) 0.06869(7) 0.43804(3) 0.0453 Uani
Zn1L Zn 1.03734(6) -0.06869(7) 0.56196(3) 0.0453 Uani
Zn1K Zn 0.56869(7) 0.46266(6) 0.93804(3) 0.0453 Uani
N1J N 0.5274(4) 0.1303(4) 0.5010(2) 0.0443 Uani
N1H N 0.3697(4) 0.5274(4) 0.5010(2) 0.0443 Uani
N1D N 0.8697(4) 0.0274(4) 0.4990(2) 0.0443 Uani
N1I N 0.9726(4) 0.3697(4) 0.5010(2) 0.0443 Uani
N2J N 0.5228(5) 0.2743(5) 0.45197(19) 0.0487 Uani
N2H N 0.2257(5) 0.5228(5) 0.45197(19) 0.0487 Uani
N2D N 0.7257(5) 0.0228(5) 0.54803(19) 0.0487 Uani
N2B N 0.4772(5) 0.7257(5) 0.54803(19) 0.0487 Uani
N3J N 0.4966(4) 0.1022(5) 0.45024(19) 0.0453 Uani
N3H N 0.3978(5) 0.4966(4) 0.45024(19) 0.0453 Uani
N3D N 0.8978(5) -0.0034(4) 0.54976(19) 0.0453 Uani
N3B N 0.5034(4) -0.1022(5) 0.54976(19) 0.0453 Uani
N3A N 0.9966(4) 0.6022(5) 0.54976(19) 0.0453 Uani
C1J C 0.4961(6) 0.1904(6) 0.4230(3) 0.0523 Uani
C1H C 0.3096(6) 0.4961(6) 0.4230(3) 0.0523 Uani
C1D C 0.8096(6) -0.0039(6) 0.5770(3) 0.0523 Uani
C2J C 0.5407(6) 0.2309(5) 0.4994(2) 0.0527 Uani
C2H C 0.2691(5) 0.5407(6) 0.4994(2) 0.0527 Uani
C2D C 0.7691(5) 0.0407(6) 0.5006(2) 0.0527 Uani
H1J H 0.5610 0.2701 0.5286 0.0630 Uiso
H1H H 0.2299 0.5610 0.5286 0.0630 Uiso
H1D H 0.7299 0.0610 0.4714 0.0630 Uiso
O1E O 0.8567(8) 0.4582(8) 0.1166(3) 0.1413 Uani
O1J O 0.5418(8) 0.1433(8) 0.6166(3) 0.1413 Uani
O1K O 0.5418(8) 0.3567(8) 0.8834(3) 0.1413 Uani
O1H O 0.3567(8) 0.5418(8) 0.6166(3) 0.1413 Uani
O1I O 0.9582(8) 0.3567(8) 0.6166(3) 0.1413 Uani
O2E O 0.9887(7) 0.4131(6) 0.1627(3) 0.1140 Uani
O2J O 0.5869(6) 0.0113(7) 0.6627(3) 0.1140 Uani
O2K O 0.5869(6) 0.4887(7) 0.8373(3) 0.1140 Uani
C3E C 0.8976(11) 0.4395(9) 0.1585(4) 0.0990 Uani
C3J C 0.5605(9) 0.1024(11) 0.6585(4) 0.0990 Uani
C3K C 0.5605(9) 0.3976(11) 0.8415(4) 0.0990 Uani
N4J N 0.467(3) 0.214(4) 0.3713(14) 0.1133 Uani
N4H N 0.286(4) 0.467(3) 0.3713(14) 0.1133 Uani
N4D N 0.786(4) -0.033(3) 0.6287(14) 0.1133 Uani
H2J H 0.4666 0.1635 0.3465 0.1380 Uiso
H2H H 0.3365 0.4666 0.3465 0.1380 Uiso
H2D H 0.8365 -0.0334 0.6535 0.1380 Uiso
H3J H 0.4493 0.2805 0.3628 0.1380 Uiso
H3H H 0.2195 0.4493 0.3628 0.1380 Uiso
H3D H 0.7195 -0.0507 0.6372 0.1380 Uiso
H4E H 0.8660 0.3715 0.2310 0.1740 Uiso
H4J H 0.6285 0.1340 0.7310 0.1740 Uiso
H4K H 0.6285 0.3660 0.7690 0.1740 Uiso
C5E C 0.7237(18) 0.423(3) 0.2022(7) 0.2083 Uani
C5J C 0.577(3) 0.2763(18) 0.7022(7) 0.2083 Uani
C5K C 0.577(3) 0.2237(18) 0.7978(7) 0.2083 Uani
C6E C 0.852(2) 0.409(3) 0.2510(11) 0.1433 Uani
C6J C 0.591(3) 0.148(2) 0.7510(11) 0.1433 Uani
C6K C 0.591(3) 0.352(2) 0.7490(11) 0.1433 Uani
H17E H 0.9263 0.4162 0.2574 0.2190 Uiso
H17J H 0.5838 0.0737 0.7574 0.2190 Uiso
H17K H 0.5838 0.4263 0.7426 0.2190 Uiso
C7E C 0.823(3) 0.465(5) 0.2014(16) 0.1530 Uani
C7J C 0.535(5) 0.177(3) 0.7014(16) 0.1530 Uani
C7K C 0.535(5) 0.323(3) 0.7986(16) 0.1530 Uani
C4? C 0.659(2) 0.432(5) 0.2884(12) 0.1457 Uani
H5? H 0.6446 0.4948 0.2677 0.1740 Uiso
H6? H 0.7931 0.4939 0.3072 0.3100 Uiso
H7? H 0.7996 0.3761 0.3251 0.3100 Uiso
H8? H 0.8130 0.7467 0.3881 0.3040 Uiso
H9? H 0.7500 0.7500 0.3436 0.3800 Uiso
N5? N 0.472(4) 0.186(3) 0.3707(11) 0.0727 Uani
H10? H 0.4522 0.2444 0.3535 0.0890 Uiso
H11? H 0.4775 0.1244 0.3534 0.0890 Uiso
O4? O 0.398(2) 0.177(2) 0.2539(15) 0.2020 Uiso
H12? H 0.3315 0.1756 0.2582 0.3030 Uiso
H13? H 0.4117 0.1855 0.2215 0.3030 Uiso
O5? O 0.7500 0.7500 0.408(5) 0.2300 Uiso
H14? H 0.7162 0.7970 0.3917 0.2770 Uiso
H15? H 0.7648 0.7722 0.4390 0.3460 Uiso
H16? H 0.6635 0.3375 0.2581 0.2190 Uiso
H18? H 0.7478 0.4445 0.3090 0.1860 Uiso
H19? H 0.6772 0.5404 0.2925 0.1860 Uiso
loop_
_atom_site_aniso_label
_atom_site_aniso_U_11
_atom_site_aniso_U_22
_atom_site_aniso_U_33
_atom_site_aniso_U_23
_atom_site_aniso_U_13
_atom_site_aniso_U_12
Zn1 0.0503(6) 0.0523(6) 0.0334(4) -0.0071(3) 0.0104(3) 0.0039(3)
N1 0.045 0.05 0.038 -0.011 0.011 -0.002
N2 0.046 0.06 0.04 -0.003 0.006 0
N3 0.047 0.056 0.033 -0.006 0.007 -0.001
C1 0.056 0.061 0.04 -0.001 0.012 0.004
C2 0.047 0.067 0.044 -0.009 0.011 -0.002
O1 0.157(8) 0.208(10) 0.059(4) -0.018(5) 0.051(5) -0.045(7)
O2 0.115(6) 0.117(6) 0.110(6) 0.030(4) 0.055(5) 0.026(5)
C3 0.115(10) 0.117(9) 0.065(7) -0.002(6) 0.049(7) -0.011(7)
N4 0.05 0.22 0.07 -0.078 0.022 0.034
C5 0.147(17) 0.40(4) 0.078(12) -0.033(17) 0.049(13) 0.01(2)
C6 0.07(2) 0.27(4) 0.09(2) -0.05(2) 0.063(17) -0.05(2)
C7 0.092(18) 0.30(4) 0.067(19) -0.022(18) 0.014(14) -0.05(2)
Zn1J 0.0523 0.0503 0.0334 -0.0104 -0.0071 -0.0039
Zn1H 0.0503 0.0523 0.0334 -0.0071 0.0104 0.0039
Zn1I 0.0523 0.0503 0.0334 0.0104 0.0071 -0.0039
Zn1E 0.0503 0.0523 0.0334 0.0071 0.0104 -0.0039
Zn1B 0.0523 0.0503 0.0334 -0.0104 -0.0071 -0.0039
Zn1A 0.0523 0.0503 0.0334 0.0104 0.0071 -0.0039
Zn1D 0.0503 0.0523 0.0334 0.0071 -0.0104 0.0039
Zn1L 0.0503 0.0523 0.0334 0.0071 -0.0104 0.0039
Zn1K 0.0523 0.0503 0.0334 -0.0104 0.0071 0.0039
N1J 0.050(4) 0.045(3) 0.038(3) -0.011(2) -0.011(2) 0.002(2)
N1H 0.045 0.05 0.038 -0.011 0.011 -0.002
N1D 0.045 0.05 0.038 0.011 -0.011 -0.002
N1I 0.05 0.045 0.038 0.011 0.011 0.002
N2J 0.060(4) 0.046(3) 0.040(3) -0.006(2) -0.003(3) 0.000(3)
N2H 0.046 0.06 0.04 -0.003 0.006 0
N2D 0.046 0.06 0.04 0.003 -0.006 0
N2B 0.06 0.046 0.04 -0.006 -0.003 0
N3J 0.056(4) 0.047(3) 0.033(3) -0.007(2) -0.006(2) 0.001(3)
N3H 0.047 0.056 0.033 -0.006 0.007 -0.001
N3D 0.047 0.056 0.033 0.006 -0.007 -0.001
N3B 0.056 0.047 0.033 -0.007 -0.006 0.001
N3A 0.056 0.047 0.033 0.007 0.006 0.001
C1J 0.061(5) 0.056(5) 0.040(3) -0.012(3) -0.001(3) -0.004(4)
C1H 0.056 0.061 0.04 -0.001 0.012 0.004
C1D 0.056 0.061 0.04 0.001 -0.012 0.004
C2J 0.067(5) 0.047(4) 0.044(4) -0.011(3) -0.009(3) 0.002(3)
C2H 0.047 0.067 0.044 -0.009 0.011 -0.002
C2D 0.047 0.067 0.044 0.009 -0.011 -0.002
O1E 0.157 0.208 0.059 0.018 0.051 0.045
O1J 0.208 0.157 0.059 -0.051 -0.018 0.045
O1K 0.208 0.157 0.059 -0.051 0.018 -0.045
O1H 0.157 0.208 0.059 -0.018 0.051 -0.045
O1I 0.208 0.157 0.059 0.051 0.018 0.045
O2E 0.115 0.117 0.11 -0.03 0.055 -0.026
O2J 0.117 0.115 0.11 -0.055 0.03 -0.026
O2K 0.117 0.115 0.11 -0.055 -0.03 0.026
C3E 0.115 0.117 0.065 0.002 0.049 0.011
C3J 0.117 0.115 0.065 -0.049 -0.002 0.011
C3K 0.117 0.115 0.065 -0.049 0.002 -0.011
N4J 0.22(3) 0.05(2) 0.070(14) -0.022(12) -0.078(17) -0.034(19)
N4H 0.05 0.22 0.07 -0.078 0.022 0.034
N4D 0.05 0.22 0.07 0.078 -0.022 0.034
C5E 0.147 0.4 0.078 0.033 0.049 -0.01
C5J 0.4 0.147 0.078 -0.049 -0.033 -0.01
C5K 0.4 0.147 0.078 -0.049 0.033 0.01
C6E 0.07 0.27 0.09 0.05 0.063 0.05
C6J 0.27 0.07 0.09 -0.063 -0.05 0.05
C6K 0.27 0.07 0.09 -0.063 0.05 -0.05
C7E 0.092 0.3 0.067 0.022 0.014 0.05
C7J 0.3 0.092 0.067 -0.014 -0.022 0.05
C7K 0.3 0.092 0.067 -0.014 0.022 -0.05
C4? 0.125(17) 0.28(3) 0.032(11) -0.054(14) 0.056(12) -0.06(2)
N5? 0.16(2) 0.031(14) 0.027(8) 0.006(8) -0.012(11) 0.002(12)
loop_
_geom_bond_atom_site_label_1
_geom_bond_atom_site_label_2
_geom_bond_site_symmetry_1
_geom_bond_site_symmetry_2
Zn1 N1 1_555 1_555
N1 N3 1_555 1_555
N2 C1 1_555 1_555
N3 C1 1_555 1_555
C1 N4 1_555 1_555
C2 N1 1_555 1_555
H1 C2 1_555 1_555
O1 Zn1 1_555 1_555
O2 C3 1_555 1_555
C3 O1 1_555 1_555
N4 H2 1_555 1_555
H3 N4 1_555 1_555
H4 C6 1_555 1_555
C5 C7 1_555 1_555
C6 H17 1_555 1_555
C7 C3 1_555 1_555
Zn1J N1J 1_555 1_555
Zn1H N3 1_555 1_555
Zn1I N2 1_555 1_555
Zn1E O1E 1_555 1_555
Zn1B N3J 1_555 1_555
Zn1A N2H 1_555 1_555
Zn1D N1D 1_555 1_555
Zn1L N3D 1_555 1_555
Zn1K O1K 1_555 1_555
N1J N3J 1_555 1_555
N1H Zn1H 1_555 1_555
N1D N3D 1_555 1_555
N1I Zn1I 1_555 1_555
N2J Zn1 1_555 1_555
N2H C1H 1_555 1_555
N2D Zn1J 1_555 1_555
N2B Zn1H 1_555 1_555
N3J C1J 1_555 1_555
N3H Zn1 1_555 1_555
N3D C1D 1_555 1_555
N3B Zn1J 1_555 1_555
N3A Zn1I 1_555 1_555
C1J N2J 1_555 1_555
C1H N3H 1_555 1_555
C1D N2D 1_555 1_555
C2J N1J 1_555 1_555
C2H N1H 1_555 1_555
C2D N1D 1_555 1_555
H1J C2J 1_555 1_555
H1H C2H 1_555 1_555
H1D C2D 1_555 1_555
O1E C3E 1_555 1_555
O1J Zn1J 1_555 1_555
O1K C3K 1_555 1_555
O1H Zn1H 1_555 1_555
O1I Zn1I 1_555 1_555
O2E C3E 1_555 1_555
O2J C3J 1_555 1_555
O2K C3K 1_555 1_555
C3E C7E 1_555 1_555
C3J O1J 1_555 1_555
C3K C7K 1_555 1_555
N4J C1J 1_555 1_555
N4H C1H 1_555 1_555
N4D C1D 1_555 1_555
H2J N4J 1_555 1_555
H2H N4H 1_555 1_555
H2D N4D 1_555 1_555
H3J N4J 1_555 1_555
H3H N4H 1_555 1_555
H3D N4D 1_555 1_555
H4E C6E 1_555 1_555
H4J C6J 1_555 1_555
H4K C6K 1_555 1_555
C5E C6 1_555 1_555
C5J C6K 1_555 1_555
C5K C6J 1_555 1_555
C6E C5 1_555 1_555
C6J H17J 1_555 1_555
C6K H17K 1_555 1_555
H17E C6E 1_555 1_555
C7E C5E 1_555 1_555
C7J C3J 1_555 1_555
C7K C5K 1_555 1_555
N2 C2 1_555 1_555
C6 C7 1_555 1_555
N1H N3H 1_555 1_555
N2J C2J 1_555 1_555
N2H C2H 1_555 1_555
N2D C2D 1_555 1_555
C5J C7J 1_555 1_555
C6E C7E 1_555 1_555
C6J C7J 1_555 1_555
C6K C7K 1_555 1_555

#END
