
#######################################################################
#
#                 Cambridge Crystallographic Data Centre
#                                CCDC 
#
#######################################################################
#
# If this CIF has been generated from an entry in the Cambridge 
# Structural Database, then it will include bibliographic, chemical, 
# crystal, experimental, refinement or atomic coordinate data resulting 
# from the CCDC's data processing and validation procedures.
#
#######################################################################

data_KOMHEA
_chemical_formula_moiety         '(C8 H10 N8 O4 Zn2)n'
_chemical_name_systematic        
catena-(bis(\m~3~-3-Amino-1,2,4-triazolato)-(\m~2~-succinato-O,O')-di-zinc(ii))
_symmetry_cell_setting           monoclinic
_symmetry_space_group_name_H-M   'C 2/c'
_symmetry_Int_Tables_number      15
_space_group_name_Hall           '-C 2yc'
loop_
_symmetry_equiv_pos_site_id
_symmetry_equiv_pos_as_xyz
1 x,y,z
2 1/2+x,1/2+y,z
3 -x,y,1/2-z
4 1/2-x,1/2+y,1/2-z
5 -x,-y,-z
6 1/2-x,1/2-y,-z
7 x,-y,1/2+z
8 1/2+x,1/2-y,1/2+z
_cell_length_a                   22.267(8)
_cell_length_b                   8.262(3)
_cell_length_c                   9.323(4)
_cell_angle_alpha                90
_cell_angle_beta                 111.271(6)
_cell_angle_gamma                90
_cell_volume                     1598.31
_exptl_crystal_colour            colorless
_exptl_crystal_description       platelet
_cell_formula_units_Z            4
loop_
_atom_site_label
_atom_site_type_symbol
_atom_site_fract_x
_atom_site_fract_y
_atom_site_fract_z
_atom_site_U_iso_or_equiv
_atom_site_thermal_displace_type
Zn1 Zn 0.17255(6) 0.23370(16) 0.03410(15) 0.0188 Uani
N1 N 0.1869(4) 0.1393(12) -0.1477(11) 0.0237 Uani
N2 N 0.2501(4) 0.1192(12) -0.1379(11) 0.0254 Uani
N3 N 0.1897(4) -0.0530(12) -0.3123(10) 0.0258 Uani
N4 N 0.0883(5) 0.0128(18) -0.2946(15) 0.0599 Uani
H1 H 0.0682 -0.0570 -0.3638 0.0720 Uiso
H2 H 0.0674 0.0710 -0.2519 0.0720 Uiso
O1 O 0.0486(5) 0.1872(15) -0.0698(11) 0.0439 Uani
O2 O 0.1084(4) 0.3969(13) 0.0292(13) 0.0542 Uani
C1 C 0.1526(5) 0.0312(14) -0.2532(12) 0.0244 Uani
C2 C 0.2483(5) 0.0073(15) -0.2375(12) 0.0308 Uani
H3 H 0.2847 -0.0276 -0.2550 0.0370 Uiso
C3 C 0.0536(6) 0.3274(18) -0.0256(16) 0.0358 Uani
C4 C -0.0045(7) 0.4173(19) -0.037(2) 0.0576 Uani
H4 H -0.0289 0.3518 0.0096 0.0690 Uiso
H5 H -0.0308 0.4294 -0.1448 0.0690 Uiso
Zn1E Zn 0.32745(6) 0.26630(16) -0.03410(15) 0.0188 Uani
Zn1F Zn 0.17255(6) -0.23370(16) -0.46590(15) 0.0188 Uani
Zn1D Zn -0.17255(6) 0.76630(16) -0.03410(15) 0.0188 Uani
Zn1C Zn 0.32745(6) 0.73370(16) 0.46590(15) 0.0188 Uani
N1E N 0.3131(4) 0.3607(12) 0.1477(11) 0.0237 Uani
N2E N 0.2499(4) 0.3808(12) 0.1379(11) 0.0254 Uani
N3E N 0.3103(4) 0.5530(12) 0.3123(10) 0.0258 Uani
N3F N 0.1897(4) 0.0530(12) 0.1877(10) 0.0258 Uani
N3C N 0.3103(4) 0.4470(12) -0.1877(10) 0.0258 Uani
N4E N 0.4117(5) 0.4872(18) 0.2946(15) 0.0599 Uani
H1E H 0.4318 0.5570 0.3638 0.0720 Uiso
H2E H 0.4326 0.4290 0.2519 0.0720 Uiso
O1D O -0.0486(5) 0.8128(15) 0.0698(11) 0.0439 Uani
O2D O -0.1084(4) 0.6031(13) -0.0292(13) 0.0542 Uani
O2E O 0.3916(4) 0.1031(13) -0.0292(13) 0.0542 Uani
C1E C 0.3474(5) 0.4688(14) 0.2532(12) 0.0244 Uani
C2E C 0.2517(5) 0.4927(15) 0.2375(12) 0.0308 Uani
H3E H 0.2153 0.5276 0.2550 0.0370 Uiso
C3D C -0.0536(6) 0.6726(18) 0.0256(16) 0.0358 Uani
C4D C 0.0045(7) 0.5827(19) 0.037(2) 0.0576 Uani
H4D H 0.0289 0.6482 -0.0096 0.0690 Uiso
H5D H 0.0308 0.5706 0.1448 0.0690 Uiso
loop_
_atom_site_aniso_label
_atom_site_aniso_U_11
_atom_site_aniso_U_22
_atom_site_aniso_U_33
_atom_site_aniso_U_23
_atom_site_aniso_U_13
_atom_site_aniso_U_12
Zn1 0.0172(11) 0.0200(11) 0.0210(12) -0.0003(4) 0.0092(7) 0.0020(4)
N1 0.02 0.02 0.031 -0.002 0.009 -0.001
N2 0.02 0.029 0.032 -0.002 0.015 0.002
N3 0.024 0.034 0.021 -0.009 0.01 0
N4 0.021 0.082 0.077 -0.054 0.018 -0.008
O1 0.056(6) 0.049(6) 0.029(5) 0.003(5) 0.018(4) 0.018(5)
O2 0.023(5) 0.047(7) 0.094(8) -0.002(6) 0.023(5) 0.016(4)
C1 0.022 0.031 0.019 -0.007 0.006 0.002
C2 0.024 0.044 0.029 -0.019 0.015 -0.001
C3 0.034(7) 0.036(8) 0.044(8) 0.004(6) 0.022(6) 0.016(6)
C4 0.026(7) 0.046(10) 0.095(13) -0.024(9) 0.015(7) -0.001(7)
Zn1E 0.0172 0.02 0.021 -0.0003 0.0092 0.002
Zn1F 0.0172 0.02 0.021 0.0003 0.0092 -0.002
Zn1D 0.0172 0.02 0.021 -0.0003 0.0092 0.002
Zn1C 0.0172 0.02 0.021 0.0003 0.0092 -0.002
N1E 0.02 0.02 0.031 -0.002 0.009 -0.001
N2E 0.02 0.029 0.032 -0.002 0.015 0.002
N3E 0.024 0.034 0.021 -0.009 0.01 0
N3F 0.024(5) 0.034(6) 0.021(5) 0.009(4) 0.010(4) 0.000(4)
N3C 0.024 0.034 0.021 0.009 0.01 0
N4E 0.021 0.082 0.077 -0.054 0.018 -0.008
O1D 0.056 0.049 0.029 0.003 0.018 0.018
O2D 0.023 0.047 0.094 -0.002 0.023 0.016
O2E 0.023 0.047 0.094 -0.002 0.023 0.016
C1E 0.022 0.031 0.019 -0.007 0.006 0.002
C2E 0.024 0.044 0.029 -0.019 0.015 -0.001
C3D 0.034 0.036 0.044 0.004 0.022 0.016
C4D 0.026 0.046 0.095 -0.024 0.015 -0.001
loop_
_geom_bond_atom_site_label_1
_geom_bond_atom_site_label_2
_geom_bond_site_symmetry_1
_geom_bond_site_symmetry_2
Zn1 N1 1_555 1_555
N1 N2 1_555 1_555
N2 C2 1_555 1_555
N3 C1 1_555 1_555
N4 H1 1_555 1_555
H2 N4 1_555 1_555
O1 C3 1_555 1_555
O2 Zn1 1_555 1_555
C1 N1 1_555 1_555
C2 N3 1_555 1_555
H3 C2 1_555 1_555
C3 O2 1_555 1_555
C4 C3 1_555 1_555
H4 C4 1_555 1_555
H5 C4 1_555 1_555
Zn1E N2 1_555 1_555
Zn1F N3 1_555 1_555
Zn1D O2D 1_555 1_555
Zn1C N3E 1_555 1_555
N1E Zn1E 1_555 1_555
N2E Zn1 1_555 1_555
N3E C1E 1_555 1_555
N3F Zn1 1_555 1_555
N3C Zn1E 1_555 1_555
N4E H1E 1_555 1_555
H2E N4E 1_555 1_555
O1D C3D 1_555 1_555
O2D C3D 1_555 1_555
O2E Zn1E 1_555 1_555
C1E N1E 1_555 1_555
C2E N2E 1_555 1_555
H3E C2E 1_555 1_555
C3D C4D 1_555 1_555
C4D C4 1_555 1_555
H4D C4D 1_555 1_555
H5D C4D 1_555 1_555
N4 C1 1_555 1_555
N1E N2E 1_555 1_555
N3E C2E 1_555 1_555
N4E C1E 1_555 1_555

#END
