
#######################################################################
#
#                 Cambridge Crystallographic Data Centre
#                                CCDC 
#
#######################################################################
#
# If this CIF has been generated from an entry in the Cambridge 
# Structural Database, then it will include bibliographic, chemical, 
# crystal, experimental, refinement or atomic coordinate data resulting 
# from the CCDC's data processing and validation procedures.
#
#######################################################################

data_AXUBOL
_chemical_formula_moiety         '(C120 H76 N12 Ni12 O52)n,8n(H2 O1)'
_chemical_name_systematic        
'catena-(hexakis(\m~4~-terephthalato)-dodecakis(\m~3~-isonicotinato)-tetrakis(\m~3~-hydroxo)-dodeca-nickel octahydrate)'
_symmetry_cell_setting           cubic
_symmetry_space_group_name_H-M   'I -4 3 m'
_symmetry_Int_Tables_number      217
_space_group_name_Hall           'I -4 2 3'
loop_
_symmetry_equiv_pos_site_id
_symmetry_equiv_pos_as_xyz
1 x,y,z
2 -x,-y,z
3 -x,y,-z
4 x,-y,-z
5 z,x,y
6 z,-x,-y
7 -z,-x,y
8 -z,x,-y
9 y,z,x
10 -y,z,-x
11 y,-z,-x
12 -y,-z,x
13 y,x,z
14 -y,-x,z
15 y,-x,-z
16 -y,x,-z
17 x,z,y
18 -x,z,-y
19 -x,-z,y
20 x,-z,-y
21 z,y,x
22 z,-y,-x
23 -z,y,-x
24 -z,-y,x
25 1/2+x,1/2+y,1/2+z
26 1/2-x,1/2-y,1/2+z
27 1/2-x,1/2+y,1/2-z
28 1/2+x,1/2-y,1/2-z
29 1/2+z,1/2+x,1/2+y
30 1/2+z,1/2-x,1/2-y
31 1/2-z,1/2-x,1/2+y
32 1/2-z,1/2+x,1/2-y
33 1/2+y,1/2+z,1/2+x
34 1/2-y,1/2+z,1/2-x
35 1/2+y,1/2-z,1/2-x
36 1/2-y,1/2-z,1/2+x
37 1/2+y,1/2+x,1/2+z
38 1/2-y,1/2-x,1/2+z
39 1/2+y,1/2-x,1/2-z
40 1/2-y,1/2+x,1/2-z
41 1/2+x,1/2+z,1/2+y
42 1/2-x,1/2+z,1/2-y
43 1/2-x,1/2-z,1/2+y
44 1/2+x,1/2-z,1/2-y
45 1/2+z,1/2+y,1/2+x
46 1/2+z,1/2-y,1/2-x
47 1/2-z,1/2+y,1/2-x
48 1/2-z,1/2-y,1/2+x
_cell_length_a                   21.6735(5)
_cell_length_b                   21.6735(5)
_cell_length_c                   21.6735(5)
_cell_angle_alpha                90
_cell_angle_beta                 90
_cell_angle_gamma                90
_cell_volume                     10180.9
_exptl_crystal_colour            green
_exptl_crystal_description       block
_cell_formula_units_Z            2
loop_
_atom_site_label
_atom_site_type_symbol
_atom_site_fract_x
_atom_site_fract_y
_atom_site_fract_z
O4 O 0.696(2) 0.304(2) 0.304(2)
O5 O 0.8386(17) 0.3559(13) 0.3559(13)
O6 O 0.904(3) 0.096(3) 0.061(4)
O6F O 0.939(4) 0.096(3) 0.096(3)
O6I O 0.904(3) 0.061(4) 0.096(3)
Ni1 Ni 0.88063(4) 0.23238(3) 0.23238(3)
N1 N 0.7692(2) 0.2308(2) 0.5371(2)
O1 O 0.8036(3) 0.1964(3) 0.1964(3)
H1 H 0.7770 0.2230 0.2230
O2 O 0.92365(19) 0.2422(3) 0.1486(2)
O3 O 0.84701(19) 0.2265(2) 0.32158(17)
C1 C 0.9055(3) 0.2446(4) 0.0945(3)
C2 C 0.9542(3) 0.2514(4) 0.0458(3)
C3 C 1.0154(7) 0.2612(13) 0.0617(7)
H2 H 1.0263 0.2680 0.1036
C4 C 0.8077(3) 0.1923(3) 0.3466(3)
C5 C 0.7983(3) 0.2017(3) 0.4151(3)
C6 C 0.8311(3) 0.2460(3) 0.4472(3)
H3 H 0.8645 0.2672 0.4283
C7 C 0.8142(3) 0.2589(3) 0.5078(3)
H4 H 0.8366 0.2898 0.5293
Ni1I Ni 0.76762(3) 0.23238(3) 0.11937(4)
Ni1H Ni 1.23238(3) 0.23238(3) -0.11937(4)
Ni1B Ni 1.11937(4) 0.23238(3) -0.23238(3)
Ni1F Ni 0.76762(3) 0.11937(4) 0.23238(3)
Ni1D Ni 1.23238(3) -0.11937(4) 0.23238(3)
Ni1A Ni 1.11937(4) -0.23238(3) 0.23238(3)
Ni1EA Ni 1.26762(3) 0.38063(4) 0.26762(3)
Ni1IA Ni 1.26762(3) 0.26762(3) 0.38063(4)
Ni1HA Ni 0.73238(3) 0.26762(3) 0.61937(4)
Ni1CA Ni 0.73238(3) 0.61937(4) 0.26762(3)
Ni1G Ni 0.76762(3) -0.11937(4) -0.23238(3)
Ni1AA Ni 0.38063(4) 0.26762(3) 0.26762(3)
Ni1BA Ni 0.73238(3) 0.38063(4) -0.26762(3)
Ni1Y Ni 0.61937(4) 0.26762(3) -0.26762(3)
Ni1K Ni 0.76762(3) -0.23238(3) -0.11937(4)
Ni1E Ni 1.23238(3) 0.11937(4) -0.23238(3)
Ni1Y_2 Ni 1.61937(4) 0.26762(3) -0.26762(3)
Ni1AA_2 Ni 1.38063(4) 0.26762(3) 0.26762(3)
Ni1J Ni 1.23238(3) -0.23238(3) 0.11937(4)
Ni1DA Ni 1.26762(3) 0.61937(4) -0.26762(3)
Ni1IA_2 Ni 1.26762(3) 0.26762(3) -0.61937(4)
Ni1HA_2 Ni 0.73238(3) 0.26762(3) -0.38063(4)
Ni1C Ni 0.88063(4) -0.23238(3) -0.23238(3)
Ni1FA Ni 0.73238(3) -0.26762(3) 0.38063(4)
Ni1Z Ni 0.61937(4) -0.26762(3) 0.26762(3)
Ni1Z_2 Ni 1.61937(4) -0.26762(3) 0.26762(3)
N1EA N 0.9629(2) 0.2692(2) 0.2692(2)
N1I N 0.7692(2) 0.5371(2) 0.2308(2)
N1F N 0.4629(2) 0.2308(2) 0.2308(2)
N1Y N 0.7308(2) 0.2692(2) 0.0371(2)
N1E N 1.5371(2) 0.2308(2) -0.2308(2)
N1AA N 1.2692(2) 0.2692(2) -0.0371(2)
N1H N 1.2308(2) 0.5371(2) -0.2308(2)
N1B N 1.2308(2) 0.2308(2) -0.5371(2)
N1BA N 1.0371(2) 0.2692(2) -0.2692(2)
N1FA N 0.7308(2) 0.0371(2) 0.2692(2)
N1D N 1.5371(2) -0.2308(2) 0.2308(2)
N1IA N 1.2692(2) -0.0371(2) 0.2692(2)
N1CA N 1.0371(2) -0.2692(2) 0.2692(2)
N1J N 1.2308(2) 0.4629(2) 0.2308(2)
N1B_2 N 1.2308(2) 0.2308(2) 0.4629(2)
N1HA N 0.7308(2) -0.0371(2) -0.2692(2)
O1B O 1.1964(3) 0.1964(3) -0.1964(3)
O1A O 1.1964(3) -0.1964(3) 0.1964(3)
O1AA O 1.3036(3) 0.3036(3) 0.3036(3)
O1Y O 0.6964(3) 0.3036(3) 0.6964(3)
O1Z O 0.6964(3) 0.6964(3) 0.3036(3)
O1C O 0.8036(3) -0.1964(3) -0.1964(3)
H1B H 1.2230 0.2230 -0.2230
H1A H 1.2230 -0.2230 0.2230
H1AA H 1.2770 0.2770 0.2770
H1Y H 0.7230 0.2770 0.7230
H1Z H 0.7230 0.7230 0.2770
H1C H 0.7770 -0.2230 -0.2230
O2V O 0.8514(2) 0.2422(3) 0.07635(19)
O2T O 1.1486(2) 0.2422(3) -0.07635(19)
O2B O 1.07635(19) 0.2422(3) -0.1486(2)
O2P O 0.92365(19) 0.1486(2) 0.2422(3)
O2F O 0.8514(2) 0.07635(19) 0.2422(3)
O2D O 1.1486(2) -0.07635(19) 0.2422(3)
O2R O 1.07635(19) -0.1486(2) 0.2422(3)
O2I O 0.7578(3) 0.1486(2) 0.07635(19)
O2M O 0.7578(3) 0.07635(19) 0.1486(2)
O2O O 0.7578(3) -0.07635(19) -0.1486(2)
O2K O 0.7578(3) -0.1486(2) -0.07635(19)
O2H O 1.2422(3) 0.1486(2) -0.07635(19)
O2N O 1.2422(3) 0.07635(19) -0.1486(2)
O2L O 1.2422(3) -0.07635(19) 0.1486(2)
O2J O 1.2422(3) -0.1486(2) 0.07635(19)
O2Q O 1.07635(19) 0.1486(2) -0.2422(3)
O2E O 1.1486(2) 0.07635(19) -0.2422(3)
O2G O 0.8514(2) -0.07635(19) -0.2422(3)
O2S O 0.92365(19) -0.1486(2) -0.2422(3)
O2A O 1.07635(19) -0.2422(3) 0.1486(2)
O2U O 1.1486(2) -0.2422(3) 0.07635(19)
O2W O 0.8514(2) -0.2422(3) -0.07635(19)
O2C O 0.92365(19) -0.2422(3) -0.1486(2)
O2EA O 1.3514(2) 0.42365(19) 0.2578(3)
O2MA O 1.2578(3) 0.42365(19) 0.3514(2)
O2UA O 1.3514(2) 0.2578(3) 0.42365(19)
O2IA O 1.2578(3) 0.3514(2) 0.42365(19)
O2HA O 0.7422(3) 0.3514(2) 0.57635(19)
O2SA O 0.6486(2) 0.2578(3) 0.57635(19)
O2LA O 0.7422(3) 0.57635(19) 0.3514(2)
O2CA O 0.6486(2) 0.57635(19) 0.2578(3)
O3M O 0.7735(2) 0.15299(19) 0.32158(17)
O3EA O 1.17842(17) 0.34701(19) 0.2735(2)
O3UA O 1.17842(17) 0.2735(2) 0.34701(19)
O3P O 0.84701(19) 0.32158(17) 0.2265(2)
O3I O 0.7735(2) 0.32158(17) 0.15299(19)
O3V O 0.67842(17) 0.2265(2) 0.15299(19)
O3F O 0.67842(17) 0.15299(19) 0.2265(2)
O3JA O 0.7265(2) 0.34701(19) -0.17842(17)
O3Y O 0.65299(19) 0.2735(2) -0.17842(17)
O3T O 1.32158(17) 0.2265(2) -0.15299(19)
O3E O 1.32158(17) 0.15299(19) -0.2265(2)
O3MA O 1.2735(2) 0.34701(19) 0.17842(17)
O3AA O 1.34701(19) 0.2735(2) 0.17842(17)
O3H O 1.2265(2) 0.32158(17) -0.15299(19)
O3Q O 1.15299(19) 0.32158(17) -0.2265(2)
O3B O 1.15299(19) 0.2265(2) -0.32158(17)
O3N O 1.2265(2) 0.15299(19) -0.32158(17)
O3BA O 0.82158(17) 0.34701(19) -0.2735(2)
O3SA O 0.82158(17) 0.2735(2) -0.34701(19)
O3FA O 0.7265(2) -0.17842(17) 0.34701(19)
O3OA O 0.65299(19) -0.17842(17) 0.2735(2)
O3D O 1.32158(17) -0.15299(19) 0.2265(2)
O3U O 1.32158(17) -0.2265(2) 0.15299(19)
O3L O 1.2265(2) -0.15299(19) 0.32158(17)
O3R O 1.15299(19) -0.32158(17) 0.2265(2)
O3A O 1.15299(19) -0.2265(2) 0.32158(17)
O3IA O 1.2735(2) 0.17842(17) 0.34701(19)
O3HA O 0.7265(2) 0.17842(17) 0.65299(19)
O3SA_2 O 0.82158(17) 0.2735(2) 0.65299(19)
O3LA O 0.7265(2) 0.65299(19) 0.17842(17)
O3CA O 0.82158(17) 0.65299(19) 0.2735(2)
O3O O 0.7735(2) -0.15299(19) -0.32158(17)
O3G O 0.67842(17) -0.15299(19) -0.2265(2)
C1B C 1.0945(3) 0.2446(4) -0.0945(3)
C1F C 0.9055(3) 0.0945(3) 0.2446(4)
C1D C 1.0945(3) -0.0945(3) 0.2446(4)
C1I C 0.7554(4) 0.0945(3) 0.0945(3)
C1K C 0.7554(4) -0.0945(3) -0.0945(3)
C1H C 1.2446(4) 0.0945(3) -0.0945(3)
C1J C 1.2446(4) -0.0945(3) 0.0945(3)
C1E C 1.0945(3) 0.0945(3) -0.2446(4)
C1G C 0.9055(3) -0.0945(3) -0.2446(4)
C1A C 1.0945(3) -0.2446(4) 0.0945(3)
C1C C 0.9055(3) -0.2446(4) -0.0945(3)
C2B C 1.0458(3) 0.2514(4) -0.0458(3)
C2F C 0.9542(3) 0.0458(3) 0.2514(4)
C2D C 1.0458(3) -0.0458(3) 0.2514(4)
C2I C 0.7486(4) 0.0458(3) 0.0458(3)
C2K C 0.7486(4) -0.0458(3) -0.0458(3)
C2H C 1.2514(4) 0.0458(3) -0.0458(3)
C2J C 1.2514(4) -0.0458(3) 0.0458(3)
C2E C 1.0458(3) 0.0458(3) -0.2514(4)
C2G C 0.9542(3) -0.0458(3) -0.2514(4)
C2A C 1.0458(3) -0.2514(4) 0.0458(3)
C2C C 0.9542(3) -0.2514(4) -0.0458(3)
C3T C 1.0617(7) 0.2612(13) 0.0154(7)
C3B C 0.9846(7) 0.2612(13) -0.0617(7)
C3V C 0.9383(7) 0.2612(13) -0.0154(7)
C3P C 1.0154(7) 0.0617(7) 0.2612(13)
C3D C 1.0617(7) 0.0154(7) 0.2612(13)
C3R C 0.9846(7) -0.0617(7) 0.2612(13)
C3F C 0.9383(7) -0.0154(7) 0.2612(13)
C3I C 0.7388(13) 0.0617(7) -0.0154(7)
C3O C 0.7388(13) 0.0154(7) -0.0617(7)
C3K C 0.7388(13) -0.0617(7) 0.0154(7)
C3M C 0.7388(13) -0.0154(7) 0.0617(7)
C3H C 1.2612(13) 0.0617(7) 0.0154(7)
C3L C 1.2612(13) 0.0154(7) 0.0617(7)
C3J C 1.2612(13) -0.0617(7) -0.0154(7)
C3N C 1.2612(13) -0.0154(7) -0.0617(7)
C3Q C 0.9846(7) 0.0617(7) -0.2612(13)
C3G C 0.9383(7) 0.0154(7) -0.2612(13)
C3S C 1.0154(7) -0.0617(7) -0.2612(13)
C3E C 1.0617(7) -0.0154(7) -0.2612(13)
C3A C 0.9846(7) -0.2612(13) 0.0617(7)
C3W C 0.9383(7) -0.2612(13) 0.0154(7)
C3C C 1.0154(7) -0.2612(13) -0.0617(7)
C3U C 1.0617(7) -0.2612(13) -0.0154(7)
H2B H 0.9737 0.2680 -0.1036
H2V H 0.8964 0.2680 -0.0263
H2T H 1.1036 0.2680 0.0263
H2P H 1.0263 0.1036 0.2680
H2R H 0.9737 -0.1036 0.2680
H2F H 0.8964 -0.0263 0.2680
H2D H 1.1036 0.0263 0.2680
H2I H 0.7320 0.1036 -0.0263
H2K H 0.7320 -0.1036 0.0263
H2M H 0.7320 -0.0263 0.1036
H2O H 0.7320 0.0263 -0.1036
H2H H 1.2680 0.1036 0.0263
H2J H 1.2680 -0.1036 -0.0263
H2N H 1.2680 -0.0263 -0.1036
H2L H 1.2680 0.0263 0.1036
H2Q H 0.9737 0.1036 -0.2680
H2S H 1.0263 -0.1036 -0.2680
H2E H 1.1036 -0.0263 -0.2680
H2G H 0.8964 0.0263 -0.2680
H2A H 0.9737 -0.2680 0.1036
H2C H 1.0263 -0.2680 -0.1036
H2U H 1.1036 -0.2680 -0.0263
H2W H 0.8964 -0.2680 0.0263
C4EA C 1.1534(3) 0.3077(3) 0.3077(3)
C4I C 0.8077(3) 0.3466(3) 0.1923(3)
C4F C 0.6534(3) 0.1923(3) 0.1923(3)
C4Y C 0.6923(3) 0.3077(3) -0.1534(3)
C4E C 1.3466(3) 0.1923(3) -0.1923(3)
C4AA C 1.3077(3) 0.3077(3) 0.1534(3)
C4H C 1.1923(3) 0.3466(3) -0.1923(3)
C4B C 1.1923(3) 0.1923(3) -0.3466(3)
C4BA C 0.8466(3) 0.3077(3) -0.3077(3)
C4FA C 0.6923(3) -0.1534(3) 0.3077(3)
C4D C 1.3466(3) -0.1923(3) 0.1923(3)
C5EA C 1.0849(3) 0.2983(3) 0.2983(3)
C5I C 0.7983(3) 0.4151(3) 0.2017(3)
C5F C 0.5849(3) 0.2017(3) 0.2017(3)
C5Y C 0.7017(3) 0.2983(3) -0.0849(3)
C5E C 1.4151(3) 0.2017(3) -0.2017(3)
C5AA C 1.2983(3) 0.2983(3) 0.0849(3)
C5H C 1.2017(3) 0.4151(3) -0.2017(3)
C5B C 1.2017(3) 0.2017(3) -0.4151(3)
C5BA C 0.9151(3) 0.2983(3) -0.2983(3)
C5FA C 0.7017(3) -0.0849(3) 0.2983(3)
C5D C 1.4151(3) -0.2017(3) 0.2017(3)
C6M C 0.7540(3) 0.1689(3) 0.4472(3)
C6EA C 1.0528(3) 0.3311(3) 0.2540(3)
C6UA C 1.0528(3) 0.2540(3) 0.3311(3)
C6P C 0.8311(3) 0.4472(3) 0.2460(3)
C6I C 0.7540(3) 0.4472(3) 0.1689(3)
C6V C 0.5528(3) 0.2460(3) 0.1689(3)
C6F C 0.5528(3) 0.1689(3) 0.2460(3)
C6JA C 0.7460(3) 0.3311(3) -0.0528(3)
C6Y C 0.6689(3) 0.2540(3) -0.0528(3)
C6T C 1.4472(3) 0.2460(3) -0.1689(3)
C6E C 1.4472(3) 0.1689(3) -0.2460(3)
C6MA C 1.2540(3) 0.3311(3) 0.0528(3)
C6AA C 1.3311(3) 0.2540(3) 0.0528(3)
C6H C 1.2460(3) 0.4472(3) -0.1689(3)
C6Q C 1.1689(3) 0.4472(3) -0.2460(3)
C6B C 1.1689(3) 0.2460(3) -0.4472(3)
C6N C 1.2460(3) 0.1689(3) -0.4472(3)
C6BA C 0.9472(3) 0.3311(3) -0.2540(3)
C6SA C 0.9472(3) 0.2540(3) -0.3311(3)
C6FA C 0.7460(3) -0.0528(3) 0.3311(3)
C6OA C 0.6689(3) -0.0528(3) 0.2540(3)
C6D C 1.4472(3) -0.1689(3) 0.2460(3)
C6U C 1.4472(3) -0.2460(3) 0.1689(3)
H3M H 0.7328 0.1355 0.4283
H3EA H 1.0717 0.3645 0.2328
H3UA H 1.0717 0.2328 0.3645
H3P H 0.8645 0.4283 0.2672
H3I H 0.7328 0.4283 0.1355
H3V H 0.5717 0.2672 0.1355
H3F H 0.5717 0.1355 0.2672
H3JA H 0.7672 0.3645 -0.0717
H3Y H 0.6355 0.2328 -0.0717
H3T H 1.4283 0.2672 -0.1355
H3E H 1.4283 0.1355 -0.2672
H3MA H 1.2328 0.3645 0.0717
H3AA H 1.3645 0.2328 0.0717
H3H H 1.2672 0.4283 -0.1355
H3Q H 1.1355 0.4283 -0.2672
H3B H 1.1355 0.2672 -0.4283
H3N H 1.2672 0.1355 -0.4283
H3BA H 0.9283 0.3645 -0.2328
H3SA H 0.9283 0.2328 -0.3645
H3FA H 0.7672 -0.0717 0.3645
H3OA H 0.6355 -0.0717 0.2328
H3D H 1.4283 -0.1355 0.2672
H3U H 1.4283 -0.2672 0.1355
C7M C 0.7411(3) 0.1858(3) 0.5078(3)
C7EA C 0.9922(3) 0.3142(3) 0.2411(3)
C7UA C 0.9922(3) 0.2411(3) 0.3142(3)
C7P C 0.8142(3) 0.5078(3) 0.2589(3)
C7I C 0.7411(3) 0.5078(3) 0.1858(3)
C7V C 0.4922(3) 0.2589(3) 0.1858(3)
C7F C 0.4922(3) 0.1858(3) 0.2589(3)
C7JA C 0.7589(3) 0.3142(3) 0.0078(3)
C7Y C 0.6858(3) 0.2411(3) 0.0078(3)
C7T C 1.5078(3) 0.2589(3) -0.1858(3)
C7E C 1.5078(3) 0.1858(3) -0.2589(3)
C7MA C 1.2411(3) 0.3142(3) -0.0078(3)
C7AA C 1.3142(3) 0.2411(3) -0.0078(3)
C7H C 1.2589(3) 0.5078(3) -0.1858(3)
C7Q C 1.1858(3) 0.5078(3) -0.2589(3)
C7B C 1.1858(3) 0.2589(3) -0.5078(3)
C7N C 1.2589(3) 0.1858(3) -0.5078(3)
C7BA C 1.0078(3) 0.3142(3) -0.2411(3)
C7SA C 1.0078(3) 0.2411(3) -0.3142(3)
C7FA C 0.7589(3) 0.0078(3) 0.3142(3)
C7OA C 0.6858(3) 0.0078(3) 0.2411(3)
C7D C 1.5078(3) -0.1858(3) 0.2589(3)
C7U C 1.5078(3) -0.2589(3) 0.1858(3)
H4M H 0.7102 0.1634 0.5293
H4EA H 0.9707 0.3366 0.2102
H4UA H 0.9707 0.2102 0.3366
H4P H 0.8366 0.5293 0.2898
H4I H 0.7102 0.5293 0.1634
H4V H 0.4707 0.2898 0.1634
H4F H 0.4707 0.1634 0.2898
H4JA H 0.7898 0.3366 0.0293
H4Y H 0.6634 0.2102 0.0293
H4T H 1.5293 0.2898 -0.1634
H4E H 1.5293 0.1634 -0.2898
H4MA H 1.2102 0.3366 -0.0293
H4AA H 1.3366 0.2102 -0.0293
H4H H 1.2898 0.5293 -0.1634
H4Q H 1.1634 0.5293 -0.2898
H4B H 1.1634 0.2898 -0.5293
H4N H 1.2898 0.1634 -0.5293
H4BA H 1.0293 0.3366 -0.2102
H4SA H 1.0293 0.2102 -0.3366
H4FA H 0.7898 0.0293 0.3366
H4OA H 0.6634 0.0293 0.2102
H4D H 1.5293 -0.1634 0.2898
H4U H 1.5293 -0.2898 0.1634
C8? C 1.0121(15) 0.224(2) 0.0601(14)
H5? H 1.0196 0.2065 0.0996
loop_
_geom_bond_atom_site_label_1
_geom_bond_atom_site_label_2
_geom_bond_site_symmetry_1
_geom_bond_site_symmetry_2
Ni1 O1 1_555 1_555
N1 C7 1_555 1_555
O1 H1 1_555 1_555
O2 Ni1 1_555 1_555
O3 Ni1 1_555 1_555
C1 O2 1_555 1_555
C2 C1 1_555 1_555
C3 C2 1_555 1_555
H2 C3 1_555 1_555
C4 O3 1_555 1_555
C5 C4 1_555 1_555
C6 C5 1_555 1_555
H3 C6 1_555 1_555
C7 C6 1_555 1_555
H4 C7 1_555 1_555
O6 O6F 1_555 1_555
Ni1I O1 1_555 1_555
Ni1H N1AA 1_555 1_555
Ni1B N1BA 1_555 1_555
Ni1F O1 1_555 1_555
Ni1D N1IA 1_555 1_555
Ni1A N1CA 1_555 1_555
Ni1EA N1J 1_555 1_555
Ni1IA N1B_2 1_555 1_555
Ni1HA N1 1_555 1_555
Ni1CA N1I 1_555 1_555
Ni1G N1HA 1_555 1_555
Ni1AA N1F 1_555 1_555
Ni1BA O3JA 1_555 1_555
Ni1Y O3Y 1_555 1_555
Ni1K O1C 1_555 1_555
Ni1E O1B 1_555 1_555
Ni1Y_2 N1E 1_555 1_555
Ni1AA_2 O1AA 1_555 1_555
Ni1J O1A 1_555 1_555
Ni1DA N1H 1_555 1_555
Ni1IA_2 N1B 1_555 1_555
Ni1HA_2 O3SA 1_555 1_555
Ni1C O1C 1_555 1_555
Ni1FA O3FA 1_555 1_555
Ni1Z O3OA 1_555 1_555
Ni1Z_2 N1D 1_555 1_555
N1EA Ni1 1_555 1_555
N1I C7P 1_555 1_555
N1F C7V 1_555 1_555
N1Y Ni1I 1_555 1_555
N1E C7T 1_555 1_555
N1AA C7MA 1_555 1_555
N1H C7H 1_555 1_555
N1B C7B 1_555 1_555
N1BA C7BA 1_555 1_555
N1FA Ni1F 1_555 1_555
N1D C7D 1_555 1_555
O1B Ni1H 1_555 1_555
O1A Ni1D 1_555 1_555
O1AA Ni1EA 1_555 1_555
O1Y Ni1HA 1_555 1_555
O1Z Ni1CA 1_555 1_555
O1C Ni1G 1_555 1_555
H1B O1B 1_555 1_555
H1A O1A 1_555 1_555
H1AA O1AA 1_555 1_555
H1Y O1Y 1_555 1_555
H1Z O1Z 1_555 1_555
H1C O1C 1_555 1_555
O2V C1 1_555 1_555
O2T Ni1H 1_555 1_555
O2B Ni1B 1_555 1_555
O2P Ni1 1_555 1_555
O2F Ni1F 1_555 1_555
O2D Ni1D 1_555 1_555
O2R Ni1A 1_555 1_555
O2I Ni1I 1_555 1_555
O2M Ni1F 1_555 1_555
O2O Ni1G 1_555 1_555
O2K Ni1K 1_555 1_555
O2H Ni1H 1_555 1_555
O2N Ni1E 1_555 1_555
O2L Ni1D 1_555 1_555
O2J Ni1J 1_555 1_555
O2Q Ni1B 1_555 1_555
O2E Ni1E 1_555 1_555
O2G Ni1G 1_555 1_555
O2S Ni1C 1_555 1_555
O2A Ni1A 1_555 1_555
O2U Ni1J 1_555 1_555
O2W Ni1K 1_555 1_555
O2C Ni1C 1_555 1_555
O2EA Ni1EA 1_555 1_555
O2MA Ni1EA 1_555 1_555
O2UA Ni1IA 1_555 1_555
O2IA Ni1IA 1_555 1_555
O2HA Ni1HA 1_555 1_555
O2SA Ni1HA 1_555 1_555
O2LA Ni1CA 1_555 1_555
O2CA Ni1CA 1_555 1_555
O3M C4 1_555 1_555
O3EA Ni1EA 1_555 1_555
O3UA Ni1IA 1_555 1_555
O3P Ni1 1_555 1_555
O3I Ni1I 1_555 1_555
O3V Ni1I 1_555 1_555
O3F Ni1F 1_555 1_555
O3JA C4Y 1_555 1_555
O3Y C4Y 1_555 1_555
O3T Ni1H 1_555 1_555
O3E Ni1E 1_555 1_555
O3MA Ni1EA 1_555 1_555
O3AA Ni1AA_2 1_555 1_555
O3H Ni1H 1_555 1_555
O3Q Ni1B 1_555 1_555
O3B Ni1B 1_555 1_555
O3N Ni1E 1_555 1_555
O3BA Ni1BA 1_555 1_555
O3SA C4BA 1_555 1_555
O3FA C4FA 1_555 1_555
O3OA C4FA 1_555 1_555
O3D Ni1D 1_555 1_555
O3U Ni1J 1_555 1_555
O3L Ni1D 1_555 1_555
O3R Ni1A 1_555 1_555
O3A Ni1A 1_555 1_555
O3IA Ni1IA 1_555 1_555
O3HA Ni1HA 1_555 1_555
O3SA_2 Ni1HA 1_555 1_555
O3LA Ni1CA 1_555 1_555
O3CA Ni1CA 1_555 1_555
O3O Ni1G 1_555 1_555
O3G Ni1G 1_555 1_555
C1B O2T 1_555 1_555
C1F O2P 1_555 1_555
C1D O2D 1_555 1_555
C1I O2I 1_555 1_555
C1K O2O 1_555 1_555
C1H O2H 1_555 1_555
C1J O2L 1_555 1_555
C1E O2Q 1_555 1_555
C1G O2G 1_555 1_555
C1A O2A 1_555 1_555
C1C O2W 1_555 1_555
C2B C1B 1_555 1_555
C2F C1F 1_555 1_555
C2D C1D 1_555 1_555
C2I C1I 1_555 1_555
C2K C1K 1_555 1_555
C2H C1H 1_555 1_555
C2J C1J 1_555 1_555
C2E C1E 1_555 1_555
C2G C1G 1_555 1_555
C2A C1A 1_555 1_555
C2C C1C 1_555 1_555
C3T C3 1_555 1_555
C3B C2B 1_555 1_555
C3V C2 1_555 1_555
C3P C2F 1_555 1_555
C3D C2D 1_555 1_555
C3R C2D 1_555 1_555
C3F C2F 1_555 1_555
C3I C2I 1_555 1_555
C3O C2K 1_555 1_555
C3K C2K 1_555 1_555
C3M C2I 1_555 1_555
C3H C2H 1_555 1_555
C3L C2J 1_555 1_555
C3J C2J 1_555 1_555
C3N C2H 1_555 1_555
C3Q C2E 1_555 1_555
C3G C2G 1_555 1_555
C3S C2G 1_555 1_555
C3E C2E 1_555 1_555
C3A C2A 1_555 1_555
C3W C2C 1_555 1_555
C3C C2C 1_555 1_555
C3U C2A 1_555 1_555
H2B C3B 1_555 1_555
H2V C3V 1_555 1_555
H2T C3T 1_555 1_555
H2P C3P 1_555 1_555
H2R C3R 1_555 1_555
H2F C3F 1_555 1_555
H2D C3D 1_555 1_555
H2I C3I 1_555 1_555
H2K C3K 1_555 1_555
H2M C3M 1_555 1_555
H2O C3O 1_555 1_555
H2H C3H 1_555 1_555
H2J C3J 1_555 1_555
H2N C3N 1_555 1_555
H2L C3L 1_555 1_555
H2Q C3Q 1_555 1_555
H2S C3S 1_555 1_555
H2E C3E 1_555 1_555
H2G C3G 1_555 1_555
H2A C3A 1_555 1_555
H2C C3C 1_555 1_555
H2U C3U 1_555 1_555
H2W C3W 1_555 1_555
C4EA O3EA 1_555 1_555
C4I O3P 1_555 1_555
C4F O3V 1_555 1_555
C4Y C5Y 1_555 1_555
C4E O3T 1_555 1_555
C4AA O3MA 1_555 1_555
C4H O3H 1_555 1_555
C4B O3B 1_555 1_555
C4BA O3BA 1_555 1_555
C4FA C5FA 1_555 1_555
C4D O3D 1_555 1_555
C5EA C4EA 1_555 1_555
C5I C4I 1_555 1_555
C5F C4F 1_555 1_555
C5Y C6JA 1_555 1_555
C5E C4E 1_555 1_555
C5AA C4AA 1_555 1_555
C5H C4H 1_555 1_555
C5B C4B 1_555 1_555
C5BA C4BA 1_555 1_555
C5FA C6FA 1_555 1_555
C5D C4D 1_555 1_555
C6M C5 1_555 1_555
C6EA C5EA 1_555 1_555
C6UA C5EA 1_555 1_555
C6P C5I 1_555 1_555
C6I C5I 1_555 1_555
C6V C5F 1_555 1_555
C6F C5F 1_555 1_555
C6JA H3JA 1_555 1_555
C6Y C5Y 1_555 1_555
C6T C5E 1_555 1_555
C6E C5E 1_555 1_555
C6MA C5AA 1_555 1_555
C6AA C5AA 1_555 1_555
C6H C5H 1_555 1_555
C6Q C5H 1_555 1_555
C6B C5B 1_555 1_555
C6N C5B 1_555 1_555
C6BA C5BA 1_555 1_555
C6SA C5BA 1_555 1_555
C6FA H3FA 1_555 1_555
C6OA C5FA 1_555 1_555
C6D C5D 1_555 1_555
C6U C5D 1_555 1_555
H3M C6M 1_555 1_555
H3EA C6EA 1_555 1_555
H3UA C6UA 1_555 1_555
H3P C6P 1_555 1_555
H3I C6I 1_555 1_555
H3V C6V 1_555 1_555
H3F C6F 1_555 1_555
H3Y C6Y 1_555 1_555
H3T C6T 1_555 1_555
H3E C6E 1_555 1_555
H3MA C6MA 1_555 1_555
H3AA C6AA 1_555 1_555
H3H C6H 1_555 1_555
H3Q C6Q 1_555 1_555
H3B C6B 1_555 1_555
H3N C6N 1_555 1_555
H3BA C6BA 1_555 1_555
H3SA C6SA 1_555 1_555
H3OA C6OA 1_555 1_555
H3D C6D 1_555 1_555
H3U C6U 1_555 1_555
C7M N1 1_555 1_555
C7EA N1EA 1_555 1_555
C7UA N1EA 1_555 1_555
C7P C6P 1_555 1_555
C7I N1I 1_555 1_555
C7V C6V 1_555 1_555
C7F N1F 1_555 1_555
C7JA N1Y 1_555 1_555
C7Y N1Y 1_555 1_555
C7T C6T 1_555 1_555
C7E N1E 1_555 1_555
C7MA C6MA 1_555 1_555
C7AA N1AA 1_555 1_555
C7H C6H 1_555 1_555
C7Q N1H 1_555 1_555
C7B C6B 1_555 1_555
C7N N1B 1_555 1_555
C7BA C6BA 1_555 1_555
C7SA N1BA 1_555 1_555
C7FA N1FA 1_555 1_555
C7OA N1FA 1_555 1_555
C7D C6D 1_555 1_555
C7U N1D 1_555 1_555
H4M C7M 1_555 1_555
H4EA C7EA 1_555 1_555
H4UA C7UA 1_555 1_555
H4P C7P 1_555 1_555
H4I C7I 1_555 1_555
H4V C7V 1_555 1_555
H4F C7F 1_555 1_555
H4JA C7JA 1_555 1_555
H4Y C7Y 1_555 1_555
H4T C7T 1_555 1_555
H4E C7E 1_555 1_555
H4MA C7MA 1_555 1_555
H4AA C7AA 1_555 1_555
H4H C7H 1_555 1_555
H4Q C7Q 1_555 1_555
H4B C7B 1_555 1_555
H4N C7N 1_555 1_555
H4BA C7BA 1_555 1_555
H4SA C7SA 1_555 1_555
H4FA C7FA 1_555 1_555
H4OA C7OA 1_555 1_555
H4D C7D 1_555 1_555
H4U C7U 1_555 1_555
O6F O6I 1_555 1_555
O6I O6 1_555 1_555
Ni1I O2V 1_555 1_555
Ni1B O1B 1_555 1_555
Ni1F O3M 1_555 1_555
Ni1A O1A 1_555 1_555
Ni1IA O1AA 1_555 1_555
O2B C1B 1_555 1_555
O2F C1F 1_555 1_555
O2R C1D 1_555 1_555
O2M C1I 1_555 1_555
O2K C1K 1_555 1_555
O2N C1H 1_555 1_555
O2J C1J 1_555 1_555
O2E C1E 1_555 1_555
O2S C1G 1_555 1_555
O2U C1A 1_555 1_555
O2C C1C 1_555 1_555
O3UA C4EA 1_555 1_555
O3I C4I 1_555 1_555
O3F C4F 1_555 1_555
O3E C4E 1_555 1_555
O3AA C4AA 1_555 1_555
O3Q C4H 1_555 1_555
O3N C4B 1_555 1_555
O3U C4D 1_555 1_555
C2B C3T 1_555 1_555
C3B C3V 1_555 1_555
C3P C3D 1_555 1_555
C3R C3F 1_555 1_555
C3I C3O 1_555 1_555
C3K C3M 1_555 1_555
C3H C3L 1_555 1_555
C3J C3N 1_555 1_555
C3Q C3G 1_555 1_555
C3S C3E 1_555 1_555
C3A C3W 1_555 1_555
C3C C3U 1_555 1_555
C6M C7M 1_555 1_555
C6EA C7EA 1_555 1_555
C6UA C7UA 1_555 1_555
C6I C7I 1_555 1_555
C6F C7F 1_555 1_555
C6JA C7JA 1_555 1_555
C6Y C7Y 1_555 1_555
C6E C7E 1_555 1_555
C6AA C7AA 1_555 1_555
C6Q C7Q 1_555 1_555
C6N C7N 1_555 1_555
C6SA C7SA 1_555 1_555
C6FA C7FA 1_555 1_555
C6OA C7OA 1_555 1_555
C6U C7U 1_555 1_555

#END
