
#######################################################################
#
#                 Cambridge Crystallographic Data Centre
#                                CCDC 
#
#######################################################################
#
# If this CIF has been generated from an entry in the Cambridge 
# Structural Database, then it will include bibliographic, chemical, 
# crystal, experimental, refinement or atomic coordinate data resulting 
# from the CCDC's data processing and validation procedures.
#
#######################################################################

data_CUYWUP
_chemical_name_common            'Teaching Subset: MOFs'
_chemical_formula_moiety         '(C33 H28 Cu2 O14)n,2n(C4 H9 N1 O1)'
_chemical_name_systematic        
'catena-((\m~8~-tetrakis((4-carboxylatophenyl)oxymethyl)methane)-di-copper(ii) dimethylacetamide solvate)'
_symmetry_cell_setting           orthorhombic
_symmetry_space_group_name_H-M   'P n n a'
_symmetry_Int_Tables_number      52
_space_group_name_Hall           '-P 2a 2bc'
loop_
_symmetry_equiv_pos_site_id
_symmetry_equiv_pos_as_xyz
1 x,y,z
2 1/2-x,-y,z
3 1/2-x,1/2+y,1/2-z
4 x,1/2-y,1/2-z
5 -x,-y,-z
6 1/2+x,y,-z
7 1/2+x,1/2-y,1/2+z
8 -x,1/2+y,1/2+z
_cell_length_a                   27.353(4)
_cell_length_b                   17.844(3)
_cell_length_c                   10.6753(17)
_cell_angle_alpha                90
_cell_angle_beta                 90
_cell_angle_gamma                90
_cell_volume                     5210.47
_exptl_crystal_colour            blue
_exptl_crystal_description       rectangular
_cell_formula_units_Z            4
loop_
_atom_site_label
_atom_site_type_symbol
_atom_site_fract_x
_atom_site_fract_y
_atom_site_fract_z
_atom_site_U_iso_or_equiv
_atom_site_thermal_displace_type
C1 C 0.53240(10) 0.94725(15) -0.2983(3) 0.0388 Uani
C2 C 0.55345(9) 0.91404(15) -0.1810(3) 0.0390 Uani
C3 C 0.57409(11) 0.84554(18) -0.1837(3) 0.0494 Uani
H1 H 0.5755 0.8199 -0.2594 0.0590 Uiso
C4 C 0.59360(11) 0.81153(16) -0.0762(3) 0.0418 Uani
H2 H 0.6062 0.7632 -0.0795 0.0500 Uiso
C5 C 0.59366(10) 0.85206(16) 0.0361(2) 0.0388 Uani
C6 C 0.57310(11) 0.92150(17) 0.0398(3) 0.0439 Uani
H3 H 0.5728 0.9481 0.1147 0.0530 Uiso
C7 C 0.55230(11) 0.95347(17) -0.0681(3) 0.0421 Uani
H4 H 0.5379 1.0006 -0.0643 0.0510 Uiso
C8 C 0.64271(9) 0.76015(15) 0.1338(2) 0.0354 Uani
H5 H 0.6638 0.7643 0.0612 0.0430 Uiso
H6 H 0.6219 0.7167 0.1224 0.0430 Uiso
C9 C 0.67347(11) 0.7500 0.2500 0.0310 Uani
C10 C 0.70461(9) 0.81901(15) 0.2685(3) 0.0396 Uani
H7 H 0.7234 0.8297 0.1935 0.0480 Uiso
H8 H 0.6843 0.8621 0.2877 0.0480 Uiso
C11 C 0.78012(10) 0.84097(15) 0.3836(3) 0.0420 Uani
C12 C 0.81217(10) 0.81246(17) 0.4690(3) 0.0462 Uani
H9 H 0.8034 0.7709 0.5165 0.0550 Uiso
C13 C 0.85677(10) 0.84416(16) 0.4853(3) 0.0435 Uani
H10 H 0.8798 0.8203 0.5356 0.0520 Uiso
C14 C 0.86834(9) 0.91008(16) 0.4294(2) 0.0385 Uani
C15 C 0.83391(10) 0.94365(16) 0.3491(3) 0.0446 Uani
H11 H 0.8408 0.9898 0.3128 0.0530 Uiso
C16 C 0.79055(10) 0.90896(17) 0.3242(3) 0.0441 Uani
H12 H 0.7683 0.9302 0.2687 0.0530 Uiso
C17 C 0.91707(11) 0.94615(15) 0.4524(3) 0.0416 Uani
Cu1 Cu 0.486780(12) 1.060205(17) -0.43887(3) 0.0347 Uani
O1 O 0.51326(6) 1.01030(11) -0.28977(18) 0.0414 Uani
O2 O 0.53665(7) 0.90940(10) -0.39577(18) 0.0404 Uani
O3 O 0.61306(6) 0.82613(10) 0.14407(16) 0.0368 Uani
O4 O 0.73689(7) 0.80203(10) 0.37252(18) 0.0434 Uani
O5 O 0.92428(6) 1.01023(10) 0.40622(17) 0.0356 Uani
O6 O 0.94672(6) 0.90910(10) 0.51603(17) 0.0357 Uani
O7 O 0.46992(6) 1.16459(11) -0.34320(17) 0.0377 Uani
H13 H 0.4804 1.2061 -0.3938 0.0450 Uiso
H14 H 0.4866 1.1660 -0.2641 0.0450 Uiso
C1C C 0.53240(10) 0.55275(15) 0.7983(3) 0.0388 Uani
C2C C 0.55345(9) 0.58596(15) 0.6810(3) 0.0390 Uani
C3C C 0.57409(11) 0.65446(18) 0.6837(3) 0.0494 Uani
H1C H 0.5755 0.6801 0.7594 0.0590 Uiso
C4C C 0.59360(11) 0.68847(16) 0.5762(3) 0.0418 Uani
H2C H 0.6062 0.7368 0.5795 0.0500 Uiso
C5C C 0.59366(10) 0.64794(16) 0.4639(2) 0.0388 Uani
C6C C 0.57310(11) 0.57850(17) 0.4602(3) 0.0439 Uani
H3C H 0.5728 0.5519 0.3853 0.0530 Uiso
C7C C 0.55230(11) 0.54653(17) 0.5681(3) 0.0421 Uani
H4C H 0.5379 0.4994 0.5643 0.0510 Uiso
C8C C 0.64271(9) 0.73985(15) 0.3662(2) 0.0354 Uani
H5C H 0.6638 0.7357 0.4388 0.0430 Uiso
H6C H 0.6219 0.7833 0.3776 0.0430 Uiso
C10C C 0.70461(9) 0.68099(15) 0.2315(3) 0.0396 Uani
H7C H 0.7234 0.6703 0.3065 0.0480 Uiso
H8C H 0.6843 0.6379 0.2123 0.0480 Uiso
C11C C 0.78012(10) 0.65903(15) 0.1164(3) 0.0420 Uani
C12C C 0.81217(10) 0.68754(17) 0.0310(3) 0.0462 Uani
H9C H 0.8034 0.7291 -0.0165 0.0550 Uiso
C13C C 0.85677(10) 0.65584(16) 0.0147(3) 0.0435 Uani
H10C H 0.8798 0.6797 -0.0356 0.0520 Uiso
C14C C 0.86834(9) 0.58992(16) 0.0706(2) 0.0385 Uani
C15C C 0.83391(10) 0.55635(16) 0.1509(3) 0.0446 Uani
H11C H 0.8408 0.5102 0.1872 0.0530 Uiso
C16C C 0.79055(10) 0.59104(17) 0.1758(3) 0.0441 Uani
H12C H 0.7683 0.5698 0.2313 0.0530 Uiso
C17C C 0.91707(11) 0.55385(15) 0.0476(3) 0.0416 Uani
Cu1C Cu 0.486780(12) 0.439795(17) 0.93887(3) 0.0347 Uani
Cu1D Cu 0.513220(12) 0.939795(17) -0.56113(3) 0.0347 Uani
Cu1E Cu 0.986780(12) 1.060205(17) 0.43887(3) 0.0347 Uani
Cu1A Cu 1.013220(12) 0.939795(17) 0.56113(3) 0.0347 Uani
Cu1G Cu 0.513220(12) 0.560205(17) 1.06113(3) 0.0347 Uani
Cu1F Cu 0.986780(12) 0.439795(17) 0.06113(3) 0.0347 Uani
Cu1B Cu 1.013220(12) 0.560205(17) -0.06113(3) 0.0347 Uani
O1C O 0.51326(6) 0.48970(11) 0.78977(18) 0.0414 Uani
O2C O 0.53665(7) 0.59060(10) 0.89577(18) 0.0404 Uani
O2D O 0.46335(7) 1.09060(10) -0.60423(18) 0.0404 Uani
O2G O 0.46335(7) 0.40940(10) 1.10423(18) 0.0404 Uani
O3C O 0.61306(6) 0.67387(10) 0.35593(16) 0.0368 Uani
O4C O 0.73689(7) 0.69797(10) 0.12748(18) 0.0434 Uani
O5C O 0.92428(6) 0.48977(10) 0.09378(17) 0.0356 Uani
O5E O 0.42428(6) 1.01023(10) -0.40622(17) 0.0356 Uani
O5F O 0.42428(6) 0.48977(10) 0.90622(17) 0.0356 Uani
O6C O 0.94672(6) 0.59090(10) -0.01603(17) 0.0357 Uani
O6A O 0.55328(6) 1.09090(10) -0.48397(17) 0.0357 Uani
O6B O 0.55328(6) 0.40910(10) 0.98397(17) 0.0357 Uani
O7C O 0.46992(6) 0.33541(11) 0.84320(17) 0.0377 Uani
H13C H 0.4804 0.2939 0.8938 0.0450 Uiso
H14C H 0.4866 0.3340 0.7641 0.0450 Uiso
C18 C 0.88296(11) 0.89305(16) -0.0996(3) 0.0472 Uani
H15 H 0.9100 0.9140 -0.1448 0.0570 Uiso
H16 H 0.8632 0.9328 -0.0662 0.0570 Uiso
H17 H 0.8636 0.8629 -0.1552 0.0570 Uiso
C19 C 0.87045(11) 0.83349(18) 0.1219(3) 0.0501 Uani
H18 H 0.8651 0.7809 0.1353 0.0750 Uiso
H19 H 0.8396 0.8581 0.1094 0.0750 Uiso
H20 H 0.8865 0.8545 0.1937 0.0750 Uiso
C20 C 0.94862(11) 0.80505(17) -0.0041(3) 0.0498 Uani
C21 C 0.96220(11) 0.74589(18) 0.0922(3) 0.0504 Uani
H21 H 0.9350 0.7377 0.1476 0.0610 Uiso
H22 H 0.9899 0.7627 0.1398 0.0610 Uiso
H23 H 0.9702 0.6999 0.0503 0.0610 Uiso
N1 N 0.90210(9) 0.84432(14) 0.0076(2) 0.0503 Uani
O8 O 0.97963(7) 0.82635(12) -0.08181(19) 0.0474 Uani
loop_
_atom_site_aniso_label
_atom_site_aniso_U_11
_atom_site_aniso_U_22
_atom_site_aniso_U_33
_atom_site_aniso_U_23
_atom_site_aniso_U_13
_atom_site_aniso_U_12
C1 0.0349(13) 0.0431(15) 0.0383(15) 0.0014(12) -0.0044(12) 0.0010(11)
C2 0.0356(13) 0.0389(14) 0.0424(15) 0.0084(12) -0.0071(11) 0.0012(11)
C3 0.0533(16) 0.0551(18) 0.0399(15) -0.0057(13) -0.0156(13) 0.0151(14)
C4 0.0479(15) 0.0376(14) 0.0398(15) 0.0000(11) -0.0137(12) 0.0116(12)
C5 0.0360(13) 0.0475(16) 0.0328(13) 0.0059(11) -0.0046(11) 0.0123(12)
C6 0.0494(16) 0.0460(16) 0.0364(14) 0.0023(12) 0.0044(13) 0.0073(13)
C7 0.0423(15) 0.0443(16) 0.0398(15) 0.0021(12) 0.0017(12) 0.0107(12)
C8 0.0318(12) 0.0422(14) 0.0323(14) 0.0121(11) 0.0025(10) 0.0077(11)
C9 0.0161(14) 0.0394(19) 0.0376(19) 0.0105(15) 0.000 0.000
C10 0.0338(12) 0.0409(14) 0.0440(15) 0.0124(12) -0.0126(11) -0.0157(11)
C11 0.0390(13) 0.0405(15) 0.0464(16) 0.0119(12) -0.0122(12) -0.0179(12)
C12 0.0420(15) 0.0486(17) 0.0480(17) 0.0162(13) -0.0148(13) -0.0064(13)
C13 0.0407(14) 0.0486(16) 0.0412(15) 0.0119(12) -0.0173(12) -0.0134(12)
C14 0.0329(13) 0.0425(15) 0.0401(15) 0.0040(11) -0.0088(11) -0.0039(11)
C15 0.0393(14) 0.0488(17) 0.0456(16) 0.0037(13) -0.0173(13) -0.0106(12)
C16 0.0368(14) 0.0538(17) 0.0416(15) 0.0147(13) -0.0152(12) -0.0141(13)
C17 0.0415(15) 0.0318(14) 0.0514(17) -0.0032(12) -0.0096(13) -0.0044(11)
Cu1 0.0386(2) 0.03223(19) 0.03324(19) 0.00272(12) 0.00033(13) -0.00030(12)
O1 0.0422(10) 0.0420(11) 0.0399(10) 0.0074(8) -0.0013(8) 0.0120(8)
O2 0.0455(10) 0.0401(10) 0.0357(10) 0.0009(8) -0.0112(9) 0.0070(9)
O3 0.0353(9) 0.0444(10) 0.0308(9) 0.0000(8) -0.0038(7) 0.0166(8)
O4 0.0435(10) 0.0411(10) 0.0457(11) 0.0144(9) -0.0134(9) -0.0152(8)
O5 0.0372(9) 0.0348(10) 0.0349(9) 0.0030(7) -0.0001(8) -0.0016(8)
O6 0.0397(9) 0.0326(9) 0.0348(9) 0.0016(7) -0.0020(8) -0.0026(8)
O7 0.0307(8) 0.0480(11) 0.0343(9) -0.0100(8) 0.0091(7) 0.0058(8)
C1C 0.0349 0.0431 0.0383 0.0014 0.0044 -0.001
C2C 0.0356 0.0389 0.0424 0.0084 0.0071 -0.0012
C3C 0.0533 0.0551 0.0399 -0.0057 0.0156 -0.0151
C4C 0.0479 0.0376 0.0398 0 0.0137 -0.0116
C5C 0.036 0.0475 0.0328 0.0059 0.0046 -0.0123
C6C 0.0494 0.046 0.0364 0.0023 -0.0044 -0.0073
C7C 0.0423 0.0443 0.0398 0.0021 -0.0017 -0.0107
C8C 0.0318 0.0422 0.0323 0.0121 -0.0025 -0.0077
C10C 0.0338 0.0409 0.044 0.0124 0.0126 0.0157
C11C 0.039 0.0405 0.0464 0.0119 0.0122 0.0179
C12C 0.042 0.0486 0.048 0.0162 0.0148 0.0064
C13C 0.0407 0.0486 0.0412 0.0119 0.0173 0.0134
C14C 0.0329 0.0425 0.0401 0.004 0.0088 0.0039
C15C 0.0393 0.0488 0.0456 0.0037 0.0173 0.0106
C16C 0.0368 0.0538 0.0416 0.0147 0.0152 0.0141
C17C 0.0415 0.0318 0.0514 -0.0032 0.0096 0.0044
Cu1C 0.0386 0.03223 0.03324 0.00272 -0.00033 0.0003
Cu1D 0.0386 0.03223 0.03324 0.00272 0.00033 -0.0003
Cu1E 0.0386 0.03223 0.03324 -0.00272 -0.00033 -0.0003
Cu1A 0.0386 0.03223 0.03324 -0.00272 -0.00033 -0.0003
Cu1G 0.0386 0.03223 0.03324 0.00272 -0.00033 0.0003
Cu1F 0.0386 0.03223 0.03324 -0.00272 0.00033 0.0003
Cu1B 0.0386 0.03223 0.03324 -0.00272 0.00033 0.0003
O1C 0.0422 0.042 0.0399 0.0074 0.0013 -0.012
O2C 0.0455 0.0401 0.0357 0.0009 0.0112 -0.007
O2D 0.0455 0.0401 0.0357 0.0009 -0.0112 0.007
O2G 0.0455 0.0401 0.0357 0.0009 0.0112 -0.007
O3C 0.0353 0.0444 0.0308 0 0.0038 -0.0166
O4C 0.0435 0.0411 0.0457 0.0144 0.0134 0.0152
O5C 0.0372 0.0348 0.0349 0.003 0.0001 0.0016
O5E 0.0372 0.0348 0.0349 -0.003 0.0001 -0.0016
O5F 0.0372 0.0348 0.0349 -0.003 -0.0001 0.0016
O6C 0.0397 0.0326 0.0348 0.0016 0.002 0.0026
O6A 0.0397 0.0326 0.0348 -0.0016 0.002 -0.0026
O6B 0.0397 0.0326 0.0348 -0.0016 -0.002 0.0026
O7C 0.0307 0.048 0.0343 -0.01 -0.0091 -0.0058
C18 0.0502(16) 0.0448(16) 0.0465(16) 0.0156(13) -0.0167(14) -0.0168(13)
C19 0.0450(15) 0.0559(18) 0.0493(17) -0.0157(14) -0.0153(14) 0.0112(14)
C20 0.0510(16) 0.0459(17) 0.0525(18) -0.0130(14) 0.0115(15) 0.0070(14)
C21 0.0494(16) 0.0541(17) 0.0478(17) 0.0126(14) -0.0172(14) -0.0088(15)
N1 0.0508(14) 0.0507(14) 0.0495(15) -0.0181(12) 0.0131(12) -0.0182(12)
O8 0.0455(11) 0.0495(12) 0.0471(12) 0.0133(9) 0.0115(9) 0.0188(9)
loop_
_geom_bond_atom_site_label_1
_geom_bond_atom_site_label_2
_geom_bond_site_symmetry_1
_geom_bond_site_symmetry_2
C1 C2 1_555 1_555
C2 C3 1_555 1_555
C3 H1 1_555 1_555
C4 C3 1_555 1_555
H2 C4 1_555 1_555
C5 C4 1_555 1_555
C6 C5 1_555 1_555
H3 C6 1_555 1_555
C7 C2 1_555 1_555
H4 C7 1_555 1_555
C8 H5 1_555 1_555
H6 C8 1_555 1_555
C9 C8 1_555 1_555
C10 C9 1_555 1_555
H7 C10 1_555 1_555
H8 C10 1_555 1_555
C11 C12 1_555 1_555
C12 H9 1_555 1_555
C13 C12 1_555 1_555
H10 C13 1_555 1_555
C14 C13 1_555 1_555
C15 C14 1_555 1_555
H11 C15 1_555 1_555
C16 C11 1_555 1_555
H12 C16 1_555 1_555
C17 C14 1_555 1_555
Cu1 O1 1_555 1_555
O1 C1 1_555 1_555
O2 C1 1_555 1_555
O3 C5 1_555 1_555
O4 C10 1_555 1_555
O5 C17 1_555 1_555
O6 C17 1_555 1_555
O7 Cu1 1_555 1_555
H13 O7 1_555 1_555
H14 O7 1_555 1_555
C18 H15 1_555 1_555
H16 C18 1_555 1_555
H17 C18 1_555 1_555
C19 H18 1_555 1_555
H19 C19 1_555 1_555
H20 C19 1_555 1_555
C20 C21 1_555 1_555
C21 H21 1_555 1_555
H22 C21 1_555 1_555
H23 C21 1_555 1_555
N1 C18 1_555 1_555
O8 C20 1_555 1_555
C1C C2C 1_555 1_555
C2C C3C 1_555 1_555
C3C H1C 1_555 1_555
C4C C3C 1_555 1_555
H2C C4C 1_555 1_555
C5C C4C 1_555 1_555
C6C C5C 1_555 1_555
H3C C6C 1_555 1_555
C7C C2C 1_555 1_555
H4C C7C 1_555 1_555
C8C C9 1_555 1_555
H5C C8C 1_555 1_555
H6C C8C 1_555 1_555
C10C C9 1_555 1_555
H7C C10C 1_555 1_555
H8C C10C 1_555 1_555
C11C C12C 1_555 1_555
C12C H9C 1_555 1_555
C13C C12C 1_555 1_555
H10C C13C 1_555 1_555
C14C C13C 1_555 1_555
C15C C14C 1_555 1_555
H11C C15C 1_555 1_555
C16C C11C 1_555 1_555
H12C C16C 1_555 1_555
C17C C14C 1_555 1_555
Cu1C O1C 1_555 1_555
Cu1D O2 1_555 1_555
Cu1E O5 1_555 1_555
Cu1A O6 1_555 1_555
Cu1G O2C 1_555 1_555
Cu1F O5C 1_555 1_555
Cu1B O6C 1_555 1_555
O1C C1C 1_555 1_555
O2C C1C 1_555 1_555
O2D Cu1 1_555 1_555
O2G Cu1C 1_555 1_555
O3C C5C 1_555 1_555
O4C C10C 1_555 1_555
O5C C17C 1_555 1_555
O5E Cu1 1_555 1_555
O5F Cu1C 1_555 1_555
O6C C17C 1_555 1_555
O6A Cu1 1_555 1_555
O6B Cu1C 1_555 1_555
O7C Cu1C 1_555 1_555
H13C O7C 1_555 1_555
H14C O7C 1_555 1_555
C6 C7 1_555 1_555
C8 O3 1_555 1_555
C11 O4 1_555 1_555
C15 C16 1_555 1_555
C19 N1 1_555 1_555
C20 N1 1_555 1_555
C6C C7C 1_555 1_555
C8C O3C 1_555 1_555
C11C O4C 1_555 1_555
C15C C16C 1_555 1_555

#END
