
#######################################################################
#
#                 Cambridge Crystallographic Data Centre
#                                CCDC 
#
#######################################################################
#
# If this CIF has been generated from an entry in the Cambridge 
# Structural Database, then it will include bibliographic, chemical, 
# crystal, experimental, refinement or atomic coordinate data resulting 
# from the CCDC's data processing and validation procedures.
#
#######################################################################

data_QEBKUF
_chemical_formula_moiety         
'(C243 H148 O56 Zn12)n,45n(C3 H7 N1 O1),44n(H2 O1)'
_chemical_name_systematic        
"catena-(bis(\m~14~-5',5'',5''',5''''-Methanetetrayl-tetrakis(1,1':3',1''-terphenyl-4,4''-dicarboxylato))-(\m~12~-5',5'',5''',5''''-methanetetrayl-tetrakis(4''-carboxy-1,1':3',1''-terphenyl-4-carboxylato))-tetrakis(\m~3~-hydroxo)-tetraaqua-dodeca-zinc N,N-dimethylformamide solvate tetratetracontahydrate)"
_symmetry_cell_setting           tetragonal
_symmetry_space_group_name_H-M   'I -4 2 d'
_symmetry_Int_Tables_number      122
_space_group_name_Hall           'I -4 2bw'
loop_
_symmetry_equiv_pos_site_id
_symmetry_equiv_pos_as_xyz
1 x,y,z
2 -x,-y,z
3 y,-x,-z
4 -y,x,-z
5 1/2-x,y,3/4-z
6 1/2+x,-y,3/4-z
7 1/2-y,-x,3/4+z
8 1/2+y,x,3/4+z
9 1/2+x,1/2+y,1/2+z
10 1/2-x,1/2-y,1/2+z
11 1/2+y,1/2-x,1/2-z
12 1/2-y,1/2+x,1/2-z
13 -x,1/2+y,1/4-z
14 x,1/2-y,1/4-z
15 -y,1/2-x,1/4+z
16 y,1/2+x,1/4+z
_cell_length_a                   36.3615(3)
_cell_length_b                   36.3615(3)
_cell_length_c                   34.7679(6)
_cell_angle_alpha                90
_cell_angle_beta                 90
_cell_angle_gamma                90
_cell_volume                     45968.7
_cell_formula_units_Z            4
loop_
_atom_site_label
_atom_site_type_symbol
_atom_site_fract_x
_atom_site_fract_y
_atom_site_fract_z
C1 C 0.06819(6) -0.11535(6) 0.45461(4)
C2 C 0.06828(6) -0.13221(6) 0.49049(5)
H1 H 0.0629 -0.1186 0.5124
C3 C 0.07647(7) -0.16943(6) 0.49361(5)
H2 H 0.0765 -0.1807 0.5176
C4 C 0.08458(8) -0.18979(6) 0.46085(6)
C5 C 0.08449(7) -0.17293(5) 0.42497(5)
H3 H 0.0899 -0.1866 0.4031
C6 C 0.07630(6) -0.13571(5) 0.42185(5)
H4 H 0.0762 -0.1244 0.3978
C7 C 0.06607(5) -0.01851(5) 0.41694(4)
C8 C 0.04264(6) -0.00115(6) 0.44279(4)
H5 H 0.0369 0.0236 0.4396
C9 C 0.02778(6) -0.02076(6) 0.47340(4)
C10 C 0.03636(5) -0.05774(6) 0.47815(4)
H6 H 0.0264 -0.0709 0.4986
C11 C 0.05979(5) -0.07510(6) 0.45231(4)
C12 C 0.07464(5) -0.05549(5) 0.42170(4)
H7 H 0.0903 -0.0671 0.4044
C13 C 0.10440(5) 0.04361(4) 0.31988(4)
C14 C 0.10195(6) 0.06022(5) 0.35579(4)
H8 H 0.1077 0.0850 0.3586
C15 C 0.09092(6) 0.03981(5) 0.38755(4)
H9 H 0.0893 0.0509 0.4116
C16 C 0.08234(5) 0.00277(5) 0.38341(4)
C17 C 0.08479(4) -0.01386(5) 0.34750(4)
H10 H 0.0790 -0.0386 0.3447
C18 C 0.09581(4) 0.00656(4) 0.31574(4)
H11 H 0.0974 -0.0046 0.2917
C19 C 0.07330(4) -0.31169(4) 0.25101(4)
C20 C 0.10847(4) -0.30882(4) 0.26638(4)
H12 H 0.1283 -0.3037 0.2504
C21 C 0.11394(4) -0.31357(4) 0.30564(4)
H13 H 0.1375 -0.3116 0.3159
C22 C 0.08424(4) -0.32118(4) 0.32952(4)
C23 C 0.04908(4) -0.32405(4) 0.31414(4)
H14 H 0.0292 -0.3291 0.3301
C24 C 0.04360(4) -0.31930(4) 0.27489(4)
H15 H 0.0201 -0.3212 0.2646
C25 C 0.08605(5) -0.27542(5) 0.14901(4)
C26 C 0.09137(4) -0.28176(5) 0.18804(4)
H16 H 0.1106 -0.2703 0.2009
C27 C 0.06787(4) -0.30522(5) 0.20785(4)
C28 C 0.03905(5) -0.32234(5) 0.18862(4)
H17 H 0.0233 -0.3380 0.2019
C29 C 0.03374(6) -0.31601(6) 0.14959(4)
C30 C 0.05724(6) -0.29254(6) 0.12978(4)
H18 H 0.0537 -0.2883 0.1037
C31 C 0.19031(6) -0.22721(5) 0.19442(5)
C32 C 0.18592(6) -0.18961(6) 0.20000(5)
H19 H 0.2019 -0.1769 0.2162
C33 C 0.15768(5) -0.17095(7) 0.18142(5)
C34 C 0.13382(5) -0.18989(6) 0.15727(5)
H20 H 0.1149 -0.1774 0.1448
C35 C 0.13821(5) -0.22749(5) 0.15169(4)
C36 C 0.16646(5) -0.24615(5) 0.17026(4)
H21 H 0.1694 -0.2713 0.1665
Zn1 Zn 0.13903(2) 0.05767(2) 0.19671(2)
Zn2 Zn 0.13728(2) 0.13152(2) 0.24951(2)
Zn3 Zn 0.20476(3) 0.12318(3) 0.18793(3)
C37 C 0.1123 -0.2500(2) 0.1250
C38 C 0.0024(2) -0.33270(18) 0.12810(19)
C39 C 0.0906(2) -0.3234(3) 0.3729(2)
C40 C 0.0000 0.0000 0.5000
C41 C 0.1144(2) 0.0657(3) 0.2835(3)
C42 C 0.1512(3) -0.0520(2) 0.19002(18)
C43 C 0.1239(3) -0.0703(2) 0.1801(3)
H22 H 0.1021 -0.0580 0.1747
C44 C 0.1538(3) -0.1292(2) 0.1855(3)
C45 C 0.1847(3) -0.1074(2) 0.1933(3)
H23 H 0.2076 -0.1182 0.1969
C46 C 0.1807(3) -0.0702(2) 0.1956(3)
H24 H 0.2016 -0.0567 0.2018
C47 C 0.1473(3) -0.0111(3) 0.1936(3)
C48 C -0.0584(2) -0.3631(2) 0.0893(2)
C49 C -0.04800(19) -0.3275(2) 0.0840(2)
H25 H -0.0615 -0.3128 0.0673
C50 C -0.01760(19) -0.3126(2) 0.1030(2)
H26 H -0.0109 -0.2883 0.0982
C51 C -0.0104(2) -0.3681(2) 0.1356(2)
H27 H 0.0010 -0.3819 0.1548
C52 C -0.0392(2) -0.3833(2) 0.1155(2)
H28 H -0.0457 -0.4077 0.1199
C53 C -0.0887(2) -0.3792(2) 0.0687(2)
C54 C 0.2645(2) -0.2555(2) 0.2646(2)
H29 H 0.2726 -0.2487 0.2890
C55 C 0.2832(2) -0.2828(2) 0.2448(2)
C56 C 0.3157(2) -0.3015(2) 0.2604(3)
C57 C 0.2224(2) -0.24690(19) 0.2120(2)
C58 C 0.24040(19) -0.2736(2) 0.1927(2)
H30 H 0.2324 -0.2804 0.1684
C59 C 0.2708(2) -0.2912(2) 0.2088(2)
H31 H 0.2830 -0.3090 0.1946
C60 C 0.23460(19) -0.2382(2) 0.2496(2)
H32 H 0.2222 -0.2207 0.2640
O1 O 0.1006(2) 0.16870(17) 0.2777(2)
H33 H 0.0890 0.1577 0.2943
O2 O 0.11308(14) 0.05060(13) 0.25295(14)
O3 O 0.12559(15) 0.09704(14) 0.29092(13)
O4 O 0.17284(11) 0.09426(10) 0.22105(11)
O5 O 0.11918(19) 0.00506(13) 0.18258(17)
O6 O 0.17397(19) 0.00652(15) 0.20782(18)
O7 O -0.09596(12) -0.41285(13) 0.07366(12)
O8 O -0.10736(12) -0.35936(12) 0.04664(13)
O9 O 0.32671(13) -0.29194(12) 0.29350(14)
O10 O 0.33056(14) -0.32526(13) 0.24003(14)
O11 O 0.06287(14) -0.33413(13) 0.39180(12)
O12 O 0.12021(13) -0.31468(13) 0.38561(12)
C61 C 0.1246(3) -0.1111(2) 0.1767(3)
H34 H 0.1039 -0.1236 0.1681
O13 O 0.10582(14) -0.24543(17) 0.43506(18)
C62 C 0.0939(3) -0.2295(3) 0.4644(3)
O14 O 0.0845(3) -0.2470(4) 0.4931(3)
H35 H 0.0915 -0.2684 0.4911
C1A C -0.06819(6) 0.11535(6) 0.45461(4)
C1C C 0.11535(6) 0.06819(6) 0.54539(4)
C1B C -0.11535(6) -0.06819(6) 0.54539(4)
C2A C -0.06828(6) 0.13221(6) 0.49049(5)
C2C C 0.13221(6) 0.06828(6) 0.50951(5)
C2B C -0.13221(6) -0.06828(6) 0.50951(5)
H1A H -0.0629 0.1186 0.5124
H1C H 0.1186 0.0629 0.4876
H1B H -0.1186 -0.0629 0.4876
C3A C -0.07647(7) 0.16943(6) 0.49361(5)
C3C C 0.16943(6) 0.07647(7) 0.50639(5)
C3B C -0.16943(6) -0.07647(7) 0.50639(5)
H2A H -0.0765 0.1807 0.5176
H2C H 0.1807 0.0765 0.4824
H2B H -0.1807 -0.0765 0.4824
C4A C -0.08458(8) 0.18979(6) 0.46085(6)
C4C C 0.18979(6) 0.08458(8) 0.53915(6)
C4B C -0.18979(6) -0.08458(8) 0.53915(6)
C5A C -0.08449(7) 0.17293(5) 0.42497(5)
C5C C 0.17293(5) 0.08449(7) 0.57503(5)
C5B C -0.17293(5) -0.08449(7) 0.57503(5)
H3A H -0.0899 0.1866 0.4031
H3C H 0.1866 0.0899 0.5969
H3B H -0.1866 -0.0899 0.5969
C6A C -0.07630(6) 0.13571(5) 0.42185(5)
C6C C 0.13571(5) 0.07630(6) 0.57815(5)
C6B C -0.13571(5) -0.07630(6) 0.57815(5)
H4A H -0.0762 0.1244 0.3978
H4C H 0.1244 0.0762 0.6022
H4B H -0.1244 -0.0762 0.6022
C7A C -0.06607(5) 0.01851(5) 0.41694(4)
C7C C 0.01851(5) 0.06607(5) 0.58306(4)
C7B C -0.01851(5) -0.06607(5) 0.58306(4)
C8A C -0.04264(6) 0.00115(6) 0.44279(4)
C8C C 0.00115(6) 0.04264(6) 0.55721(4)
C8B C -0.00115(6) -0.04264(6) 0.55721(4)
H5A H -0.0369 -0.0236 0.4396
H5C H -0.0236 0.0369 0.5604
H5B H 0.0236 -0.0369 0.5604
C9A C -0.02778(6) 0.02076(6) 0.47340(4)
C9C C 0.02076(6) 0.02778(6) 0.52660(4)
C9B C -0.02076(6) -0.02778(6) 0.52660(4)
C10A C -0.03636(5) 0.05774(6) 0.47815(4)
C10C C 0.05774(6) 0.03636(5) 0.52185(4)
C10B C -0.05774(6) -0.03636(5) 0.52185(4)
H6A H -0.0264 0.0709 0.4986
H6C H 0.0709 0.0264 0.5014
H6B H -0.0709 -0.0264 0.5014
C11A C -0.05979(5) 0.07510(6) 0.45231(4)
C11C C 0.07510(6) 0.05979(5) 0.54769(4)
C11B C -0.07510(6) -0.05979(5) 0.54769(4)
C12A C -0.07464(5) 0.05549(5) 0.42170(4)
C12C C 0.05549(5) 0.07464(5) 0.57830(4)
C12B C -0.05549(5) -0.07464(5) 0.57830(4)
H7A H -0.0903 0.0671 0.4044
H7C H 0.0671 0.0903 0.5956
H7B H -0.0671 -0.0903 0.5956
C13A C -0.10440(5) -0.04361(4) 0.31988(4)
C13C C -0.04361(4) 0.10440(5) 0.68012(4)
C13B C 0.04361(4) -0.10440(5) 0.68012(4)
C14A C -0.10195(6) -0.06022(5) 0.35579(4)
C14C C -0.06022(5) 0.10195(6) 0.64421(4)
C14B C 0.06022(5) -0.10195(6) 0.64421(4)
H8A H -0.1077 -0.0850 0.3586
H8C H -0.0850 0.1077 0.6414
H8B H 0.0850 -0.1077 0.6414
C15A C -0.09092(6) -0.03981(5) 0.38755(4)
C15C C -0.03981(5) 0.09092(6) 0.61245(4)
C15B C 0.03981(5) -0.09092(6) 0.61245(4)
H9A H -0.0893 -0.0509 0.4116
H9C H -0.0509 0.0893 0.5884
H9B H 0.0509 -0.0893 0.5884
C16A C -0.08234(5) -0.00277(5) 0.38341(4)
C16C C -0.00277(5) 0.08234(5) 0.61659(4)
C16B C 0.00277(5) -0.08234(5) 0.61659(4)
C17A C -0.08479(4) 0.01386(5) 0.34750(4)
C17C C 0.01386(5) 0.08479(4) 0.65250(4)
C17B C -0.01386(5) -0.08479(4) 0.65250(4)
H10A H -0.0790 0.0386 0.3447
H10C H 0.0386 0.0790 0.6553
H10B H -0.0386 -0.0790 0.6553
C18A C -0.09581(4) -0.00656(4) 0.31574(4)
C18C C -0.00656(4) 0.09581(4) 0.68426(4)
C18B C 0.00656(4) -0.09581(4) 0.68426(4)
H11A H -0.0974 0.0046 0.2917
H11C H 0.0046 0.0974 0.7083
H11B H -0.0046 -0.0974 0.7083
C19M C 0.07330(4) -0.18831(4) -0.00101(4)
C19L C -0.07330(4) 0.18831(4) -0.00101(4)
C19A C -0.07330(4) 0.31169(4) 0.25101(4)
C20M C 0.10847(4) -0.19118(4) -0.01638(4)
C20L C -0.10847(4) 0.19118(4) -0.01638(4)
C20A C -0.10847(4) 0.30882(4) 0.26638(4)
H12M H 0.1283 -0.1963 -0.0004
H12L H -0.1283 0.1963 -0.0004
H12A H -0.1283 0.3037 0.2504
C21M C 0.11394(4) -0.18643(4) -0.05564(4)
C21L C -0.11394(4) 0.18643(4) -0.05564(4)
C21A C -0.11394(4) 0.31357(4) 0.30564(4)
H13M H 0.1375 -0.1884 -0.0659
H13L H -0.1375 0.1884 -0.0659
H13A H -0.1375 0.3116 0.3159
C22M C 0.08424(4) -0.17882(4) -0.07952(4)
C22L C -0.08424(4) 0.17882(4) -0.07952(4)
C22A C -0.08424(4) 0.32118(4) 0.32952(4)
C23M C 0.04908(4) -0.17595(4) -0.06414(4)
C23L C -0.04908(4) 0.17595(4) -0.06414(4)
C23A C -0.04908(4) 0.32405(4) 0.31414(4)
H14M H 0.0292 -0.1709 -0.0801
H14L H -0.0292 0.1709 -0.0801
H14A H -0.0292 0.3291 0.3301
C24M C 0.04360(4) -0.18070(4) -0.02489(4)
C24L C -0.04360(4) 0.18070(4) -0.02489(4)
C24A C -0.04360(4) 0.31930(4) 0.27489(4)
H15M H 0.0201 -0.1788 -0.0146
H15L H -0.0201 0.1788 -0.0146
H15A H -0.0201 0.3212 0.2646
C25M C 0.08605(5) -0.22458(5) 0.10099(4)
C25L C -0.08605(5) 0.22458(5) 0.10099(4)
C25A C -0.08605(5) 0.27542(5) 0.14901(4)
C26M C 0.09137(4) -0.21824(5) 0.06196(4)
C26L C -0.09137(4) 0.21824(5) 0.06196(4)
C26A C -0.09137(4) 0.28176(5) 0.18804(4)
H16M H 0.1106 -0.2297 0.0491
H16L H -0.1106 0.2297 0.0491
H16A H -0.1106 0.2703 0.2009
C27M C 0.06787(4) -0.19478(5) 0.04215(4)
C27L C -0.06787(4) 0.19478(5) 0.04215(4)
C27A C -0.06787(4) 0.30522(5) 0.20785(4)
C28M C 0.03905(5) -0.17766(5) 0.06138(4)
C28L C -0.03905(5) 0.17766(5) 0.06138(4)
C28A C -0.03905(5) 0.32234(5) 0.18862(4)
H17M H 0.0233 -0.1620 0.0481
H17L H -0.0233 0.1620 0.0481
H17A H -0.0233 0.3380 0.2019
C29M C 0.03374(6) -0.18399(6) 0.10041(4)
C29L C -0.03374(6) 0.18399(6) 0.10041(4)
C29A C -0.03374(6) 0.31601(6) 0.14959(4)
C30M C 0.05724(6) -0.20746(6) 0.12022(4)
C30L C -0.05724(6) 0.20746(6) 0.12022(4)
C30A C -0.05724(6) 0.29254(6) 0.12978(4)
H18M H 0.0537 -0.2117 0.1463
H18L H -0.0537 0.2117 0.1463
H18A H -0.0537 0.2883 0.1037
C31M C 0.19031(6) -0.27279(5) 0.05558(5)
C31L C -0.19031(6) 0.27279(5) 0.05558(5)
C31A C -0.19031(6) 0.22721(5) 0.19442(5)
C32M C 0.18592(6) -0.31039(6) 0.05000(5)
C32L C -0.18592(6) 0.31039(6) 0.05000(5)
C32A C -0.18592(6) 0.18961(6) 0.20000(5)
H19M H 0.2019 -0.3231 0.0338
H19L H -0.2019 0.3231 0.0338
H19A H -0.2019 0.1769 0.2162
C33M C 0.15768(5) -0.32905(7) 0.06858(5)
C33L C -0.15768(5) 0.32905(7) 0.06858(5)
C33A C -0.15768(5) 0.17095(7) 0.18142(5)
C34M C 0.13382(5) -0.31011(6) 0.09273(5)
C34L C -0.13382(5) 0.31011(6) 0.09273(5)
C34A C -0.13382(5) 0.18989(6) 0.15727(5)
H20M H 0.1149 -0.3226 0.1052
H20L H -0.1149 0.3226 0.1052
H20A H -0.1149 0.1774 0.1448
C35M C 0.13821(5) -0.27251(5) 0.09831(4)
C35L C -0.13821(5) 0.27251(5) 0.09831(4)
C35A C -0.13821(5) 0.22749(5) 0.15169(4)
C36M C 0.16646(5) -0.25385(5) 0.07974(4)
C36L C -0.16646(5) 0.25385(5) 0.07974(4)
C36A C -0.16646(5) 0.24615(5) 0.17026(4)
H21M H 0.1694 -0.2287 0.0835
H21L H -0.1694 0.2287 0.0835
H21A H -0.1694 0.2713 0.1665
Zn1A Zn -0.13903(2) -0.05767(2) 0.19671(2)
Zn1C Zn -0.05767(2) 0.13903(2) 0.80329(2)
Zn1B Zn 0.05767(2) -0.13903(2) 0.80329(2)
Zn1L Zn -0.13903(2) -0.44233(2) 0.05329(2)
Zn1O Zn 0.05767(2) -0.36097(2) 0.44671(2)
Zn1B_2 Zn 0.05767(2) -0.13903(2) -0.19671(2)
Zn1M Zn 0.13903(2) -0.55767(2) 0.05329(2)
Zn1L_2 Zn -0.13903(2) 0.55767(2) 0.05329(2)
Zn1C_2 Zn -0.05767(2) 0.13903(2) -0.19671(2)
Zn1N Zn -0.05767(2) 0.36097(2) 0.44671(2)
Zn1M_2 Zn 0.13903(2) 0.44233(2) 0.05329(2)
Zn2A Zn -0.13728(2) -0.13152(2) 0.24951(2)
Zn2C Zn -0.13152(2) 0.13728(2) 0.75049(2)
Zn2B Zn 0.13152(2) -0.13728(2) 0.75049(2)
Zn2L Zn -0.13728(2) -0.36848(2) 0.00049(2)
Zn2K Zn 0.36848(2) -0.36272(2) 0.25049(2)
Zn2F Zn 0.36848(2) -0.13728(2) -0.00049(2)
Zn2G Zn -0.36848(2) 0.13728(2) -0.00049(2)
Zn2M Zn 0.13728(2) 0.36848(2) 0.00049(2)
Zn2J Zn -0.36848(2) 0.36272(2) 0.25049(2)
Zn3K Zn 0.37682(3) -0.29524(3) 0.31207(3)
Zn3F Zn 0.37682(3) -0.20476(3) -0.06207(3)
Zn3G Zn -0.37682(3) 0.20476(3) -0.06207(3)
Zn3O Zn 0.12318(3) -0.29524(3) 0.43793(3)
Zn3N Zn -0.12318(3) 0.29524(3) 0.43793(3)
Zn3D Zn 0.29524(3) 0.12318(3) 0.56207(3)
Zn3E Zn -0.29524(3) -0.12318(3) 0.56207(3)
Zn3B Zn 0.12318(3) -0.20476(3) -0.18793(3)
Zn3C Zn -0.12318(3) 0.20476(3) -0.18793(3)
Zn3J Zn -0.37682(3) 0.29524(3) 0.31207(3)
Zn3A Zn -0.20476(3) -0.12318(3) 0.18793(3)
Zn3C_2 Zn -0.12318(3) 0.20476(3) 0.81207(3)
Zn3B_2 Zn 0.12318(3) -0.20476(3) 0.81207(3)
C37A C -0.1123 0.2500(2) 0.1250
C38M C 0.0024(2) -0.16730(18) 0.12190(19)
C38L C -0.0024(2) 0.16730(18) 0.12190(19)
C38A C -0.0024(2) 0.33270(18) 0.12810(19)
C39M C 0.0906(2) -0.1766(3) -0.1229(2)
C39L C -0.0906(2) 0.1766(3) -0.1229(2)
C39A C -0.0906(2) 0.3234(3) 0.3729(2)
C41A C -0.1144(2) -0.0657(3) 0.2835(3)
C41C C -0.0657(3) 0.1144(2) 0.7165(3)
C41B C 0.0657(3) -0.1144(2) 0.7165(3)
C42M C 0.1512(3) -0.4480(2) 0.05998(18)
C42L C -0.1512(3) 0.4480(2) 0.05998(18)
C42A C -0.1512(3) 0.0520(2) 0.19002(18)
C43M C 0.1239(3) -0.4297(2) 0.0699(3)
C43L C -0.1239(3) 0.4297(2) 0.0699(3)
C43A C -0.1239(3) 0.0703(2) 0.1801(3)
H22M H 0.1021 -0.4420 0.0753
H22L H -0.1021 0.4420 0.0753
H22A H -0.1021 0.0580 0.1747
C44M C 0.1538(3) -0.3708(2) 0.0645(3)
C44L C -0.1538(3) 0.3708(2) 0.0645(3)
C44A C -0.1538(3) 0.1292(2) 0.1855(3)
C45M C 0.1847(3) -0.3926(2) 0.0567(3)
C45L C -0.1847(3) 0.3926(2) 0.0567(3)
C45A C -0.1847(3) 0.1074(2) 0.1933(3)
H23M H 0.2076 -0.3818 0.0531
H23L H -0.2076 0.3818 0.0531
H23A H -0.2076 0.1182 0.1969
C46M C 0.1807(3) -0.4298(2) 0.0544(3)
C46L C -0.1807(3) 0.4298(2) 0.0544(3)
C46A C -0.1807(3) 0.0702(2) 0.1956(3)
H24M H 0.2016 -0.4433 0.0482
H24L H -0.2016 0.4433 0.0482
H24A H -0.2016 0.0567 0.2018
C47M C 0.1473(3) -0.4889(3) 0.0564(3)
C47L C -0.1473(3) 0.4889(3) 0.0564(3)
C47A C -0.1473(3) 0.0111(3) 0.1936(3)
C48M C -0.0584(2) -0.1369(2) 0.1607(2)
C48L C 0.0584(2) 0.1369(2) 0.1607(2)
C48A C 0.0584(2) 0.3631(2) 0.0893(2)
C49M C -0.04800(19) -0.1725(2) 0.1660(2)
C49L C 0.04800(19) 0.1725(2) 0.1660(2)
C49A C 0.04800(19) 0.3275(2) 0.0840(2)
H25M H -0.0615 -0.1872 0.1827
H25L H 0.0615 0.1872 0.1827
H25A H 0.0615 0.3128 0.0673
C50M C -0.01760(19) -0.1874(2) 0.1470(2)
C50L C 0.01760(19) 0.1874(2) 0.1470(2)
C50A C 0.01760(19) 0.3126(2) 0.1030(2)
H26M H -0.0109 -0.2117 0.1518
H26L H 0.0109 0.2117 0.1518
H26A H 0.0109 0.2883 0.0982
C51M C -0.0104(2) -0.1319(2) 0.1144(2)
C51L C 0.0104(2) 0.1319(2) 0.1144(2)
C51A C 0.0104(2) 0.3681(2) 0.1356(2)
H27M H 0.0010 -0.1181 0.0952
H27L H -0.0010 0.1181 0.0952
H27A H -0.0010 0.3819 0.1548
C52M C -0.0392(2) -0.1167(2) 0.1345(2)
C52L C 0.0392(2) 0.1167(2) 0.1345(2)
C52A C 0.0392(2) 0.3833(2) 0.1155(2)
H28M H -0.0457 -0.0923 0.1301
H28L H 0.0457 0.0923 0.1301
H28A H 0.0457 0.4077 0.1199
C53M C -0.0887(2) -0.1208(2) 0.1813(2)
C53L C 0.0887(2) 0.1208(2) 0.1813(2)
C53A C 0.0887(2) 0.3792(2) 0.0687(2)
C54M C 0.2645(2) -0.2445(2) -0.0146(2)
C54L C -0.2645(2) 0.2445(2) -0.0146(2)
C54A C -0.2645(2) 0.2555(2) 0.2646(2)
H29M H 0.2726 -0.2513 -0.0390
H29L H -0.2726 0.2513 -0.0390
H29A H -0.2726 0.2487 0.2890
C55M C 0.2832(2) -0.2172(2) 0.0052(2)
C55L C -0.2832(2) 0.2172(2) 0.0052(2)
C55A C -0.2832(2) 0.2828(2) 0.2448(2)
C56M C 0.3157(2) -0.1985(2) -0.0104(3)
C56L C -0.3157(2) 0.1985(2) -0.0104(3)
C56A C -0.3157(2) 0.3015(2) 0.2604(3)
C57M C 0.2224(2) -0.25310(19) 0.0380(2)
C57L C -0.2224(2) 0.25310(19) 0.0380(2)
C57A C -0.2224(2) 0.24690(19) 0.2120(2)
C58M C 0.24040(19) -0.2264(2) 0.0573(2)
C58L C -0.24040(19) 0.2264(2) 0.0573(2)
C58A C -0.24040(19) 0.2736(2) 0.1927(2)
H30M H 0.2324 -0.2196 0.0816
H30L H -0.2324 0.2196 0.0816
H30A H -0.2324 0.2804 0.1684
C59M C 0.2708(2) -0.2088(2) 0.0412(2)
C59L C -0.2708(2) 0.2088(2) 0.0412(2)
C59A C -0.2708(2) 0.2912(2) 0.2088(2)
H31M H 0.2830 -0.1910 0.0554
H31L H -0.2830 0.1910 0.0554
H31A H -0.2830 0.3090 0.1946
C60M C 0.23460(19) -0.2618(2) 0.0004(2)
C60L C -0.23460(19) 0.2618(2) 0.0004(2)
C60A C -0.23460(19) 0.2382(2) 0.2496(2)
H32M H 0.2222 -0.2793 -0.0140
H32L H -0.2222 0.2793 -0.0140
H32A H -0.2222 0.2207 0.2640
O1A O -0.1006(2) -0.16870(17) 0.2777(2)
O1C O -0.16870(17) 0.1006(2) 0.7223(2)
O1B O 0.16870(17) -0.1006(2) 0.7223(2)
H33A H -0.0890 -0.1577 0.2943
H33C H -0.1577 0.0890 0.7057
H33B H 0.1577 -0.0890 0.7057
O2A O -0.11308(14) -0.05060(13) 0.25295(14)
O2C O -0.05060(13) 0.11308(14) 0.74705(14)
O2B O 0.05060(13) -0.11308(14) 0.74705(14)
O3A O -0.12559(15) -0.09704(14) 0.29092(13)
O3C O -0.09704(14) 0.12559(15) 0.70908(13)
O3B O 0.09704(14) -0.12559(15) 0.70908(13)
O4A O -0.17284(11) -0.09426(10) 0.22105(11)
O4C O -0.09426(10) 0.17284(11) 0.77895(11)
O4B O 0.09426(10) -0.17284(11) 0.77895(11)
O4K O 0.40574(10) -0.32716(11) 0.27895(11)
O4F O 0.40574(10) -0.17284(11) -0.02895(11)
O4G O -0.40574(10) 0.17284(11) -0.02895(11)
O5M O 0.11918(19) -0.50506(13) 0.06742(17)
O5L O -0.11918(19) 0.50506(13) 0.06742(17)
O5A O -0.11918(19) -0.00506(13) 0.18258(17)
O5C O -0.00506(13) 0.11918(19) 0.81742(17)
O5B O 0.00506(13) -0.11918(19) 0.81742(17)
O6M O 0.17397(19) -0.50652(15) 0.04218(18)
O6L O -0.17397(19) 0.50652(15) 0.04218(18)
O6A O -0.17397(19) -0.00652(15) 0.20782(18)
O6C O -0.00652(15) 0.17397(19) 0.79218(18)
O6B O 0.00652(15) -0.17397(19) 0.79218(18)
O7M O -0.09596(12) -0.08715(13) 0.17634(12)
O7L O 0.09596(12) 0.08715(13) 0.17634(12)
O7A O 0.09596(12) 0.41285(13) 0.07366(12)
O7F O -0.08715(13) 0.09596(12) 0.82366(12)
O7G O 0.08715(13) -0.09596(12) 0.82366(12)
O8M O -0.10736(12) -0.14064(12) 0.20336(13)
O8L O 0.10736(12) 0.14064(12) 0.20336(13)
O8A O 0.10736(12) 0.35936(12) 0.04664(13)
O8F O -0.14064(12) 0.10736(12) 0.79664(13)
O8G O 0.14064(12) -0.10736(12) 0.79664(13)
O9M O 0.32671(13) -0.20806(12) -0.04350(14)
O9L O -0.32671(13) 0.20806(12) -0.04350(14)
O9A O -0.32671(13) 0.29194(12) 0.29350(14)
O9J O 0.20806(12) 0.17329(13) 0.20650(14)
O10M O 0.33056(14) -0.17474(13) 0.00997(14)
O10L O -0.33056(14) 0.17474(13) 0.00997(14)
O10A O -0.33056(14) 0.32526(13) 0.24003(14)
O10J O 0.17474(13) 0.16944(14) 0.25997(14)
O10K O -0.17474(13) -0.16944(14) 0.25997(14)
O10H O -0.16944(14) 0.17474(13) 0.74003(14)
O10I O 0.16944(14) -0.17474(13) 0.74003(14)
O11M O 0.06287(14) -0.16587(13) -0.14180(12)
O11L O -0.06287(14) 0.16587(13) -0.14180(12)
O11A O -0.06287(14) 0.33413(13) 0.39180(12)
O11G O 0.16587(13) 0.06287(14) 0.14180(12)
O11F O -0.16587(13) -0.06287(14) 0.14180(12)
O11L_2 O -0.06287(14) 0.16587(13) 0.85820(12)
O11M_2 O 0.06287(14) -0.16587(13) 0.85820(12)
O12M O 0.12021(13) -0.18532(13) -0.13561(12)
O12L O -0.12021(13) 0.18532(13) -0.13561(12)
O12A O -0.12021(13) 0.31468(13) 0.38561(12)
O12G O 0.18532(13) 0.12021(13) 0.13561(12)
O12D O 0.37979(13) -0.31468(13) 0.36439(12)
O12I O 0.37979(13) -0.18532(13) -0.11439(12)
O12H O -0.37979(13) 0.18532(13) -0.11439(12)
C61M C 0.1246(3) -0.3889(2) 0.0733(3)
C61L C -0.1246(3) 0.3889(2) 0.0733(3)
C61A C -0.1246(3) 0.1111(2) 0.1767(3)
H34M H 0.1039 -0.3764 0.0819
H34L H -0.1039 0.3764 0.0819
H34A H -0.1039 0.1236 0.1681
O13A O -0.10582(14) 0.24543(17) 0.43506(18)
O13C O 0.24543(17) 0.10582(14) 0.56494(18)
O13B O -0.24543(17) -0.10582(14) 0.56494(18)
O13G O 0.25457(17) 0.10582(14) 0.18506(18)
O13D O 0.39418(14) -0.24543(17) 0.31494(18)
O13I O 0.39418(14) -0.25457(17) -0.06494(18)
O13H O -0.39418(14) 0.25457(17) -0.06494(18)
C62A C -0.0939(3) 0.2295(3) 0.4644(3)
C62C C 0.2295(3) 0.0939(3) 0.5356(3)
C62B C -0.2295(3) -0.0939(3) 0.5356(3)
O14A O -0.0845(3) 0.2470(4) 0.4931(3)
O14C O 0.2470(4) 0.0845(3) 0.5069(3)
O14B O -0.2470(4) -0.0845(3) 0.5069(3)
H35A H -0.0915 0.2684 0.4911
H35C H 0.2684 0.0915 0.5089
H35B H -0.2684 -0.0915 0.5089
H36? H -0.2627 -0.1130 0.5082
O15? O -0.2402(6) -0.1113(7) 0.5076(5)
loop_
_geom_bond_atom_site_label_1
_geom_bond_atom_site_label_2
_geom_bond_site_symmetry_1
_geom_bond_site_symmetry_2
C1 C2 1_555 1_555
C2 H1 1_555 1_555
C3 C2 1_555 1_555
H2 C3 1_555 1_555
C4 C3 1_555 1_555
C5 C4 1_555 1_555
H3 C5 1_555 1_555
C6 C1 1_555 1_555
H4 C6 1_555 1_555
C7 C8 1_555 1_555
C8 H5 1_555 1_555
C9 C8 1_555 1_555
C10 C9 1_555 1_555
H6 C10 1_555 1_555
C11 C1 1_555 1_555
C12 C7 1_555 1_555
H7 C12 1_555 1_555
C13 C14 1_555 1_555
C14 H8 1_555 1_555
C15 C14 1_555 1_555
H9 C15 1_555 1_555
C16 C7 1_555 1_555
C17 C16 1_555 1_555
H10 C17 1_555 1_555
C18 C13 1_555 1_555
H11 C18 1_555 1_555
C19 C20 1_555 1_555
C20 H12 1_555 1_555
C21 C20 1_555 1_555
H13 C21 1_555 1_555
C22 C21 1_555 1_555
C23 C22 1_555 1_555
H14 C23 1_555 1_555
C24 C19 1_555 1_555
H15 C24 1_555 1_555
C25 C26 1_555 1_555
C26 H16 1_555 1_555
C27 C19 1_555 1_555
C28 C27 1_555 1_555
H17 C28 1_555 1_555
C29 C28 1_555 1_555
C30 C25 1_555 1_555
H18 C30 1_555 1_555
C31 C32 1_555 1_555
C32 H19 1_555 1_555
C33 C32 1_555 1_555
C34 C33 1_555 1_555
H20 C34 1_555 1_555
C35 C34 1_555 1_555
C36 C31 1_555 1_555
H21 C36 1_555 1_555
Zn1 O2 1_555 1_555
Zn2 O1 1_555 1_555
Zn3 O4 1_555 1_555
C37 C25 1_555 1_555
C38 C29 1_555 1_555
C39 C22 1_555 1_555
C40 C9 1_555 1_555
C41 C13 1_555 1_555
C42 C43 1_555 1_555
C43 H22 1_555 1_555
C44 C33 1_555 1_555
C45 C44 1_555 1_555
H23 C45 1_555 1_555
C46 C42 1_555 1_555
H24 C46 1_555 1_555
C47 C42 1_555 1_555
C48 C49 1_555 1_555
C49 H25 1_555 1_555
C50 C38 1_555 1_555
H26 C50 1_555 1_555
C51 C38 1_555 1_555
H27 C51 1_555 1_555
C52 C48 1_555 1_555
H28 C52 1_555 1_555
C53 C48 1_555 1_555
C54 H29 1_555 1_555
C55 C54 1_555 1_555
C56 C55 1_555 1_555
C57 C31 1_555 1_555
C58 C57 1_555 1_555
H30 C58 1_555 1_555
C59 C55 1_555 1_555
H31 C59 1_555 1_555
C60 C54 1_555 1_555
H32 C60 1_555 1_555
O1 H33 1_555 1_555
O2 C41 1_555 1_555
O3 Zn2 1_555 1_555
O4 Zn1 1_555 1_555
O5 Zn1 1_555 1_555
O6 Zn1 1_555 1_555
O7 C53 1_555 1_555
O8 C53 1_555 1_555
O9 C56 1_555 1_555
O10 C56 1_555 1_555
O11 C39 1_555 1_555
O12 C39 1_555 1_555
C61 C43 1_555 1_555
H34 C61 1_555 1_555
O13 C62 1_555 1_555
C62 C4 1_555 1_555
O14 C62 1_555 1_555
H35 O14 1_555 1_555
C1A C2A 1_555 1_555
C1C C2C 1_555 1_555
C1B C2B 1_555 1_555
C2A H1A 1_555 1_555
C2C H1C 1_555 1_555
C2B H1B 1_555 1_555
C3A C2A 1_555 1_555
C3C C2C 1_555 1_555
C3B C2B 1_555 1_555
H2A C3A 1_555 1_555
H2C C3C 1_555 1_555
H2B C3B 1_555 1_555
C4A C3A 1_555 1_555
C4C C3C 1_555 1_555
C4B C3B 1_555 1_555
C5A C4A 1_555 1_555
C5C C4C 1_555 1_555
C5B C4B 1_555 1_555
H3A C5A 1_555 1_555
H3C C5C 1_555 1_555
H3B C5B 1_555 1_555
C6A C1A 1_555 1_555
C6C C1C 1_555 1_555
C6B C1B 1_555 1_555
H4A C6A 1_555 1_555
H4C C6C 1_555 1_555
H4B C6B 1_555 1_555
C7A C8A 1_555 1_555
C7C C8C 1_555 1_555
C7B C8B 1_555 1_555
C8A H5A 1_555 1_555
C8C H5C 1_555 1_555
C8B H5B 1_555 1_555
C9A C40 1_555 1_555
C9C C40 1_555 1_555
C9B C40 1_555 1_555
C10A C9A 1_555 1_555
C10C C9C 1_555 1_555
C10B C9B 1_555 1_555
H6A C10A 1_555 1_555
H6C C10C 1_555 1_555
H6B C10B 1_555 1_555
C11A C1A 1_555 1_555
C11C C1C 1_555 1_555
C11B C1B 1_555 1_555
C12A C7A 1_555 1_555
C12C C7C 1_555 1_555
C12B C7B 1_555 1_555
H7A C12A 1_555 1_555
H7C C12C 1_555 1_555
H7B C12B 1_555 1_555
C13A C14A 1_555 1_555
C13C C14C 1_555 1_555
C13B C14B 1_555 1_555
C14A H8A 1_555 1_555
C14C H8C 1_555 1_555
C14B H8B 1_555 1_555
C15A C14A 1_555 1_555
C15C C14C 1_555 1_555
C15B C14B 1_555 1_555
H9A C15A 1_555 1_555
H9C C15C 1_555 1_555
H9B C15B 1_555 1_555
C16A C7A 1_555 1_555
C16C C7C 1_555 1_555
C16B C7B 1_555 1_555
C17A C16A 1_555 1_555
C17C C16C 1_555 1_555
C17B C16B 1_555 1_555
H10A C17A 1_555 1_555
H10C C17C 1_555 1_555
H10B C17B 1_555 1_555
C18A C13A 1_555 1_555
C18C C13C 1_555 1_555
C18B C13B 1_555 1_555
H11A C18A 1_555 1_555
H11C C18C 1_555 1_555
H11B C18B 1_555 1_555
C19M C20M 1_555 1_555
C19L C20L 1_555 1_555
C19A C20A 1_555 1_555
C20M H12M 1_555 1_555
C20L H12L 1_555 1_555
C20A H12A 1_555 1_555
C21M C20M 1_555 1_555
C21L C20L 1_555 1_555
C21A C20A 1_555 1_555
H13M C21M 1_555 1_555
H13L C21L 1_555 1_555
H13A C21A 1_555 1_555
C22M C21M 1_555 1_555
C22L C21L 1_555 1_555
C22A C21A 1_555 1_555
C23M C22M 1_555 1_555
C23L C22L 1_555 1_555
C23A C22A 1_555 1_555
H14M C23M 1_555 1_555
H14L C23L 1_555 1_555
H14A C23A 1_555 1_555
C24M C19M 1_555 1_555
C24L C19L 1_555 1_555
C24A C19A 1_555 1_555
H15M C24M 1_555 1_555
H15L C24L 1_555 1_555
H15A C24A 1_555 1_555
C25M C37 1_555 1_555
C25L C26L 1_555 1_555
C25A C26A 1_555 1_555
C26M C25M 1_555 1_555
C26L H16L 1_555 1_555
C26A H16A 1_555 1_555
H16M C26M 1_555 1_555
C27M C19M 1_555 1_555
C27L C19L 1_555 1_555
C27A C19A 1_555 1_555
C28M C27M 1_555 1_555
C28L C27L 1_555 1_555
C28A C27A 1_555 1_555
H17M C28M 1_555 1_555
H17L C28L 1_555 1_555
H17A C28A 1_555 1_555
C29M C28M 1_555 1_555
C29L C28L 1_555 1_555
C29A C28A 1_555 1_555
C30M C25M 1_555 1_555
C30L C25L 1_555 1_555
C30A C25A 1_555 1_555
H18M C30M 1_555 1_555
H18L C30L 1_555 1_555
H18A C30A 1_555 1_555
C31M C32M 1_555 1_555
C31L C32L 1_555 1_555
C31A C32A 1_555 1_555
C32M H19M 1_555 1_555
C32L H19L 1_555 1_555
C32A H19A 1_555 1_555
C33M C32M 1_555 1_555
C33L C32L 1_555 1_555
C33A C32A 1_555 1_555
C34M C33M 1_555 1_555
C34L C33L 1_555 1_555
C34A C33A 1_555 1_555
H20M C34M 1_555 1_555
H20L C34L 1_555 1_555
H20A C34A 1_555 1_555
C35M C37 1_555 1_555
C35L C34L 1_555 1_555
C35A C34A 1_555 1_555
C36M C31M 1_555 1_555
C36L C31L 1_555 1_555
C36A C31A 1_555 1_555
H21M C36M 1_555 1_555
H21L C36L 1_555 1_555
H21A C36A 1_555 1_555
Zn1A O2A 1_555 1_555
Zn1C O2C 1_555 1_555
Zn1B O2B 1_555 1_555
Zn1L O7 1_555 1_555
Zn1O O11 1_555 1_555
Zn1B_2 O11M 1_555 1_555
Zn1M O5M 1_555 1_555
Zn1L_2 O5L 1_555 1_555
Zn1C_2 O11L 1_555 1_555
Zn1N O11A 1_555 1_555
Zn1M_2 O7A 1_555 1_555
Zn2A O1A 1_555 1_555
Zn2C O1C 1_555 1_555
Zn2B O1B 1_555 1_555
Zn2L O8 1_555 1_555
Zn2K O10 1_555 1_555
Zn2F O4F 1_555 1_555
Zn2G O4G 1_555 1_555
Zn2M O8A 1_555 1_555
Zn2J O10A 1_555 1_555
Zn3K O9 1_555 1_555
Zn3F O4F 1_555 1_555
Zn3G O4G 1_555 1_555
Zn3O O12 1_555 1_555
Zn3N O12A 1_555 1_555
Zn3D O13C 1_555 1_555
Zn3E O13B 1_555 1_555
Zn3B O12M 1_555 1_555
Zn3C O12L 1_555 1_555
Zn3J O9A 1_555 1_555
Zn3A O4A 1_555 1_555
Zn3C_2 O4C 1_555 1_555
Zn3B_2 O4B 1_555 1_555
C37A C25L 1_555 1_555
C38M C29M 1_555 1_555
C38L C29L 1_555 1_555
C38A C29A 1_555 1_555
C39M C22M 1_555 1_555
C39L C22L 1_555 1_555
C39A C22A 1_555 1_555
C41A C13A 1_555 1_555
C41C C13C 1_555 1_555
C41B C13B 1_555 1_555
C42M C43M 1_555 1_555
C42L C43L 1_555 1_555
C42A C43A 1_555 1_555
C43M H22M 1_555 1_555
C43L H22L 1_555 1_555
C43A H22A 1_555 1_555
C44M C33M 1_555 1_555
C44L C33L 1_555 1_555
C44A C33A 1_555 1_555
C45M C44M 1_555 1_555
C45L C44L 1_555 1_555
C45A C44A 1_555 1_555
H23M C45M 1_555 1_555
H23L C45L 1_555 1_555
H23A C45A 1_555 1_555
C46M C42M 1_555 1_555
C46L C42L 1_555 1_555
C46A C42A 1_555 1_555
H24M C46M 1_555 1_555
H24L C46L 1_555 1_555
H24A C46A 1_555 1_555
C47M C42M 1_555 1_555
C47L C42L 1_555 1_555
C47A C42A 1_555 1_555
C48M C49M 1_555 1_555
C48L C49L 1_555 1_555
C48A C49A 1_555 1_555
C49M H25M 1_555 1_555
C49L H25L 1_555 1_555
C49A H25A 1_555 1_555
C50M C38M 1_555 1_555
C50L C38L 1_555 1_555
C50A C38A 1_555 1_555
H26M C50M 1_555 1_555
H26L C50L 1_555 1_555
H26A C50A 1_555 1_555
C51M C38M 1_555 1_555
C51L C38L 1_555 1_555
C51A C38A 1_555 1_555
H27M C51M 1_555 1_555
H27L C51L 1_555 1_555
H27A C51A 1_555 1_555
C52M C48M 1_555 1_555
C52L C48L 1_555 1_555
C52A C48A 1_555 1_555
H28M C52M 1_555 1_555
H28L C52L 1_555 1_555
H28A C52A 1_555 1_555
C53M C48M 1_555 1_555
C53L C48L 1_555 1_555
C53A C48A 1_555 1_555
C54M H29M 1_555 1_555
C54L H29L 1_555 1_555
C54A H29A 1_555 1_555
C55M C54M 1_555 1_555
C55L C54L 1_555 1_555
C55A C54A 1_555 1_555
C56M C55M 1_555 1_555
C56L C55L 1_555 1_555
C56A C55A 1_555 1_555
C57M C31M 1_555 1_555
C57L C31L 1_555 1_555
C57A C31A 1_555 1_555
C58M C57M 1_555 1_555
C58L C57L 1_555 1_555
C58A C57A 1_555 1_555
H30M C58M 1_555 1_555
H30L C58L 1_555 1_555
H30A C58A 1_555 1_555
C59M C55M 1_555 1_555
C59L C55L 1_555 1_555
C59A C55A 1_555 1_555
H31M C59M 1_555 1_555
H31L C59L 1_555 1_555
H31A C59A 1_555 1_555
C60M C54M 1_555 1_555
C60L C54L 1_555 1_555
C60A C54A 1_555 1_555
H32M C60M 1_555 1_555
H32L C60L 1_555 1_555
H32A C60A 1_555 1_555
O1A H33A 1_555 1_555
O1C H33C 1_555 1_555
O1B H33B 1_555 1_555
O2A C41A 1_555 1_555
O2C C41C 1_555 1_555
O2B C41B 1_555 1_555
O3A Zn2A 1_555 1_555
O3C Zn2C 1_555 1_555
O3B Zn2B 1_555 1_555
O4A Zn1A 1_555 1_555
O4C Zn1C 1_555 1_555
O4B Zn1B 1_555 1_555
O4K Zn2K 1_555 1_555
O5M C47M 1_555 1_555
O5L C47L 1_555 1_555
O5A Zn1A 1_555 1_555
O5C Zn1C 1_555 1_555
O5B Zn1B 1_555 1_555
O6M Zn1M 1_555 1_555
O6L Zn1L_2 1_555 1_555
O6A Zn1A 1_555 1_555
O6C Zn1C 1_555 1_555
O6B Zn1B 1_555 1_555
O7M Zn1A 1_555 1_555
O7L Zn1 1_555 1_555
O7A C53A 1_555 1_555
O7F Zn1C 1_555 1_555
O7G Zn1B 1_555 1_555
O8M Zn2A 1_555 1_555
O8L Zn2 1_555 1_555
O8A C53A 1_555 1_555
O8F Zn2C 1_555 1_555
O8G Zn2B 1_555 1_555
O9M Zn3F 1_555 1_555
O9L Zn3G 1_555 1_555
O9A C56A 1_555 1_555
O9J Zn3 1_555 1_555
O10M Zn2F 1_555 1_555
O10L Zn2G 1_555 1_555
O10A C56A 1_555 1_555
O10J Zn2 1_555 1_555
O10K Zn2A 1_555 1_555
O10H Zn2C 1_555 1_555
O10I Zn2B 1_555 1_555
O11M C39M 1_555 1_555
O11L C39L 1_555 1_555
O11A C39A 1_555 1_555
O11G Zn1 1_555 1_555
O11F Zn1A 1_555 1_555
O11L_2 Zn1C 1_555 1_555
O11M_2 Zn1B 1_555 1_555
O12M C39M 1_555 1_555
O12L C39L 1_555 1_555
O12A C39A 1_555 1_555
O12G Zn3 1_555 1_555
O12D Zn3K 1_555 1_555
O12I Zn3F 1_555 1_555
O12H Zn3G 1_555 1_555
C61M C43M 1_555 1_555
C61L C43L 1_555 1_555
C61A C43A 1_555 1_555
H34M C61M 1_555 1_555
H34L C61L 1_555 1_555
H34A C61A 1_555 1_555
O13A Zn3N 1_555 1_555
O13C C62C 1_555 1_555
O13B C62B 1_555 1_555
O13G Zn3 1_555 1_555
O13D Zn3K 1_555 1_555
O13I Zn3F 1_555 1_555
O13H Zn3G 1_555 1_555
C62A C4A 1_555 1_555
C62C C4C 1_555 1_555
C62B C4B 1_555 1_555
O14A C62A 1_555 1_555
O14C C62C 1_555 1_555
O14B C62B 1_555 1_555
H35A O14A 1_555 1_555
H35C O14C 1_555 1_555
H35B O14B 1_555 1_555
C5 C6 1_555 1_555
C10 C11 1_555 1_555
C11 C12 1_555 1_555
C15 C16 1_555 1_555
C17 C18 1_555 1_555
C23 C24 1_555 1_555
C26 C27 1_555 1_555
C29 C30 1_555 1_555
C35 C36 1_555 1_555
C35 C37 1_555 1_555
Zn2 O4 1_555 1_555
C41 O3 1_555 1_555
C44 C61 1_555 1_555
C45 C46 1_555 1_555
C47 O5 1_555 1_555
C47 O6 1_555 1_555
C49 C50 1_555 1_555
C51 C52 1_555 1_555
C57 C60 1_555 1_555
C58 C59 1_555 1_555
O13 Zn3O 1_555 1_555
C5A C6A 1_555 1_555
C5C C6C 1_555 1_555
C5B C6B 1_555 1_555
C8A C9A 1_555 1_555
C8C C9C 1_555 1_555
C8B C9B 1_555 1_555
C10A C11A 1_555 1_555
C10C C11C 1_555 1_555
C10B C11B 1_555 1_555
C11A C12A 1_555 1_555
C11C C12C 1_555 1_555
C11B C12B 1_555 1_555
C15A C16A 1_555 1_555
C15C C16C 1_555 1_555
C15B C16B 1_555 1_555
C17A C18A 1_555 1_555
C17C C18C 1_555 1_555
C17B C18B 1_555 1_555
C23M C24M 1_555 1_555
C23L C24L 1_555 1_555
C23A C24A 1_555 1_555
C25A C37A 1_555 1_555
C26M C27M 1_555 1_555
C26L C27L 1_555 1_555
C26A C27A 1_555 1_555
C29M C30M 1_555 1_555
C29L C30L 1_555 1_555
C29A C30A 1_555 1_555
C34M C35M 1_555 1_555
C35M C36M 1_555 1_555
C35L C36L 1_555 1_555
C35L C37A 1_555 1_555
C35A C36A 1_555 1_555
C35A C37A 1_555 1_555
Zn2A O4A 1_555 1_555
Zn2C O4C 1_555 1_555
Zn2B O4B 1_555 1_555
Zn3K O4K 1_555 1_555
C41A O3A 1_555 1_555
C41C O3C 1_555 1_555
C41B O3B 1_555 1_555
C44M C61M 1_555 1_555
C44L C61L 1_555 1_555
C44A C61A 1_555 1_555
C45M C46M 1_555 1_555
C45L C46L 1_555 1_555
C45A C46A 1_555 1_555
C47M O6M 1_555 1_555
C47L O6L 1_555 1_555
C47A O5A 1_555 1_555
C47A O6A 1_555 1_555
C49M C50M 1_555 1_555
C49L C50L 1_555 1_555
C49A C50A 1_555 1_555
C51M C52M 1_555 1_555
C51L C52L 1_555 1_555
C51A C52A 1_555 1_555
C53M O7M 1_555 1_555
C53M O8M 1_555 1_555
C53L O7L 1_555 1_555
C53L O8L 1_555 1_555
C56M O9M 1_555 1_555
C56M O10M 1_555 1_555
C56L O9L 1_555 1_555
C56L O10L 1_555 1_555
C57M C60M 1_555 1_555
C57L C60L 1_555 1_555
C57A C60A 1_555 1_555
C58M C59M 1_555 1_555
C58L C59L 1_555 1_555
C58A C59A 1_555 1_555
O13A C62A 1_555 1_555

#END
