
#######################################################################
#
#                 Cambridge Crystallographic Data Centre
#                                CCDC 
#
#######################################################################
#
# If this CIF has been generated from an entry in the Cambridge 
# Structural Database, then it will include bibliographic, chemical, 
# crystal, experimental, refinement or atomic coordinate data resulting 
# from the CCDC's data processing and validation procedures.
#
#######################################################################

data_SITFUY
_chemical_name_common            JLU-Liu2
_chemical_formula_moiety         
'(C32 H8 Cl1 Cu4 N16 O12 1-)n,n(H3 O1 1+),2n(C3 H7 N1 O1),3n(H2 O1)'
_chemical_name_systematic        
'catena-(Oxonium (\m~4~-chloro)-tetrakis(\m~4~-5-(4-carboxylatophenyl)tetrazolato)-tetra-aqua-tetra-copper dimethylformamide solvate trihydrate)'
_symmetry_cell_setting           cubic
_symmetry_space_group_name_H-M   'P m -3 m'
_symmetry_Int_Tables_number      221
_space_group_name_Hall           '-P 4 2 3'
loop_
_symmetry_equiv_pos_site_id
_symmetry_equiv_pos_as_xyz
1 x,y,z
2 -x,-y,z
3 -x,y,-z
4 x,-y,-z
5 z,x,y
6 z,-x,-y
7 -z,-x,y
8 -z,x,-y
9 y,z,x
10 -y,z,-x
11 y,-z,-x
12 -y,-z,x
13 y,x,-z
14 -y,-x,-z
15 y,-x,z
16 -y,x,z
17 x,z,-y
18 -x,z,y
19 -x,-z,-y
20 x,-z,y
21 z,y,-x
22 z,-y,x
23 -z,y,x
24 -z,-y,-x
25 -x,-y,-z
26 x,y,-z
27 x,-y,z
28 -x,y,z
29 -z,-x,-y
30 -z,x,y
31 z,x,-y
32 z,-x,y
33 -y,-z,-x
34 y,-z,x
35 -y,z,x
36 y,z,-x
37 -y,-x,z
38 y,x,z
39 -y,x,-z
40 y,-x,-z
41 -x,-z,y
42 x,-z,-y
43 x,z,y
44 -x,z,-y
45 -z,-y,x
46 -z,y,-x
47 z,-y,-x
48 z,y,x
_cell_length_a                   20.208(2)
_cell_length_b                   20.208(2)
_cell_length_c                   20.208(2)
_cell_angle_alpha                90
_cell_angle_beta                 90
_cell_angle_gamma                90
_cell_volume                     8252.2
_exptl_crystal_colour            green
_exptl_crystal_description       block
_cell_formula_units_Z            3
loop_
_atom_site_label
_atom_site_type_symbol
_atom_site_fract_x
_atom_site_fract_y
_atom_site_fract_z
Cu1 Cu 0.41156(3) 0.41156(3) 0.0000
Cl1 Cl 0.5000 0.5000 0.0000
N1 N 0.4663(4) 0.3616(3) 0.0676(3)
N2 N 0.4451(3) 0.3211(3) 0.1131(3)
C1 C 0.5000 0.2466(5) 0.1938(6)
C2 C 0.5000 0.2932(3) 0.1441(3)
C3 C 0.4417(3) 0.2200(4) 0.2200(4)
H1 H 0.3957 0.2198 0.2198
O1 O 0.3279 0.3279 0.0000
C4 C 0.4418(4) 0.1710(6) 0.2647(6)
H2 H 0.4013 0.1537 0.2778
N1Q N 0.5337(4) 0.0676(3) 0.3616(3)
N2Q N 0.5549(3) 0.1131(3) 0.3211(3)
C1Q C 0.5000 0.1938(6) 0.2466(5)
C2Q C 0.5000 0.1441(3) 0.2932(3)
C3Q C 0.5583(3) 0.2200(4) 0.2200(4)
H1Q H 0.6043 0.2198 0.2198
C4Q C 0.5582(4) 0.2647(6) 0.1710(6)
H2Q H 0.5987 0.2778 0.1537
N1AA N 0.5337(4) 0.3616(3) 0.0676(3)
N2AA N 0.5549(3) 0.3211(3) 0.1131(3)
C4AA C 0.5582(4) 0.1710(6) 0.2647(6)
H2AA H 0.5987 0.1537 0.2778
N1PA N 0.4663(4) 0.0676(3) 0.3616(3)
N2PA N 0.4451(3) 0.1131(3) 0.3211(3)
C4PA C 0.4418(4) 0.2647(6) 0.1710(6)
H2PA H 0.4013 0.2778 0.1537
Cu1A Cu 0.58844(3) 0.58844(3) 0.0000
N1A N 0.5337(4) 0.6384(3) 0.0676(3)
N2A N 0.5549(3) 0.6789(3) 0.1131(3)
C1A C 0.5000 0.7534(5) 0.1938(6)
C2A C 0.5000 0.7068(3) 0.1441(3)
C3A C 0.5583(3) 0.7800(4) 0.2200(4)
H1A H 0.6043 0.7802 0.2198
O1A O 0.6721 0.6721 0.0000
C4A C 0.5582(4) 0.8290(6) 0.2647(6)
H2A H 0.5987 0.8463 0.2778
N1S N 0.4663(4) 0.9324(3) 0.3616(3)
N2S N 0.4451(3) 0.8869(3) 0.3211(3)
C1S C 0.5000 0.8062(6) 0.2466(5)
C2S C 0.5000 0.8559(3) 0.2932(3)
C3S C 0.4417(3) 0.7800(4) 0.2200(4)
H1S H 0.3957 0.7802 0.2198
C4S C 0.4418(4) 0.7353(6) 0.1710(6)
H2S H 0.4013 0.7222 0.1537
N1Z N 0.4663(4) 0.6384(3) 0.0676(3)
N2Z N 0.4451(3) 0.6789(3) 0.1131(3)
C4Z C 0.4418(4) 0.8290(6) 0.2647(6)
H2Z H 0.4013 0.8463 0.2778
N1NA N 0.5337(4) 0.9324(3) 0.3616(3)
N2NA N 0.5549(3) 0.8869(3) 0.3211(3)
C4NA C 0.5582(4) 0.7353(6) 0.1710(6)
H2NA H 0.5987 0.7222 0.1537
Cu1B Cu 0.58844(3) 0.41156(3) 0.0000
N1B N 0.5337(4) 0.3616(3) -0.0676(3)
N2B N 0.5549(3) 0.3211(3) -0.1131(3)
C1B C 0.5000 0.2466(5) -0.1938(6)
C2B C 0.5000 0.2932(3) -0.1441(3)
C3B C 0.5583(3) 0.2200(4) -0.2200(4)
H1B H 0.6043 0.2198 -0.2198
O1B O 0.6721 0.3279 0.0000
C4B C 0.5582(4) 0.1710(6) -0.2647(6)
H2B H 0.5987 0.1537 -0.2778
N1P N 0.4663(4) 0.0676(3) -0.3616(3)
N2P N 0.4451(3) 0.1131(3) -0.3211(3)
C1P C 0.5000 0.1938(6) -0.2466(5)
C2P C 0.5000 0.1441(3) -0.2932(3)
C3P C 0.4417(3) 0.2200(4) -0.2200(4)
H1P H 0.3957 0.2198 -0.2198
C4P C 0.4418(4) 0.2647(6) -0.1710(6)
H2P H 0.4013 0.2778 -0.1537
N1Y N 0.4663(4) 0.3616(3) -0.0676(3)
N2Y N 0.4451(3) 0.3211(3) -0.1131(3)
C4Y C 0.4418(4) 0.1710(6) -0.2647(6)
H2Y H 0.4013 0.1537 -0.2778
N1QA N 0.5337(4) 0.0676(3) -0.3616(3)
N2QA N 0.5549(3) 0.1131(3) -0.3211(3)
C4QA C 0.5582(4) 0.2647(6) -0.1710(6)
H2QA H 0.5987 0.2778 -0.1537
Cu1C Cu 0.41156(3) 0.58844(3) 0.0000
O1C O 0.3279 0.6721 0.0000
N1N N 0.3616(3) 0.5337(4) 0.0676(3)
N2N N 0.3211(3) 0.5549(3) 0.1131(3)
C1N C 0.2466(5) 0.5000 0.1938(6)
C2N C 0.2932(3) 0.5000 0.1441(3)
C3N C 0.2200(4) 0.5583(3) 0.2200(4)
H1N H 0.2198 0.6043 0.2198
C4N C 0.1710(6) 0.5582(4) 0.2647(6)
H2N H 0.1537 0.5987 0.2778
N1D N 0.0676(3) 0.4663(4) 0.3616(3)
N2D N 0.1131(3) 0.4451(3) 0.3211(3)
C1D C 0.1938(6) 0.5000 0.2466(5)
C2D C 0.1441(3) 0.5000 0.2932(3)
C3D C 0.2200(4) 0.4417(3) 0.2200(4)
H1D H 0.2198 0.3957 0.2198
C4D C 0.2647(6) 0.4418(4) 0.1710(6)
H2D H 0.2778 0.4013 0.1537
N1KA N 0.3616(3) 0.4663(4) 0.0676(3)
N2KA N 0.3211(3) 0.4451(3) 0.1131(3)
C4KA C 0.1710(6) 0.4418(4) 0.2647(6)
H2KA H 0.1537 0.4013 0.2778
N1EA N 0.0676(3) 0.5337(4) 0.3616(3)
N2EA N 0.1131(3) 0.5549(3) 0.3211(3)
C4EA C 0.2647(6) 0.5582(4) 0.1710(6)
H2EA H 0.2778 0.5987 0.1537
Cu1D Cu 0.0000 0.41156(3) 0.41156(3)
Cu1F Cu 0.0000 0.58844(3) 0.41156(3)
Cu1H Cu 0.41156(3) 0.0000 0.41156(3)
Cu1H_2 Cu 0.41156(3) 1.0000 0.41156(3)
Cu1I Cu 0.58844(3) 0.0000 -0.41156(3)
Cu1J Cu 0.41156(3) 0.0000 -0.41156(3)
Cu1K Cu 0.58844(3) 0.0000 0.41156(3)
Cu1K_2 Cu 0.58844(3) 1.0000 0.41156(3)
N1C N 0.4663(4) 0.6384(3) -0.0676(3)
N1L N 0.3616(3) 0.4663(4) -0.0676(3)
N1M N 0.6384(3) 0.5337(4) -0.0676(3)
N1O N 0.6384(3) 0.4663(4) 0.0676(3)
N1X N 0.5337(4) 0.6384(3) -0.0676(3)
N1JA N 0.6384(3) 0.5337(4) 0.0676(3)
N1LA N 0.6384(3) 0.4663(4) -0.0676(3)
N1MA N 0.3616(3) 0.5337(4) -0.0676(3)
O2? O 0.4436(4) 0.3566(3) 0.0701(3)
C5? C 0.5000 0.3379(5) 0.0903(5)
O3? O 0.3343 0.3101 0.0172
Cl2? Cl 0.5000 0.5000 0.019(4)
loop_
_geom_bond_atom_site_label_1
_geom_bond_atom_site_label_2
_geom_bond_site_symmetry_1
_geom_bond_site_symmetry_2
Cu1 Cl1 1_555 1_555
Cl1 Cu1A 1_555 1_555
N1 Cu1 1_555 1_555
N2 N1 1_555 1_555
C1 C2 1_555 1_555
C2 N2 1_555 1_555
C3 C1 1_555 1_555
H1 C3 1_555 1_555
O1 Cu1 1_555 1_555
C4 C3 1_555 1_555
H2 C4 1_555 1_555
N1Q N2Q 1_555 1_555
N2Q C2Q 1_555 1_555
C1Q C1 1_555 1_555
C2Q C4 1_555 1_555
C3Q C1 1_555 1_555
H1Q C3Q 1_555 1_555
C4Q C1 1_555 1_555
H2Q C4Q 1_555 1_555
N1AA N1 1_555 1_555
N2AA C2 1_555 1_555
C4AA N2Q 1_555 1_555
H2AA C4AA 1_555 1_555
N1PA N1Q 1_555 1_555
N2PA C4 1_555 1_555
C4PA N2 1_555 1_555
H2PA C4PA 1_555 1_555
Cu1A N1A 1_555 1_555
N1A N2A 1_555 1_555
N2A C2A 1_555 1_555
C1A C2A 1_555 1_555
C2A C4S 1_555 1_555
C3A C1A 1_555 1_555
H1A C3A 1_555 1_555
O1A Cu1A 1_555 1_555
C4A C3A 1_555 1_555
H2A C4A 1_555 1_555
N1S N2S 1_555 1_555
N2S C2S 1_555 1_555
C1S C1A 1_555 1_555
C2S C4A 1_555 1_555
C3S C1A 1_555 1_555
H1S C3S 1_555 1_555
C4S C1A 1_555 1_555
H2S C4S 1_555 1_555
N1Z N1A 1_555 1_555
N2Z C2A 1_555 1_555
C4Z N2S 1_555 1_555
H2Z C4Z 1_555 1_555
N1NA N1S 1_555 1_555
N2NA C4A 1_555 1_555
C4NA N2A 1_555 1_555
H2NA C4NA 1_555 1_555
Cu1B Cl1 1_555 1_555
N1B Cu1B 1_555 1_555
N2B N1B 1_555 1_555
C1B C2B 1_555 1_555
C2B N2B 1_555 1_555
C3B C1B 1_555 1_555
H1B C3B 1_555 1_555
O1B Cu1B 1_555 1_555
C4B C3B 1_555 1_555
H2B C4B 1_555 1_555
N1P N2P 1_555 1_555
N2P C2P 1_555 1_555
C1P C1B 1_555 1_555
C2P C4B 1_555 1_555
C3P C1B 1_555 1_555
H1P C3P 1_555 1_555
C4P C1B 1_555 1_555
H2P C4P 1_555 1_555
N1Y Cu1 1_555 1_555
N2Y C2B 1_555 1_555
C4Y N2P 1_555 1_555
H2Y C4Y 1_555 1_555
N1QA N1P 1_555 1_555
N2QA C4B 1_555 1_555
C4QA N2B 1_555 1_555
H2QA C4QA 1_555 1_555
Cu1C Cl1 1_555 1_555
O1C Cu1C 1_555 1_555
N1N Cu1C 1_555 1_555
N2N N1N 1_555 1_555
C1N C2N 1_555 1_555
C2N N2N 1_555 1_555
C3N C1N 1_555 1_555
H1N C3N 1_555 1_555
C4N C3N 1_555 1_555
H2N C4N 1_555 1_555
N1D N2D 1_555 1_555
N2D C2D 1_555 1_555
C1D C1N 1_555 1_555
C2D C4N 1_555 1_555
C3D C1N 1_555 1_555
H1D C3D 1_555 1_555
C4D C1N 1_555 1_555
H2D C4D 1_555 1_555
N1KA Cu1 1_555 1_555
N2KA C2N 1_555 1_555
C4KA N2D 1_555 1_555
H2KA C4KA 1_555 1_555
N1EA N1D 1_555 1_555
N2EA C4N 1_555 1_555
C4EA N2N 1_555 1_555
H2EA C4EA 1_555 1_555
Cu1D N1D 1_555 1_555
Cu1F N1EA 1_555 1_555
Cu1H N1PA 1_555 1_555
Cu1H_2 N1S 1_555 1_555
Cu1I N1QA 1_555 1_555
Cu1J N1P 1_555 1_555
Cu1K N1Q 1_555 1_555
Cu1K_2 N1NA 1_555 1_555
N1C Cu1C 1_555 1_555
N1L Cu1 1_555 1_555
N1M Cu1A 1_555 1_555
N1O Cu1B 1_555 1_555
N1X Cu1A 1_555 1_555
N1JA Cu1A 1_555 1_555
N1LA Cu1B 1_555 1_555
N1MA Cu1C 1_555 1_555
C1 C4PA 1_555 1_555
C2 C4Q 1_555 1_555
C2 C4PA 1_555 1_555
C3 C1Q 1_555 1_555
C3 C4PA 1_555 1_555
C4 C1Q 1_555 1_555
C1Q C2Q 1_555 1_555
C1Q C3Q 1_555 1_555
C1Q C4AA 1_555 1_555
C2Q C4AA 1_555 1_555
C2Q N2PA 1_555 1_555
C3Q C4Q 1_555 1_555
C3Q C4AA 1_555 1_555
C4Q N2AA 1_555 1_555
N1AA N2AA 1_555 1_555
N1AA Cu1B 1_555 1_555
N1PA N2PA 1_555 1_555
C1A C4NA 1_555 1_555
C2A C4NA 1_555 1_555
C3A C1S 1_555 1_555
C3A C4NA 1_555 1_555
C4A C1S 1_555 1_555
C1S C2S 1_555 1_555
C1S C3S 1_555 1_555
C1S C4Z 1_555 1_555
C2S C4Z 1_555 1_555
C2S N2NA 1_555 1_555
C3S C4S 1_555 1_555
C3S C4Z 1_555 1_555
C4S N2Z 1_555 1_555
N1Z N2Z 1_555 1_555
N1Z Cu1C 1_555 1_555
N1NA N2NA 1_555 1_555
N1B N1Y 1_555 1_555
C1B C4QA 1_555 1_555
C2B C4P 1_555 1_555
C2B C4QA 1_555 1_555
C3B C1P 1_555 1_555
C3B C4QA 1_555 1_555
C4B C1P 1_555 1_555
C1P C2P 1_555 1_555
C1P C3P 1_555 1_555
C1P C4Y 1_555 1_555
C2P C4Y 1_555 1_555
C2P N2QA 1_555 1_555
C3P C4P 1_555 1_555
C3P C4Y 1_555 1_555
C4P N2Y 1_555 1_555
N1Y N2Y 1_555 1_555
N1QA N2QA 1_555 1_555
N1N N1KA 1_555 1_555
C1N C4EA 1_555 1_555
C2N C4D 1_555 1_555
C2N C4EA 1_555 1_555
C3N C1D 1_555 1_555
C3N C4EA 1_555 1_555
C4N C1D 1_555 1_555
C1D C2D 1_555 1_555
C1D C3D 1_555 1_555
C1D C4KA 1_555 1_555
C2D C4KA 1_555 1_555
C2D N2EA 1_555 1_555
C3D C4D 1_555 1_555
C3D C4KA 1_555 1_555
C4D N2KA 1_555 1_555
N1KA N2KA 1_555 1_555
N1EA N2EA 1_555 1_555
N1C N1X 1_555 1_555
N1L N1MA 1_555 1_555
N1M N1LA 1_555 1_555
N1O N1JA 1_555 1_555

#END
