
#######################################################################
#
#                 Cambridge Crystallographic Data Centre
#                                CCDC 
#
#######################################################################
#
# If this CIF has been generated from an entry in the Cambridge 
# Structural Database, then it will include bibliographic, chemical, 
# crystal, experimental, refinement or atomic coordinate data resulting 
# from the CCDC's data processing and validation procedures.
#
#######################################################################

data_SOHGUS
_chemical_formula_moiety         '(C24 H16 Co2 N8)n,6n(C3 H7 N1 O1)'
_chemical_name_systematic        
"catena-(bis(\m~4~-4,4'-(1,4-phenylene)dipyrazolato)-di-cobalt(ii) hexakis(dimethylformamide) clathrate)"
_symmetry_cell_setting           monoclinic
_symmetry_space_group_name_H-M   'P 21/c'
_symmetry_Int_Tables_number      14
_space_group_name_Hall           '-P 2ybc'
loop_
_symmetry_equiv_pos_site_id
_symmetry_equiv_pos_as_xyz
1 x,y,z
2 -x,1/2+y,1/2-z
3 -x,-y,-z
4 x,1/2-y,1/2+z
_cell_length_a                   13.327(3)
_cell_length_b                   14.151(3)
_cell_length_c                   26.532(6)
_cell_angle_alpha                90
_cell_angle_beta                 101.512(7)
_cell_angle_gamma                90
_cell_volume                     4903.02
_exptl_crystal_colour            'deep purple'
_exptl_crystal_description       block
_cell_formula_units_Z            4
loop_
_atom_site_label
_atom_site_type_symbol
_atom_site_fract_x
_atom_site_fract_y
_atom_site_fract_z
Co1 Co -0.01706(12) 1.13325(11) 0.73093(6)
Co2 Co -0.01055(12) 0.88648(11) 0.75607(6)
N1 N -0.1433(8) 1.0556(7) 0.7286(4)
N2 N -0.1337(7) 0.9686(6) 0.7489(4)
N3 N -0.8992(8) 1.0540(7) 0.7294(4)
N4 N -0.8884(7) 0.9637(7) 0.7518(4)
N5 N 0.0054(7) 1.3168(6) 0.6799(4)
N6 N -0.0101(8) 1.2237(7) 0.6759(4)
N7 N 0.0075(7) 1.2961(6) 0.2982(4)
N8 N 0.0302(7) 1.2043(6) 0.3040(4)
C1 C -0.2428(8) 1.0827(8) 0.7195(5)
H1 H -0.2698 1.1407 0.7045
C2 C -0.2993(8) 1.0080(8) 0.7365(5)
C3 C -0.2276(9) 0.9405(7) 0.7536(5)
H2 H -0.2422 0.8811 0.7672
C4 C -0.8079(9) 1.0773(8) 0.7212(5)
H3 H -0.7938 1.1348 0.7055
C5 C -0.7320(9) 1.0061(8) 0.7388(5)
C6 C -0.7913(9) 0.9366(7) 0.7565(5)
H4 H -0.7655 0.8774 0.7702
C7 C -0.6245(9) 1.0065(8) 0.7353(5)
C8 C -0.5788(10) 1.0820(9) 0.7145(6)
H5 H -0.6186 1.1353 0.7010
C9 C -0.4756(9) 1.0789(9) 0.7135(5)
H6 H -0.4469 1.1291 0.6972
C10 C -0.4128(9) 1.0068(8) 0.7347(5)
C11 C -0.4570(8) 0.9326(8) 0.7573(5)
H7 H -0.4150 0.8826 0.7735
C12 C -0.5604(10) 0.9309(9) 0.7564(6)
H8 H -0.5893 0.8779 0.7703
C13 C 0.0159(8) 1.3512(8) 0.6316(5)
H9 H 0.0248 1.4157 0.6237
C14 C 0.0113(9) 1.2764(8) 0.5970(5)
C15 C -0.0072(9) 1.1996(9) 0.6246(5)
H10 H -0.0170 1.1374 0.6110
C16 C 0.0186(9) 1.2773(9) 0.5411(5)
C17 C 0.0512(10) 1.1968(9) 0.5212(6)
H11 H 0.0713 1.1437 0.5427
C18 C 0.0553(10) 1.1924(9) 0.4681(5)
H12 H 0.0757 1.1354 0.4541
C19 C 0.0304(9) 1.2680(9) 0.4375(5)
C20 C -0.0001(10) 1.3523(9) 0.4589(5)
H13 H -0.0156 1.4067 0.4379
C21 C -0.0078(10) 1.3562(9) 0.5109(6)
H14 H -0.0307 1.4121 0.5249
C22 C 0.0064(11) 1.3346(9) 0.3437(6)
H15 H -0.0070 1.3990 0.3501
C23 C 0.0290(9) 1.2614(8) 0.3816(5)
C24 C 0.0474(10) 1.1837(8) 0.3538(5)
H16 H 0.0693 1.1239 0.3681
Co1_2 Co -1.01706(12) 1.13325(11) 0.73093(6)
Co1C Co -0.01706(12) 1.36675(11) 0.23093(6)
Co2_2 Co -1.01055(12) 0.88648(11) 0.75607(6)
Co2A Co 0.01055(12) 1.38648(11) 0.74393(6)
Co2B Co 0.01055(12) 1.11352(11) 0.24393(6)
N3_2 N 0.1008(8) 1.0540(7) 0.7294(4)
N4_2 N 0.1116(7) 0.9637(7) 0.7518(4)
N5A N -0.0054(7) 0.8168(6) 0.8201(4)
N7C N 0.0075(7) 1.2039(6) 0.7982(4)
N8B N -0.0302(7) 0.7957(6) 0.6960(4)
O1 O 0.1422(8) 0.5091(7) 0.9191(4)
C25 C 0.2192(12) 0.5505(11) 0.9133(6)
H17 H 0.2091 0.6059 0.8926
N9 N 0.3146(10) 0.5274(9) 0.9323(6)
C26 C 0.3979(13) 0.5854(12) 0.9259(8)
H18 H 0.3775 0.6244 0.8950
H19 H 0.4561 0.5455 0.9221
H20 H 0.4176 0.6262 0.9560
C27 C 0.3349(14) 0.4478(12) 0.9653(8)
H21 H 0.3258 0.4653 0.9998
H22 H 0.4054 0.4265 0.9669
H23 H 0.2874 0.3967 0.9519
O2 O 0.7132(7) 0.7663(6) 0.8322(4)
C28 C 0.7324(11) 0.8228(10) 0.8686(6)
H24 H 0.7673 0.8799 0.8644
N10 N 0.7044(10) 0.8045(9) 0.9150(5)
C29 C 0.6587(13) 0.7143(11) 0.9242(7)
H25 H 0.5849 0.7226 0.9218
H26 H 0.6900 0.6914 0.9586
H27 H 0.6706 0.6684 0.8984
C30 C 0.7288(14) 0.8747(12) 0.9573(7)
H28 H 0.7940 0.8581 0.9798
H29 H 0.6743 0.8747 0.9772
H30 H 0.7341 0.9377 0.9427
O3 O 0.5786(10) 0.6466(11) 0.5462(5)
C31 C 0.5863(15) 0.7130(14) 0.5784(9)
H31 H 0.5430 0.7665 0.5705
N11 N 0.6505(12) 0.7110(10) 0.6215(7)
C32 C 0.7202(16) 0.6295(15) 0.6364(9)
H32 H 0.7196 0.5892 0.6063
H33 H 0.6972 0.5930 0.6634
H34 H 0.7899 0.6527 0.6494
C33 C 0.6566(17) 0.7825(15) 0.6611(9)
H35 H 0.7048 0.8319 0.6555
H36 H 0.6803 0.7536 0.6949
H37 H 0.5887 0.8104 0.6595
O4 O 0.3162(9) 0.7803(8) 0.8439(4)
C34 C 0.2788(14) 0.8158(12) 0.8780(8)
H38 H 0.2078 0.8055 0.8766
N12 N 0.3324(10) 0.8709(10) 0.9193(6)
C35 C 0.4338(14) 0.8951(14) 0.9206(9)
H39 H 0.4781 0.8415 0.9336
H40 H 0.4522 0.9496 0.9434
H41 H 0.4427 0.9113 0.8859
C36 C 0.2741(18) 0.9134(15) 0.9561(9)
H42 H 0.2518 0.9772 0.9445
H43 H 0.3181 0.9168 0.9903
H44 H 0.2140 0.8743 0.9575
O5 O 0.5732(10) 0.3967(10) 0.9262(5)
C37 C 0.6467(15) 0.4275(13) 0.9091(8)
H45 H 0.6335 0.4775 0.8848
N13 N 0.7425(12) 0.3966(10) 0.9220(6)
C38 C 0.8270(15) 0.4385(14) 0.9024(8)
H46 H 0.8534 0.3925 0.8806
H47 H 0.8818 0.4563 0.9313
H48 H 0.8028 0.4948 0.8820
C39 C 0.7697(14) 0.3220(13) 0.9632(7)
H49 H 0.7791 0.3518 0.9972
H50 H 0.8332 0.2904 0.9595
H51 H 0.7142 0.2755 0.9597
O6 O 0.8082(8) 0.0499(8) 0.8750(4)
C40 C 0.7638(13) 0.1182(12) 0.8531(7)
H52 H 0.8046 0.1584 0.8367
N14 N 0.6658(11) 0.1452(10) 0.8486(6)
C41 C 0.6285(14) 0.2327(12) 0.8236(7)
H53 H 0.6843 0.2645 0.8113
H54 H 0.6032 0.2736 0.8481
H55 H 0.5727 0.2191 0.7944
C42 C 0.5927(14) 0.0803(13) 0.8702(8)
H56 H 0.5339 0.0646 0.8429
H57 H 0.5687 0.1126 0.8983
H58 H 0.6286 0.0221 0.8833
loop_
_geom_bond_atom_site_label_1
_geom_bond_atom_site_label_2
_geom_bond_site_symmetry_1
_geom_bond_site_symmetry_2
Co1 N1 1_555 1_555
Co2 N2 1_555 1_555
N1 N2 1_555 1_555
N2 C3 1_555 1_555
N3 N4 1_555 1_555
N4 C6 1_555 1_555
N5 N6 1_555 1_555
N6 Co1 1_555 1_555
N7 N8 1_555 1_555
N8 C24 1_555 1_555
C1 N1 1_555 1_555
H1 C1 1_555 1_555
C2 C1 1_555 1_555
C3 C2 1_555 1_555
H2 C3 1_555 1_555
C4 N3 1_555 1_555
H3 C4 1_555 1_555
C5 C4 1_555 1_555
C6 C5 1_555 1_555
H4 C6 1_555 1_555
C7 C5 1_555 1_555
C8 C7 1_555 1_555
H5 C8 1_555 1_555
C9 C8 1_555 1_555
H6 C9 1_555 1_555
C10 C2 1_555 1_555
C11 C10 1_555 1_555
H7 C11 1_555 1_555
C12 C7 1_555 1_555
H8 C12 1_555 1_555
C13 N5 1_555 1_555
H9 C13 1_555 1_555
C14 C13 1_555 1_555
C15 N6 1_555 1_555
H10 C15 1_555 1_555
C16 C14 1_555 1_555
C17 C16 1_555 1_555
H11 C17 1_555 1_555
C18 C17 1_555 1_555
H12 C18 1_555 1_555
C19 C18 1_555 1_555
C20 C19 1_555 1_555
H13 C20 1_555 1_555
C21 C16 1_555 1_555
H14 C21 1_555 1_555
C22 N7 1_555 1_555
H15 C22 1_555 1_555
C23 C19 1_555 1_555
C24 C23 1_555 1_555
H16 C24 1_555 1_555
O1 C25 1_555 1_555
C25 H17 1_555 1_555
N9 C25 1_555 1_555
C26 N9 1_555 1_555
H18 C26 1_555 1_555
H19 C26 1_555 1_555
H20 C26 1_555 1_555
C27 N9 1_555 1_555
H21 C27 1_555 1_555
H22 C27 1_555 1_555
H23 C27 1_555 1_555
O2 C28 1_555 1_555
C28 H24 1_555 1_555
N10 C28 1_555 1_555
C29 N10 1_555 1_555
H25 C29 1_555 1_555
H26 C29 1_555 1_555
H27 C29 1_555 1_555
C30 N10 1_555 1_555
H28 C30 1_555 1_555
H29 C30 1_555 1_555
H30 C30 1_555 1_555
O3 C31 1_555 1_555
C31 H31 1_555 1_555
N11 C31 1_555 1_555
C32 N11 1_555 1_555
H32 C32 1_555 1_555
H33 C32 1_555 1_555
H34 C32 1_555 1_555
C33 N11 1_555 1_555
H35 C33 1_555 1_555
H36 C33 1_555 1_555
H37 C33 1_555 1_555
O4 C34 1_555 1_555
C34 H38 1_555 1_555
N12 C34 1_555 1_555
C35 N12 1_555 1_555
H39 C35 1_555 1_555
H40 C35 1_555 1_555
H41 C35 1_555 1_555
C36 N12 1_555 1_555
H42 C36 1_555 1_555
H43 C36 1_555 1_555
H44 C36 1_555 1_555
O5 C37 1_555 1_555
C37 H45 1_555 1_555
N13 C37 1_555 1_555
C38 N13 1_555 1_555
H46 C38 1_555 1_555
H47 C38 1_555 1_555
H48 C38 1_555 1_555
C39 N13 1_555 1_555
H49 C39 1_555 1_555
H50 C39 1_555 1_555
H51 C39 1_555 1_555
O6 C40 1_555 1_555
C40 H52 1_555 1_555
N14 C40 1_555 1_555
C41 N14 1_555 1_555
H53 C41 1_555 1_555
H54 C41 1_555 1_555
H55 C41 1_555 1_555
C42 N14 1_555 1_555
H56 C42 1_555 1_555
H57 C42 1_555 1_555
H58 C42 1_555 1_555
Co1_2 N3 1_555 1_555
Co1C N7 1_555 1_555
Co2_2 N4 1_555 1_555
Co2A N5 1_555 1_555
Co2B N8 1_555 1_555
N3_2 Co1 1_555 1_555
N4_2 Co2 1_555 1_555
N5A Co2 1_555 1_555
N7C Co1 1_555 1_555
N8B Co2 1_555 1_555
C9 C10 1_555 1_555
C11 C12 1_555 1_555
C14 C15 1_555 1_555
C20 C21 1_555 1_555
C22 C23 1_555 1_555
N3_2 N4_2 1_555 1_555

#END
