
#######################################################################
#
#                 Cambridge Crystallographic Data Centre
#                                CCDC 
#
#######################################################################
#
# If this CIF has been generated from an entry in the Cambridge 
# Structural Database, then it will include bibliographic, chemical, 
# crystal, experimental, refinement or atomic coordinate data resulting 
# from the CCDC's data processing and validation procedures.
#
#######################################################################

data_ZICKAZ
_chemical_formula_moiety         '(C40 H24 F4 N2 O8 Rh2)n'
_chemical_name_systematic        
catena-(tetrakis(\m~2~-4-Fluorobenzoato-O,O')-(\m~2~-phenazine)-di-rhodium)
_symmetry_cell_setting           triclinic
_symmetry_space_group_name_H-M   'P -1'
_symmetry_Int_Tables_number      2
_space_group_name_Hall           '-P 1'
loop_
_symmetry_equiv_pos_site_id
_symmetry_equiv_pos_as_xyz
1 x,y,z
2 -x,-y,-z
_cell_length_a                   9.8967(7)
_cell_length_b                   10.9360(8)
_cell_length_c                   11.3457(7)
_cell_angle_alpha                65.996(5)
_cell_angle_beta                 66.173(6)
_cell_angle_gamma                65.291(6)
_cell_volume                     977.723
_cell_formula_units_Z            1
loop_
_atom_site_label
_atom_site_type_symbol
_atom_site_fract_x
_atom_site_fract_y
_atom_site_fract_z
_atom_site_U_iso_or_equiv
_atom_site_thermal_displace_type
C1 C 0.338(6) 0.734(5) 0.066(7) 0.0147 Uiso
C2 C 0.246(7) 0.864(5) 0.107(5) 0.0147 Uiso
C3 C 0.090(8) 0.900(6) 0.144(6) 0.0147 Uiso
C4 C -0.002(6) 1.023(6) 0.184(6) 0.0147 Uiso
C5 C 0.066(6) 1.112(5) 0.186(6) 0.0147 Uiso
C6 C 0.222(7) 1.077(6) 0.149(6) 0.0147 Uiso
C7 C 0.314(7) 0.953(6) 0.110(6) 0.0147 Uiso
C8 C 0.491(7) 0.338(6) 0.243(4) 0.0147 Uiso
C9 C 0.475(7) 0.250(5) 0.385(5) 0.0147 Uiso
C10 C 0.588(7) 0.217(6) 0.448(6) 0.0147 Uiso
C11 C 0.569(6) 0.132(6) 0.582(7) 0.0147 Uiso
C12 C 0.442(7) 0.079(4) 0.656(5) 0.0147 Uiso
C13 C 0.331(7) 0.116(6) 0.589(6) 0.0147 Uiso
C14 C 0.347(7) 0.200(7) 0.455(6) 0.0147 Uiso
O1 O 0.265(4) 0.669(4) 0.060(4) 0.0147 Uiso
O2 O 0.482(4) 0.701(4) 0.037(4) 0.0147 Uiso
O3 O 0.377(4) 0.380(4) 0.200(4) 0.0147 Uiso
O4 O 0.599(4) 0.390(4) 0.187(4) 0.0147 Uiso
F1 F -0.021(3) 1.229(2) 0.225(3) 0.0147 Uiso
F2 F 0.426(4) -0.006(3) 0.787(3) 0.0147 Uiso
Rh1 Rh 0.3827(8) 0.4864(8) 0.006(1) 0.0123 Uiso
H1 H 0.04489 0.83908 0.1428 0.0177 Uiso
H2 H -0.11177 1.04696 0.21034 0.0177 Uiso
H3 H 0.26758 1.13766 0.15062 0.0177 Uiso
H4 H 0.4241 0.92925 0.0839 0.0177 Uiso
H5 H 0.67548 0.25108 0.39977 0.0177 Uiso
H6 H 0.6448 0.10886 0.6256 0.0177 Uiso
H7 H 0.2435 0.08197 0.63731 0.0177 Uiso
H8 H 0.27146 0.22329 0.41138 0.0177 Uiso
C15 C 0.020(9) 0.505(6) 0.115(6) 0.0147 Uiso
C16 C 0.033(6) 0.513(6) 0.230(6) 0.0147 Uiso
C17 C -0.094(7) 0.558(6) 0.324(5) 0.0147 Uiso
C18 C -0.241(6) 0.598(6) 0.308(5) 0.0147 Uiso
C19 C -0.261(6) 0.595(5) 0.196(6) 0.0147 Uiso
C20 C -0.130(8) 0.548(7) 0.096(6) 0.0147 Uiso
N1 N 0.147(5) 0.456(5) 0.017(6) 0.0147 Uiso
H9 H 0.13252 0.48544 0.24194 0.0177 Uiso
H10 H -0.08236 0.56135 0.40191 0.0177 Uiso
H11 H -0.33169 0.63021 0.37464 0.0177 Uiso
H12 H -0.36069 0.62216 0.18436 0.0177 Uiso
C17A C 0.094(7) 0.442(6) -0.324(5) 0.0147 Uiso
C18A C 0.241(6) 0.402(6) -0.308(5) 0.0147 Uiso
C19A C 0.261(6) 0.405(5) -0.196(6) 0.0147 Uiso
C20A C 0.130(8) 0.452(7) -0.096(6) 0.0147 Uiso
H10A H 0.08236 0.43865 -0.40191 0.0177 Uiso
H11A H 0.33169 0.36979 -0.37464 0.0177 Uiso
H12A H 0.36069 0.37784 -0.18436 0.0177 Uiso
C15A C -0.020(9) 0.495(6) -0.115(6) 0.0147 Uiso
C16A C -0.033(6) 0.487(6) -0.230(6) 0.0147 Uiso
N1A N -0.147(5) 0.544(5) -0.017(6) 0.0147 Uiso
H9A H -0.13252 0.51456 -0.24194 0.0177 Uiso
C1A C -0.338(6) 0.266(5) -0.066(7) 0.0147 Uiso
C2A C -0.246(7) 0.136(5) -0.107(5) 0.0147 Uiso
C3A C -0.090(8) 0.100(6) -0.144(6) 0.0147 Uiso
C4A C 0.002(6) -0.023(6) -0.184(6) 0.0147 Uiso
C5A C -0.066(6) -0.112(5) -0.186(6) 0.0147 Uiso
C6A C -0.222(7) -0.077(6) -0.149(6) 0.0147 Uiso
C7A C -0.314(7) 0.047(6) -0.110(6) 0.0147 Uiso
C8A C -0.491(7) 0.662(6) -0.243(4) 0.0147 Uiso
C9A C -0.475(7) 0.750(5) -0.385(5) 0.0147 Uiso
C10A C -0.588(7) 0.783(6) -0.448(6) 0.0147 Uiso
C11A C -0.569(6) 0.868(6) -0.582(7) 0.0147 Uiso
C12A C -0.442(7) 0.921(4) -0.656(5) 0.0147 Uiso
C13A C -0.331(7) 0.884(6) -0.589(6) 0.0147 Uiso
C14A C -0.347(7) 0.800(7) -0.455(6) 0.0147 Uiso
O1A O -0.265(4) 0.331(4) -0.060(4) 0.0147 Uiso
O2A O -0.482(4) 0.299(4) -0.037(4) 0.0147 Uiso
O3A O -0.377(4) 0.620(4) -0.200(4) 0.0147 Uiso
O4A O -0.599(4) 0.610(4) -0.187(4) 0.0147 Uiso
F1A F 0.021(3) -0.229(2) -0.225(3) 0.0147 Uiso
F2A F -0.426(4) 1.006(3) -0.787(3) 0.0147 Uiso
Rh1A Rh -0.3827(8) 0.5136(8) -0.006(1) 0.0123 Uiso
H1A H -0.04489 0.16092 -0.1428 0.0177 Uiso
H2A H 0.11177 -0.04696 -0.21034 0.0177 Uiso
H3A H -0.26758 -0.13766 -0.15062 0.0177 Uiso
H4A H -0.4241 0.07075 -0.0839 0.0177 Uiso
H5A H -0.67548 0.74892 -0.39977 0.0177 Uiso
H6A H -0.6448 0.89114 -0.6256 0.0177 Uiso
H7A H -0.2435 0.91803 -0.63731 0.0177 Uiso
H8A H -0.27146 0.77671 -0.41138 0.0177 Uiso
O2_2 O -0.518(4) 0.701(4) 0.037(4) 0.0147 Uiso
O2A_2 O 0.518(4) 0.299(4) -0.037(4) 0.0147 Uiso
O4_2 O -0.401(4) 0.390(4) 0.187(4) 0.0147 Uiso
O4A_2 O 0.401(4) 0.610(4) -0.187(4) 0.0147 Uiso
Rh1_2 Rh -0.6173(8) 0.4864(8) 0.006(1) 0.0123 Uiso
Rh1A_2 Rh 0.6173(8) 0.5136(8) -0.006(1) 0.0123 Uiso
loop_
_geom_bond_atom_site_label_1
_geom_bond_atom_site_label_2
_geom_bond_site_symmetry_1
_geom_bond_site_symmetry_2
C1 C2 1_555 1_555
C2 C3 1_555 1_555
C3 C4 1_555 1_555
C4 C5 1_555 1_555
C5 C6 1_555 1_555
C6 C7 1_555 1_555
C7 C2 1_555 1_555
C8 C9 1_555 1_555
C9 C10 1_555 1_555
C10 C11 1_555 1_555
C11 C12 1_555 1_555
C12 C13 1_555 1_555
C13 C14 1_555 1_555
C14 C9 1_555 1_555
O1 C1 1_555 1_555
O2 C1 1_555 1_555
O3 C8 1_555 1_555
O4 C8 1_555 1_555
F1 C5 1_555 1_555
F2 C12 1_555 1_555
Rh1 O1 1_555 1_555
H1 C3 1_555 1_555
H2 C4 1_555 1_555
H3 C6 1_555 1_555
H4 C7 1_555 1_555
H5 C10 1_555 1_555
H6 C11 1_555 1_555
H7 C13 1_555 1_555
H8 C14 1_555 1_555
C15 C16 1_555 1_555
C16 C17 1_555 1_555
C17 C18 1_555 1_555
C18 C19 1_555 1_555
C19 C20 1_555 1_555
C20 C15 1_555 1_555
N1 Rh1 1_555 1_555
H9 C16 1_555 1_555
H10 C17 1_555 1_555
H11 C18 1_555 1_555
H12 C19 1_555 1_555
C17A C18A 1_555 1_555
C18A C19A 1_555 1_555
C19A C20A 1_555 1_555
C20A N1 1_555 1_555
H10A C17A 1_555 1_555
H11A C18A 1_555 1_555
H12A C19A 1_555 1_555
C15A C20A 1_555 1_555
C16A C17A 1_555 1_555
N1A C20 1_555 1_555
H9A C16A 1_555 1_555
C1A C2A 1_555 1_555
C2A C3A 1_555 1_555
C3A C4A 1_555 1_555
C4A C5A 1_555 1_555
C5A C6A 1_555 1_555
C6A C7A 1_555 1_555
C7A C2A 1_555 1_555
C8A C9A 1_555 1_555
C9A C10A 1_555 1_555
C10A C11A 1_555 1_555
C11A C12A 1_555 1_555
C12A C13A 1_555 1_555
C13A C14A 1_555 1_555
C14A C9A 1_555 1_555
O1A C1A 1_555 1_555
O2A C1A 1_555 1_555
O3A C8A 1_555 1_555
O4A C8A 1_555 1_555
F1A C5A 1_555 1_555
F2A C12A 1_555 1_555
Rh1A N1A 1_555 1_555
H1A C3A 1_555 1_555
H2A C4A 1_555 1_555
H3A C6A 1_555 1_555
H4A C7A 1_555 1_555
H5A C10A 1_555 1_555
H6A C11A 1_555 1_555
H7A C13A 1_555 1_555
H8A C14A 1_555 1_555
O2_2 Rh1A 1_555 1_555
O2A_2 Rh1 1_555 1_555
O4_2 Rh1A 1_555 1_555
O4A_2 Rh1 1_555 1_555
Rh1_2 O2A 1_555 1_555
Rh1A_2 O2 1_555 1_555
O3 Rh1 1_555 1_555
O4 Rh1A_2 1_555 1_555
Rh1 Rh1A_2 1_555 1_555
C15 N1 1_555 1_555
C15A C16A 1_555 1_555
C15A N1A 1_555 1_555
O1A Rh1A 1_555 1_555
O3A Rh1A 1_555 1_555
O4A Rh1_2 1_555 1_555
Rh1A Rh1_2 1_555 1_555

#END
