
#######################################################################
#
#                 Cambridge Crystallographic Data Centre
#                                CCDC 
#
#######################################################################
#
# If this CIF has been generated from an entry in the Cambridge 
# Structural Database, then it will include bibliographic, chemical, 
# crystal, experimental, refinement or atomic coordinate data resulting 
# from the CCDC's data processing and validation procedures.
#
#######################################################################

data_FOQNIK
_chemical_formula_moiety         '(C28 H16 Cu3 N4 O19)n,2n(C4 H9 N1 O1)'
_chemical_name_systematic        
"catena-((\m~6~-2,2'-Dinitrobiphenyl-4,4'-dicarboxylato)-(\m~3~-aqua)-bis(\m~3~-hydroxo)-(\m~3~-2,2'-dinitrobiphenyl-4,4'-dicarboxylato)-tri-copper N,N-dimethylacetamide solvate)"
_symmetry_cell_setting           monoclinic
_symmetry_space_group_name_H-M   'P 21/c'
_symmetry_Int_Tables_number      14
_space_group_name_Hall           '-P 2ybc'
loop_
_symmetry_equiv_pos_site_id
_symmetry_equiv_pos_as_xyz
1 x,y,z
2 -x,1/2+y,1/2-z
3 -x,-y,-z
4 x,1/2-y,1/2+z
_cell_length_a                   15.418(2)
_cell_length_b                   34.135(5)
_cell_length_c                   10.1886(16)
_cell_angle_alpha                90
_cell_angle_beta                 105.446(2)
_cell_angle_gamma                90
_cell_volume                     5168.52
_exptl_crystal_colour            'light blue'
_exptl_crystal_description       Block
_cell_formula_units_Z            4
loop_
_atom_site_label
_atom_site_type_symbol
_atom_site_fract_x
_atom_site_fract_y
_atom_site_fract_z
Cu1 Cu 1.08564(5) 0.78123(2) 1.31863(8)
Cu2 Cu 0.93890(5) 0.72370(2) 1.33662(8)
Cu3 Cu 1.01653(5) 0.77986(2) 1.58449(8)
O1 O 1.0083(3) 0.69852(15) 1.5656(5)
H1 H 1.0334 0.6816 1.5267
H2 H 0.9710 0.6823 1.5831
O2 O 1.0497(3) 0.77368(12) 1.7776(4)
H3 H 1.0894 0.7901 1.8176
O3 O 0.9771(4) 0.66470(13) 1.1052(5)
O4 O 0.9138(3) 0.66874(13) 1.2785(5)
O5 O 0.1388(3) 0.76263(13) 1.5674(5)
O6 O 0.1894(3) 0.72334(13) 1.7483(5)
O7 O 0.9779(3) 0.77855(11) 1.3885(4)
H4 H 0.9383 0.7957 1.3543
O8 O 0.4419(13) 0.6380(6) 1.697(2)
O9 O 0.5502(12) 0.6626(5) 1.706(2)
O10 O 0.4491(11) 0.6818(5) 1.3632(17)
O11 O 0.5700(14) 0.6431(6) 1.395(2)
O12 O 0.7873(16) 0.4970(6) 1.310(2)
O13 O 0.731(2) 0.5507(10) 1.310(3)
O14 O 1.102(3) 0.4422(10) 1.247(5)
O15 O 1.076(2) 0.5012(9) 1.257(4)
O16 O 0.8308(3) 0.72585(14) 1.3971(5)
O17 O 0.8812(3) 0.75969(13) 1.5911(5)
O18 O 0.7720(7) 0.3471(3) 1.0371(11)
O19 O 0.9078(4) 0.33674(14) 1.1628(6)
C1 C 0.9396(5) 0.65066(19) 1.1871(7)
C2 C 0.9253(6) 0.6073(2) 1.1783(8)
C3 C 0.9793(17) 0.5845(7) 1.121(3)
C4 C 0.9681(18) 0.5446(7) 1.117(3)
C5 C 0.9005(7) 0.5260(2) 1.1575(10)
C6 C 0.8556(15) 0.5483(4) 1.232(2)
C7 C 0.8610(17) 0.5898(7) 1.231(3)
C8 C 0.8886(8) 0.4828(2) 1.1431(11)
C9 C 0.9500(8) 0.4573(3) 1.2058(13)
C10 C 0.9392(7) 0.4168(3) 1.1891(12)
H5 H 0.9854 0.4001 1.2330
C11 C 0.8628(7) 0.4022(2) 1.1102(10)
C12 C 0.7973(9) 0.4268(4) 1.0394(14)
H6 H 0.7446 0.4170 0.9816
C13 C 0.8111(10) 0.4673(3) 1.0554(17)
C14 C 0.8467(8) 0.3577(3) 1.1011(11)
C15 C 0.1973(4) 0.74200(19) 1.6462(7)
C16 C 0.2887(5) 0.7386(2) 1.6189(7)
C17 C 0.3437(5) 0.7079(2) 1.6727(9)
H7 H 0.3230 0.6887 1.7214
C18 C 0.4283(6) 0.7051(3) 1.6562(9)
C19 C 0.4617(5) 0.7335(3) 1.5800(8)
C20 C 0.4050(5) 0.7639(3) 1.5281(9)
H8 H 0.4248 0.7831 1.4784
C21 C 0.3191(5) 0.7673(2) 1.5462(8)
H9 H 0.2827 0.7885 1.5102
C22 C 0.5547(5) 0.7332(3) 1.5593(8)
C23 C 0.6132(6) 0.7633(3) 1.6185(9)
H10 H 0.5936 0.7822 1.6700
C24 C 0.6984(5) 0.7660(2) 1.6033(8)
H11 H 0.7362 0.7861 1.6458
C25 C 0.7290(4) 0.7387(2) 1.5243(7)
C26 C 0.6716(5) 0.7093(2) 1.4621(9)
H12 H 0.6903 0.6910 1.4076
C27 C 0.5873(6) 0.7069(3) 1.4804(9)
C28 C 0.8220(4) 0.74153(19) 1.5057(7)
N1 N 0.7884(18) 0.5312(8) 1.291(3)
N2 N 0.4850(7) 0.6739(3) 1.7221(12)
N3 N 0.5293(6) 0.6762(3) 1.4070(11)
N4 N 1.0472(14) 0.4675(11) 1.263(4)
Cu1_2 Cu 0.08564(5) 0.78123(2) 1.31863(8)
Cu1A Cu 0.91436(5) 0.28123(2) 1.18137(8)
Cu1C Cu 0.08564(5) 0.71877(2) 1.81863(8)
Cu1C_2 Cu 1.08564(5) 0.71877(2) 1.81863(8)
Cu2C Cu 0.93890(5) 0.77630(2) 1.83662(8)
Cu3_2 Cu 0.01653(5) 0.77986(2) 1.58449(8)
Cu3C Cu 1.01653(5) 0.72014(2) 1.08449(8)
O1C O 1.0083(3) 0.80148(15) 1.0656(5)
O2C O 1.0497(3) 0.72632(12) 1.2776(4)
O3C O 0.9771(4) 0.83530(13) 1.6052(5)
O5_2 O 1.1388(3) 0.76263(13) 1.5674(5)
O6C O 1.1894(3) 0.77666(13) 1.2483(5)
O17C O 0.8812(3) 0.74031(13) 1.0911(5)
O19A O 1.0922(4) 0.83674(14) 1.3372(6)
O28 O 1.1378(4) 0.83083(17) 1.9404(6)
C33 C 1.1935(10) 0.8536(4) 1.9023(15)
C34 C 1.2352(11) 0.8408(5) 1.7882(17)
H13 H 1.2164 0.8146 1.7606
H14 H 1.2996 0.8417 1.8208
H15 H 1.2157 0.8582 1.7120
C35 C 1.2789(18) 0.9119(8) 1.907(3)
H16 H 1.2888 0.9379 1.9438
H17 H 1.2607 0.9133 1.8092
H18 H 1.3335 0.8971 1.9358
C36 C 1.1570(14) 0.8964(6) 2.057(2)
H19 H 1.1214 0.8733 2.0559
H20 H 1.1181 0.9189 2.0358
H21 H 1.1979 0.8997 2.1453
N7 N 1.2074(16) 0.8927(5) 1.956(2)
O29 O 0.8772(5) 0.82870(19) 1.2046(7)
C37 C 0.8222(10) 0.8550(4) 1.1656(14)
C38 C 0.8136(11) 0.8794(5) 1.0372(16)
H22 H 0.8561 0.8702 0.9904
H23 H 0.8255 0.9064 1.0617
H24 H 0.7537 0.8769 0.9787
C39 C 0.7040(11) 0.8980(5) 1.2070(19)
H25 H 0.7125 0.9086 1.1241
H26 H 0.7176 0.9177 1.2767
H27 H 0.6427 0.8897 1.1924
C40 C 0.7709(9) 0.8374(5) 1.3571(14)
H28 H 0.7308 0.8450 1.4103
H29 H 0.8316 0.8372 1.4138
H30 H 0.7552 0.8117 1.3202
N8 N 0.7638(10) 0.8645(4) 1.2496(15)
O20? O 0.4664(15) 0.6548(7) 1.801(3)
O21? O 0.5643(11) 0.6832(5) 1.7804(18)
O22? O 0.4768(14) 0.6584(6) 1.459(2)
O23? O 0.5467(12) 0.6611(5) 1.3068(19)
O24? O 0.846(2) 0.4974(8) 1.385(3)
O25? O 0.924(2) 0.5379(10) 1.510(3)
O26? O 0.692(3) 0.4760(11) 0.843(4)
O27? O 0.728(3) 0.5192(13) 0.986(5)
C29? C 0.9248(15) 0.5879(4) 1.0592(16)
C30? C 0.9151(16) 0.5476(4) 1.0483(18)
C31? C 0.9072(16) 0.5452(6) 1.278(2)
C32? C 0.9109(18) 0.5866(6) 1.283(2)
N5? N 0.877(2) 0.5287(9) 1.394(3)
N6? N 0.743(2) 0.4865(12) 0.950(3)
loop_
_geom_bond_atom_site_label_1
_geom_bond_atom_site_label_2
_geom_bond_site_symmetry_1
_geom_bond_site_symmetry_2
Cu1 O7 1_555 1_555
Cu2 O1 1_555 1_555
Cu3 O1 1_555 1_555
O1 H1 1_555 1_555
H2 O1 1_555 1_555
O2 Cu3 1_555 1_555
H3 O2 1_555 1_555
O3 C1 1_555 1_555
O4 Cu2 1_555 1_555
O5 C15 1_555 1_555
O6 C15 1_555 1_555
O7 Cu2 1_555 1_555
H4 O7 1_555 1_555
O8 N2 1_555 1_555
O9 N2 1_555 1_555
O10 N3 1_555 1_555
O11 N3 1_555 1_555
O12 N1 1_555 1_555
O13 N1 1_555 1_555
O14 N4 1_555 1_555
O15 N4 1_555 1_555
O16 Cu2 1_555 1_555
O17 Cu3 1_555 1_555
O18 C14 1_555 1_555
O19 C14 1_555 1_555
C1 O4 1_555 1_555
C2 C1 1_555 1_555
C3 C2 1_555 1_555
C4 C3 1_555 1_555
C5 C4 1_555 1_555
C6 C5 1_555 1_555
C7 C2 1_555 1_555
C8 C5 1_555 1_555
C9 C8 1_555 1_555
C10 C9 1_555 1_555
H5 C10 1_555 1_555
C11 C10 1_555 1_555
C12 C11 1_555 1_555
H6 C12 1_555 1_555
C13 C8 1_555 1_555
C14 C11 1_555 1_555
C15 C16 1_555 1_555
C16 C17 1_555 1_555
C17 H7 1_555 1_555
C18 C17 1_555 1_555
C19 C18 1_555 1_555
C20 C19 1_555 1_555
H8 C20 1_555 1_555
C21 C16 1_555 1_555
H9 C21 1_555 1_555
C22 C19 1_555 1_555
C23 C22 1_555 1_555
H10 C23 1_555 1_555
C24 C23 1_555 1_555
H11 C24 1_555 1_555
C25 C24 1_555 1_555
C26 C25 1_555 1_555
H12 C26 1_555 1_555
C27 C22 1_555 1_555
C28 O16 1_555 1_555
N1 C6 1_555 1_555
N2 C18 1_555 1_555
N3 C27 1_555 1_555
N4 C9 1_555 1_555
O28 C33 1_555 1_555
C33 C34 1_555 1_555
C34 H13 1_555 1_555
H14 C34 1_555 1_555
H15 C34 1_555 1_555
C35 H16 1_555 1_555
H17 C35 1_555 1_555
H18 C35 1_555 1_555
C36 H19 1_555 1_555
H20 C36 1_555 1_555
H21 C36 1_555 1_555
N7 C33 1_555 1_555
O29 C37 1_555 1_555
C37 C38 1_555 1_555
C38 H22 1_555 1_555
H23 C38 1_555 1_555
H24 C38 1_555 1_555
C39 H25 1_555 1_555
H26 C39 1_555 1_555
H27 C39 1_555 1_555
C40 H28 1_555 1_555
H29 C40 1_555 1_555
H30 C40 1_555 1_555
N8 C37 1_555 1_555
Cu1_2 O5 1_555 1_555
Cu1A O19 1_555 1_555
Cu1C O6 1_555 1_555
Cu1C_2 O1 1_555 1_555
Cu2C O2 1_555 1_555
Cu3_2 O5 1_555 1_555
Cu3C O3 1_555 1_555
O1C Cu1 1_555 1_555
O2C Cu1 1_555 1_555
O3C Cu3 1_555 1_555
O5_2 Cu1 1_555 1_555
O6C Cu1 1_555 1_555
O17C Cu2 1_555 1_555
O19A Cu1 1_555 1_555
Cu2 O2C 1_555 1_555
Cu3 O7 1_555 1_555
Cu3 O5_2 1_555 1_555
O2 Cu1C_2 1_555 1_555
O17 C28 1_555 1_555
O17 Cu2C 1_555 1_555
C6 C7 1_555 1_555
C12 C13 1_555 1_555
C20 C21 1_555 1_555
C25 C28 1_555 1_555
C26 C27 1_555 1_555
C35 N7 1_555 1_555
C36 N7 1_555 1_555
C39 N8 1_555 1_555
C40 N8 1_555 1_555
Cu3C O1C 1_555 1_555
Cu3C O2C 1_555 1_555
Cu3C O17C 1_555 1_555

#END
