
#######################################################################
#
#                 Cambridge Crystallographic Data Centre
#                                CCDC 
#
#######################################################################
#
# If this CIF has been generated from an entry in the Cambridge 
# Structural Database, then it will include bibliographic, chemical, 
# crystal, experimental, refinement or atomic coordinate data resulting 
# from the CCDC's data processing and validation procedures.
#
#######################################################################

data_FOQNUW01
_chemical_formula_moiety         '(C28 H14 Cu3 N4 O18)n,2n(C3 H8 O1)'
_chemical_name_systematic        
"catena-((\m~6~-2,2'-Dinitrobiphenyl-4,4'-dicarboxylato)-(\m~4~-2,2'-dinitrobiphenyl-4,4'-dicarboxylato)-bis(\m~3~-hydroxo)-tri-copper isopropanol solvate)"
_symmetry_cell_setting           monoclinic
_symmetry_space_group_name_H-M   'P 21/c'
_symmetry_Int_Tables_number      14
_space_group_name_Hall           '-P 2ybc'
loop_
_symmetry_equiv_pos_site_id
_symmetry_equiv_pos_as_xyz
1 x,y,z
2 -x,1/2+y,1/2-z
3 -x,-y,-z
4 x,1/2-y,1/2+z
_cell_length_a                   15.3248(19)
_cell_length_b                   32.715(4)
_cell_length_c                   10.0565(13)
_cell_angle_alpha                90
_cell_angle_beta                 107.143(2)
_cell_angle_gamma                90
_cell_volume                     4817.84
_exptl_crystal_colour            'light green'
_exptl_crystal_description       Block
_cell_formula_units_Z            4
loop_
_atom_site_label
_atom_site_type_symbol
_atom_site_fract_x
_atom_site_fract_y
_atom_site_fract_z
Cu1 Cu 0.83487(5) 0.77455(2) 0.53219(8)
Cu2 Cu 0.98277(5) 0.71722(2) 0.51079(8)
Cu3 Cu 0.90931(5) 0.71617(2) 0.76875(8)
O1 O 0.8725(3) 0.71822(12) 0.5680(4)
H1 H 0.8324 0.7007 0.5279
O2 O 0.9585(3) 0.65696(14) 0.7607(5)
O3 O 1.0192(3) 0.66232(13) 0.5814(5)
O4 O 0.7841(3) 0.72738(14) 0.7804(5)
O5 O 0.7265(3) 0.76667(14) 0.5913(5)
O6 O 0.9451(3) 0.72493(12) 0.9664(4)
H2 H 0.9852 0.7080 1.0106
O7 O 0.4668(12) 0.8470(4) 0.623(2)
O8 O 0.3438(6) 0.8073(4) 0.5899(13)
O9 O 0.4873(4) 0.8110(2) 0.9677(8)
O10 O 0.3790(5) 0.8423(2) 1.0130(9)
O11 O 1.2603(11) 0.5070(5) 0.7053(18)
O12 O 1.1915(19) 0.5408(9) 0.5076(17)
O13 O 1.2324(13) 0.5120(5) 0.984(2)
O14 O 1.1782(11) 0.4718(4) 1.1274(13)
O15 O 0.0887(3) 0.77835(14) 0.9472(5)
O16 O 0.0352(3) 0.73946(14) 0.7589(5)
O17 O 1.1076(4) 0.31916(16) 0.7370(6)
O18 O 1.1743(3) 0.33264(13) 0.9587(5)
C1 C 0.9995(5) 0.64353(19) 0.6780(7)
C2 C 1.0294(5) 0.5998(2) 0.6980(8)
C3 C 0.9845(6) 0.5726(2) 0.7605(10)
H3 H 0.9356 0.5815 0.7900
C4 C 1.0123(7) 0.5324(3) 0.7792(11)
H4 H 0.9802 0.5143 0.8186
C5 C 1.0867(6) 0.5180(2) 0.7409(9)
C6 C 1.1280(6) 0.5452(3) 0.6777(10)
C7 C 1.1001(6) 0.5853(2) 0.6537(9)
H5 H 1.1293 0.6027 0.6073
C8 C 1.1096(6) 0.4735(2) 0.7650(9)
C9 C 1.1525(7) 0.4567(3) 0.8935(10)
C10 C 1.1643(6) 0.4152(2) 0.9167(10)
H6 H 1.1945 0.4053 1.0050
C11 C 1.1313(5) 0.3891(2) 0.8091(8)
C12 C 1.0855(7) 0.4042(2) 0.6820(9)
H7 H 1.0600 0.3864 0.6088
C13 C 1.0764(8) 0.4461(3) 0.6607(10)
H8 H 1.0467 0.4558 0.5719
C14 C 1.1375(5) 0.3436(2) 0.8321(8)
C15 C 0.7199(4) 0.74722(19) 0.6952(7)
C16 C 0.6294(4) 0.7478(2) 0.7222(7)
C17 C 0.5709(5) 0.7800(2) 0.6692(8)
H9 H 0.5888 0.8007 0.6192
C18 C 0.4857(5) 0.7815(3) 0.6907(9)
C19 C 0.4577(5) 0.7521(3) 0.7701(8)
C20 C 0.5179(5) 0.7193(2) 0.8191(8)
H10 H 0.5011 0.6986 0.8699
C21 C 0.6008(4) 0.7172(2) 0.7937(8)
H11 H 0.6384 0.6947 0.8253
C22 C 0.3680(5) 0.7532(3) 0.8026(8)
C23 C 0.3064(5) 0.7230(3) 0.7507(8)
H12 H 0.3238 0.7009 0.7059
C24 C 0.2179(5) 0.7239(2) 0.7624(8)
H13 H 0.1764 0.7035 0.7212
C25 C 0.1923(4) 0.7549(2) 0.8346(7)
C26 C 0.2555(5) 0.7846(2) 0.8962(8)
H14 H 0.2397 0.8052 0.9485
C27 C 0.3426(5) 0.7838(2) 0.8802(8)
C28 C 0.0978(4) 0.75778(19) 0.8472(6)
N1 N 1.2110(10) 0.5332(4) 0.6321(17)
N2 N 0.4259(5) 0.8151(3) 0.6248(9)
N3 N 0.4061(4) 0.8150(2) 0.9532(8)
N4 N 1.1890(8) 0.4842(3) 1.0184(11)
Cu1A Cu 1.16513(5) 0.27455(2) 0.96781(8)
Cu1C Cu 0.83487(5) 0.72545(2) 1.03219(8)
Cu2_2 Cu -0.01723(5) 0.71722(2) 0.51079(8)
Cu2B Cu 1.01723(5) 0.28278(2) 0.48921(8)
Cu2C Cu -0.01723(5) 0.78278(2) 1.01079(8)
Cu2C_2 Cu 0.98277(5) 0.78278(2) 1.01079(8)
Cu3_2 Cu -0.09069(5) 0.71617(2) 0.76875(8)
O4C O 0.7841(3) 0.77262(14) 0.2804(5)
O6C O 0.9451(3) 0.77507(12) 0.4664(4)
O15C O 1.0887(3) 0.72165(14) 0.4472(5)
O16_2 O 1.0352(3) 0.73946(14) 0.7589(5)
O17A O 0.8924(4) 0.81916(16) 0.7630(6)
O17B O 0.8924(4) 0.68084(16) 0.2630(6)
O18A O 0.8257(3) 0.83264(13) 0.5413(5)
O25 O 0.7362(9) 0.6628(3) 0.4423(12)
H15 H 0.7762 0.6632 0.3992
C29 C 0.7007(14) 0.6223(5) 0.6247(13)
H16 H 0.7480 0.6358 0.6954
H17 H 0.6936 0.5949 0.6536
H18 H 0.6443 0.6369 0.6105
C30 C 0.7266(8) 0.6214(3) 0.4875(14)
H19 H 0.7841 0.6065 0.5015
C31 C 0.6490(14) 0.5994(4) 0.3764(16)
H20 H 0.6637 0.5985 0.2900
H21 H 0.5928 0.6141 0.3635
H22 H 0.6424 0.5721 0.4068
O26 O 1.0697(9) 0.6702(4) 1.1127(14)
H23 H 1.0261 0.6711 1.1489
C32 C 1.1382(14) 0.6138(6) 1.2668(18)
H24 H 1.0895 0.6146 1.3088
H25 H 1.1869 0.6313 1.3177
H26 H 1.1603 0.5863 1.2687
C33 C 1.1025(10) 0.6286(4) 1.1147(15)
H27 H 1.0526 0.6109 1.0627
C34 C 1.1809(15) 0.6274(6) 1.047(2)
H28 H 1.1586 0.6364 0.9524
H29 H 1.2035 0.6000 1.0499
H30 H 1.2293 0.6451 1.0977
O19? O 0.4484(12) 0.8383(5) 0.5456(16)
O20? O 0.3663(10) 0.8301(5) 0.6667(18)
O21? O 1.2283(15) 0.4970(4) 0.622(2)
O22? O 1.2526(13) 0.5599(6) 0.590(2)
O23? O 1.1975(14) 0.5209(3) 1.004(2)
O24? O 1.2384(15) 0.4686(6) 1.1246(17)
loop_
_geom_bond_atom_site_label_1
_geom_bond_atom_site_label_2
_geom_bond_site_symmetry_1
_geom_bond_site_symmetry_2
Cu1 O1 1_555 1_555
Cu2 O1 1_555 1_555
Cu3 O1 1_555 1_555
O1 H1 1_555 1_555
O2 Cu3 1_555 1_555
O3 Cu2 1_555 1_555
O4 Cu3 1_555 1_555
O5 Cu1 1_555 1_555
O6 Cu3 1_555 1_555
H2 O6 1_555 1_555
O7 N2 1_555 1_555
O8 N2 1_555 1_555
O9 N3 1_555 1_555
O10 N3 1_555 1_555
O11 N1 1_555 1_555
O12 N1 1_555 1_555
O13 N4 1_555 1_555
O14 N4 1_555 1_555
O15 C28 1_555 1_555
O16 C28 1_555 1_555
O17 C14 1_555 1_555
O18 C14 1_555 1_555
C1 O2 1_555 1_555
C2 C1 1_555 1_555
C3 C2 1_555 1_555
H3 C3 1_555 1_555
C4 C3 1_555 1_555
H4 C4 1_555 1_555
C5 C4 1_555 1_555
C6 C5 1_555 1_555
C7 C2 1_555 1_555
H5 C7 1_555 1_555
C8 C5 1_555 1_555
C9 C8 1_555 1_555
C10 C9 1_555 1_555
H6 C10 1_555 1_555
C11 C10 1_555 1_555
C12 C11 1_555 1_555
H7 C12 1_555 1_555
C13 C8 1_555 1_555
H8 C13 1_555 1_555
C14 C11 1_555 1_555
C15 O4 1_555 1_555
C16 C15 1_555 1_555
C17 C16 1_555 1_555
H9 C17 1_555 1_555
C18 C17 1_555 1_555
C19 C18 1_555 1_555
C20 C19 1_555 1_555
H10 C20 1_555 1_555
C21 C16 1_555 1_555
H11 C21 1_555 1_555
C22 C19 1_555 1_555
C23 C22 1_555 1_555
H12 C23 1_555 1_555
C24 C23 1_555 1_555
H13 C24 1_555 1_555
C25 C24 1_555 1_555
C26 C25 1_555 1_555
H14 C26 1_555 1_555
C27 C22 1_555 1_555
C28 C25 1_555 1_555
N1 C6 1_555 1_555
N2 C18 1_555 1_555
N3 C27 1_555 1_555
N4 C9 1_555 1_555
O25 H15 1_555 1_555
C29 H16 1_555 1_555
H17 C29 1_555 1_555
H18 C29 1_555 1_555
C30 O25 1_555 1_555
H19 C30 1_555 1_555
C31 C30 1_555 1_555
H20 C31 1_555 1_555
H21 C31 1_555 1_555
H22 C31 1_555 1_555
O26 H23 1_555 1_555
C32 H24 1_555 1_555
H25 C32 1_555 1_555
H26 C32 1_555 1_555
C33 O26 1_555 1_555
H27 C33 1_555 1_555
C34 C33 1_555 1_555
H28 C34 1_555 1_555
H29 C34 1_555 1_555
H30 C34 1_555 1_555
Cu1A O17 1_555 1_555
Cu1C O4 1_555 1_555
Cu2_2 O16 1_555 1_555
Cu2B O17 1_555 1_555
Cu2C O15 1_555 1_555
Cu2C_2 O6 1_555 1_555
Cu3_2 O16 1_555 1_555
O4C Cu1 1_555 1_555
O6C Cu1 1_555 1_555
O15C Cu2 1_555 1_555
O16_2 Cu2 1_555 1_555
O17A Cu1 1_555 1_555
O17B Cu2 1_555 1_555
O18A Cu1 1_555 1_555
Cu2 O6C 1_555 1_555
Cu3 O16_2 1_555 1_555
O3 C1 1_555 1_555
O5 C15 1_555 1_555
O6 Cu1C 1_555 1_555
O18 Cu1A 1_555 1_555
C6 C7 1_555 1_555
C12 C13 1_555 1_555
C20 C21 1_555 1_555
C26 C27 1_555 1_555
C29 C30 1_555 1_555
C32 C33 1_555 1_555
Cu2C_2 O17A 1_555 1_555

#END
