
#######################################################################
#
#                 Cambridge Crystallographic Data Centre
#                                CCDC 
#
#######################################################################
#
# If this CIF has been generated from an entry in the Cambridge 
# Structural Database, then it will include bibliographic, chemical, 
# crystal, experimental, refinement or atomic coordinate data resulting 
# from the CCDC's data processing and validation procedures.
#
#######################################################################

data_FOQPAE
_chemical_formula_moiety         '(C28 H14 Cu3 N4 O18)n,2n(C4 H10 O1)'
_chemical_name_systematic        
"catena-((\m~6~-2,2'-Dinitrobiphenyl-4,4'-dicarboxylato)-(\m~4~-2,2'-dinitrobiphenyl-4,4'-dicarboxylato)-bis(\m~3~-hydroxo)-tri-copper butan-2-ol solvate)"
_symmetry_cell_setting           monoclinic
_symmetry_space_group_name_H-M   'P 21/c'
_symmetry_Int_Tables_number      14
_space_group_name_Hall           '-P 2ybc'
loop_
_symmetry_equiv_pos_site_id
_symmetry_equiv_pos_as_xyz
1 x,y,z
2 -x,1/2+y,1/2-z
3 -x,-y,-z
4 x,1/2-y,1/2+z
_cell_length_a                   15.348(2)
_cell_length_b                   32.866(4)
_cell_length_c                   10.1122(13)
_cell_angle_alpha                90
_cell_angle_beta                 106.642(2)
_cell_angle_gamma                90
_cell_volume                     4887.21
_exptl_crystal_colour            'light green'
_exptl_crystal_description       Block
_cell_formula_units_Z            4
loop_
_atom_site_label
_atom_site_type_symbol
_atom_site_fract_x
_atom_site_fract_y
_atom_site_fract_z
Cu1 Cu 0.15488(5) 0.27467(2) 0.46082(8)
Cu2 Cu 0.00823(5) 0.21721(2) 0.48399(8)
Cu3 Cu 0.08122(5) 0.21667(2) 0.22564(8)
O1 O 0.1187(3) 0.21828(11) 0.4254(4)
H1 H 0.1589 0.2009 0.4645
O2 O 0.0330(3) 0.15784(13) 0.2353(5)
O3 O -0.0269(3) 0.16248(12) 0.4150(5)
O4 O 0.2067(3) 0.22830(14) 0.2132(5)
O5 O 0.2636(3) 0.26713(13) 0.4012(5)
O6 O 0.0453(3) 0.22509(11) 0.0289(4)
H2 H 0.0052 0.2082 -0.0141
O7 O 0.5386(7) 0.3404(3) 0.4291(12)
O8 O 0.6457(6) 0.3078(4) 0.4014(13)
O9 O 0.5036(5) 0.3097(3) 0.0190(9)
O10 O 0.6118(5) 0.3408(3) -0.0230(9)
O11 O -0.2421(8) -0.0001(3) 0.3422(15)
O12 O -0.199(2) 0.0401(9) 0.4908(19)
O13 O -0.2201(7) 0.0154(3) 0.0184(11)
O14 O -0.1857(8) -0.0286(3) -0.1194(10)
O15 O 0.9023(3) 0.27869(13) 0.0488(5)
O16 O 0.9556(3) 0.23974(14) 0.2367(5)
O17 O -0.0995(4) -0.18052(15) 0.2683(6)
O18 O -0.1639(3) -0.16733(13) 0.0465(5)
C1 C -0.0071(5) 0.14377(19) 0.3170(7)
C2 C -0.0339(5) 0.09978(19) 0.3000(7)
C3 C 0.0109(6) 0.0732(2) 0.2369(10)
H3 H 0.0580 0.0828 0.2045
C4 C -0.0127(7) 0.0327(2) 0.2207(11)
H4 H 0.0204 0.0153 0.1810
C5 C -0.0845(6) 0.0174(2) 0.2622(9)
C6 C -0.1293(6) 0.0449(2) 0.3251(10)
C7 C -0.1033(6) 0.0848(2) 0.3455(9)
H5 H -0.1333 0.1019 0.3911
C8 C -0.1071(6) -0.0270(2) 0.2398(9)
C9 C -0.1493(7) -0.0436(2) 0.1104(10)
C10 C -0.1580(6) -0.0849(2) 0.0882(9)
H6 H -0.1870 -0.0948 0.0005
C11 C -0.1239(5) -0.1114(2) 0.1947(8)
C12 C -0.0784(7) -0.0957(2) 0.3238(9)
H7 H -0.0530 -0.1134 0.3966
C13 C -0.0704(7) -0.0539(2) 0.3452(10)
H8 H -0.0398 -0.0440 0.4323
C14 C -0.1290(5) -0.1567(2) 0.1710(8)
C15 C 0.2695(4) 0.24767(18) 0.2967(6)
C16 C 0.3606(4) 0.2483(2) 0.2704(7)
C17 C 0.4182(5) 0.2805(2) 0.3229(8)
H9 H 0.4006 0.3008 0.3737
C18 C 0.5023(5) 0.2820(3) 0.2988(9)
C19 C 0.5317(4) 0.2522(3) 0.2218(8)
C20 C 0.4733(4) 0.2198(2) 0.1760(8)
H10 H 0.4913 0.1987 0.1286
C21 C 0.3888(5) 0.2181(2) 0.1989(8)
H11 H 0.3506 0.1962 0.1652
C22 C 0.6215(4) 0.2534(3) 0.1907(7)
C23 C 0.6852(5) 0.2235(3) 0.2470(9)
H12 H 0.6684 0.2020 0.2942
C24 C 0.7726(4) 0.2245(2) 0.2354(8)
H13 H 0.8140 0.2045 0.2776
C25 C 0.7988(4) 0.2552(2) 0.1613(7)
C26 C 0.7340(4) 0.2844(2) 0.0971(8)
H14 H 0.7496 0.3046 0.0438
C27 C 0.6482(5) 0.2834(2) 0.1116(7)
C28 C 0.8938(4) 0.25794(18) 0.1497(6)
N1 N -0.2083(9) 0.0326(3) 0.3704(15)
N2 N 0.5637(5) 0.3153(3) 0.3628(9)
N3 N 0.5843(4) 0.3141(2) 0.0379(8)
N4 N -0.1877(7) -0.0165(3) -0.0070(10)
Cu1A Cu -0.15488(5) -0.22533(2) 0.03918(8)
Cu1C Cu 0.15488(5) 0.22533(2) -0.03918(8)
Cu2_2 Cu 1.00823(5) 0.21721(2) 0.48399(8)
Cu2B Cu -0.00823(5) -0.21721(2) 0.51601(8)
Cu2C Cu 0.00823(5) 0.28279(2) -0.01601(8)
Cu2C_2 Cu 1.00823(5) 0.28279(2) -0.01601(8)
Cu3_2 Cu 1.08122(5) 0.21667(2) 0.22564(8)
O4C O 0.2067(3) 0.27170(14) 0.7132(5)
O6C O 0.0453(3) 0.27491(11) 0.5289(4)
O15C O -0.0977(3) 0.22131(13) 0.5488(5)
O16_2 O -0.0444(3) 0.23974(14) 0.2367(5)
O17A O 0.0995(4) 0.31948(15) 0.2317(6)
O17B O 0.0995(4) 0.18052(15) 0.7317(6)
O18A O 0.1639(3) 0.33267(13) 0.4535(5)
O21 O -0.0777(10) 0.1717(5) -0.1248(17)
H15 H -0.0354 0.1693 -0.1631
C29 C -0.1892(18) 0.1332(8) -0.043(3)
H16 H -0.1740 0.1514 0.0345
H17 H -0.1973 0.1062 -0.0125
H18 H -0.2445 0.1422 -0.1085
C30 C -0.1134(16) 0.1331(5) -0.111(2)
H19 H -0.0640 0.1161 -0.0552
C31 C -0.148(2) 0.1143(7) -0.253(2)
H20 H -0.1020 0.1166 -0.3012
H21 H -0.2017 0.1290 -0.3063
C32 C -0.173(2) 0.0690(7) -0.243(3)
H22 H -0.1737 0.0553 -0.3271
H23 H -0.2315 0.0670 -0.2277
H24 H -0.1281 0.0565 -0.1673
O22 O 0.2394(9) 0.1626(4) 0.5496(14)
H25 H 0.2001 0.1602 0.5937
C33 C 0.2950(14) 0.1237(6) 0.3876(15)
H26 H 0.2438 0.1321 0.3131
H27 H 0.3133 0.0968 0.3693
H28 H 0.3445 0.1422 0.3957
C34 C 0.2687(12) 0.1234(6) 0.5211(17)
H29 H 0.2193 0.1038 0.5132
C35 C 0.3510(15) 0.1096(6) 0.6323(17)
H30 H 0.3368 0.1090 0.7198
H31 H 0.3999 0.1290 0.6403
C36 C 0.3830(18) 0.0678(6) 0.604(3)
H32 H 0.4357 0.0603 0.6769
H33 H 0.3981 0.0684 0.5178
H34 H 0.3354 0.0484 0.5977
O19? O 0.5973(15) 0.3373(6) 0.295(2)
O20? O -0.2609(11) 0.0583(5) 0.389(2)
loop_
_geom_bond_atom_site_label_1
_geom_bond_atom_site_label_2
_geom_bond_site_symmetry_1
_geom_bond_site_symmetry_2
Cu1 O1 1_555 1_555
Cu2 O1 1_555 1_555
Cu3 O1 1_555 1_555
O1 H1 1_555 1_555
O2 Cu3 1_555 1_555
O3 Cu2 1_555 1_555
O4 Cu3 1_555 1_555
O5 Cu1 1_555 1_555
O6 Cu3 1_555 1_555
H2 O6 1_555 1_555
O7 N2 1_555 1_555
O8 N2 1_555 1_555
O9 N3 1_555 1_555
O10 N3 1_555 1_555
O11 N1 1_555 1_555
O12 N1 1_555 1_555
O13 N4 1_555 1_555
O14 N4 1_555 1_555
O15 C28 1_555 1_555
O16 C28 1_555 1_555
O17 C14 1_555 1_555
O18 C14 1_555 1_555
C1 O2 1_555 1_555
C2 C1 1_555 1_555
C3 C2 1_555 1_555
H3 C3 1_555 1_555
C4 C3 1_555 1_555
H4 C4 1_555 1_555
C5 C4 1_555 1_555
C6 C5 1_555 1_555
C7 C2 1_555 1_555
H5 C7 1_555 1_555
C8 C5 1_555 1_555
C9 C8 1_555 1_555
C10 C9 1_555 1_555
H6 C10 1_555 1_555
C11 C10 1_555 1_555
C12 C11 1_555 1_555
H7 C12 1_555 1_555
C13 C8 1_555 1_555
H8 C13 1_555 1_555
C14 C11 1_555 1_555
C15 O4 1_555 1_555
C16 C15 1_555 1_555
C17 C16 1_555 1_555
H9 C17 1_555 1_555
C18 C17 1_555 1_555
C19 C18 1_555 1_555
C20 C19 1_555 1_555
H10 C20 1_555 1_555
C21 C16 1_555 1_555
H11 C21 1_555 1_555
C22 C19 1_555 1_555
C23 C22 1_555 1_555
H12 C23 1_555 1_555
C24 C23 1_555 1_555
H13 C24 1_555 1_555
C25 C24 1_555 1_555
C26 C25 1_555 1_555
H14 C26 1_555 1_555
C27 C22 1_555 1_555
C28 C25 1_555 1_555
N1 C6 1_555 1_555
N2 C18 1_555 1_555
N3 C27 1_555 1_555
N4 C9 1_555 1_555
O21 H15 1_555 1_555
C29 H16 1_555 1_555
H17 C29 1_555 1_555
H18 C29 1_555 1_555
C30 O21 1_555 1_555
H19 C30 1_555 1_555
C31 C30 1_555 1_555
H20 C31 1_555 1_555
H21 C31 1_555 1_555
C32 C31 1_555 1_555
H22 C32 1_555 1_555
H23 C32 1_555 1_555
H24 C32 1_555 1_555
O22 H25 1_555 1_555
C33 H26 1_555 1_555
H27 C33 1_555 1_555
H28 C33 1_555 1_555
C34 O22 1_555 1_555
H29 C34 1_555 1_555
C35 C34 1_555 1_555
H30 C35 1_555 1_555
H31 C35 1_555 1_555
C36 C35 1_555 1_555
H32 C36 1_555 1_555
H33 C36 1_555 1_555
H34 C36 1_555 1_555
Cu1A O17 1_555 1_555
Cu1C O4 1_555 1_555
Cu2_2 O16 1_555 1_555
Cu2B O17 1_555 1_555
Cu2C O6 1_555 1_555
Cu2C_2 O15 1_555 1_555
Cu3_2 O16 1_555 1_555
O4C Cu1 1_555 1_555
O6C Cu1 1_555 1_555
O15C Cu2 1_555 1_555
O16_2 Cu2 1_555 1_555
O17A Cu1 1_555 1_555
O17B Cu2 1_555 1_555
O18A Cu1 1_555 1_555
Cu2 O6C 1_555 1_555
Cu3 O16_2 1_555 1_555
O3 C1 1_555 1_555
O5 C15 1_555 1_555
O6 Cu1C 1_555 1_555
O18 Cu1A 1_555 1_555
C6 C7 1_555 1_555
C12 C13 1_555 1_555
C20 C21 1_555 1_555
C26 C27 1_555 1_555
C29 C30 1_555 1_555
C33 C34 1_555 1_555
Cu2C O17A 1_555 1_555

#END
