
#######################################################################
#
#                 Cambridge Crystallographic Data Centre
#                                CCDC 
#
#######################################################################
#
# If this CIF has been generated from an entry in the Cambridge 
# Structural Database, then it will include bibliographic, chemical, 
# crystal, experimental, refinement or atomic coordinate data resulting 
# from the CCDC's data processing and validation procedures.
#
#######################################################################

data_EBEWIT
_chemical_formula_moiety         '(C9 H5 Gd1 O7)n,n(C3 H7 N1 O1),0.5n(H2 O1)'
_chemical_name_systematic        
'catena-((\m~6~-Benzene-1,3,5-tricarboxylato)-aqua-gadolinium dimethylformamide solvate hemihydrate)'
_symmetry_cell_setting           tetragonal
_symmetry_space_group_name_H-M   'P 43 2 2'
_symmetry_Int_Tables_number      95
_space_group_name_Hall           'P 4cw 2c'
loop_
_symmetry_equiv_pos_site_id
_symmetry_equiv_pos_as_xyz
1 x,y,z
2 -x,-y,1/2+z
3 -y,x,3/4+z
4 y,-x,1/4+z
5 -x,y,-z
6 x,-y,1/2-z
7 y,x,1/4-z
8 -y,-x,3/4-z
_cell_length_a                   10.3604(7)
_cell_length_b                   10.3604(7)
_cell_length_c                   14.5059(10)
_cell_angle_alpha                90
_cell_angle_beta                 90
_cell_angle_gamma                90
_cell_volume                     1557.03
_exptl_crystal_colour            colorless
_exptl_crystal_description       rod
_cell_formula_units_Z            4
loop_
_atom_site_label
_atom_site_type_symbol
_atom_site_fract_x
_atom_site_fract_y
_atom_site_fract_z
Gd1 Gd 0.85433(2) 0.85433(2) 0.6250
O1 O 0.9308(5) 0.6645(5) 0.5586(3)
O2 O 0.9105(5) 0.2475(5) 0.7362(4)
O3 O 0.8931(5) 0.0724(5) 0.6545(3)
O4 O 0.6859(6) 0.6859(6) 0.6250
C1 C 1.0000 0.6107(8) 0.5000
C2 C 0.9172(6) 0.1890(6) 0.6606(4)
C3 C 1.0000 0.4629(8) 0.5000
C4 C 0.9588(6) 0.3978(6) 0.5770(4)
H1 H 0.9302 0.4434 0.6283
C5 C 0.9601(7) 0.2625(6) 0.5780(4)
C6 C 1.0000 0.1994(9) 0.5000
H2 H 1.0000 0.1096 0.5000
Gd1C Gd 0.85433(2) 0.14567(2) 0.8750
Gd1_2 Gd 0.85433(2) -0.14567(2) 0.6250
Gd1B Gd 1.14567(2) 0.85433(2) 0.3750
Gd1A Gd 1.14567(2) 0.14567(2) 0.1250
Gd1B_2 Gd 1.14567(2) -0.14567(2) 0.3750
O1D O 1.0692(5) 0.6645(5) 0.4414(3)
O1F O 0.6645(5) 0.9308(5) 0.6914(3)
O2D O 1.0895(5) 0.2475(5) 0.2638(4)
O2B O 0.7525(5) 0.9105(5) 0.4862(4)
O2E O 0.9105(5) 0.7525(5) 0.7638(4)
O3D O 1.1069(5) 0.0724(5) 0.3455(3)
O3_2 O 0.8931(5) 1.0724(5) 0.6545(3)
O3F O 1.0724(5) 0.8931(5) 0.5955(3)
C2D C 1.0828(6) 0.1890(6) 0.3394(4)
C4D C 1.0412(6) 0.3978(6) 0.4230(4)
H1D H 1.0698 0.4434 0.3717
C5D C 1.0399(7) 0.2625(6) 0.4220(4)
loop_
_geom_bond_atom_site_label_1
_geom_bond_atom_site_label_2
_geom_bond_site_symmetry_1
_geom_bond_site_symmetry_2
Gd1 O1 1_555 1_555
O1 C1 1_555 1_555
O2 C2 1_555 1_555
O3 C2 1_555 1_555
O4 Gd1 1_555 1_555
C1 C3 1_555 1_555
C2 C5 1_555 1_555
C3 C4 1_555 1_555
C4 H1 1_555 1_555
C5 C4 1_555 1_555
C6 C5 1_555 1_555
H2 C6 1_555 1_555
Gd1C O2 1_555 1_555
Gd1_2 O3 1_555 1_555
Gd1B O1D 1_555 1_555
Gd1A O2D 1_555 1_555
Gd1B_2 O3D 1_555 1_555
O1D C1 1_555 1_555
O1F Gd1 1_555 1_555
O2D C2D 1_555 1_555
O2B Gd1 1_555 1_555
O2E Gd1 1_555 1_555
O3D C2D 1_555 1_555
O3_2 Gd1 1_555 1_555
O3F Gd1 1_555 1_555
C2D C5D 1_555 1_555
C4D C3 1_555 1_555
H1D C4D 1_555 1_555
C5D C6 1_555 1_555
C4D C5D 1_555 1_555

#END
