
#######################################################################
#
#                 Cambridge Crystallographic Data Centre
#                                CCDC 
#
#######################################################################
#
# If this CIF has been generated from an entry in the Cambridge 
# Structural Database, then it will include bibliographic, chemical, 
# crystal, experimental, refinement or atomic coordinate data resulting 
# from the CCDC's data processing and validation procedures.
#
#######################################################################

data_EBEXIU02
_chemical_formula_moiety         '(C11 H9 Gd1 O7)n,n(C2 H3 N1)'
_chemical_name_systematic        
'catena-((\m~6~-Benzene-1,3,5-tricarboxylato)-ethanol-gadolinium acetonitrile solvate)'
_symmetry_cell_setting           tetragonal
_symmetry_space_group_name_H-M   'P 41 2 2'
_symmetry_Int_Tables_number      91
_space_group_name_Hall           'P 4w 2c'
loop_
_symmetry_equiv_pos_site_id
_symmetry_equiv_pos_as_xyz
1 x,y,z
2 -x,-y,1/2+z
3 -y,x,1/4+z
4 y,-x,3/4+z
5 -x,y,-z
6 x,-y,1/2-z
7 y,x,3/4-z
8 -y,-x,1/4-z
_cell_length_a                   10.3149(14)
_cell_length_b                   10.3149(14)
_cell_length_c                   14.339(4)
_cell_angle_alpha                90
_cell_angle_beta                 90
_cell_angle_gamma                90
_cell_volume                     1525.63
_exptl_crystal_colour            colorless
_exptl_crystal_description       rod
_cell_formula_units_Z            4
loop_
_atom_site_label
_atom_site_type_symbol
_atom_site_fract_x
_atom_site_fract_y
_atom_site_fract_z
Gd1 Gd 0.85983(3) 0.14017(3) 0.1250
O1 O 0.9302(7) 0.3297(6) 0.0595(4)
O2 O 0.9246(8) 0.7503(7) 0.2417(5)
O3 O 0.9001(7) 0.9228(7) 0.1610(4)
O4 O 0.693(2) 0.304(2) 0.0899(13)
H1 H 0.7425 0.3766 0.0615
C3 C 1.0000 0.3865(10) 0.0000
C4 C 0.9271(9) 0.8067(9) 0.1651(5)
C5 C 1.0000 0.5303(11) 0.0000
C6 C 0.9645(8) 0.5993(7) 0.0799(5)
H2 H 0.9395 0.5536 0.1346
C7 C 0.9654(8) 0.7331(7) 0.0802(5)
C8 C 1.0000 0.7970(11) 0.0000
H3 H 1.0000 0.8891 0.0000
C9 C 0.575(4) 0.297(4) 0.034(3)
H4 H 0.5562 0.2063 0.0176
C10 C 0.458(4) 0.357(4) 0.096(4)
H5 H 0.3774 0.3537 0.0608
H6 H 0.4783 0.4475 0.1122
Gd1B Gd 0.85983(3) 0.85983(3) 0.3750
Gd1_2 Gd 0.85983(3) 1.14017(3) 0.1250
Gd1C Gd 1.14017(3) 0.14017(3) -0.1250
Gd1A Gd 1.14017(3) 0.85983(3) -0.3750
Gd1C_2 Gd 1.14017(3) 1.14017(3) -0.1250
O1D O 1.0698(7) 0.3297(6) -0.0595(4)
O1G O 0.6703(6) 0.0698(7) 0.1905(4)
O2D O 1.0754(8) 0.7503(7) -0.2417(5)
O2C O 0.7503(7) 0.0754(8) -0.0083(5)
O2E O 0.9246(8) 0.2497(7) 0.2583(5)
O3D O 1.0999(7) 0.9228(7) -0.1610(4)
O3_2 O 0.9001(7) -0.0772(7) 0.1610(4)
O3G O 1.0772(7) 0.0999(7) 0.0890(4)
O4G O 0.696(2) 0.307(2) 0.1601(13)
H1G H 0.6234 0.2575 0.1885
C4D C 1.0729(9) 0.8067(9) -0.1651(5)
C6D C 1.0355(8) 0.5993(7) -0.0799(5)
H2D H 1.0605 0.5536 -0.1346
C7D C 1.0346(8) 0.7331(7) -0.0802(5)
C9G C 0.703(4) 0.425(4) 0.216(3)
H4G H 0.7937 0.4438 0.2324
C10G C 0.643(4) 0.542(4) 0.154(4)
H5G H 0.6463 0.6226 0.1892
H6G H 0.5525 0.5217 0.1378
N1 N 0.434(2) 0.324(3) 0.246(3)
C1 C 0.333(3) 0.359(2) 0.236(4)
C2 C 0.208(4) 0.412(3) 0.221(4)
H7? H 0.5859 0.3478 -0.0240
H8? H 0.4490 0.3066 0.1539
H9? H 0.1956 0.4879 0.2616
H10? H 0.1416 0.3469 0.2359
H11? H 0.1988 0.4387 0.1558
loop_
_geom_bond_atom_site_label_1
_geom_bond_atom_site_label_2
_geom_bond_site_symmetry_1
_geom_bond_site_symmetry_2
N1 C1 1_555 1_555
C1 C2 1_555 1_555
Gd1 O1 1_555 1_555
O1 C3 1_555 1_555
O2 C4 1_555 1_555
O3 C4 1_555 1_555
O4 Gd1 1_555 1_555
H1 O4 1_555 1_555
C3 C5 1_555 1_555
C4 C7 1_555 1_555
C5 C6 1_555 1_555
C6 H2 1_555 1_555
C7 C6 1_555 1_555
C8 C7 1_555 1_555
H3 C8 1_555 1_555
C9 O4 1_555 1_555
H4 C9 1_555 1_555
C10 C9 1_555 1_555
H5 C10 1_555 1_555
H6 C10 1_555 1_555
Gd1B O2 1_555 1_555
Gd1_2 O3 1_555 1_555
Gd1C O1D 1_555 1_555
Gd1A O2D 1_555 1_555
Gd1C_2 O3D 1_555 1_555
O1D C3 1_555 1_555
O1G Gd1 1_555 1_555
O2D C4D 1_555 1_555
O2C Gd1 1_555 1_555
O2E Gd1 1_555 1_555
O3D C4D 1_555 1_555
O3_2 Gd1 1_555 1_555
O3G Gd1 1_555 1_555
O4G Gd1 1_555 1_555
H1G O4G 1_555 1_555
C4D C7D 1_555 1_555
C6D C5 1_555 1_555
H2D C6D 1_555 1_555
C7D C8 1_555 1_555
C9G O4G 1_555 1_555
H4G C9G 1_555 1_555
C10G C9G 1_555 1_555
H5G C10G 1_555 1_555
H6G C10G 1_555 1_555
O4 O4G 1_555 1_555
C6D C7D 1_555 1_555

#END
