
#######################################################################
#
#                 Cambridge Crystallographic Data Centre
#                                CCDC 
#
#######################################################################
#
# If this CIF has been generated from an entry in the Cambridge 
# Structural Database, then it will include bibliographic, chemical, 
# crystal, experimental, refinement or atomic coordinate data resulting 
# from the CCDC's data processing and validation procedures.
#
#######################################################################

data_TERFED
_chemical_formula_moiety         '(C4 H12 N1 1+)3n,n(C73 H37 N9 O29 Zn4 3-)'
_chemical_name_systematic        
"catena-(tris(Tetramethylammonium) tris(\m~6~-4,4',4''-(1,3,5-triazine-2,4,6-triyltris(oxy))tribenzoato)-(\m~2~-formato)-tetra-zinc)"
_symmetry_cell_setting           trigonal
_symmetry_space_group_name_H-M   'P -3 1 c'
_symmetry_Int_Tables_number      163
_space_group_name_Hall           '-P 3 2c'
loop_
_symmetry_equiv_pos_site_id
_symmetry_equiv_pos_as_xyz
1 x,y,z
2 -y,x-y,z
3 -x+y,-x,z
4 -y,-x,1/2-z
5 x,x-y,1/2-z
6 -x+y,y,1/2-z
7 -x,-y,-z
8 y,-x+y,-z
9 x-y,x,-z
10 y,x,1/2+z
11 -x,-x+y,1/2+z
12 x-y,-y,1/2+z
_cell_length_a                   16.4900(10)
_cell_length_b                   16.4900(10)
_cell_length_c                   14.0500(10)
_cell_angle_alpha                90
_cell_angle_beta                 90
_cell_angle_gamma                120
_cell_volume                     3308.63
_exptl_crystal_colour            colorless
_exptl_crystal_description       prism
_cell_formula_units_Z            2
loop_
_atom_site_label
_atom_site_type_symbol
_atom_site_fract_x
_atom_site_fract_y
_atom_site_fract_z
Zn1 Zn -0.3333 0.3333 -0.25
Zn2 Zn -0.3333 0.3333 0.00231(8)
C3 C -0.3333 0.3333 0.25000
O1 O 0.0542(2) 0.1787(3) -0.1373(3)
O2 O -0.2257(4) 0.3357(3) -0.1699(4)
O3 O -0.2451(4) 0.2918(3) -0.0196(3)
N2 N -0.0673(3) 0.0260(4) -0.1332(3)
C4 C -0.0327(4) 0.2414(6) -0.2092(4)
H1 H -0.007 0.2416 -0.2681
C5 C -0.0485(4) 0.2063(6) -0.0399(4)
H2 H -0.0311 0.1846 0.013
C6 C 0.0238(4) 0.0858(6) -0.1337(4)
C7 C -0.0954(4) 0.2760(6) -0.1971(4)
H3 H -0.1092 0.3024 -0.2486
C8 C -0.2078(4) 0.3014(6) -0.1044(5)
C9 C -0.1355(4) 0.2712(5) -0.1115(4)
C10 C -0.0121(3) 0.2076(4) -0.1284(4)
C11 C -0.1116(4) 0.2381(6) -0.0317(5)
H4 H -0.1379 0.2373 0.0271
O4 O -0.370(2) 0.3300(12) 0.1428(11)
Zn1A Zn -1.3333 -0.6666 -0.25
Zn1B Zn -0.3334 -0.6667 -0.25
Zn1_2 Zn -1.3333 -1.6667 -0.25
Zn1_3 Zn -1.3333 0.3333 -0.25
Zn1_4 Zn 0.6667 0.3333 -0.25
Zn2A Zn -1.3333 -0.6666 0.00231(8)
Zn2B Zn -0.3334 -0.6667 0.00231(8)
Zn2C Zn -1.3333 -0.6667 -0.50231(8)
Zn2D Zn -0.3333 -0.6666 -0.50231(8)
Zn2E Zn -0.3334 0.3333 -0.50231(8)
Zn2_2 Zn -1.3333 -1.6667 0.00231(8)
Zn2_3 Zn -1.3333 0.3333 0.00231(8)
Zn2_4 Zn -0.3333 -0.6667 -0.99769(8)
Zn2_5 Zn -0.3333 0.3333 -0.99769(8)
Zn2_6 Zn 0.6667 0.3333 0.00231(8)
Zn2C_2 Zn -1.3333 -1.6667 -0.50231(8)
Zn2C_3 Zn -1.3333 0.3333 -0.50231(8)
Zn2C_4 Zn -0.3333 0.3333 0.49769(8)
Zn2C_5 Zn 0.6667 0.3333 -0.50231(8)
C3A C -0.3333 -0.6666 -0.75000
C3B C -0.3334 0.3333 -0.75000
O1A O -0.1787(3) -0.1245(4) -0.1373(3)
O1B O 0.1245(4) -0.0542(2) -0.1373(3)
O1A_2 O -1.1787(3) -0.1245(4) -0.1373(3)
O1B_2 O -0.8755(4) -0.0542(2) -0.1373(3)
O1_2 O -0.9458(2) 0.1787(3) -0.1373(3)
O1B_3 O -0.8755(4) -1.0542(2) -0.1373(3)
O1_3 O -0.9458(2) -0.8213(3) -0.1373(3)
O1A_3 O -1.1787(3) -1.1245(4) -0.1373(3)
O1C O -1.1787(3) -1.0542(2) -0.3627(3)
O1E O -0.8755(4) -0.8213(3) -0.3627(3)
O1D O -0.9458(2) -1.1245(4) -0.3627(3)
O1D_2 O 0.0542(2) -0.1245(4) -0.3627(3)
O1C_2 O -0.1787(3) -0.0542(2) -0.3627(3)
O1E_2 O 0.1245(4) 0.1787(3) -0.3627(3)
O1E_3 O -0.8755(4) 0.1787(3) -0.3627(3)
O1D_3 O -0.9458(2) -0.1245(4) -0.3627(3)
O1C_3 O -1.1787(3) -0.0542(2) -0.3627(3)
O2A O -0.3357(3) -0.5614(5) -0.1699(4)
O2B O 0.5614(5) 0.2257(4) -0.1699(4)
O2A_2 O -1.3357(3) -0.5614(5) -0.1699(4)
O2B_2 O -0.4386(5) 0.2257(4) -0.1699(4)
O2_2 O -1.2257(4) 0.3357(3) -0.1699(4)
O2B_3 O -0.4386(5) -0.7743(4) -0.1699(4)
O2_3 O -1.2257(4) -0.6643(3) -0.1699(4)
O2A_3 O -1.3357(3) -1.5614(5) -0.1699(4)
O2C O -1.3357(3) -0.7743(4) -0.3301(4)
O2E O -0.4386(5) -0.6643(3) -0.3301(4)
O2D O -1.2257(4) -1.5614(5) -0.3301(4)
O2D_2 O -0.2257(4) -0.5614(5) -0.3301(4)
O2C_2 O -0.3357(3) 0.2257(4) -0.3301(4)
O2E_2 O 0.5614(5) 0.3357(3) -0.3301(4)
O2E_3 O -0.4386(5) 0.3357(3) -0.3301(4)
O2D_3 O -1.2257(4) -0.5614(5) -0.3301(4)
O2C_3 O -1.3357(3) 0.2257(4) -0.3301(4)
O2_4 O -0.2257(4) -0.6643(3) -0.1699(4)
O2A_4 O -0.3357(3) 0.4386(5) -0.1699(4)
O2B_4 O -1.4386(5) -0.7743(4) -0.1699(4)
O2C_4 O -0.3357(3) -0.7743(4) -0.3301(4)
O2D_4 O -0.2257(4) 0.4386(5) -0.3301(4)
O2E_4 O -1.4386(5) -0.6643(3) -0.3301(4)
O3A O -0.2918(3) -0.5369(5) -0.0196(3)
O3B O 0.5369(5) 0.2451(4) -0.0196(3)
O3A_2 O -1.2918(3) -0.5369(5) -0.0196(3)
O3B_2 O -0.4631(5) 0.2451(4) -0.0196(3)
O3_2 O -1.2451(4) 0.2918(3) -0.0196(3)
O3B_3 O -0.4631(5) -0.7549(4) -0.0196(3)
O3_3 O -1.2451(4) -0.7082(3) -0.0196(3)
O3A_3 O -1.2918(3) -1.5369(5) -0.0196(3)
O3C O -1.2918(3) -0.7549(4) -0.4804(3)
O3E O -0.4631(5) -0.7082(3) -0.4804(3)
O3D O -1.2451(4) -1.5369(5) -0.4804(3)
O3D_2 O -0.2451(4) -0.5369(5) -0.4804(3)
O3C_2 O -0.2918(3) 0.2451(4) -0.4804(3)
O3E_2 O 0.5369(5) 0.2918(3) -0.4804(3)
O3E_3 O -0.4631(5) 0.2918(3) -0.4804(3)
O3D_3 O -1.2451(4) -0.5369(5) -0.4804(3)
O3C_3 O -1.2918(3) 0.2451(4) -0.4804(3)
O3_4 O -0.2451(4) -0.7082(3) -0.0196(3)
O3A_4 O -0.2918(3) 0.4631(5) -0.0196(3)
O3B_4 O -1.4631(5) -0.7549(4) -0.0196(3)
O3C_4 O -0.2918(3) -0.7549(4) -0.4804(3)
O3D_4 O -0.2451(4) 0.4631(5) -0.4804(3)
O3E_4 O -1.4631(5) -0.7082(3) -0.4804(3)
N2A N -0.0260(4) -0.0933(5) -0.1332(3)
N2B N 0.0933(5) 0.0673(3) -0.1332(3)
N2A_2 N -1.0260(4) -0.0933(5) -0.1332(3)
N2B_2 N -0.9067(5) 0.0673(3) -0.1332(3)
N2_2 N -1.0673(3) 0.0260(4) -0.1332(3)
N2B_3 N -0.9067(5) -0.9327(3) -0.1332(3)
N2_3 N -1.0673(3) -0.9740(4) -0.1332(3)
N2A_3 N -1.0260(4) -1.0933(5) -0.1332(3)
N2C N -1.0260(4) -0.9327(3) -0.3668(3)
N2E N -0.9067(5) -0.9740(4) -0.3668(3)
N2D N -1.0673(3) -1.0933(5) -0.3668(3)
N2D_2 N -0.0673(3) -0.0933(5) -0.3668(3)
N2C_2 N -0.0260(4) 0.0673(3) -0.3668(3)
N2E_2 N 0.0933(5) 0.0260(4) -0.3668(3)
N2E_3 N -0.9067(5) 0.0260(4) -0.3668(3)
N2D_3 N -1.0673(3) -0.0933(5) -0.3668(3)
N2C_3 N -1.0260(4) 0.0673(3) -0.3668(3)
C4A C -0.2414(6) -0.2741(7) -0.2092(4)
C4B C 0.2741(7) 0.0327(4) -0.2092(4)
C4A_2 C -1.2414(6) -0.2741(7) -0.2092(4)
C4B_2 C -0.7259(7) 0.0327(4) -0.2092(4)
C4_2 C -1.0327(4) 0.2414(6) -0.2092(4)
C4B_3 C -0.7259(7) -0.9673(4) -0.2092(4)
C4_3 C -1.0327(4) -0.7586(6) -0.2092(4)
C4A_3 C -1.2414(6) -1.2741(7) -0.2092(4)
C4C C -1.2414(6) -0.9673(4) -0.2908(4)
C4E C -0.7259(7) -0.7586(6) -0.2908(4)
C4D C -1.0327(4) -1.2741(7) -0.2908(4)
C4D_2 C -0.0327(4) -0.2741(7) -0.2908(4)
C4C_2 C -0.2414(6) 0.0327(4) -0.2908(4)
C4E_2 C 0.2741(7) 0.2414(6) -0.2908(4)
C4E_3 C -0.7259(7) 0.2414(6) -0.2908(4)
C4D_3 C -1.0327(4) -0.2741(7) -0.2908(4)
C4C_3 C -1.2414(6) 0.0327(4) -0.2908(4)
H1A H -0.2416 -0.2486 -0.2681
H1B H 0.2486 0.007 -0.2681
H1A_2 H -1.2416 -0.2486 -0.2681
H1B_2 H -0.7514 0.007 -0.2681
H1_2 H -1.007 0.2416 -0.2681
H1B_3 H -0.7514 -0.993 -0.2681
H1_3 H -1.007 -0.7584 -0.2681
H1A_3 H -1.2416 -1.2486 -0.2681
H1C H -1.2416 -0.993 -0.2319
H1E H -0.7514 -0.7584 -0.2319
H1D H -1.007 -1.2486 -0.2319
H1D_2 H -0.007 -0.2486 -0.2319
H1C_2 H -0.2416 0.007 -0.2319
H1E_2 H 0.2486 0.2416 -0.2319
H1E_3 H -0.7514 0.2416 -0.2319
H1D_3 H -1.007 -0.2486 -0.2319
H1C_3 H -1.2416 0.007 -0.2319
C5A C -0.2063(6) -0.2548(7) -0.0399(4)
C5B C 0.2548(7) 0.0485(4) -0.0399(4)
C5A_2 C -1.2063(6) -0.2548(7) -0.0399(4)
C5B_2 C -0.7452(7) 0.0485(4) -0.0399(4)
C5_2 C -1.0485(4) 0.2063(6) -0.0399(4)
C5B_3 C -0.7452(7) -0.9515(4) -0.0399(4)
C5_3 C -1.0485(4) -0.7937(6) -0.0399(4)
C5A_3 C -1.2063(6) -1.2548(7) -0.0399(4)
C5C C -1.2063(6) -0.9515(4) -0.4601(4)
C5E C -0.7452(7) -0.7937(6) -0.4601(4)
C5D C -1.0485(4) -1.2548(7) -0.4601(4)
C5D_2 C -0.0485(4) -0.2548(7) -0.4601(4)
C5C_2 C -0.2063(6) 0.0485(4) -0.4601(4)
C5E_2 C 0.2548(7) 0.2063(6) -0.4601(4)
C5E_3 C -0.7452(7) 0.2063(6) -0.4601(4)
C5D_3 C -1.0485(4) -0.2548(7) -0.4601(4)
C5C_3 C -1.2063(6) 0.0485(4) -0.4601(4)
H2A H -0.1846 -0.2157 0.013
H2B H 0.2157 0.0311 0.013
H2A_2 H -1.1846 -0.2157 0.013
H2B_2 H -0.7843 0.0311 0.013
H2_2 H -1.0311 0.1846 0.013
H2B_3 H -0.7843 -0.9689 0.013
H2_3 H -1.0311 -0.8154 0.013
H2A_3 H -1.1846 -1.2157 0.013
H2C H -1.1846 -0.9689 -0.513
H2E H -0.7843 -0.8154 -0.513
H2D H -1.0311 -1.2157 -0.513
H2D_2 H -0.0311 -0.2157 -0.513
H2C_2 H -0.1846 0.0311 -0.513
H2E_2 H 0.2157 0.1846 -0.513
H2E_3 H -0.7843 0.1846 -0.513
H2D_3 H -1.0311 -0.2157 -0.513
H2C_3 H -1.1846 0.0311 -0.513
C6A C -0.0858(6) -0.0620(7) -0.1337(4)
C6B C 0.0620(7) -0.0238(4) -0.1337(4)
C6A_2 C -1.0858(6) -0.0620(7) -0.1337(4)
C6B_2 C -0.9380(7) -0.0238(4) -0.1337(4)
C6_2 C -0.9762(4) 0.0858(6) -0.1337(4)
C6B_3 C -0.9380(7) -1.0238(4) -0.1337(4)
C6_3 C -0.9762(4) -0.9142(6) -0.1337(4)
C6A_3 C -1.0858(6) -1.0620(7) -0.1337(4)
C6C C -1.0858(6) -1.0238(4) -0.3663(4)
C6E C -0.9380(7) -0.9142(6) -0.3663(4)
C6D C -0.9762(4) -1.0620(7) -0.3663(4)
C6D_2 C 0.0238(4) -0.0620(7) -0.3663(4)
C6C_2 C -0.0858(6) -0.0238(4) -0.3663(4)
C6E_2 C 0.0620(7) 0.0858(6) -0.3663(4)
C6E_3 C -0.9380(7) 0.0858(6) -0.3663(4)
C6D_3 C -0.9762(4) -0.0620(7) -0.3663(4)
C6C_3 C -1.0858(6) -0.0238(4) -0.3663(4)
C7A C -0.2760(6) -0.3714(7) -0.1971(4)
C7B C 0.3714(7) 0.0954(4) -0.1971(4)
C7A_2 C -1.2760(6) -0.3714(7) -0.1971(4)
C7B_2 C -0.6286(7) 0.0954(4) -0.1971(4)
C7_2 C -1.0954(4) 0.2760(6) -0.1971(4)
C7B_3 C -0.6286(7) -0.9046(4) -0.1971(4)
C7_3 C -1.0954(4) -0.7240(6) -0.1971(4)
C7A_3 C -1.2760(6) -1.3714(7) -0.1971(4)
C7C C -1.2760(6) -0.9046(4) -0.3029(4)
C7E C -0.6286(7) -0.7240(6) -0.3029(4)
C7D C -1.0954(4) -1.3714(7) -0.3029(4)
C7D_2 C -0.0954(4) -0.3714(7) -0.3029(4)
C7C_2 C -0.2760(6) 0.0954(4) -0.3029(4)
C7E_2 C 0.3714(7) 0.2760(6) -0.3029(4)
C7E_3 C -0.6286(7) 0.2760(6) -0.3029(4)
C7D_3 C -1.0954(4) -0.3714(7) -0.3029(4)
C7C_3 C -1.2760(6) 0.0954(4) -0.3029(4)
H3A H -0.3024 -0.4116 -0.2486
H3B H 0.4116 0.1092 -0.2486
H3A_2 H -1.3024 -0.4116 -0.2486
H3B_2 H -0.5884 0.1092 -0.2486
H3_2 H -1.1092 0.3024 -0.2486
H3B_3 H -0.5884 -0.8908 -0.2486
H3_3 H -1.1092 -0.6976 -0.2486
H3A_3 H -1.3024 -1.4116 -0.2486
H3C H -1.3024 -0.8908 -0.2514
H3E H -0.5884 -0.6976 -0.2514
H3D H -1.1092 -1.4116 -0.2514
H3D_2 H -0.1092 -0.4116 -0.2514
H3C_2 H -0.3024 0.1092 -0.2514
H3E_2 H 0.4116 0.3024 -0.2514
H3E_3 H -0.5884 0.3024 -0.2514
H3D_3 H -1.1092 -0.4116 -0.2514
H3C_3 H -1.3024 0.1092 -0.2514
C8A C -0.3014(6) -0.5092(7) -0.1044(5)
C8B C 0.5092(7) 0.2078(4) -0.1044(5)
C8A_2 C -1.3014(6) -0.5092(7) -0.1044(5)
C8B_2 C -0.4908(7) 0.2078(4) -0.1044(5)
C8_2 C -1.2078(4) 0.3014(6) -0.1044(5)
C8B_3 C -0.4908(7) -0.7922(4) -0.1044(5)
C8_3 C -1.2078(4) -0.6986(6) -0.1044(5)
C8A_3 C -1.3014(6) -1.5092(7) -0.1044(5)
C8C C -1.3014(6) -0.7922(4) -0.3956(5)
C8E C -0.4908(7) -0.6986(6) -0.3956(5)
C8D C -1.2078(4) -1.5092(7) -0.3956(5)
C8D_2 C -0.2078(4) -0.5092(7) -0.3956(5)
C8C_2 C -0.3014(6) 0.2078(4) -0.3956(5)
C8E_2 C 0.5092(7) 0.3014(6) -0.3956(5)
C8E_3 C -0.4908(7) 0.3014(6) -0.3956(5)
C8D_3 C -1.2078(4) -0.5092(7) -0.3956(5)
C8C_3 C -1.3014(6) 0.2078(4) -0.3956(5)
C9A C -0.2712(5) -0.4067(6) -0.1115(4)
C9B C 0.4067(6) 0.1355(4) -0.1115(4)
C9A_2 C -1.2712(5) -0.4067(6) -0.1115(4)
C9B_2 C -0.5933(6) 0.1355(4) -0.1115(4)
C9_2 C -1.1355(4) 0.2712(5) -0.1115(4)
C9B_3 C -0.5933(6) -0.8645(4) -0.1115(4)
C9_3 C -1.1355(4) -0.7288(5) -0.1115(4)
C9A_3 C -1.2712(5) -1.4067(6) -0.1115(4)
C9C C -1.2712(5) -0.8645(4) -0.3885(4)
C9E C -0.5933(6) -0.7288(5) -0.3885(4)
C9D C -1.1355(4) -1.4067(6) -0.3885(4)
C9D_2 C -0.1355(4) -0.4067(6) -0.3885(4)
C9C_2 C -0.2712(5) 0.1355(4) -0.3885(4)
C9E_2 C 0.4067(6) 0.2712(5) -0.3885(4)
C9E_3 C -0.5933(6) 0.2712(5) -0.3885(4)
C9D_3 C -1.1355(4) -0.4067(6) -0.3885(4)
C9C_3 C -1.2712(5) 0.1355(4) -0.3885(4)
C10A C -0.2076(4) -0.2197(5) -0.1284(4)
C10B C 0.2197(5) 0.0121(3) -0.1284(4)
C10A_2 C -1.2076(4) -0.2197(5) -0.1284(4)
C10B_2 C -0.7803(5) 0.0121(3) -0.1284(4)
C10_2 C -1.0121(3) 0.2076(4) -0.1284(4)
C10B_3 C -0.7803(5) -0.9879(3) -0.1284(4)
C10_3 C -1.0121(3) -0.7924(4) -0.1284(4)
C10A_3 C -1.2076(4) -1.2197(5) -0.1284(4)
C10C C -1.2076(4) -0.9879(3) -0.3716(4)
C10E C -0.7803(5) -0.7924(4) -0.3716(4)
C10D C -1.0121(3) -1.2197(5) -0.3716(4)
C10D_2 C -0.0121(3) -0.2197(5) -0.3716(4)
C10C_2 C -0.2076(4) 0.0121(3) -0.3716(4)
C10E_2 C 0.2197(5) 0.2076(4) -0.3716(4)
C10E_3 C -0.7803(5) 0.2076(4) -0.3716(4)
C10D_3 C -1.0121(3) -0.2197(5) -0.3716(4)
C10C_3 C -1.2076(4) 0.0121(3) -0.3716(4)
C11A C -0.2381(6) -0.3497(7) -0.0317(5)
C11B C 0.3497(7) 0.1116(4) -0.0317(5)
C11A_2 C -1.2381(6) -0.3497(7) -0.0317(5)
C11B_2 C -0.6503(7) 0.1116(4) -0.0317(5)
C11_2 C -1.1116(4) 0.2381(6) -0.0317(5)
C11B_3 C -0.6503(7) -0.8884(4) -0.0317(5)
C11_3 C -1.1116(4) -0.7619(6) -0.0317(5)
C11A_3 C -1.2381(6) -1.3497(7) -0.0317(5)
C11C C -1.2381(6) -0.8884(4) -0.4683(5)
C11E C -0.6503(7) -0.7619(6) -0.4683(5)
C11D C -1.1116(4) -1.3497(7) -0.4683(5)
C11D_2 C -0.1116(4) -0.3497(7) -0.4683(5)
C11C_2 C -0.2381(6) 0.1116(4) -0.4683(5)
C11E_2 C 0.3497(7) 0.2381(6) -0.4683(5)
C11E_3 C -0.6503(7) 0.2381(6) -0.4683(5)
C11D_3 C -1.1116(4) -0.3497(7) -0.4683(5)
C11C_3 C -1.2381(6) 0.1116(4) -0.4683(5)
H4A H -0.2373 -0.3752 0.0271
H4B H 0.3752 0.1379 0.0271
H4A_2 H -1.2373 -0.3752 0.0271
H4B_2 H -0.6248 0.1379 0.0271
H4_2 H -1.1379 0.2373 0.0271
H4B_3 H -0.6248 -0.8621 0.0271
H4_3 H -1.1379 -0.7627 0.0271
H4A_3 H -1.2373 -1.3752 0.0271
H4C H -1.2373 -0.8621 -0.5271
H4E H -0.6248 -0.7627 -0.5271
H4D H -1.1379 -1.3752 -0.5271
H4D_2 H -0.1379 -0.3752 -0.5271
H4C_2 H -0.2373 0.1379 -0.5271
H4E_2 H 0.3752 0.2373 -0.5271
H4E_3 H -0.6248 0.2373 -0.5271
H4D_3 H -1.1379 -0.3752 -0.5271
H4C_3 H -1.2373 0.1379 -0.5271
O4B O -0.3000(23) 0.370(2) 0.1428(11)
O4A O -0.3300(12) 0.3000(23) 0.1428(11)
O4C O -0.3300(12) 0.370(2) 0.3572(11)
O4E O -0.3000(23) 0.3300(12) 0.3572(11)
O4D O -0.370(2) 0.3000(23) 0.3572(11)
O4D_2 O -0.370(2) -0.7000(23) -0.6428(11)
O4E_2 O -0.3000(23) -0.6700(12) -0.6428(11)
O4C_2 O -0.3300(12) -0.630(2) -0.6428(11)
O4A_2 O -0.3300(12) -0.7000(23) -0.8572(11)
O4B_2 O -0.3000(23) -0.630(2) -0.8572(11)
O4_2 O -0.370(2) -0.6700(12) -0.8572(11)
O4E_3 O -0.3000(23) 0.3300(12) -0.6428(11)
O4C_3 O -0.3300(12) 0.370(2) -0.6428(11)
O4D_3 O -0.370(2) 0.3000(23) -0.6428(11)
O4B_3 O -0.3000(23) 0.370(2) -0.8572(11)
O4_3 O -0.370(2) 0.3300(12) -0.8572(11)
O4A_3 O -0.3300(12) 0.3000(23) -0.8572(11)
O4_4 O -1.370(2) -0.6700(12) 0.1428(11)
O4_5 O -0.370(2) -0.6700(12) 0.1428(11)
O4A_4 O -0.3300(12) -0.7000(23) 0.1428(11)
O4B_4 O -1.3000(23) -0.630(2) 0.1428(11)
O4D_4 O -1.370(2) -0.7000(23) -0.6428(11)
O4E_4 O -1.3000(23) -0.6700(12) -0.6428(11)
O4B_5 O -0.3000(23) -0.630(2) 0.1428(11)
O4A_5 O -1.3300(12) -0.7000(23) 0.1428(11)
O4C_4 O -1.3300(12) -0.630(2) -0.6428(11)
N1 N 0.0000 0.5000 0.50000
C1 C -0.073(2) 0.400(3) 0.473(3)
C2 C 0.013(3) 0.551(3) 0.413(4)
C1F C 0.073(2) 0.600(3) 0.527(3)
C2F C -0.013(3) 0.449(3) 0.587(4)
loop_
_geom_bond_atom_site_label_1
_geom_bond_atom_site_label_2
_geom_bond_site_symmetry_1
_geom_bond_site_symmetry_2
N1 C1 1_555 1_555
C2 N1 1_555 1_555
Zn1 O2 1_555 1_555
Zn2 O3 1_555 1_555
C3 O4 1_555 1_555
O1 C6 1_555 1_555
O2 C8 1_555 1_555
O3 C8 1_555 1_555
N2 C6 1_555 1_555
C4 H1 1_555 1_555
C5 H2 1_555 1_555
C6 N2B 1_555 1_555
C7 C4 1_555 1_555
H3 C7 1_555 1_555
C8 C9 1_555 1_555
C9 C7 1_555 1_555
C10 O1 1_555 1_555
C11 C5 1_555 1_555
H4 C11 1_555 1_555
O4 Zn2 1_555 1_555
C1F N1 1_555 1_555
C2F N1 1_555 1_555
Zn1A O2A_2 1_555 1_555
Zn1B O2A 1_555 1_555
Zn1_2 O2A_3 1_555 1_555
Zn1_3 O2_2 1_555 1_555
Zn1_4 O2B 1_555 1_555
Zn2A O3A_2 1_555 1_555
Zn2B O3A 1_555 1_555
Zn2C O3C 1_555 1_555
Zn2D O3E 1_555 1_555
Zn2E O3C_2 1_555 1_555
Zn2_2 O3A_3 1_555 1_555
Zn2_3 O3_2 1_555 1_555
Zn2_4 O4A_2 1_555 1_555
Zn2_5 O4B_3 1_555 1_555
Zn2_6 O3B 1_555 1_555
Zn2C_2 O3D 1_555 1_555
Zn2C_3 O3C_3 1_555 1_555
Zn2C_4 O4C 1_555 1_555
Zn2C_5 O3E_2 1_555 1_555
C3A O4D_2 1_555 1_555
C3B O4E_3 1_555 1_555
O1A C6A 1_555 1_555
O1B C6B 1_555 1_555
O1A_2 C6A_2 1_555 1_555
O1B_2 C6B_2 1_555 1_555
O1_2 C6_2 1_555 1_555
O1B_3 C6B_3 1_555 1_555
O1_3 C6_3 1_555 1_555
O1A_3 C6A_3 1_555 1_555
O1C C6C 1_555 1_555
O1E C6E 1_555 1_555
O1D C6D 1_555 1_555
O1D_2 C6D_2 1_555 1_555
O1C_2 C6C_2 1_555 1_555
O1E_2 C6E_2 1_555 1_555
O1E_3 C6E_3 1_555 1_555
O1D_3 C6D_3 1_555 1_555
O1C_3 C6C_3 1_555 1_555
O2A C8A 1_555 1_555
O2B C8B 1_555 1_555
O2A_2 C8A_2 1_555 1_555
O2B_2 Zn1 1_555 1_555
O2_2 C8_2 1_555 1_555
O2B_3 Zn1B 1_555 1_555
O2_3 Zn1A 1_555 1_555
O2A_3 C8A_3 1_555 1_555
O2C Zn1A 1_555 1_555
O2E Zn1B 1_555 1_555
O2D Zn1_2 1_555 1_555
O2D_2 Zn1B 1_555 1_555
O2C_2 Zn1 1_555 1_555
O2E_2 Zn1_4 1_555 1_555
O2E_3 Zn1 1_555 1_555
O2D_3 Zn1A 1_555 1_555
O2C_3 Zn1_3 1_555 1_555
O2_4 Zn1B 1_555 1_555
O2A_4 Zn1 1_555 1_555
O2B_4 Zn1A 1_555 1_555
O2C_4 Zn1B 1_555 1_555
O2D_4 Zn1 1_555 1_555
O2E_4 Zn1A 1_555 1_555
O3A C8A 1_555 1_555
O3B C8B 1_555 1_555
O3A_2 C8A_2 1_555 1_555
O3B_2 Zn2 1_555 1_555
O3_2 C8_2 1_555 1_555
O3B_3 Zn2B 1_555 1_555
O3_3 Zn2A 1_555 1_555
O3A_3 C8A_3 1_555 1_555
O3C C8C 1_555 1_555
O3E C8E 1_555 1_555
O3D C8D 1_555 1_555
O3D_2 Zn2D 1_555 1_555
O3C_2 C8C_2 1_555 1_555
O3E_2 C8E_2 1_555 1_555
O3E_3 Zn2E 1_555 1_555
O3D_3 Zn2C 1_555 1_555
O3C_3 C8C_3 1_555 1_555
O3_4 Zn2B 1_555 1_555
O3A_4 Zn2 1_555 1_555
O3B_4 Zn2A 1_555 1_555
O3C_4 Zn2D 1_555 1_555
O3D_4 Zn2E 1_555 1_555
O3E_4 Zn2C 1_555 1_555
N2A C6A 1_555 1_555
N2B C6B 1_555 1_555
N2A_2 C6A_2 1_555 1_555
N2B_2 C6B_2 1_555 1_555
N2_2 C6A_2 1_555 1_555
N2B_3 C6B_3 1_555 1_555
N2_3 C6_3 1_555 1_555
N2A_3 C6B_3 1_555 1_555
N2C C6C 1_555 1_555
N2E C6E 1_555 1_555
N2D C6C 1_555 1_555
N2D_2 C6D_2 1_555 1_555
N2C_2 C6C_2 1_555 1_555
N2E_2 C6D_2 1_555 1_555
N2E_3 C6E_3 1_555 1_555
N2D_3 C6D_3 1_555 1_555
N2C_3 C6E_3 1_555 1_555
C4A H1A 1_555 1_555
C4B H1B 1_555 1_555
C4A_2 H1A_2 1_555 1_555
C4B_2 H1B_2 1_555 1_555
C4_2 H1_2 1_555 1_555
C4B_3 H1B_3 1_555 1_555
C4_3 H1_3 1_555 1_555
C4A_3 H1A_3 1_555 1_555
C4C H1C 1_555 1_555
C4E H1E 1_555 1_555
C4D H1D 1_555 1_555
C4D_2 H1D_2 1_555 1_555
C4C_2 H1C_2 1_555 1_555
C4E_2 H1E_2 1_555 1_555
C4E_3 H1E_3 1_555 1_555
C4D_3 H1D_3 1_555 1_555
C4C_3 H1C_3 1_555 1_555
C5A H2A 1_555 1_555
C5B H2B 1_555 1_555
C5A_2 H2A_2 1_555 1_555
C5B_2 H2B_2 1_555 1_555
C5_2 H2_2 1_555 1_555
C5B_3 H2B_3 1_555 1_555
C5_3 H2_3 1_555 1_555
C5A_3 H2A_3 1_555 1_555
C5C H2C 1_555 1_555
C5E H2E 1_555 1_555
C5D H2D 1_555 1_555
C5D_2 H2D_2 1_555 1_555
C5C_2 H2C_2 1_555 1_555
C5E_2 H2E_2 1_555 1_555
C5E_3 H2E_3 1_555 1_555
C5D_3 H2D_3 1_555 1_555
C5C_3 H2C_3 1_555 1_555
C6A N2 1_555 1_555
C6B N2A 1_555 1_555
C6B_2 N2A_2 1_555 1_555
C6_2 N2B_2 1_555 1_555
C6_3 N2B_3 1_555 1_555
C6A_3 N2_3 1_555 1_555
C6E N2C 1_555 1_555
C6D N2E 1_555 1_555
C6C_2 N2D_2 1_555 1_555
C6E_2 N2C_2 1_555 1_555
C6D_3 N2E_3 1_555 1_555
C6C_3 N2D_3 1_555 1_555
C7A C4A 1_555 1_555
C7B C4B 1_555 1_555
C7A_2 C4A_2 1_555 1_555
C7B_2 C4B_2 1_555 1_555
C7_2 C4_2 1_555 1_555
C7B_3 C4B_3 1_555 1_555
C7_3 C4_3 1_555 1_555
C7A_3 C4A_3 1_555 1_555
C7C C4C 1_555 1_555
C7E C4E 1_555 1_555
C7D C4D 1_555 1_555
C7D_2 C4D_2 1_555 1_555
C7C_2 C4C_2 1_555 1_555
C7E_2 C4E_2 1_555 1_555
C7E_3 C4E_3 1_555 1_555
C7D_3 C4D_3 1_555 1_555
C7C_3 C4C_3 1_555 1_555
H3A C7A 1_555 1_555
H3B C7B 1_555 1_555
H3A_2 C7A_2 1_555 1_555
H3B_2 C7B_2 1_555 1_555
H3_2 C7_2 1_555 1_555
H3B_3 C7B_3 1_555 1_555
H3_3 C7_3 1_555 1_555
H3A_3 C7A_3 1_555 1_555
H3C C7C 1_555 1_555
H3E C7E 1_555 1_555
H3D C7D 1_555 1_555
H3D_2 C7D_2 1_555 1_555
H3C_2 C7C_2 1_555 1_555
H3E_2 C7E_2 1_555 1_555
H3E_3 C7E_3 1_555 1_555
H3D_3 C7D_3 1_555 1_555
H3C_3 C7C_3 1_555 1_555
C8A C9A 1_555 1_555
C8B C9B 1_555 1_555
C8A_2 C9A_2 1_555 1_555
C8B_2 O2B_2 1_555 1_555
C8_2 C9_2 1_555 1_555
C8B_3 O2B_3 1_555 1_555
C8_3 O2_3 1_555 1_555
C8A_3 C9A_3 1_555 1_555
C8C O2C 1_555 1_555
C8E O2E 1_555 1_555
C8D O2D 1_555 1_555
C8D_2 O2D_2 1_555 1_555
C8C_2 O2C_2 1_555 1_555
C8E_2 O2E_2 1_555 1_555
C8E_3 O2E_3 1_555 1_555
C8D_3 O2D_3 1_555 1_555
C8C_3 O2C_3 1_555 1_555
C9A C7A 1_555 1_555
C9B C7B 1_555 1_555
C9A_2 C7A_2 1_555 1_555
C9B_2 C7B_2 1_555 1_555
C9_2 C7_2 1_555 1_555
C9B_3 C7B_3 1_555 1_555
C9_3 C7_3 1_555 1_555
C9A_3 C7A_3 1_555 1_555
C9C C7C 1_555 1_555
C9E C7E 1_555 1_555
C9D C7D 1_555 1_555
C9D_2 C7D_2 1_555 1_555
C9C_2 C7C_2 1_555 1_555
C9E_2 C7E_2 1_555 1_555
C9E_3 C7E_3 1_555 1_555
C9D_3 C7D_3 1_555 1_555
C9C_3 C7C_3 1_555 1_555
C10A O1A 1_555 1_555
C10B O1B 1_555 1_555
C10A_2 O1A_2 1_555 1_555
C10B_2 O1B_2 1_555 1_555
C10_2 O1_2 1_555 1_555
C10B_3 O1B_3 1_555 1_555
C10_3 O1_3 1_555 1_555
C10A_3 O1A_3 1_555 1_555
C10C O1C 1_555 1_555
C10E O1E 1_555 1_555
C10D O1D 1_555 1_555
C10D_2 O1D_2 1_555 1_555
C10C_2 O1C_2 1_555 1_555
C10E_2 O1E_2 1_555 1_555
C10E_3 O1E_3 1_555 1_555
C10D_3 O1D_3 1_555 1_555
C10C_3 O1C_3 1_555 1_555
C11A C5A 1_555 1_555
C11B C5B 1_555 1_555
C11A_2 C5A_2 1_555 1_555
C11B_2 C5B_2 1_555 1_555
C11_2 C5_2 1_555 1_555
C11B_3 C5B_3 1_555 1_555
C11_3 C5_3 1_555 1_555
C11A_3 C5A_3 1_555 1_555
C11C C5C 1_555 1_555
C11E C5E 1_555 1_555
C11D C5D 1_555 1_555
C11D_2 C5D_2 1_555 1_555
C11C_2 C5C_2 1_555 1_555
C11E_2 C5E_2 1_555 1_555
C11E_3 C5E_3 1_555 1_555
C11D_3 C5D_3 1_555 1_555
C11C_3 C5C_3 1_555 1_555
H4A C11A 1_555 1_555
H4B C11B 1_555 1_555
H4A_2 C11A_2 1_555 1_555
H4B_2 C11B_2 1_555 1_555
H4_2 C11_2 1_555 1_555
H4B_3 C11B_3 1_555 1_555
H4_3 C11_3 1_555 1_555
H4A_3 C11A_3 1_555 1_555
H4C C11C 1_555 1_555
H4E C11E 1_555 1_555
H4D C11D 1_555 1_555
H4D_2 C11D_2 1_555 1_555
H4C_2 C11C_2 1_555 1_555
H4E_2 C11E_2 1_555 1_555
H4E_3 C11E_3 1_555 1_555
H4D_3 C11D_3 1_555 1_555
H4C_3 C11C_3 1_555 1_555
O4B Zn2 1_555 1_555
O4A Zn2 1_555 1_555
O4C C3 1_555 1_555
O4E C3 1_555 1_555
O4D C3 1_555 1_555
O4D_2 Zn2D 1_555 1_555
O4E_2 Zn2D 1_555 1_555
O4C_2 Zn2D 1_555 1_555
O4A_2 C3A 1_555 1_555
O4B_2 Zn2_4 1_555 1_555
O4_2 Zn2_4 1_555 1_555
O4E_3 Zn2E 1_555 1_555
O4C_3 Zn2E 1_555 1_555
O4D_3 Zn2E 1_555 1_555
O4B_3 C3B 1_555 1_555
O4_3 Zn2_5 1_555 1_555
O4A_3 Zn2_5 1_555 1_555
O4_4 Zn2A 1_555 1_555
O4_5 Zn2B 1_555 1_555
O4A_4 Zn2B 1_555 1_555
O4B_4 Zn2A 1_555 1_555
O4D_4 Zn2C 1_555 1_555
O4E_4 Zn2C 1_555 1_555
O4B_5 Zn2B 1_555 1_555
O4A_5 Zn2A 1_555 1_555
O4C_4 Zn2C 1_555 1_555
C3 O4B 1_555 1_555
C3 O4A 1_555 1_555
C4 C10 1_555 1_555
C5 C10 1_555 1_555
C9 C11 1_555 1_555
O4 O4B 1_555 1_555
O4 O4A 1_555 1_555
Zn2C_4 O4E 1_555 1_555
Zn2C_4 O4D 1_555 1_555
C3A O4E_2 1_555 1_555
C3A O4C_2 1_555 1_555
C3A O4B_2 1_555 1_555
C3A O4_2 1_555 1_555
C3B O4C_3 1_555 1_555
C3B O4D_3 1_555 1_555
C3B O4_3 1_555 1_555
C3B O4A_3 1_555 1_555
O3B_2 C8B_2 1_555 1_555
O3B_3 C8B_3 1_555 1_555
O3_3 C8_3 1_555 1_555
O3D_2 C8D_2 1_555 1_555
O3E_3 C8E_3 1_555 1_555
O3D_3 C8D_3 1_555 1_555
N2_2 C6_2 1_555 1_555
N2A_3 C6A_3 1_555 1_555
N2D C6D 1_555 1_555
N2E_2 C6E_2 1_555 1_555
N2C_3 C6C_3 1_555 1_555
C4A C10A 1_555 1_555
C4B C10B 1_555 1_555
C4A_2 C10A_2 1_555 1_555
C4B_2 C10B_2 1_555 1_555
C4_2 C10_2 1_555 1_555
C4B_3 C10B_3 1_555 1_555
C4_3 C10_3 1_555 1_555
C4A_3 C10A_3 1_555 1_555
C4C C10C 1_555 1_555
C4E C10E 1_555 1_555
C4D C10D 1_555 1_555
C4D_2 C10D_2 1_555 1_555
C4C_2 C10C_2 1_555 1_555
C4E_2 C10E_2 1_555 1_555
C4E_3 C10E_3 1_555 1_555
C4D_3 C10D_3 1_555 1_555
C4C_3 C10C_3 1_555 1_555
C5A C10A 1_555 1_555
C5B C10B 1_555 1_555
C5A_2 C10A_2 1_555 1_555
C5B_2 C10B_2 1_555 1_555
C5_2 C10_2 1_555 1_555
C5B_3 C10B_3 1_555 1_555
C5_3 C10_3 1_555 1_555
C5A_3 C10A_3 1_555 1_555
C5C C10C 1_555 1_555
C5E C10E 1_555 1_555
C5D C10D 1_555 1_555
C5D_2 C10D_2 1_555 1_555
C5C_2 C10C_2 1_555 1_555
C5E_2 C10E_2 1_555 1_555
C5E_3 C10E_3 1_555 1_555
C5D_3 C10D_3 1_555 1_555
C5C_3 C10C_3 1_555 1_555
C8B_2 C9B_2 1_555 1_555
C8B_3 C9B_3 1_555 1_555
C8_3 C9_3 1_555 1_555
C8C C9C 1_555 1_555
C8E C9E 1_555 1_555
C8D C9D 1_555 1_555
C8D_2 C9D_2 1_555 1_555
C8C_2 C9C_2 1_555 1_555
C8E_2 C9E_2 1_555 1_555
C8E_3 C9E_3 1_555 1_555
C8D_3 C9D_3 1_555 1_555
C8C_3 C9C_3 1_555 1_555
C9A C11A 1_555 1_555
C9B C11B 1_555 1_555
C9A_2 C11A_2 1_555 1_555
C9B_2 C11B_2 1_555 1_555
C9_2 C11_2 1_555 1_555
C9B_3 C11B_3 1_555 1_555
C9_3 C11_3 1_555 1_555
C9A_3 C11A_3 1_555 1_555
C9C C11C 1_555 1_555
C9E C11E 1_555 1_555
C9D C11D 1_555 1_555
C9D_2 C11D_2 1_555 1_555
C9C_2 C11C_2 1_555 1_555
C9E_2 C11E_2 1_555 1_555
C9E_3 C11E_3 1_555 1_555
C9D_3 C11D_3 1_555 1_555
C9C_3 C11C_3 1_555 1_555
O4B O4A 1_555 1_555
O4C O4E 1_555 1_555
O4C O4D 1_555 1_555
O4E O4D 1_555 1_555
O4D_2 O4E_2 1_555 1_555
O4D_2 O4C_2 1_555 1_555
O4E_2 O4C_2 1_555 1_555
O4A_2 O4B_2 1_555 1_555
O4A_2 O4_2 1_555 1_555
O4B_2 O4_2 1_555 1_555
O4E_3 O4C_3 1_555 1_555
O4E_3 O4D_3 1_555 1_555
O4C_3 O4D_3 1_555 1_555
O4B_3 O4_3 1_555 1_555
O4B_3 O4A_3 1_555 1_555
O4_3 O4A_3 1_555 1_555
O4_4 O4B_4 1_555 1_555
O4_4 O4A_5 1_555 1_555
O4_5 O4A_4 1_555 1_555
O4_5 O4B_5 1_555 1_555
O4A_4 O4B_5 1_555 1_555
O4B_4 O4A_5 1_555 1_555
O4D_4 O4E_4 1_555 1_555
O4D_4 O4C_4 1_555 1_555
O4E_4 O4C_4 1_555 1_555

#END
