
#######################################################################
#
#                 Cambridge Crystallographic Data Centre
#                                CCDC 
#
#######################################################################
#
# If this CIF has been generated from an entry in the Cambridge 
# Structural Database, then it will include bibliographic, chemical, 
# crystal, experimental, refinement or atomic coordinate data resulting 
# from the CCDC's data processing and validation procedures.
#
#######################################################################

data_BIBXIV
_chemical_formula_moiety         
'(C54 H22 F18 N12 Ni4 O3)n,0.5n(C1 H2 Cl2),0.5n(C3 H7 N1 O1),n(H2 O1)'
_chemical_name_systematic        
"catena-[(\m~4~-Aqua)-bis(\m~4~-hydroxo)-tris(\m~4~-4,4'-((2,5-bis(trifluoromethyl)benzene-1,4-diyl)diethyne-2,1-diyl)bis(pyrazolyl))-tetra-nickel(ii) dichloromethane N,N-dimethylformamide solvate monohydrate]"
_symmetry_cell_setting           cubic
_symmetry_space_group_name_H-M   'F m 3 m'
_symmetry_Int_Tables_number      225
_space_group_name_Hall           '-F 4 2 3'
loop_
_symmetry_equiv_pos_site_id
_symmetry_equiv_pos_as_xyz
1 x,y,z
2 -x,-y,z
3 -x,1/2-y,1/2+z
4 -x,-z,-y
5 -x,1/2-z,1/2-y
6 -x,z,y
7 -x,1/2+z,1/2+y
8 -x,y,-z
9 -x,1/2+y,1/2-z
10 1/2-x,-y,1/2+z
11 1/2-x,1/2-y,z
12 1/2-x,-z,1/2-y
13 1/2-x,1/2-z,-y
14 1/2-x,z,1/2+y
15 1/2-x,1/2+z,y
16 1/2-x,y,1/2-z
17 1/2-x,1/2+y,-z
18 -y,-x,-z
19 -y,1/2-x,1/2-z
20 -y,-z,x
21 -y,1/2-z,1/2+x
22 -y,z,-x
23 -y,1/2+z,1/2-x
24 -y,x,z
25 -y,1/2+x,1/2+z
26 1/2-y,-x,1/2-z
27 1/2-y,1/2-x,-z
28 1/2-y,-z,1/2+x
29 1/2-y,1/2-z,x
30 1/2-y,z,1/2-x
31 1/2-y,1/2+z,-x
32 1/2-y,x,1/2+z
33 1/2-y,1/2+x,z
34 -z,-x,y
35 -z,1/2-x,1/2+y
36 -z,-y,-x
37 -z,1/2-y,1/2-x
38 -z,y,x
39 -z,1/2+y,1/2+x
40 -z,x,-y
41 -z,1/2+x,1/2-y
42 1/2-z,-x,1/2+y
43 1/2-z,1/2-x,y
44 1/2-z,-y,1/2-x
45 1/2-z,1/2-y,-x
46 1/2-z,y,1/2+x
47 1/2-z,1/2+y,x
48 1/2-z,x,1/2-y
49 1/2-z,1/2+x,-y
50 z,-x,-y
51 z,1/2-x,1/2-y
52 z,-y,x
53 z,1/2-y,1/2+x
54 z,y,-x
55 z,1/2+y,1/2-x
56 z,x,y
57 z,1/2+x,1/2+y
58 1/2+z,-x,1/2-y
59 1/2+z,1/2-x,-y
60 1/2+z,-y,1/2+x
61 1/2+z,1/2-y,x
62 1/2+z,y,1/2-x
63 1/2+z,1/2+y,-x
64 1/2+z,x,1/2+y
65 1/2+z,1/2+x,y
66 y,-x,z
67 y,1/2-x,1/2+z
68 y,-z,-x
69 y,1/2-z,1/2-x
70 y,z,x
71 y,1/2+z,1/2+x
72 y,x,-z
73 y,1/2+x,1/2-z
74 1/2+y,-x,1/2+z
75 1/2+y,1/2-x,z
76 1/2+y,-z,1/2-x
77 1/2+y,1/2-z,-x
78 1/2+y,z,1/2+x
79 1/2+y,1/2+z,x
80 1/2+y,x,1/2-z
81 1/2+y,1/2+x,-z
82 x,-y,-z
83 x,1/2-y,1/2-z
84 x,-z,y
85 x,1/2-z,1/2+y
86 x,z,-y
87 x,1/2+z,1/2-y
88 x,1/2+y,1/2+z
89 1/2+x,-y,1/2-z
90 1/2+x,1/2-y,-z
91 1/2+x,-z,1/2+y
92 1/2+x,1/2-z,y
93 1/2+x,z,1/2-y
94 1/2+x,1/2+z,-y
95 1/2+x,y,1/2+z
96 1/2+x,1/2+y,z
97 -x,-y,-z
98 x,y,-z
99 x,1/2+y,1/2-z
100 x,z,y
101 x,1/2+z,1/2+y
102 x,-z,-y
103 x,1/2-z,1/2-y
104 x,-y,z
105 x,1/2-y,1/2+z
106 1/2+x,y,1/2-z
107 1/2+x,1/2+y,-z
108 1/2+x,z,1/2+y
109 1/2+x,1/2+z,y
110 1/2+x,-z,1/2-y
111 1/2+x,1/2-z,-y
112 1/2+x,-y,1/2+z
113 1/2+x,1/2-y,z
114 y,x,z
115 y,1/2+x,1/2+z
116 y,z,-x
117 y,1/2+z,1/2-x
118 y,-z,x
119 y,1/2-z,1/2+x
120 y,-x,-z
121 y,1/2-x,1/2-z
122 1/2+y,x,1/2+z
123 1/2+y,1/2+x,z
124 1/2+y,z,1/2-x
125 1/2+y,1/2+z,-x
126 1/2+y,-z,1/2+x
127 1/2+y,1/2-z,x
128 1/2+y,-x,1/2-z
129 1/2+y,1/2-x,-z
130 z,x,-y
131 z,1/2+x,1/2-y
132 z,y,x
133 z,1/2+y,1/2+x
134 z,-y,-x
135 z,1/2-y,1/2-x
136 z,-x,y
137 z,1/2-x,1/2+y
138 1/2+z,x,1/2-y
139 1/2+z,1/2+x,-y
140 1/2+z,y,1/2+x
141 1/2+z,1/2+y,x
142 1/2+z,-y,1/2-x
143 1/2+z,1/2-y,-x
144 1/2+z,-x,1/2+y
145 1/2+z,1/2-x,y
146 -z,x,y
147 -z,1/2+x,1/2+y
148 -z,y,-x
149 -z,1/2+y,1/2-x
150 -z,-y,x
151 -z,1/2-y,1/2+x
152 -z,-x,-y
153 -z,1/2-x,1/2-y
154 1/2-z,x,1/2+y
155 1/2-z,1/2+x,y
156 1/2-z,y,1/2-x
157 1/2-z,1/2+y,-x
158 1/2-z,-y,1/2+x
159 1/2-z,1/2-y,x
160 1/2-z,-x,1/2-y
161 1/2-z,1/2-x,-y
162 -y,x,-z
163 -y,1/2+x,1/2-z
164 -y,z,x
165 -y,1/2+z,1/2+x
166 -y,-z,-x
167 -y,1/2-z,1/2-x
168 -y,-x,z
169 -y,1/2-x,1/2+z
170 1/2-y,x,1/2-z
171 1/2-y,1/2+x,-z
172 1/2-y,z,1/2+x
173 1/2-y,1/2+z,x
174 1/2-y,-z,1/2-x
175 1/2-y,1/2-z,-x
176 1/2-y,-x,1/2+z
177 1/2-y,1/2-x,z
178 -x,y,z
179 -x,1/2+y,1/2+z
180 -x,z,-y
181 -x,1/2+z,1/2-y
182 -x,-z,y
183 -x,1/2-z,1/2+y
184 -x,1/2-y,1/2-z
185 1/2-x,y,1/2+z
186 1/2-x,1/2+y,z
187 1/2-x,z,1/2-y
188 1/2-x,1/2+z,-y
189 1/2-x,-z,1/2+y
190 1/2-x,1/2-z,y
191 1/2-x,-y,1/2-z
192 1/2-x,1/2-y,-z
_cell_length_a                   32.4002(14)
_cell_length_b                   32.4002(14)
_cell_length_c                   32.4002(14)
_cell_angle_alpha                90
_cell_angle_beta                 90
_cell_angle_gamma                90
_cell_volume                     34012.9
_exptl_crystal_colour            'pale green'
_cell_formula_units_Z            8
loop_
_atom_site_label
_atom_site_type_symbol
_atom_site_fract_x
_atom_site_fract_y
_atom_site_fract_z
O2 O 0.250 0.250 0.250
O3 O 0.86871(52) -0.54717(54) 0.79852(80)
O4 O 0.0471(20) -0.4626(26) 0.36016(56)
O5 O -0.11104(85) 0.4535(14) 0.004(18)
O6 O -0.2657(12) 0.9985(12) 0.0008(12)
Ni1 Ni 0.04076(19) 0.04076(19) 0.04076(19)
O1 O 0.047070 0.000 0.000
H1 H 0.076391 0.000 0.000
C1 C 0.280336 0.280336 0.000
C2 C 0.265168 0.265168 -0.037153
C3 C 0.281972 0.281972 -0.078316
F1 F 0.315698 0.260206 -0.089494
F2 F 0.252739 0.27836 -0.107785
F3 F 0.292233 0.322103 -0.073804
C4 C 0.313072 0.313072 0.000
C5 C 0.340134 0.340134 0.000
C6 C 0.372870 0.372870 0.000
C7 C 0.390316 0.390316 -0.033959
H2 H 0.383909 0.383909 -0.061844
N1 N 0.418544 0.418544 -0.020988
C1IG C 0.219664 0.219664 0.000
C2J C 0.234832 0.234832 -0.037153
C3J C 0.218028 0.218028 -0.078316
F1J F 0.184302 0.239794 -0.089494
F2J F 0.247261 0.22164 -0.107785
F3J F 0.207767 0.177897 -0.073804
C4IG C 0.186928 0.186928 0.000
C5IG C 0.159866 0.159866 0.000
C6IG C 0.127130 0.127130 0.000
C7J C 0.109684 0.109684 -0.033959
H2J H 0.116091 0.116091 -0.061844
N1J N 0.081456 0.081456 -0.020988
C2IG C 0.234832 0.234832 0.037153
C3IG C 0.218028 0.218028 0.078316
F1Z F 0.239794 0.184302 0.089494
F2Z F 0.22164 0.247261 0.107785
F3Z F 0.177897 0.207767 0.073804
C7IG C 0.109684 0.109684 0.033959
H2IG H 0.116091 0.116091 0.061844
N1IG N 0.081456 0.081456 0.020988
F1TF F 0.239794 0.184302 -0.089494
F2TF F 0.22164 0.247261 -0.107785
F3TF F 0.177897 0.207767 -0.073804
C2SB C 0.265168 0.265168 0.037153
C3SB C 0.281972 0.281972 0.078316
F1SB F 0.260206 0.315698 0.089494
F2SB F 0.27836 0.252739 0.107785
F3SB F 0.322103 0.292233 0.073804
C7SB C 0.390316 0.390316 0.033959
H2SB H 0.383909 0.383909 0.061844
N1SB N 0.418544 0.418544 0.020988
F1ID F 0.260206 0.315698 -0.089494
F2ID F 0.27836 0.252739 -0.107785
F3ID F 0.322103 0.292233 -0.073804
F1SC F 0.315698 0.260206 0.089494
F2SC F 0.252739 0.27836 0.107785
F3SC F 0.292233 0.322103 0.073804
F1IG F 0.184302 0.239794 0.089494
F2IG F 0.247261 0.22164 0.107785
F3IG F 0.207767 0.177897 0.073804
Ni1J Ni 0.45924(19) 0.45924(19) 0.04076(19)
C1GG C 0.219664 0.500 0.280336
C2GG C 0.234832 0.537153 0.265168
C3GG C 0.218028 0.578316 0.281972
F1GG F 0.184302 0.589494 0.260206
F2GG F 0.247261 0.607785 0.27836
F3GG F 0.207767 0.573804 0.322103
C4GG C 0.186928 0.500 0.313072
C5GG C 0.159866 0.500 0.340134
C6GG C 0.127130 0.500 0.372870
C7GG C 0.109684 0.533959 0.390316
H2GG H 0.116091 0.561844 0.383909
N1GG N 0.081456 0.520988 0.418544
C1PB C 0.280336 0.500 0.219664
C2PB C 0.265168 0.537153 0.234832
C3PB C 0.281972 0.578316 0.218028
F1XC F 0.315698 0.589494 0.239794
F2XC F 0.252739 0.607785 0.22164
F3XC F 0.292233 0.573804 0.177897
C4PB C 0.313072 0.500 0.186928
C5PB C 0.340134 0.500 0.159866
C6PB C 0.372870 0.500 0.127130
C7PB C 0.390316 0.533959 0.109684
H2PB H 0.383909 0.561844 0.116091
N1PB N 0.418544 0.520988 0.081456
C2LD C 0.265168 0.462847 0.234832
C3LD C 0.281972 0.421684 0.218028
F1LD F 0.260206 0.410506 0.184302
F2LD F 0.27836 0.392215 0.247261
F3LD F 0.322103 0.426196 0.207767
C7LD C 0.390316 0.466041 0.109684
H2LD H 0.383909 0.438156 0.116091
N1LD N 0.418544 0.479012 0.081456
F1PB F 0.260206 0.589494 0.184302
F2PB F 0.27836 0.607785 0.247261
F3PB F 0.322103 0.573804 0.207767
C2N C 0.234832 0.462847 0.265168
C3N C 0.218028 0.421684 0.281972
F1PF F 0.239794 0.410506 0.315698
F2PF F 0.22164 0.392215 0.252739
F3PF F 0.177897 0.426196 0.292233
C7N C 0.109684 0.466041 0.390316
H2N H 0.116091 0.438156 0.383909
N1N N 0.081456 0.479012 0.418544
F1BA F 0.239794 0.589494 0.315698
F2BA F 0.22164 0.607785 0.252739
F3BA F 0.177897 0.573804 0.292233
F1N F 0.184302 0.410506 0.260206
F2N F 0.247261 0.392215 0.27836
F3N F 0.207767 0.426196 0.322103
F1HC F 0.315698 0.410506 0.239794
F2HC F 0.252739 0.392215 0.22164
F3HC F 0.292233 0.426196 0.177897
Ni1DG Ni 0.45924(19) 0.04076(19) 0.45924(19)
C1K C 0.219664 0.000 0.219664
C2DG C 0.234832 -0.037153 0.234832
C3DG C 0.218028 -0.078316 0.218028
F1DG F 0.184302 -0.089494 0.239794
F2DG F 0.247261 -0.107785 0.22164
F3DG F 0.207767 -0.073804 0.177897
C4K C 0.186928 0.000 0.186928
C5K C 0.159866 0.000 0.159866
C6K C 0.127130 0.000 0.127130
C7DG C 0.109684 -0.033959 0.109684
H2DG H 0.116091 -0.061844 0.116091
N1DG N 0.081456 -0.020988 0.081456
C1MD C 0.280336 0.000 0.280336
C2QB C 0.265168 -0.037153 0.265168
C3QB C 0.281972 -0.078316 0.281972
F1UC F 0.315698 -0.089494 0.260206
F2UC F 0.252739 -0.107785 0.27836
F3UC F 0.292233 -0.073804 0.322103
C4MD C 0.313072 0.000 0.313072
C5MD C 0.340134 0.000 0.340134
C6MD C 0.372870 0.000 0.372870
C7QB C 0.390316 -0.033959 0.390316
H2QB H 0.383909 -0.061844 0.383909
N1QB N 0.418544 -0.020988 0.418544
C2MD C 0.265168 0.037153 0.265168
C3MD C 0.281972 0.078316 0.281972
F1MD F 0.260206 0.089494 0.315698
F2MD F 0.27836 0.107785 0.252739
F3MD F 0.322103 0.073804 0.292233
C7MD C 0.390316 0.033959 0.390316
H2MD H 0.383909 0.061844 0.383909
N1MD N 0.418544 0.020988 0.418544
F1QB F 0.260206 -0.089494 0.315698
F2QB F 0.27836 -0.107785 0.252739
F3QB F 0.322103 -0.073804 0.292233
C2K C 0.234832 0.037153 0.234832
C3K C 0.218028 0.078316 0.218028
F1QF F 0.239794 0.089494 0.184302
F2QF F 0.22164 0.107785 0.247261
F3QF F 0.177897 0.073804 0.207767
C7K C 0.109684 0.033959 0.109684
H2K H 0.116091 0.061844 0.116091
N1K N 0.081456 0.020988 0.081456
F1CA F 0.239794 -0.089494 0.184302
F2CA F 0.22164 -0.107785 0.247261
F3CA F 0.177897 -0.073804 0.207767
F1K F 0.184302 0.089494 0.239794
F2K F 0.247261 0.107785 0.22164
F3K F 0.207767 0.073804 0.177897
F1EC F 0.315698 0.089494 0.260206
F2EC F 0.252739 0.107785 0.27836
F3EC F 0.292233 0.073804 0.322103
Ni1E Ni -0.04076(19) 0.04076(19) 0.04076(19)
O1EF O 0.000 0.047070 0.000
H1EF H 0.000 0.076391 0.000
O1S O 0.000 0.000 0.047070
H1S H 0.000 0.000 0.076391
Ni1A Ni -0.04076(19) -0.04076(19) 0.04076(19)
Ni1WF Ni -0.04076(19) 0.04076(19) -0.04076(19)
Ni1HG Ni 0.45924(19) -0.04076(19) 0.45924(19)
Ni1IG Ni 0.45924(19) 0.45924(19) -0.04076(19)
Ni1N Ni 0.45924(19) 0.54076(19) 0.04076(19)
Ni1WA Ni 0.04076(19) -0.04076(19) -0.04076(19)
Ni1EE Ni 0.04076(19) -0.04076(19) 0.04076(19)
Ni1XA Ni 0.04076(19) 0.45924(19) 0.45924(19)
Ni1AB Ni 0.04076(19) 0.04076(19) -0.04076(19)
Ni1BB Ni 0.04076(19) 0.54076(19) 0.45924(19)
O1RC O -0.047070 0.000 0.000
O1HG O 0.452930 0.000 0.500
O1IG O 0.452930 0.500 0.000
O1Z O 0.500 0.452930 0.000
O1QF O 0.500 0.000 0.452930
O1BA O 0.500 0.500 0.047070
O1MF O 0.500 0.047070 0.500
N1VE N 0.020988 0.081456 0.081456
N1XA N -0.020988 0.081456 0.081456
N1NE N 0.479012 0.081456 0.418544
N1IB N 0.479012 0.418544 0.081456
N1NB N 0.418544 0.081456 0.479012
N1XD N -0.081456 0.081456 0.020988
N1WB N -0.081456 0.020988 0.081456
loop_
_geom_bond_atom_site_label_1
_geom_bond_atom_site_label_2
_geom_bond_site_symmetry_1
_geom_bond_site_symmetry_2
Ni1 O1 1_555 1_555
O1 H1 1_555 1_555
C1 C2 1_555 1_555
C2 C3 1_555 1_555
C3 F1 1_555 1_555
F2 C3 1_555 1_555
F3 C3 1_555 1_555
C4 C1 1_555 1_555
C5 C4 1_555 1_555
C6 C5 1_555 1_555
C7 C6 1_555 1_555
H2 C7 1_555 1_555
N1 C7 1_555 1_555
C1IG C2J 1_555 1_555
C2J C2 1_555 1_555
C3J C2J 1_555 1_555
F1J C3J 1_555 1_555
F2J C3J 1_555 1_555
F3J C3J 1_555 1_555
C4IG C1IG 1_555 1_555
C5IG C4IG 1_555 1_555
C6IG C5IG 1_555 1_555
C7J C6IG 1_555 1_555
H2J C7J 1_555 1_555
N1J C7J 1_555 1_555
C2IG C1IG 1_555 1_555
C3IG C2IG 1_555 1_555
F1Z C3IG 1_555 1_555
F2Z C3IG 1_555 1_555
F3Z C3IG 1_555 1_555
C7IG C6IG 1_555 1_555
H2IG C7IG 1_555 1_555
N1IG Ni1 1_555 1_555
F1TF C3J 1_555 1_555
F2TF C3J 1_555 1_555
F3TF C3J 1_555 1_555
C2SB C1 1_555 1_555
C3SB C2SB 1_555 1_555
F1SB C3SB 1_555 1_555
F2SB C3SB 1_555 1_555
F3SB C3SB 1_555 1_555
C7SB C6 1_555 1_555
H2SB C7SB 1_555 1_555
N1SB N1 1_555 1_555
F1ID C3 1_555 1_555
F2ID C3 1_555 1_555
F3ID C3 1_555 1_555
F1SC C3SB 1_555 1_555
F2SC C3SB 1_555 1_555
F3SC C3SB 1_555 1_555
F1IG C3IG 1_555 1_555
F2IG C3IG 1_555 1_555
F3IG C3IG 1_555 1_555
Ni1J N1SB 1_555 1_555
C1GG C2GG 1_555 1_555
C2GG C3GG 1_555 1_555
C3GG F1GG 1_555 1_555
F2GG C3GG 1_555 1_555
F3GG C3GG 1_555 1_555
C4GG C1GG 1_555 1_555
C5GG C4GG 1_555 1_555
C6GG C5GG 1_555 1_555
C7GG C6GG 1_555 1_555
H2GG C7GG 1_555 1_555
N1GG C7GG 1_555 1_555
C1PB C2PB 1_555 1_555
C2PB C2GG 1_555 1_555
C3PB C2PB 1_555 1_555
F1XC C3PB 1_555 1_555
F2XC C3PB 1_555 1_555
F3XC C3PB 1_555 1_555
C4PB C1PB 1_555 1_555
C5PB C4PB 1_555 1_555
C6PB C5PB 1_555 1_555
C7PB C6PB 1_555 1_555
H2PB C7PB 1_555 1_555
N1PB C7PB 1_555 1_555
C2LD C1PB 1_555 1_555
C3LD C2LD 1_555 1_555
F1LD C3LD 1_555 1_555
F2LD C3LD 1_555 1_555
F3LD C3LD 1_555 1_555
C7LD C6PB 1_555 1_555
H2LD C7LD 1_555 1_555
N1LD Ni1J 1_555 1_555
F1PB C3PB 1_555 1_555
F2PB C3PB 1_555 1_555
F3PB C3PB 1_555 1_555
C2N C1GG 1_555 1_555
C3N C2N 1_555 1_555
F1PF C3N 1_555 1_555
F2PF C3N 1_555 1_555
F3PF C3N 1_555 1_555
C7N C6GG 1_555 1_555
H2N C7N 1_555 1_555
N1N N1GG 1_555 1_555
F1BA C3GG 1_555 1_555
F2BA C3GG 1_555 1_555
F3BA C3GG 1_555 1_555
F1N C3N 1_555 1_555
F2N C3N 1_555 1_555
F3N C3N 1_555 1_555
F1HC C3LD 1_555 1_555
F2HC C3LD 1_555 1_555
F3HC C3LD 1_555 1_555
Ni1DG N1MD 1_555 1_555
C1K C2DG 1_555 1_555
C2DG C3DG 1_555 1_555
C3DG F1DG 1_555 1_555
F2DG C3DG 1_555 1_555
F3DG C3DG 1_555 1_555
C4K C1K 1_555 1_555
C5K C4K 1_555 1_555
C6K C5K 1_555 1_555
C7DG C6K 1_555 1_555
H2DG C7DG 1_555 1_555
N1DG C7DG 1_555 1_555
C1MD C2QB 1_555 1_555
C2QB C2DG 1_555 1_555
C3QB C2QB 1_555 1_555
F1UC C3QB 1_555 1_555
F2UC C3QB 1_555 1_555
F3UC C3QB 1_555 1_555
C4MD C1MD 1_555 1_555
C5MD C4MD 1_555 1_555
C6MD C5MD 1_555 1_555
C7QB C6MD 1_555 1_555
H2QB C7QB 1_555 1_555
N1QB C7QB 1_555 1_555
C2MD C1MD 1_555 1_555
C3MD C2MD 1_555 1_555
F1MD C3MD 1_555 1_555
F2MD C3MD 1_555 1_555
F3MD C3MD 1_555 1_555
C7MD C6MD 1_555 1_555
H2MD C7MD 1_555 1_555
N1MD N1QB 1_555 1_555
F1QB C3QB 1_555 1_555
F2QB C3QB 1_555 1_555
F3QB C3QB 1_555 1_555
C2K C1K 1_555 1_555
C3K C2K 1_555 1_555
F1QF C3K 1_555 1_555
F2QF C3K 1_555 1_555
F3QF C3K 1_555 1_555
C7K C6K 1_555 1_555
H2K C7K 1_555 1_555
N1K Ni1 1_555 1_555
F1CA C3DG 1_555 1_555
F2CA C3DG 1_555 1_555
F3CA C3DG 1_555 1_555
F1K C3K 1_555 1_555
F2K C3K 1_555 1_555
F3K C3K 1_555 1_555
F1EC C3MD 1_555 1_555
F2EC C3MD 1_555 1_555
F3EC C3MD 1_555 1_555
Ni1E O1EF 1_555 1_555
O1EF Ni1 1_555 1_555
H1EF O1EF 1_555 1_555
O1S Ni1 1_555 1_555
H1S O1S 1_555 1_555
Ni1A O1S 1_555 1_555
Ni1WF O1EF 1_555 1_555
Ni1HG N1QB 1_555 1_555
Ni1IG N1 1_555 1_555
Ni1N N1PB 1_555 1_555
Ni1WA O1 1_555 1_555
Ni1EE O1 1_555 1_555
Ni1XA N1N 1_555 1_555
Ni1AB O1 1_555 1_555
Ni1BB N1GG 1_555 1_555
O1RC Ni1E 1_555 1_555
O1HG Ni1DG 1_555 1_555
O1IG Ni1J 1_555 1_555
O1Z Ni1J 1_555 1_555
O1QF Ni1DG 1_555 1_555
O1BA Ni1J 1_555 1_555
O1MF Ni1DG 1_555 1_555
N1VE Ni1 1_555 1_555
N1XA Ni1E 1_555 1_555
N1NE Ni1DG 1_555 1_555
N1IB Ni1J 1_555 1_555
N1NB Ni1DG 1_555 1_555
N1XD Ni1E 1_555 1_555
N1WB Ni1E 1_555 1_555
N1J N1IG 1_555 1_555
N1J Ni1AB 1_555 1_555
C2IG C2SB 1_555 1_555
C7IG N1IG 1_555 1_555
C7SB N1SB 1_555 1_555
N1PB N1LD 1_555 1_555
C2LD C2N 1_555 1_555
C7LD N1LD 1_555 1_555
C7N N1N 1_555 1_555
N1DG N1K 1_555 1_555
N1DG Ni1EE 1_555 1_555
C2MD C2K 1_555 1_555
C7MD N1MD 1_555 1_555
C7K N1K 1_555 1_555
Ni1E O1S 1_555 1_555
O1EF Ni1AB 1_555 1_555
O1S Ni1EE 1_555 1_555
Ni1A O1RC 1_555 1_555
Ni1WF O1RC 1_555 1_555
Ni1HG O1HG 1_555 1_555
Ni1HG O1QF 1_555 1_555
Ni1IG O1IG 1_555 1_555
Ni1IG O1Z 1_555 1_555
Ni1N O1IG 1_555 1_555
Ni1N O1BA 1_555 1_555
N1VE N1XA 1_555 1_555

#END
