
#######################################################################
#
#                 Cambridge Crystallographic Data Centre
#                                CCDC 
#
#######################################################################
#
# If this CIF has been generated from an entry in the Cambridge 
# Structural Database, then it will include bibliographic, chemical, 
# crystal, experimental, refinement or atomic coordinate data resulting 
# from the CCDC's data processing and validation procedures.
#
#######################################################################

data_BIBXOB
_chemical_formula_moiety         
'(C48 H27 N12 Ni4 O3)n,2.5n(C3 H7 N1 O1),22.5n(H2 O1)'
_chemical_name_systematic        
"catena-[(\m~4~-Aqua)-bis(\m~4~-hydroxo)-tris(\m~4~-4,4'-(benzene-1,4-diyldiethyne-2,1-diyl)bis(pyrazolyl))-tetra-nickel(ii) N,N-dimethylformamide solvate hydrate]"
_symmetry_cell_setting           cubic
_symmetry_space_group_name_H-M   'F m 3 m'
_symmetry_Int_Tables_number      225
_space_group_name_Hall           '-F 4 2 3'
loop_
_symmetry_equiv_pos_site_id
_symmetry_equiv_pos_as_xyz
1 x,y,z
2 -x,-y,z
3 -x,1/2-y,1/2+z
4 -x,-z,-y
5 -x,1/2-z,1/2-y
6 -x,z,y
7 -x,1/2+z,1/2+y
8 -x,y,-z
9 -x,1/2+y,1/2-z
10 1/2-x,-y,1/2+z
11 1/2-x,1/2-y,z
12 1/2-x,-z,1/2-y
13 1/2-x,1/2-z,-y
14 1/2-x,z,1/2+y
15 1/2-x,1/2+z,y
16 1/2-x,y,1/2-z
17 1/2-x,1/2+y,-z
18 -y,-x,-z
19 -y,1/2-x,1/2-z
20 -y,-z,x
21 -y,1/2-z,1/2+x
22 -y,z,-x
23 -y,1/2+z,1/2-x
24 -y,x,z
25 -y,1/2+x,1/2+z
26 1/2-y,-x,1/2-z
27 1/2-y,1/2-x,-z
28 1/2-y,-z,1/2+x
29 1/2-y,1/2-z,x
30 1/2-y,z,1/2-x
31 1/2-y,1/2+z,-x
32 1/2-y,x,1/2+z
33 1/2-y,1/2+x,z
34 -z,-x,y
35 -z,1/2-x,1/2+y
36 -z,-y,-x
37 -z,1/2-y,1/2-x
38 -z,y,x
39 -z,1/2+y,1/2+x
40 -z,x,-y
41 -z,1/2+x,1/2-y
42 1/2-z,-x,1/2+y
43 1/2-z,1/2-x,y
44 1/2-z,-y,1/2-x
45 1/2-z,1/2-y,-x
46 1/2-z,y,1/2+x
47 1/2-z,1/2+y,x
48 1/2-z,x,1/2-y
49 1/2-z,1/2+x,-y
50 z,-x,-y
51 z,1/2-x,1/2-y
52 z,-y,x
53 z,1/2-y,1/2+x
54 z,y,-x
55 z,1/2+y,1/2-x
56 z,x,y
57 z,1/2+x,1/2+y
58 1/2+z,-x,1/2-y
59 1/2+z,1/2-x,-y
60 1/2+z,-y,1/2+x
61 1/2+z,1/2-y,x
62 1/2+z,y,1/2-x
63 1/2+z,1/2+y,-x
64 1/2+z,x,1/2+y
65 1/2+z,1/2+x,y
66 y,-x,z
67 y,1/2-x,1/2+z
68 y,-z,-x
69 y,1/2-z,1/2-x
70 y,z,x
71 y,1/2+z,1/2+x
72 y,x,-z
73 y,1/2+x,1/2-z
74 1/2+y,-x,1/2+z
75 1/2+y,1/2-x,z
76 1/2+y,-z,1/2-x
77 1/2+y,1/2-z,-x
78 1/2+y,z,1/2+x
79 1/2+y,1/2+z,x
80 1/2+y,x,1/2-z
81 1/2+y,1/2+x,-z
82 x,-y,-z
83 x,1/2-y,1/2-z
84 x,-z,y
85 x,1/2-z,1/2+y
86 x,z,-y
87 x,1/2+z,1/2-y
88 x,1/2+y,1/2+z
89 1/2+x,-y,1/2-z
90 1/2+x,1/2-y,-z
91 1/2+x,-z,1/2+y
92 1/2+x,1/2-z,y
93 1/2+x,z,1/2-y
94 1/2+x,1/2+z,-y
95 1/2+x,y,1/2+z
96 1/2+x,1/2+y,z
97 -x,-y,-z
98 x,y,-z
99 x,1/2+y,1/2-z
100 x,z,y
101 x,1/2+z,1/2+y
102 x,-z,-y
103 x,1/2-z,1/2-y
104 x,-y,z
105 x,1/2-y,1/2+z
106 1/2+x,y,1/2-z
107 1/2+x,1/2+y,-z
108 1/2+x,z,1/2+y
109 1/2+x,1/2+z,y
110 1/2+x,-z,1/2-y
111 1/2+x,1/2-z,-y
112 1/2+x,-y,1/2+z
113 1/2+x,1/2-y,z
114 y,x,z
115 y,1/2+x,1/2+z
116 y,z,-x
117 y,1/2+z,1/2-x
118 y,-z,x
119 y,1/2-z,1/2+x
120 y,-x,-z
121 y,1/2-x,1/2-z
122 1/2+y,x,1/2+z
123 1/2+y,1/2+x,z
124 1/2+y,z,1/2-x
125 1/2+y,1/2+z,-x
126 1/2+y,-z,1/2+x
127 1/2+y,1/2-z,x
128 1/2+y,-x,1/2-z
129 1/2+y,1/2-x,-z
130 z,x,-y
131 z,1/2+x,1/2-y
132 z,y,x
133 z,1/2+y,1/2+x
134 z,-y,-x
135 z,1/2-y,1/2-x
136 z,-x,y
137 z,1/2-x,1/2+y
138 1/2+z,x,1/2-y
139 1/2+z,1/2+x,-y
140 1/2+z,y,1/2+x
141 1/2+z,1/2+y,x
142 1/2+z,-y,1/2-x
143 1/2+z,1/2-y,-x
144 1/2+z,-x,1/2+y
145 1/2+z,1/2-x,y
146 -z,x,y
147 -z,1/2+x,1/2+y
148 -z,y,-x
149 -z,1/2+y,1/2-x
150 -z,-y,x
151 -z,1/2-y,1/2+x
152 -z,-x,-y
153 -z,1/2-x,1/2-y
154 1/2-z,x,1/2+y
155 1/2-z,1/2+x,y
156 1/2-z,y,1/2-x
157 1/2-z,1/2+y,-x
158 1/2-z,-y,1/2+x
159 1/2-z,1/2-y,x
160 1/2-z,-x,1/2-y
161 1/2-z,1/2-x,-y
162 -y,x,-z
163 -y,1/2+x,1/2-z
164 -y,z,x
165 -y,1/2+z,1/2+x
166 -y,-z,-x
167 -y,1/2-z,1/2-x
168 -y,-x,z
169 -y,1/2-x,1/2+z
170 1/2-y,x,1/2-z
171 1/2-y,1/2+x,-z
172 1/2-y,z,1/2+x
173 1/2-y,1/2+z,x
174 1/2-y,-z,1/2-x
175 1/2-y,1/2-z,-x
176 1/2-y,-x,1/2+z
177 1/2-y,1/2-x,z
178 -x,y,z
179 -x,1/2+y,1/2+z
180 -x,z,-y
181 -x,1/2+z,1/2-y
182 -x,-z,y
183 -x,1/2-z,1/2+y
184 -x,1/2-y,1/2-z
185 1/2-x,y,1/2+z
186 1/2-x,1/2+y,z
187 1/2-x,z,1/2-y
188 1/2-x,1/2+z,-y
189 1/2-x,-z,1/2+y
190 1/2-x,1/2-z,y
191 1/2-x,-y,1/2-z
192 1/2-x,1/2-y,-z
_cell_length_a                   32.4617(19)
_cell_length_b                   32.4617(19)
_cell_length_c                   32.4617(19)
_cell_angle_alpha                90
_cell_angle_beta                 90
_cell_angle_gamma                90
_cell_volume                     34206.9
_exptl_crystal_colour            'pale green'
_cell_formula_units_Z            16
loop_
_atom_site_label
_atom_site_type_symbol
_atom_site_fract_x
_atom_site_fract_y
_atom_site_fract_z
O2 O 0.500 0.000 0.000
O3 O 0.250 0.250 0.250
O4 O 0.000 -0.17443(64) 0.000
O5 O -0.6608(16) -0.5646(83) 0.5707(88)
Ni1 Ni 0.04240(19) 0.04240(19) 0.04240(19)
O1 O 0.064159 0.000 0.000
H1 H 0.093425 0.000 0.000
C1 C 0.280278 0.280278 0.000
C2 C 0.265139 0.265139 -0.037083
H2 H 0.275486 0.275486 -0.062427
C3 C 0.312952 0.312952 0.000
C4 C 0.339963 0.339963 0.000
C5 C 0.372637 0.372637 0.000
C6 C 0.390050 0.390050 -0.033894
H3 H 0.383656 0.383656 -0.061727
N1 N 0.418225 0.418225 -0.020948
C1IG C 0.219722 0.219722 0.000
C2J C 0.234861 0.234861 -0.037083
H2J H 0.224514 0.224514 -0.062427
C3IG C 0.187048 0.187048 0.000
C4IG C 0.160037 0.160037 0.000
C5IG C 0.127363 0.127363 0.000
C6J C 0.109950 0.109950 -0.033894
H3J H 0.116344 0.116344 -0.061727
N1J N 0.081775 0.081775 -0.020948
C2IG C 0.234861 0.234861 0.037083
H2IG H 0.224514 0.224514 0.062427
C6IG C 0.109950 0.109950 0.033894
H3IG H 0.116344 0.116344 0.061727
N1IG N 0.081775 0.081775 0.020948
C2SB C 0.265139 0.265139 0.037083
H2SB H 0.275486 0.275486 0.062427
C6SB C 0.390050 0.390050 0.033894
H3SB H 0.383656 0.383656 0.061727
N1SB N 0.418225 0.418225 0.020948
Ni1J Ni 0.45760(19) 0.45760(19) 0.04240(19)
C1GG C 0.219722 0.500 0.280278
C2GG C 0.234861 0.537083 0.265139
H2GG H 0.224514 0.562427 0.275486
C3GG C 0.187048 0.500 0.312952
C4GG C 0.160037 0.500 0.339963
C5GG C 0.127363 0.500 0.372637
C6GG C 0.109950 0.533894 0.390050
H3GG H 0.116344 0.561727 0.383656
N1GG N 0.081775 0.520948 0.418225
C1PB C 0.280278 0.500 0.219722
C2PB C 0.265139 0.537083 0.234861
H2PB H 0.275486 0.562427 0.224514
C3PB C 0.312952 0.500 0.187048
C4PB C 0.339963 0.500 0.160037
C5PB C 0.372637 0.500 0.127363
C6PB C 0.390050 0.533894 0.109950
H3PB H 0.383656 0.561727 0.116344
N1PB N 0.418225 0.520948 0.081775
C2LD C 0.265139 0.462917 0.234861
H2LD H 0.275486 0.437573 0.224514
C6LD C 0.390050 0.466106 0.109950
H3LD H 0.383656 0.438273 0.116344
N1LD N 0.418225 0.479052 0.081775
C2N C 0.234861 0.462917 0.265139
H2N H 0.224514 0.437573 0.275486
C6N C 0.109950 0.466106 0.390050
H3N H 0.116344 0.438273 0.383656
N1N N 0.081775 0.479052 0.418225
Ni1DG Ni 0.45760(19) 0.04240(19) 0.45760(19)
C1K C 0.219722 0.000 0.219722
C2DG C 0.234861 -0.037083 0.234861
H2DG H 0.224514 -0.062427 0.224514
C3K C 0.187048 0.000 0.187048
C4K C 0.160037 0.000 0.160037
C5K C 0.127363 0.000 0.127363
C6DG C 0.109950 -0.033894 0.109950
H3DG H 0.116344 -0.061727 0.116344
N1DG N 0.081775 -0.020948 0.081775
C1MD C 0.280278 0.000 0.280278
C2QB C 0.265139 -0.037083 0.265139
H2QB H 0.275486 -0.062427 0.275486
C3MD C 0.312952 0.000 0.312952
C4MD C 0.339963 0.000 0.339963
C5MD C 0.372637 0.000 0.372637
C6QB C 0.390050 -0.033894 0.390050
H3QB H 0.383656 -0.061727 0.383656
N1QB N 0.418225 -0.020948 0.418225
C2MD C 0.265139 0.037083 0.265139
H2MD H 0.275486 0.062427 0.275486
C6MD C 0.390050 0.033894 0.390050
H3MD H 0.383656 0.061727 0.383656
N1MD N 0.418225 0.020948 0.418225
C2K C 0.234861 0.037083 0.234861
H2K H 0.224514 0.062427 0.224514
C6K C 0.109950 0.033894 0.109950
H3K H 0.116344 0.061727 0.116344
N1K N 0.081775 0.020948 0.081775
Ni1E Ni -0.04240(19) 0.04240(19) 0.04240(19)
O1EF O 0.000 0.064159 0.000
H1EF H 0.000 0.093425 0.000
O1S O 0.000 0.000 0.064159
H1S H 0.000 0.000 0.093425
Ni1A Ni -0.04240(19) -0.04240(19) 0.04240(19)
Ni1WF Ni -0.04240(19) 0.04240(19) -0.04240(19)
Ni1HG Ni 0.45760(19) -0.04240(19) 0.45760(19)
Ni1IG Ni 0.45760(19) 0.45760(19) -0.04240(19)
Ni1N Ni 0.45760(19) 0.54240(19) 0.04240(19)
Ni1WA Ni 0.04240(19) -0.04240(19) -0.04240(19)
Ni1EE Ni 0.04240(19) -0.04240(19) 0.04240(19)
Ni1XA Ni 0.04240(19) 0.45760(19) 0.45760(19)
Ni1AB Ni 0.04240(19) 0.04240(19) -0.04240(19)
Ni1BB Ni 0.04240(19) 0.54240(19) 0.45760(19)
O1RC O -0.064159 0.000 0.000
O1HG O 0.435841 0.000 0.500
O1IG O 0.435841 0.500 0.000
O1Z O 0.500 0.435841 0.000
O1QF O 0.500 0.000 0.435841
O1BA O 0.500 0.500 0.064159
O1MF O 0.500 0.064159 0.500
N1VE N 0.020948 0.081775 0.081775
N1XA N -0.020948 0.081775 0.081775
N1NE N 0.479052 0.081775 0.418225
N1IB N 0.479052 0.418225 0.081775
N1NB N 0.418225 0.081775 0.479052
N1XD N -0.081775 0.081775 0.020948
N1WB N -0.081775 0.020948 0.081775
loop_
_geom_bond_atom_site_label_1
_geom_bond_atom_site_label_2
_geom_bond_site_symmetry_1
_geom_bond_site_symmetry_2
Ni1 O1 1_555 1_555
O1 H1 1_555 1_555
C1 C2 1_555 1_555
C2 H2 1_555 1_555
C3 C1 1_555 1_555
C4 C3 1_555 1_555
C5 C4 1_555 1_555
C6 C5 1_555 1_555
H3 C6 1_555 1_555
N1 C6 1_555 1_555
C1IG C2J 1_555 1_555
C2J C2 1_555 1_555
H2J C2J 1_555 1_555
C3IG C1IG 1_555 1_555
C4IG C3IG 1_555 1_555
C5IG C4IG 1_555 1_555
C6J C5IG 1_555 1_555
H3J C6J 1_555 1_555
N1J C6J 1_555 1_555
C2IG C1IG 1_555 1_555
H2IG C2IG 1_555 1_555
C6IG C5IG 1_555 1_555
H3IG C6IG 1_555 1_555
N1IG Ni1 1_555 1_555
C2SB C1 1_555 1_555
H2SB C2SB 1_555 1_555
C6SB C5 1_555 1_555
H3SB C6SB 1_555 1_555
N1SB N1 1_555 1_555
Ni1J N1SB 1_555 1_555
C1GG C2GG 1_555 1_555
C2GG H2GG 1_555 1_555
C3GG C1GG 1_555 1_555
C4GG C3GG 1_555 1_555
C5GG C4GG 1_555 1_555
C6GG C5GG 1_555 1_555
H3GG C6GG 1_555 1_555
N1GG C6GG 1_555 1_555
C1PB C2PB 1_555 1_555
C2PB C2GG 1_555 1_555
H2PB C2PB 1_555 1_555
C3PB C1PB 1_555 1_555
C4PB C3PB 1_555 1_555
C5PB C4PB 1_555 1_555
C6PB C5PB 1_555 1_555
H3PB C6PB 1_555 1_555
N1PB C6PB 1_555 1_555
C2LD C1PB 1_555 1_555
H2LD C2LD 1_555 1_555
C6LD C5PB 1_555 1_555
H3LD C6LD 1_555 1_555
N1LD Ni1J 1_555 1_555
C2N C1GG 1_555 1_555
H2N C2N 1_555 1_555
C6N C5GG 1_555 1_555
H3N C6N 1_555 1_555
N1N N1GG 1_555 1_555
Ni1DG N1MD 1_555 1_555
C1K C2DG 1_555 1_555
C2DG H2DG 1_555 1_555
C3K C1K 1_555 1_555
C4K C3K 1_555 1_555
C5K C4K 1_555 1_555
C6DG C5K 1_555 1_555
H3DG C6DG 1_555 1_555
N1DG C6DG 1_555 1_555
C1MD C2QB 1_555 1_555
C2QB C2DG 1_555 1_555
H2QB C2QB 1_555 1_555
C3MD C1MD 1_555 1_555
C4MD C3MD 1_555 1_555
C5MD C4MD 1_555 1_555
C6QB C5MD 1_555 1_555
H3QB C6QB 1_555 1_555
N1QB C6QB 1_555 1_555
C2MD C1MD 1_555 1_555
H2MD C2MD 1_555 1_555
C6MD C5MD 1_555 1_555
H3MD C6MD 1_555 1_555
N1MD N1QB 1_555 1_555
C2K C1K 1_555 1_555
H2K C2K 1_555 1_555
C6K C5K 1_555 1_555
H3K C6K 1_555 1_555
N1K Ni1 1_555 1_555
Ni1E O1EF 1_555 1_555
O1EF Ni1 1_555 1_555
H1EF O1EF 1_555 1_555
O1S Ni1 1_555 1_555
H1S O1S 1_555 1_555
Ni1A O1S 1_555 1_555
Ni1WF O1EF 1_555 1_555
Ni1HG N1QB 1_555 1_555
Ni1IG N1 1_555 1_555
Ni1N N1PB 1_555 1_555
Ni1WA O1 1_555 1_555
Ni1EE O1 1_555 1_555
Ni1XA N1N 1_555 1_555
Ni1AB O1 1_555 1_555
Ni1BB N1GG 1_555 1_555
O1RC Ni1E 1_555 1_555
O1HG Ni1DG 1_555 1_555
O1IG Ni1J 1_555 1_555
O1Z Ni1J 1_555 1_555
O1QF Ni1DG 1_555 1_555
O1BA Ni1J 1_555 1_555
O1MF Ni1DG 1_555 1_555
N1VE Ni1 1_555 1_555
N1XA Ni1E 1_555 1_555
N1NE Ni1DG 1_555 1_555
N1IB Ni1J 1_555 1_555
N1NB Ni1DG 1_555 1_555
N1XD Ni1E 1_555 1_555
N1WB Ni1E 1_555 1_555
N1J N1IG 1_555 1_555
N1J Ni1AB 1_555 1_555
C2IG C2SB 1_555 1_555
C6IG N1IG 1_555 1_555
C6SB N1SB 1_555 1_555
N1PB N1LD 1_555 1_555
C2LD C2N 1_555 1_555
C6LD N1LD 1_555 1_555
C6N N1N 1_555 1_555
N1DG N1K 1_555 1_555
N1DG Ni1EE 1_555 1_555
C2MD C2K 1_555 1_555
C6MD N1MD 1_555 1_555
C6K N1K 1_555 1_555
Ni1E O1S 1_555 1_555
O1EF Ni1AB 1_555 1_555
O1S Ni1EE 1_555 1_555
Ni1A O1RC 1_555 1_555
Ni1WF O1RC 1_555 1_555
Ni1HG O1HG 1_555 1_555
Ni1HG O1QF 1_555 1_555
Ni1IG O1IG 1_555 1_555
Ni1IG O1Z 1_555 1_555
Ni1N O1IG 1_555 1_555
Ni1N O1BA 1_555 1_555
N1VE N1XA 1_555 1_555

#END
