
#######################################################################
#
#                 Cambridge Crystallographic Data Centre
#                                CCDC 
#
#######################################################################
#
# If this CIF has been generated from an entry in the Cambridge 
# Structural Database, then it will include bibliographic, chemical, 
# crystal, experimental, refinement or atomic coordinate data resulting 
# from the CCDC's data processing and validation procedures.
#
#######################################################################

data_ADOGEH
_chemical_name_common            UHM-30
_chemical_formula_moiety         
'(C36 H28 Cu6 N4 O30)n,6n(C3 H7 N1 O1),10n(H2 O1)'
_chemical_name_systematic        
'catena-(tetrakis(\m~6~-2-aminobenzene-1,3,5-tricarboxylato)-hexaaqua-hexa-copper N,N-dimethylformamide solvate decahydrate)'
_symmetry_cell_setting           cubic
_symmetry_space_group_name_H-M   'F m -3 m'
_symmetry_Int_Tables_number      225
_space_group_name_Hall           '-F 4 2 3'
loop_
_symmetry_equiv_pos_site_id
_symmetry_equiv_pos_as_xyz
1 x,y,z
2 -x,-y,z
3 -x,y,-z
4 x,-y,-z
5 z,x,y
6 z,-x,-y
7 -z,-x,y
8 -z,x,-y
9 y,z,x
10 -y,z,-x
11 y,-z,-x
12 -y,-z,x
13 y,x,-z
14 -y,-x,-z
15 y,-x,z
16 -y,x,z
17 x,z,-y
18 -x,z,y
19 -x,-z,-y
20 x,-z,y
21 z,y,-x
22 z,-y,x
23 -z,y,x
24 -z,-y,-x
25 x,1/2+y,1/2+z
26 -x,1/2-y,1/2+z
27 -x,1/2+y,1/2-z
28 x,1/2-y,1/2-z
29 z,1/2+x,1/2+y
30 z,1/2-x,1/2-y
31 -z,1/2-x,1/2+y
32 -z,1/2+x,1/2-y
33 y,1/2+z,1/2+x
34 -y,1/2+z,1/2-x
35 y,1/2-z,1/2-x
36 -y,1/2-z,1/2+x
37 y,1/2+x,1/2-z
38 -y,1/2-x,1/2-z
39 y,1/2-x,1/2+z
40 -y,1/2+x,1/2+z
41 x,1/2+z,1/2-y
42 -x,1/2+z,1/2+y
43 -x,1/2-z,1/2-y
44 x,1/2-z,1/2+y
45 z,1/2+y,1/2-x
46 z,1/2-y,1/2+x
47 -z,1/2+y,1/2+x
48 -z,1/2-y,1/2-x
49 1/2+x,y,1/2+z
50 1/2-x,-y,1/2+z
51 1/2-x,y,1/2-z
52 1/2+x,-y,1/2-z
53 1/2+z,x,1/2+y
54 1/2+z,-x,1/2-y
55 1/2-z,-x,1/2+y
56 1/2-z,x,1/2-y
57 1/2+y,z,1/2+x
58 1/2-y,z,1/2-x
59 1/2+y,-z,1/2-x
60 1/2-y,-z,1/2+x
61 1/2+y,x,1/2-z
62 1/2-y,-x,1/2-z
63 1/2+y,-x,1/2+z
64 1/2-y,x,1/2+z
65 1/2+x,z,1/2-y
66 1/2-x,z,1/2+y
67 1/2-x,-z,1/2-y
68 1/2+x,-z,1/2+y
69 1/2+z,y,1/2-x
70 1/2+z,-y,1/2+x
71 1/2-z,y,1/2+x
72 1/2-z,-y,1/2-x
73 1/2+x,1/2+y,z
74 1/2-x,1/2-y,z
75 1/2-x,1/2+y,-z
76 1/2+x,1/2-y,-z
77 1/2+z,1/2+x,y
78 1/2+z,1/2-x,-y
79 1/2-z,1/2-x,y
80 1/2-z,1/2+x,-y
81 1/2+y,1/2+z,x
82 1/2-y,1/2+z,-x
83 1/2+y,1/2-z,-x
84 1/2-y,1/2-z,x
85 1/2+y,1/2+x,-z
86 1/2-y,1/2-x,-z
87 1/2+y,1/2-x,z
88 1/2-y,1/2+x,z
89 1/2+x,1/2+z,-y
90 1/2-x,1/2+z,y
91 1/2-x,1/2-z,-y
92 1/2+x,1/2-z,y
93 1/2+z,1/2+y,-x
94 1/2+z,1/2-y,x
95 1/2-z,1/2+y,x
96 1/2-z,1/2-y,-x
97 -x,-y,-z
98 x,y,-z
99 x,-y,z
100 -x,y,z
101 -z,-x,-y
102 -z,x,y
103 z,x,-y
104 z,-x,y
105 -y,-z,-x
106 y,-z,x
107 -y,z,x
108 y,z,-x
109 -y,-x,z
110 y,x,z
111 -y,x,-z
112 y,-x,-z
113 -x,-z,y
114 x,-z,-y
115 x,z,y
116 -x,z,-y
117 -z,-y,x
118 -z,y,-x
119 z,-y,-x
120 z,y,x
121 -x,1/2-y,1/2-z
122 x,1/2+y,1/2-z
123 x,1/2-y,1/2+z
124 -x,1/2+y,1/2+z
125 -z,1/2-x,1/2-y
126 -z,1/2+x,1/2+y
127 z,1/2+x,1/2-y
128 z,1/2-x,1/2+y
129 -y,1/2-z,1/2-x
130 y,1/2-z,1/2+x
131 -y,1/2+z,1/2+x
132 y,1/2+z,1/2-x
133 -y,1/2-x,1/2+z
134 y,1/2+x,1/2+z
135 -y,1/2+x,1/2-z
136 y,1/2-x,1/2-z
137 -x,1/2-z,1/2+y
138 x,1/2-z,1/2-y
139 x,1/2+z,1/2+y
140 -x,1/2+z,1/2-y
141 -z,1/2-y,1/2+x
142 -z,1/2+y,1/2-x
143 z,1/2-y,1/2-x
144 z,1/2+y,1/2+x
145 1/2-x,-y,1/2-z
146 1/2+x,y,1/2-z
147 1/2+x,-y,1/2+z
148 1/2-x,y,1/2+z
149 1/2-z,-x,1/2-y
150 1/2-z,x,1/2+y
151 1/2+z,x,1/2-y
152 1/2+z,-x,1/2+y
153 1/2-y,-z,1/2-x
154 1/2+y,-z,1/2+x
155 1/2-y,z,1/2+x
156 1/2+y,z,1/2-x
157 1/2-y,-x,1/2+z
158 1/2+y,x,1/2+z
159 1/2-y,x,1/2-z
160 1/2+y,-x,1/2-z
161 1/2-x,-z,1/2+y
162 1/2+x,-z,1/2-y
163 1/2+x,z,1/2+y
164 1/2-x,z,1/2-y
165 1/2-z,-y,1/2+x
166 1/2-z,y,1/2-x
167 1/2+z,-y,1/2-x
168 1/2+z,y,1/2+x
169 1/2-x,1/2-y,-z
170 1/2+x,1/2+y,-z
171 1/2+x,1/2-y,z
172 1/2-x,1/2+y,z
173 1/2-z,1/2-x,-y
174 1/2-z,1/2+x,y
175 1/2+z,1/2+x,-y
176 1/2+z,1/2-x,y
177 1/2-y,1/2-z,-x
178 1/2+y,1/2-z,x
179 1/2-y,1/2+z,x
180 1/2+y,1/2+z,-x
181 1/2-y,1/2-x,z
182 1/2+y,1/2+x,z
183 1/2-y,1/2+x,-z
184 1/2+y,1/2-x,-z
185 1/2-x,1/2-z,y
186 1/2+x,1/2-z,-y
187 1/2+x,1/2+z,y
188 1/2-x,1/2+z,-y
189 1/2-z,1/2-y,x
190 1/2-z,1/2+y,-x
191 1/2+z,1/2-y,-x
192 1/2+z,1/2+y,x
_cell_length_a                   26.3336(2)
_cell_length_b                   26.3336(2)
_cell_length_c                   26.3336(2)
_cell_angle_alpha                90
_cell_angle_beta                 90
_cell_angle_gamma                90
_cell_volume                     18261.3
_exptl_crystal_colour            blue
_exptl_crystal_description       block
_cell_formula_units_Z            8
loop_
_atom_site_label
_atom_site_type_symbol
_atom_site_fract_x
_atom_site_fract_y
_atom_site_fract_z
_atom_site_U_iso_or_equiv
_atom_site_thermal_displace_type
Cu1 Cu 0.28530(4) 0.0000 0.28530(4) 0.0839 Uani
O1 O 0.3439(3) 0.0000 0.3439(3) 0.1713 Uani
O2 O 0.3166(2) -0.0523(2) 0.2431(2) 0.1053 Uani
C1 C 0.2968(3) -0.0692(4) 0.2032(3) 0.0833 Uani
C2 C 0.3226(3) -0.1122(4) 0.1774(3) 0.0890 Uani
C3 C 0.3013(4) -0.1335(3) 0.1335(3) 0.0953 Uani
N1 N 0.2577(10) -0.1091(8) 0.1091(8) 0.1260 Uiso
H2 H 0.2434 -0.1239 0.0839 0.2000 Uiso
Cu1XA Cu 0.21470(4) 0.0000 0.21470(4) 0.0839 Uani
Cu1AC Cu 0.21470(4) -0.21470(4) 0.0000 0.0839 Uani
Cu1E Cu 0.28530(4) -0.28530(4) 0.0000 0.0839 Uani
Cu1FB Cu 0.5000 -0.28530(4) 0.21470(4) 0.0839 Uani
Cu1BC Cu 0.5000 -0.21470(4) 0.28530(4) 0.0839 Uani
Cu1HA Cu 0.0000 0.21470(4) 0.21470(4) 0.0839 Uani
Cu1H Cu 0.0000 0.28530(4) 0.28530(4) 0.0839 Uani
Cu1CB Cu 0.21470(4) 0.28530(4) 0.5000 0.0839 Uani
Cu1CA Cu 0.28530(4) 0.21470(4) 0.5000 0.0839 Uani
Cu1ZB Cu 0.21470(4) 0.21470(4) 0.0000 0.0839 Uani
Cu1D Cu 0.28530(4) 0.28530(4) 0.0000 0.0839 Uani
Cu1EB Cu 0.5000 0.28530(4) 0.21470(4) 0.0839 Uani
Cu1EC Cu 0.5000 0.21470(4) 0.28530(4) 0.0839 Uani
Cu1GA Cu 0.0000 -0.21470(4) 0.21470(4) 0.0839 Uani
Cu1K Cu 0.0000 -0.28530(4) 0.28530(4) 0.0839 Uani
Cu1BB Cu 0.21470(4) -0.28530(4) 0.5000 0.0839 Uani
Cu1BA Cu 0.28530(4) -0.21470(4) 0.5000 0.0839 Uani
O1XA O 0.1561(3) 0.0000 0.1561(3) 0.1713 Uani
O1AC O 0.1561(3) -0.1561(3) 0.0000 0.1713 Uani
O1E O 0.3439(3) -0.3439(3) 0.0000 0.1713 Uani
O1FB O 0.5000 -0.3439(3) 0.1561(3) 0.1713 Uani
O1BC O 0.5000 -0.1561(3) 0.3439(3) 0.1713 Uani
O2IF O 0.2569(2) -0.0523(2) 0.1834(2) 0.1053 Uani
O2AC O 0.2569(2) -0.1834(2) 0.0523(2) 0.1053 Uani
O2ID O 0.3166(2) -0.2431(2) 0.0523(2) 0.1053 Uani
O2FB O 0.4477(2) -0.2431(2) 0.1834(2) 0.1053 Uani
O2YF O 0.4477(2) -0.1834(2) 0.2431(2) 0.1053 Uani
O2U O 0.2431(2) 0.0523(2) 0.3166(2) 0.1053 Uani
O2NE O 0.1834(2) 0.0523(2) 0.2569(2) 0.1053 Uani
O2KA O 0.0523(2) 0.1834(2) 0.2569(2) 0.1053 Uani
O2BD O 0.0523(2) 0.2431(2) 0.3166(2) 0.1053 Uani
O2MB O 0.1834(2) 0.2431(2) 0.4477(2) 0.1053 Uani
O2WD O 0.2431(2) 0.1834(2) 0.4477(2) 0.1053 Uani
O2TC O 0.3166(2) 0.0523(2) 0.2431(2) 0.1053 Uani
O2SB O 0.2569(2) 0.0523(2) 0.1834(2) 0.1053 Uani
O2PF O 0.2569(2) 0.1834(2) 0.0523(2) 0.1053 Uani
O2P O 0.3166(2) 0.2431(2) 0.0523(2) 0.1053 Uani
O2YE O 0.4477(2) 0.2431(2) 0.1834(2) 0.1053 Uani
O2HC O 0.4477(2) 0.1834(2) 0.2431(2) 0.1053 Uani
O2OD O 0.2431(2) -0.0523(2) 0.3166(2) 0.1053 Uani
O2XA O 0.1834(2) -0.0523(2) 0.2569(2) 0.1053 Uani
O2DE O 0.0523(2) -0.1834(2) 0.2569(2) 0.1053 Uani
O2K O 0.0523(2) -0.2431(2) 0.3166(2) 0.1053 Uani
O2DF O 0.1834(2) -0.2431(2) 0.4477(2) 0.1053 Uani
O2BA O 0.2431(2) -0.1834(2) 0.4477(2) 0.1053 Uani
O2KC O 0.1834(2) -0.2569(2) -0.0523(2) 0.1053 Uani
O2QF O 0.2569(2) -0.1834(2) -0.0523(2) 0.1053 Uani
O2EG O 0.1834(2) -0.2569(2) 0.0523(2) 0.1053 Uani
O2YC O 0.2431(2) -0.3166(2) -0.0523(2) 0.1053 Uani
O2S O 0.3166(2) -0.2431(2) -0.0523(2) 0.1053 Uani
O2E O 0.2431(2) -0.3166(2) 0.0523(2) 0.1053 Uani
O2IB O 0.5523(2) -0.3166(2) 0.2569(2) 0.1053 Uani
O2VE O 0.5523(2) -0.2431(2) 0.1834(2) 0.1053 Uani
O2CF O 0.4477(2) -0.3166(2) 0.2569(2) 0.1053 Uani
O2VF O 0.5523(2) -0.2569(2) 0.3166(2) 0.1053 Uani
O2IC O 0.5523(2) -0.1834(2) 0.2431(2) 0.1053 Uani
O2BC O 0.4477(2) -0.2569(2) 0.3166(2) 0.1053 Uani
C1AC C 0.2968(3) -0.2032(3) 0.0692(4) 0.0833 Uani
C1FB C 0.4308(4) -0.2032(3) 0.2032(3) 0.0833 Uani
C1U C 0.2032(3) 0.0692(4) 0.2968(3) 0.0833 Uani
C1KA C 0.0692(4) 0.2032(3) 0.2968(3) 0.0833 Uani
C1MB C 0.2032(3) 0.2032(3) 0.4308(4) 0.0833 Uani
C1SB C 0.2968(3) 0.0692(4) 0.2032(3) 0.0833 Uani
C1P C 0.2968(3) 0.2032(3) 0.0692(4) 0.0833 Uani
C1HC C 0.4308(4) 0.2032(3) 0.2032(3) 0.0833 Uani
C1XA C 0.2032(3) -0.0692(4) 0.2968(3) 0.0833 Uani
C1K C 0.0692(4) -0.2032(3) 0.2968(3) 0.0833 Uani
C1BA C 0.2032(3) -0.2032(3) 0.4308(4) 0.0833 Uani
C2AC C 0.3226(3) -0.1774(3) 0.1122(4) 0.0890 Uani
C2FB C 0.3878(4) -0.1774(3) 0.1774(3) 0.0890 Uani
C2U C 0.1774(3) 0.1122(4) 0.3226(3) 0.0890 Uani
C2KA C 0.1122(4) 0.1774(3) 0.3226(3) 0.0890 Uani
C2MB C 0.1774(3) 0.1774(3) 0.3878(4) 0.0890 Uani
C2SB C 0.3226(3) 0.1122(4) 0.1774(3) 0.0890 Uani
C2P C 0.3226(3) 0.1774(3) 0.1122(4) 0.0890 Uani
C2HC C 0.3878(4) 0.1774(3) 0.1774(3) 0.0890 Uani
C2XA C 0.1774(3) -0.1122(4) 0.3226(3) 0.0890 Uani
C2K C 0.1122(4) -0.1774(3) 0.3226(3) 0.0890 Uani
C2BA C 0.1774(3) -0.1774(3) 0.3878(4) 0.0890 Uani
C3AC C 0.3665(3) -0.1987(4) 0.1335(3) 0.0953 Uani
C3FB C 0.3665(3) -0.1335(3) 0.1987(4) 0.0953 Uani
C3U C 0.1335(3) 0.1335(3) 0.3013(4) 0.0953 Uani
C3KA C 0.1335(3) 0.1987(4) 0.3665(3) 0.0953 Uani
C3MB C 0.1987(4) 0.1335(3) 0.3665(3) 0.0953 Uani
C3P C 0.3013(4) 0.1335(3) 0.1335(3) 0.0953 Uani
C3HC C 0.3665(3) 0.1987(4) 0.1335(3) 0.0953 Uani
C3SB C 0.3665(3) 0.1335(3) 0.1987(4) 0.0953 Uani
C3K C 0.1335(3) -0.1335(3) 0.3013(4) 0.0953 Uani
C3BA C 0.1335(3) -0.1987(4) 0.3665(3) 0.0953 Uani
C3XA C 0.1987(4) -0.1335(3) 0.3665(3) 0.0953 Uani
N1AC N 0.3909(8) -0.2423(10) 0.1091(8) 0.1260 Uiso
N1FB N 0.3909(8) -0.1091(8) 0.2423(10) 0.1260 Uiso
N1U N 0.1091(8) 0.1091(8) 0.2577(10) 0.1260 Uiso
N1KA N 0.1091(8) 0.2423(10) 0.3909(8) 0.1260 Uiso
N1MB N 0.2423(10) 0.1091(8) 0.3909(8) 0.1260 Uiso
N1P N 0.2577(10) 0.1091(8) 0.1091(8) 0.1260 Uiso
N1HC N 0.3909(8) 0.2423(10) 0.1091(8) 0.1260 Uiso
N1SB N 0.3909(8) 0.1091(8) 0.2423(10) 0.1260 Uiso
N1K N 0.1091(8) -0.1091(8) 0.2577(10) 0.1260 Uiso
N1BA N 0.1091(8) -0.2423(10) 0.3909(8) 0.1260 Uiso
N1XA N 0.2423(10) -0.1091(8) 0.3909(8) 0.1260 Uiso
H2AC H 0.4161 -0.2566 0.1239 0.2000 Uiso
H2YF H 0.3761 -0.2566 0.0839 0.2000 Uiso
H2ID H 0.2434 -0.0839 0.1239 0.2000 Uiso
H2FB H 0.3761 -0.0839 0.2566 0.2000 Uiso
H2IF H 0.4161 -0.1239 0.2566 0.2000 Uiso
H2U H 0.0839 0.1239 0.2434 0.2000 Uiso
H2KA H 0.1239 0.2566 0.4161 0.2000 Uiso
H2WD H 0.0839 0.2566 0.3761 0.2000 Uiso
H2BD H 0.1239 0.0839 0.2434 0.2000 Uiso
H2MB H 0.2566 0.0839 0.3761 0.2000 Uiso
H2NE H 0.2566 0.1239 0.4161 0.2000 Uiso
H2TC H 0.2434 0.1239 0.0839 0.2000 Uiso
H2PF H 0.4161 0.2566 0.1239 0.2000 Uiso
H2HC H 0.3761 0.2566 0.0839 0.2000 Uiso
H2P H 0.2434 0.0839 0.1239 0.2000 Uiso
H2YE H 0.3761 0.0839 0.2566 0.2000 Uiso
H2SB H 0.4161 0.1239 0.2566 0.2000 Uiso
H2OD H 0.0839 -0.1239 0.2434 0.2000 Uiso
H2DE H 0.1239 -0.2566 0.4161 0.2000 Uiso
H2BA H 0.0839 -0.2566 0.3761 0.2000 Uiso
H2K H 0.1239 -0.0839 0.2434 0.2000 Uiso
H2DF H 0.2566 -0.0839 0.3761 0.2000 Uiso
H2XA H 0.2566 -0.1239 0.4161 0.2000 Uiso
H1? H 0.2731 -0.1185 0.1185 0.1140 Uiso
loop_
_atom_site_aniso_label
_atom_site_aniso_U_11
_atom_site_aniso_U_22
_atom_site_aniso_U_33
_atom_site_aniso_U_23
_atom_site_aniso_U_13
_atom_site_aniso_U_12
Cu1 0.0837(12) 0.0843(15) 0.0837(12) 0.000 -0.0414(10) 0.000
O1 0.132(7) 0.250(18) 0.132(7) 0.000 -0.088(9) 0.000
O2 0.092(4) 0.106(4) 0.118(4) -0.009(3) -0.039(3) 0.020(3)
C1 0.079(4) 0.092(7) 0.079(4) -0.004(4) -0.022(5) 0.004(4)
C2 0.091(4) 0.085(6) 0.091(4) 0.005(4) -0.009(6) -0.005(4)
C3 0.092(7) 0.097(5) 0.097(5) 0.008(6) 0.005(4) -0.005(4)
Cu1XA 0.0837 0.0843 0.0837 0 -0.0414 0
Cu1AC 0.0837 0.0837 0.0843 0 0 0.0414
Cu1E 0.0837 0.0837 0.0843 0 0 0.0414
Cu1FB 0.0843 0.0837 0.0837 -0.0414 0 0
Cu1BC 0.0843 0.0837 0.0837 -0.0414 0 0
Cu1HA 0.0843 0.0837 0.0837 -0.0414 0 0
Cu1H 0.0843 0.0837 0.0837 -0.0414 0 0
Cu1CB 0.0837 0.0837 0.0843 0 0 0.0414
Cu1CA 0.0837 0.0837 0.0843 0 0 0.0414
Cu1ZB 0.0837 0.0837 0.0843 0 0 -0.0414
Cu1D 0.0837 0.0837 0.0843 0 0 -0.0414
Cu1EB 0.0843 0.0837 0.0837 0.0414 0 0
Cu1EC 0.0843 0.0837 0.0837 0.0414 0 0
Cu1GA 0.0843 0.0837 0.0837 0.0414 0 0
Cu1K 0.0843 0.0837 0.0837 0.0414 0 0
Cu1BB 0.0837 0.0837 0.0843 0 0 -0.0414
Cu1BA 0.0837 0.0837 0.0843 0 0 -0.0414
O1XA 0.132 0.25 0.132 0 -0.088 0
O1AC 0.132 0.132 0.25 0 0 0.088
O1E 0.132 0.132 0.25 0 0 0.088
O1FB 0.25 0.132 0.132 -0.088 0 0
O1BC 0.25 0.132 0.132 -0.088 0 0
O2IF 0.118 0.106 0.092 -0.02 -0.039 0.009
O2AC 0.118 0.092 0.106 -0.02 -0.009 0.039
O2ID 0.092 0.118 0.106 -0.009 -0.02 0.039
O2FB 0.106 0.118 0.092 -0.039 -0.02 0.009
O2YF 0.106 0.092 0.118 -0.039 -0.009 0.02
O2U 0.118 0.106 0.092 -0.02 -0.039 0.009
O2NE 0.092 0.106 0.118 -0.009 -0.039 0.02
O2KA 0.106 0.092 0.118 -0.039 -0.009 0.02
O2BD 0.106 0.118 0.092 -0.039 -0.02 0.009
O2MB 0.092 0.118 0.106 -0.009 -0.02 0.039
O2WD 0.118 0.092 0.106 -0.02 -0.009 0.039
O2TC 0.092 0.106 0.118 0.009 -0.039 -0.02
O2SB 0.118 0.106 0.092 0.02 -0.039 -0.009
O2PF 0.118 0.092 0.106 0.02 -0.009 -0.039
O2P 0.092 0.118 0.106 0.009 -0.02 -0.039
O2YE 0.106 0.118 0.092 0.039 -0.02 -0.009
O2HC 0.106 0.092 0.118 0.039 -0.009 -0.02
O2OD 0.118 0.106 0.092 0.02 -0.039 -0.009
O2XA 0.092 0.106 0.118 0.009 -0.039 -0.02
O2DE 0.106 0.092 0.118 0.039 -0.009 -0.02
O2K 0.106 0.118 0.092 0.039 -0.02 -0.009
O2DF 0.092 0.118 0.106 0.009 -0.02 -0.039
O2BA 0.118 0.092 0.106 0.02 -0.009 -0.039
O2KC 0.092 0.118 0.106 -0.009 -0.02 0.039
O2QF 0.118 0.092 0.106 0.02 0.009 0.039
O2EG 0.092 0.118 0.106 0.009 0.02 0.039
O2YC 0.118 0.092 0.106 -0.02 -0.009 0.039
O2S 0.092 0.118 0.106 0.009 0.02 0.039
O2E 0.118 0.092 0.106 0.02 0.009 0.039
O2IB 0.106 0.092 0.118 -0.039 -0.009 0.02
O2VE 0.106 0.118 0.092 -0.039 0.02 -0.009
O2CF 0.106 0.092 0.118 -0.039 0.009 -0.02
O2VF 0.106 0.118 0.092 -0.039 -0.02 0.009
O2IC 0.106 0.092 0.118 -0.039 0.009 -0.02
O2BC 0.106 0.118 0.092 -0.039 0.02 -0.009
C1AC 0.079 0.079 0.092 -0.004 -0.004 0.022
C1FB 0.092 0.079 0.079 -0.022 -0.004 0.004
C1U 0.079 0.092 0.079 -0.004 -0.022 0.004
C1KA 0.092 0.079 0.079 -0.022 -0.004 0.004
C1MB 0.079 0.079 0.092 -0.004 -0.004 0.022
C1SB 0.079 0.092 0.079 0.004 -0.022 -0.004
C1P 0.079 0.079 0.092 0.004 -0.004 -0.022
C1HC 0.092 0.079 0.079 0.022 -0.004 -0.004
C1XA 0.079 0.092 0.079 0.004 -0.022 -0.004
C1K 0.092 0.079 0.079 0.022 -0.004 -0.004
C1BA 0.079 0.079 0.092 0.004 -0.004 -0.022
C2AC 0.091 0.091 0.085 0.005 0.005 0.009
C2FB 0.085 0.091 0.091 -0.009 0.005 -0.005
C2U 0.091 0.085 0.091 0.005 -0.009 -0.005
C2KA 0.085 0.091 0.091 -0.009 0.005 -0.005
C2MB 0.091 0.091 0.085 0.005 0.005 0.009
C2SB 0.091 0.085 0.091 -0.005 -0.009 0.005
C2P 0.091 0.091 0.085 -0.005 0.005 -0.009
C2HC 0.085 0.091 0.091 0.009 0.005 0.005
C2XA 0.091 0.085 0.091 -0.005 -0.009 0.005
C2K 0.085 0.091 0.091 0.009 0.005 0.005
C2BA 0.091 0.091 0.085 -0.005 0.005 -0.009
C3AC 0.097 0.092 0.097 0.005 0.008 -0.005
C3FB 0.097 0.097 0.092 0.005 0.005 -0.008
C3U 0.097 0.097 0.092 0.005 0.005 -0.008
C3KA 0.097 0.092 0.097 0.005 0.008 -0.005
C3MB 0.092 0.097 0.097 0.008 0.005 -0.005
C3P 0.092 0.097 0.097 -0.008 0.005 0.005
C3HC 0.097 0.092 0.097 -0.005 0.008 0.005
C3SB 0.097 0.097 0.092 -0.005 0.005 0.008
C3K 0.097 0.097 0.092 -0.005 0.005 0.008
C3BA 0.097 0.092 0.097 -0.005 0.008 0.005
C3XA 0.092 0.097 0.097 -0.008 0.005 0.005
loop_
_geom_bond_atom_site_label_1
_geom_bond_atom_site_label_2
_geom_bond_site_symmetry_1
_geom_bond_site_symmetry_2
Cu1 O1 1_555 1_555
O2 Cu1 1_555 1_555
C1 O2 1_555 1_555
C2 C1 1_555 1_555
C3 C2 1_555 1_555
N1 C3 1_555 1_555
H2 N1 1_555 1_555
Cu1XA O1XA 1_555 1_555
Cu1AC O1AC 1_555 1_555
Cu1E O1E 1_555 1_555
Cu1FB O1FB 1_555 1_555
Cu1BC O1BC 1_555 1_555
Cu1HA O2KA 1_555 1_555
Cu1H O2BD 1_555 1_555
Cu1CB O2MB 1_555 1_555
Cu1CA O2WD 1_555 1_555
Cu1ZB O2PF 1_555 1_555
Cu1D O2P 1_555 1_555
Cu1EB O2YE 1_555 1_555
Cu1EC O2HC 1_555 1_555
Cu1GA O2DE 1_555 1_555
Cu1K O2K 1_555 1_555
Cu1BB O2DF 1_555 1_555
Cu1BA O2BA 1_555 1_555
O2IF C1 1_555 1_555
O2AC Cu1AC 1_555 1_555
O2ID Cu1E 1_555 1_555
O2FB Cu1FB 1_555 1_555
O2YF Cu1BC 1_555 1_555
O2U Cu1 1_555 1_555
O2NE Cu1XA 1_555 1_555
O2KA C1KA 1_555 1_555
O2BD C1KA 1_555 1_555
O2MB C1MB 1_555 1_555
O2WD C1MB 1_555 1_555
O2TC Cu1 1_555 1_555
O2SB Cu1XA 1_555 1_555
O2PF C1P 1_555 1_555
O2P C1P 1_555 1_555
O2YE C1HC 1_555 1_555
O2HC C1HC 1_555 1_555
O2OD Cu1 1_555 1_555
O2XA Cu1XA 1_555 1_555
O2DE C1K 1_555 1_555
O2K C1K 1_555 1_555
O2DF C1BA 1_555 1_555
O2BA C1BA 1_555 1_555
O2KC Cu1AC 1_555 1_555
O2QF Cu1AC 1_555 1_555
O2EG Cu1AC 1_555 1_555
O2YC Cu1E 1_555 1_555
O2S Cu1E 1_555 1_555
O2E Cu1E 1_555 1_555
O2IB Cu1FB 1_555 1_555
O2VE Cu1FB 1_555 1_555
O2CF Cu1FB 1_555 1_555
O2VF Cu1BC 1_555 1_555
O2IC Cu1BC 1_555 1_555
O2BC Cu1BC 1_555 1_555
C1AC O2AC 1_555 1_555
C1FB O2FB 1_555 1_555
C1U O2U 1_555 1_555
C1KA C2KA 1_555 1_555
C1MB C2MB 1_555 1_555
C1SB O2TC 1_555 1_555
C1P C2P 1_555 1_555
C1HC C2HC 1_555 1_555
C1XA O2OD 1_555 1_555
C1K C2K 1_555 1_555
C1BA C2BA 1_555 1_555
C2AC C3 1_555 1_555
C2FB C1FB 1_555 1_555
C2U C1U 1_555 1_555
C2KA C3U 1_555 1_555
C2MB C3KA 1_555 1_555
C2SB C1SB 1_555 1_555
C2P C3P 1_555 1_555
C2HC C3HC 1_555 1_555
C2XA C1XA 1_555 1_555
C2K C3K 1_555 1_555
C2BA C3BA 1_555 1_555
C3AC C2AC 1_555 1_555
C3FB C2 1_555 1_555
C3U C2U 1_555 1_555
C3KA C2KA 1_555 1_555
C3MB C2U 1_555 1_555
C3P C2SB 1_555 1_555
C3HC C2P 1_555 1_555
C3SB C2SB 1_555 1_555
C3K C2XA 1_555 1_555
C3BA C2K 1_555 1_555
C3XA C2XA 1_555 1_555
N1AC C3AC 1_555 1_555
N1FB C3FB 1_555 1_555
N1U C3U 1_555 1_555
N1KA C3KA 1_555 1_555
N1MB C3MB 1_555 1_555
N1P C3P 1_555 1_555
N1HC C3HC 1_555 1_555
N1SB C3SB 1_555 1_555
N1K C3K 1_555 1_555
N1BA C3BA 1_555 1_555
N1XA C3XA 1_555 1_555
H2AC N1AC 1_555 1_555
H2YF N1AC 1_555 1_555
H2ID N1 1_555 1_555
H2FB N1FB 1_555 1_555
H2IF N1FB 1_555 1_555
H2U N1U 1_555 1_555
H2KA N1KA 1_555 1_555
H2WD N1KA 1_555 1_555
H2BD N1U 1_555 1_555
H2MB N1MB 1_555 1_555
H2NE N1MB 1_555 1_555
H2TC N1P 1_555 1_555
H2PF N1HC 1_555 1_555
H2HC N1HC 1_555 1_555
H2P N1P 1_555 1_555
H2YE N1SB 1_555 1_555
H2SB N1SB 1_555 1_555
H2OD N1K 1_555 1_555
H2DE N1BA 1_555 1_555
H2BA N1BA 1_555 1_555
H2K N1K 1_555 1_555
H2DF N1XA 1_555 1_555
H2XA N1XA 1_555 1_555
Cu1XA O2IF 1_555 1_555
O2ID C1AC 1_555 1_555
O2YF C1FB 1_555 1_555
O2NE C1U 1_555 1_555
O2SB C1SB 1_555 1_555
O2XA C1XA 1_555 1_555
C1AC C2AC 1_555 1_555
C2FB C3AC 1_555 1_555
C2FB C3FB 1_555 1_555
C2MB C3MB 1_555 1_555
C2HC C3SB 1_555 1_555
C2BA C3XA 1_555 1_555

#END
