
#######################################################################
#
#                 Cambridge Crystallographic Data Centre
#                                CCDC 
#
#######################################################################
#
# If this CIF has been generated from an entry in the Cambridge 
# Structural Database, then it will include bibliographic, chemical, 
# crystal, experimental, refinement or atomic coordinate data resulting 
# from the CCDC's data processing and validation procedures.
#
#######################################################################

data_WUJPIC
_chemical_name_common            BUT-51
_chemical_formula_moiety         '(C30 H20 Co2 N2 Na1 O12 1-)n,C4 H12 N1 1+'
_chemical_name_systematic        
'catena-[tetramethylammonium bis(\m-5-(pyridin-4-yl)benzene-1,3-dicarboxylato)-bis(\m-acetato)-di-cobalt-sodium unknown solvate]'
_symmetry_cell_setting           tetragonal
_symmetry_space_group_name_H-M   'P 42/m'
_symmetry_Int_Tables_number      84
_space_group_name_Hall           '-P 4c'
loop_
_symmetry_equiv_pos_site_id
_symmetry_equiv_pos_as_xyz
1 x,y,z
2 -y,x,1/2+z
3 -x,-y,z
4 y,-x,1/2+z
5 -x,-y,-z
6 y,-x,1/2-z
7 x,y,-z
8 -y,x,1/2-z
_cell_length_a                   14.8967(2)
_cell_length_b                   14.8967(2)
_cell_length_c                   10.0502(3)
_cell_angle_alpha                90
_cell_angle_beta                 90
_cell_angle_gamma                90
_cell_volume                     2230.26
_exptl_crystal_colour            purple
_exptl_crystal_description       block
_cell_formula_units_Z            2
loop_
_atom_site_label
_atom_site_type_symbol
_atom_site_fract_x
_atom_site_fract_y
_atom_site_fract_z
C12 C 0.5203(17) 0.4158(9) 0.313(2)
H3 H 0.4800 0.4098 0.3897
H4 H 0.5827 0.4149 0.3439
H5 H 0.5102 0.3658 0.2516
N2 N 0.5000 0.5000 0.2500
C12B C 0.4797(17) 0.5842(9) 0.313(2)
H3B H 0.5200 0.5902 0.3897
H4B H 0.4173 0.5851 0.3439
H5B H 0.4898 0.6342 0.2516
C12E C 0.4158(9) 0.4797(17) 0.187(2)
H3E H 0.4098 0.5200 0.1103
H4E H 0.4149 0.4173 0.1561
H5E H 0.3658 0.4898 0.2484
C12G C 0.5842(9) 0.5203(17) 0.187(2)
H3G H 0.5902 0.4800 0.1103
H4G H 0.5851 0.5827 0.1561
H5G H 0.6342 0.5102 0.2484
Co1 Co 0.43244(6) 0.19685(6) 0.0000
O1 O 0.4141(2) 0.1001(2) 0.1446(3)
O2 O 0.5831(3) 0.1439(4) 0.0000
O3 O 0.5373(3) 0.2846(3) 0.0000
N1 N 0.3082(3) 0.2622(3) 0.0000
C1 C 0.4214(3) 0.1447(3) 0.2521(4)
Na1 Na 0.5000 0.0000 0.0000
C2 C 0.5998(5) 0.2251(6) 0.0000
O4 O 0.4369(2) 0.2258(2) 0.2518(3)
C3 C 0.4082(2) 0.0961(3) 0.3788(4)
C4 C 0.6959(5) 0.2570(7) 0.0000
C5 C 0.4223(4) 0.1393(4) 0.5000
C6 C 0.3813(3) 0.0064(3) 0.3815(4)
H1 H 0.4422 0.1999 0.5000
H2 H 0.3730 -0.0243 0.2996
C7 C 0.3663(4) -0.0398(4) 0.5000
C8 C 0.3330(4) -0.1338(4) 0.5000
C9 C 0.2824(8) -0.1652(6) 0.3981(9)
C10 C 0.2487(9) -0.2502(7) 0.4010(10)
C11 C 0.3123(6) -0.2773(6) 0.3958(10)
O1F O 0.4141(2) 0.1001(2) -0.1446(3)
O1B O 0.5859(2) -0.1001(2) 0.1446(3)
O2B O 0.4169(3) -0.1439(4) 0.0000
O1D O 0.5859(2) -0.1001(2) -0.1446(3)
Co1B Co 0.56756(6) -0.19685(6) 0.0000
C1B C 0.5786(3) -0.1447(3) 0.2521(4)
C2B C 0.4002(5) -0.2251(6) 0.0000
C3F C 0.4082(2) 0.0961(3) 0.6212(4)
O3B O 0.4627(3) -0.2846(3) 0.0000
N1B N 0.6918(3) -0.2622(3) 0.0000
O4B O 0.5631(2) -0.2258(2) 0.2518(3)
C3B C 0.5918(2) -0.0961(3) 0.3788(4)
C4B C 0.3041(5) -0.2570(7) 0.0000
C1F C 0.4214(3) 0.1447(3) 0.7479(4)
C6F C 0.3813(3) 0.0064(3) 0.6185(4)
C5B C 0.5777(4) -0.1393(4) 0.5000
C6B C 0.6187(3) -0.0064(3) 0.3815(4)
O1F_2 O 0.4141(2) 0.1001(2) 0.8554(3)
O4F O 0.4369(2) 0.2258(2) 0.7482(3)
H2F H 0.3730 -0.0243 0.7004
C9F C 0.2824(8) -0.1652(6) 0.6019(9)
H1B H 0.5578 -0.1999 0.5000
C3D C 0.5918(2) -0.0961(3) 0.6212(4)
H2B H 0.6270 0.0243 0.2996
C7B C 0.6337(4) 0.0398(4) 0.5000
Co1_2 Co 0.43244(6) 0.19685(6) 1.0000
Na1_2 Na 0.5000 0.0000 1.0000
C10F C 0.2487(9) -0.2502(7) 0.5990(10)
C11F C 0.3123(6) -0.2773(6) 0.6042(10)
C1D C 0.5786(3) -0.1447(3) 0.7479(4)
C6D C 0.6187(3) -0.0064(3) 0.6185(4)
C8B C 0.6670(4) 0.1338(4) 0.5000
O1D_2 O 0.5859(2) -0.1001(2) 0.8554(3)
N1C N 0.2622(3) -0.3082(3) 0.5000
O4D O 0.5631(2) -0.2258(2) 0.7482(3)
H2D H 0.6270 0.0243 0.7004
C9B C 0.7176(8) 0.1652(6) 0.3981(9)
C9D C 0.7176(8) 0.1652(6) 0.6019(9)
Co1B_2 Co 0.56756(6) -0.19685(6) 1.0000
Co1C Co 0.19685(6) -0.43244(6) 0.5000
C10B C 0.7513(9) 0.2502(7) 0.4010(10)
C11B C 0.6877(6) 0.2773(6) 0.3958(10)
C10D C 0.7513(9) 0.2502(7) 0.5990(10)
C11D C 0.6877(6) 0.2773(6) 0.6042(10)
N1A N 0.7378(3) 0.3082(3) 0.5000
Co1A Co 0.80315(6) 0.43244(6) 0.5000
H6? H 0.7156 0.2674 0.0918
H7? H 0.7004 0.3130 -0.0506
H8? H 0.7342 0.2112 -0.0411
C13? C 0.3483(6) -0.1916(6) 0.3910(9)
loop_
_geom_bond_atom_site_label_1
_geom_bond_atom_site_label_2
_geom_bond_site_symmetry_1
_geom_bond_site_symmetry_2
Co1 O1 1_555 1_555
O1 C1 1_555 1_555
O2 Co1 1_555 1_555
O3 Co1 1_555 1_555
N1 Co1 1_555 1_555
C1 O4 1_555 1_555
Na1 O1 1_555 1_555
C2 O2 1_555 1_555
C3 C1 1_555 1_555
C4 C2 1_555 1_555
C5 C3 1_555 1_555
C6 C3 1_555 1_555
H1 C5 1_555 1_555
H2 C6 1_555 1_555
C7 C6 1_555 1_555
C8 C7 1_555 1_555
C9 C8 1_555 1_555
C10 C9 1_555 1_555
C11 C9 1_555 1_555
C12 H3 1_555 1_555
H4 C12 1_555 1_555
H5 C12 1_555 1_555
N2 C12 1_555 1_555
O1F Co1 1_555 1_555
O1B Na1 1_555 1_555
O2B Na1 1_555 1_555
O1D Na1 1_555 1_555
Co1B O1B 1_555 1_555
C1B O1B 1_555 1_555
C2B O2B 1_555 1_555
C3F C5 1_555 1_555
O3B Co1B 1_555 1_555
N1B Co1B 1_555 1_555
O4B C1B 1_555 1_555
C3B C1B 1_555 1_555
C4B C2B 1_555 1_555
C1F C3F 1_555 1_555
C6F C7 1_555 1_555
C5B C3B 1_555 1_555
C6B C3B 1_555 1_555
O1F_2 C1F 1_555 1_555
O4F C1F 1_555 1_555
H2F C6F 1_555 1_555
C9F C8 1_555 1_555
H1B C5B 1_555 1_555
C3D C5B 1_555 1_555
H2B C6B 1_555 1_555
C7B C6B 1_555 1_555
Co1_2 O1F_2 1_555 1_555
Na1_2 O1F_2 1_555 1_555
C10F C9F 1_555 1_555
C11F C9F 1_555 1_555
C1D C3D 1_555 1_555
C6D C3D 1_555 1_555
C8B C7B 1_555 1_555
O1D_2 Na1_2 1_555 1_555
N1C C10 1_555 1_555
O4D C1D 1_555 1_555
H2D C6D 1_555 1_555
C9B C8B 1_555 1_555
C9D C8B 1_555 1_555
Co1B_2 O1D_2 1_555 1_555
Co1C N1C 1_555 1_555
C10B C9B 1_555 1_555
C11B C9B 1_555 1_555
C10D C9D 1_555 1_555
C11D C9D 1_555 1_555
N1A C10B 1_555 1_555
Co1A N1A 1_555 1_555
C12B N2 1_555 1_555
H3B C12B 1_555 1_555
H4B C12B 1_555 1_555
H5B C12B 1_555 1_555
C12E N2 1_555 1_555
H3E C12E 1_555 1_555
H4E C12E 1_555 1_555
H5E C12E 1_555 1_555
C12G N2 1_555 1_555
H3G C12G 1_555 1_555
H4G C12G 1_555 1_555
H5G C12G 1_555 1_555
O2 Na1 1_555 1_555
O3 C2 1_555 1_555
Na1 O1F 1_555 1_555
C10 C11 1_555 1_555
C11 N1C 1_555 1_555
O2B Co1B 1_555 1_555
O1D Co1B 1_555 1_555
C2B O3B 1_555 1_555
C3F C6F 1_555 1_555
C7B C6D 1_555 1_555
C10F C11F 1_555 1_555
C10F N1C 1_555 1_555
C11F N1C 1_555 1_555
C1D O1D_2 1_555 1_555
C10B C11B 1_555 1_555
C11B N1A 1_555 1_555
C10D C11D 1_555 1_555
C10D N1A 1_555 1_555
C11D N1A 1_555 1_555

#END
