
#######################################################################
#
#                 Cambridge Crystallographic Data Centre
#                                CCDC 
#
#######################################################################
#
# If this CIF has been generated from an entry in the Cambridge 
# Structural Database, then it will include bibliographic, chemical, 
# crystal, experimental, refinement or atomic coordinate data resulting 
# from the CCDC's data processing and validation procedures.
#
#######################################################################

data_EWESEF
_chemical_formula_moiety         
'(C144 H48 Cl6 Cu24 O96 3-)n,6n(H4 N1 1+),3n(H2 O1),n(O40 P1 W12 3-)'
_chemical_name_systematic        
'catena-(hexaammonium hexadecakis(\m~6~-benzene-1,3,5-tricarboxylato)-hexakis(\m~4~-chloro)-tetraconsa-copper (\m~12~-phosphato)-tetracosakis(\m~2~-oxo)-dodecaoxo-dodeca-tungsten trihydrate)'
_symmetry_cell_setting           cubic
_symmetry_space_group_name_H-M   'F m -3 m'
_symmetry_Int_Tables_number      225
_space_group_name_Hall           '-F 4 2 3'
loop_
_symmetry_equiv_pos_site_id
_symmetry_equiv_pos_as_xyz
1 x,y,z
2 -x,-y,z
3 -x,y,-z
4 x,-y,-z
5 z,x,y
6 z,-x,-y
7 -z,-x,y
8 -z,x,-y
9 y,z,x
10 -y,z,-x
11 y,-z,-x
12 -y,-z,x
13 y,x,-z
14 -y,-x,-z
15 y,-x,z
16 -y,x,z
17 x,z,-y
18 -x,z,y
19 -x,-z,-y
20 x,-z,y
21 z,y,-x
22 z,-y,x
23 -z,y,x
24 -z,-y,-x
25 x,1/2+y,1/2+z
26 -x,1/2-y,1/2+z
27 -x,1/2+y,1/2-z
28 x,1/2-y,1/2-z
29 z,1/2+x,1/2+y
30 z,1/2-x,1/2-y
31 -z,1/2-x,1/2+y
32 -z,1/2+x,1/2-y
33 y,1/2+z,1/2+x
34 -y,1/2+z,1/2-x
35 y,1/2-z,1/2-x
36 -y,1/2-z,1/2+x
37 y,1/2+x,1/2-z
38 -y,1/2-x,1/2-z
39 y,1/2-x,1/2+z
40 -y,1/2+x,1/2+z
41 x,1/2+z,1/2-y
42 -x,1/2+z,1/2+y
43 -x,1/2-z,1/2-y
44 x,1/2-z,1/2+y
45 z,1/2+y,1/2-x
46 z,1/2-y,1/2+x
47 -z,1/2+y,1/2+x
48 -z,1/2-y,1/2-x
49 1/2+x,y,1/2+z
50 1/2-x,-y,1/2+z
51 1/2-x,y,1/2-z
52 1/2+x,-y,1/2-z
53 1/2+z,x,1/2+y
54 1/2+z,-x,1/2-y
55 1/2-z,-x,1/2+y
56 1/2-z,x,1/2-y
57 1/2+y,z,1/2+x
58 1/2-y,z,1/2-x
59 1/2+y,-z,1/2-x
60 1/2-y,-z,1/2+x
61 1/2+y,x,1/2-z
62 1/2-y,-x,1/2-z
63 1/2+y,-x,1/2+z
64 1/2-y,x,1/2+z
65 1/2+x,z,1/2-y
66 1/2-x,z,1/2+y
67 1/2-x,-z,1/2-y
68 1/2+x,-z,1/2+y
69 1/2+z,y,1/2-x
70 1/2+z,-y,1/2+x
71 1/2-z,y,1/2+x
72 1/2-z,-y,1/2-x
73 1/2+x,1/2+y,z
74 1/2-x,1/2-y,z
75 1/2-x,1/2+y,-z
76 1/2+x,1/2-y,-z
77 1/2+z,1/2+x,y
78 1/2+z,1/2-x,-y
79 1/2-z,1/2-x,y
80 1/2-z,1/2+x,-y
81 1/2+y,1/2+z,x
82 1/2-y,1/2+z,-x
83 1/2+y,1/2-z,-x
84 1/2-y,1/2-z,x
85 1/2+y,1/2+x,-z
86 1/2-y,1/2-x,-z
87 1/2+y,1/2-x,z
88 1/2-y,1/2+x,z
89 1/2+x,1/2+z,-y
90 1/2-x,1/2+z,y
91 1/2-x,1/2-z,-y
92 1/2+x,1/2-z,y
93 1/2+z,1/2+y,-x
94 1/2+z,1/2-y,x
95 1/2-z,1/2+y,x
96 1/2-z,1/2-y,-x
97 -x,-y,-z
98 x,y,-z
99 x,-y,z
100 -x,y,z
101 -z,-x,-y
102 -z,x,y
103 z,x,-y
104 z,-x,y
105 -y,-z,-x
106 y,-z,x
107 -y,z,x
108 y,z,-x
109 -y,-x,z
110 y,x,z
111 -y,x,-z
112 y,-x,-z
113 -x,-z,y
114 x,-z,-y
115 x,z,y
116 -x,z,-y
117 -z,-y,x
118 -z,y,-x
119 z,-y,-x
120 z,y,x
121 -x,1/2-y,1/2-z
122 x,1/2+y,1/2-z
123 x,1/2-y,1/2+z
124 -x,1/2+y,1/2+z
125 -z,1/2-x,1/2-y
126 -z,1/2+x,1/2+y
127 z,1/2+x,1/2-y
128 z,1/2-x,1/2+y
129 -y,1/2-z,1/2-x
130 y,1/2-z,1/2+x
131 -y,1/2+z,1/2+x
132 y,1/2+z,1/2-x
133 -y,1/2-x,1/2+z
134 y,1/2+x,1/2+z
135 -y,1/2+x,1/2-z
136 y,1/2-x,1/2-z
137 -x,1/2-z,1/2+y
138 x,1/2-z,1/2-y
139 x,1/2+z,1/2+y
140 -x,1/2+z,1/2-y
141 -z,1/2-y,1/2+x
142 -z,1/2+y,1/2-x
143 z,1/2-y,1/2-x
144 z,1/2+y,1/2+x
145 1/2-x,-y,1/2-z
146 1/2+x,y,1/2-z
147 1/2+x,-y,1/2+z
148 1/2-x,y,1/2+z
149 1/2-z,-x,1/2-y
150 1/2-z,x,1/2+y
151 1/2+z,x,1/2-y
152 1/2+z,-x,1/2+y
153 1/2-y,-z,1/2-x
154 1/2+y,-z,1/2+x
155 1/2-y,z,1/2+x
156 1/2+y,z,1/2-x
157 1/2-y,-x,1/2+z
158 1/2+y,x,1/2+z
159 1/2-y,x,1/2-z
160 1/2+y,-x,1/2-z
161 1/2-x,-z,1/2+y
162 1/2+x,-z,1/2-y
163 1/2+x,z,1/2+y
164 1/2-x,z,1/2-y
165 1/2-z,-y,1/2+x
166 1/2-z,y,1/2-x
167 1/2+z,-y,1/2-x
168 1/2+z,y,1/2+x
169 1/2-x,1/2-y,-z
170 1/2+x,1/2+y,-z
171 1/2+x,1/2-y,z
172 1/2-x,1/2+y,z
173 1/2-z,1/2-x,-y
174 1/2-z,1/2+x,y
175 1/2+z,1/2+x,-y
176 1/2+z,1/2-x,y
177 1/2-y,1/2-z,-x
178 1/2+y,1/2-z,x
179 1/2-y,1/2+z,x
180 1/2+y,1/2+z,-x
181 1/2-y,1/2-x,z
182 1/2+y,1/2+x,z
183 1/2-y,1/2+x,-z
184 1/2+y,1/2-x,-z
185 1/2-x,1/2-z,y
186 1/2+x,1/2-z,-y
187 1/2+x,1/2+z,y
188 1/2-x,1/2+z,-y
189 1/2-z,1/2-y,x
190 1/2-z,1/2+y,-x
191 1/2+z,1/2-y,-x
192 1/2+z,1/2+y,x
_cell_length_a                   30.7887(8)
_cell_length_b                   30.7887(8)
_cell_length_c                   30.7887(8)
_cell_angle_alpha                90
_cell_angle_beta                 90
_cell_angle_gamma                90
_cell_volume                     29186
_cell_formula_units_Z            4
loop_
_atom_site_label
_atom_site_type_symbol
_atom_site_fract_x
_atom_site_fract_y
_atom_site_fract_z
_atom_site_U_iso_or_equiv
_atom_site_thermal_displace_type
O1 O 0.0424(2) 1.0424(2) 0.1031(3) 0.0963 Uani
O2 O 0.11929(19) 1.0000 0.11929(19) 0.0807 Uani
O3 O 0.0307(3) 0.9693(3) 0.0307(3) 0.0200 Uani
P1 P 0.0000 1.0000 0.0000 0.0112 Uani
W1 W 0.080910(8) 1.0000 0.080910(8) 0.0381 Uani
O1D O 0.1031(3) 1.0424(2) 0.0424(2) 0.0963 Uani
O1N O 0.0424(2) 0.9576(2) 0.1031(3) 0.0963 Uani
O1U O 0.1031(3) 0.9576(2) 0.0424(2) 0.0963 Uani
O1H O 0.0424(2) 1.1031(3) 0.0424(2) 0.0963 Uani
O1T O 0.1031(3) 1.0424(2) -0.0424(2) 0.0963 Uani
O1P O 0.0424(2) 1.1031(3) -0.0424(2) 0.0963 Uani
O1S O 0.0424(2) 0.8969(3) 0.0424(2) 0.0963 Uani
O1A O -0.0424(2) 0.9576(2) 0.1031(3) 0.0963 Uani
O1K O -0.0424(2) 0.8969(3) 0.0424(2) 0.0963 Uani
O1C O 0.0424(2) 0.9576(2) -0.1031(3) 0.0963 Uani
O1E O 0.1031(3) 0.9576(2) -0.0424(2) 0.0963 Uani
O1L O 0.0424(2) 1.0424(2) -0.1031(3) 0.0963 Uani
O1B O -0.0424(2) 1.0424(2) -0.1031(3) 0.0963 Uani
O1G O -0.1031(3) 1.0424(2) -0.0424(2) 0.0963 Uani
O1M O -0.0424(2) 0.9576(2) -0.1031(3) 0.0963 Uani
O1W O -0.1031(3) 0.9576(2) -0.0424(2) 0.0963 Uani
O1F O -0.1031(3) 0.9576(2) 0.0424(2) 0.0963 Uani
O1O O -0.0424(2) 1.0424(2) 0.1031(3) 0.0963 Uani
O1V O -0.1031(3) 1.0424(2) 0.0424(2) 0.0963 Uani
O1Q O -0.0424(2) 1.1031(3) 0.0424(2) 0.0963 Uani
O1I O -0.0424(2) 1.1031(3) -0.0424(2) 0.0963 Uani
O1R O -0.0424(2) 0.8969(3) -0.0424(2) 0.0963 Uani
O1J O 0.0424(2) 0.8969(3) -0.0424(2) 0.0963 Uani
O2D O 0.11929(19) 1.11929(19) 0.0000 0.0807 Uani
O2K O 0.0000 0.88071(19) 0.11929(19) 0.0807 Uani
O2C O 0.11929(19) 1.0000 -0.11929(19) 0.0807 Uani
O2B O -0.11929(19) 1.0000 -0.11929(19) 0.0807 Uani
O2A O -0.11929(19) 1.0000 0.11929(19) 0.0807 Uani
O2H O 0.0000 1.11929(19) 0.11929(19) 0.0807 Uani
O2I O 0.0000 1.11929(19) -0.11929(19) 0.0807 Uani
O2J O 0.0000 0.88071(19) -0.11929(19) 0.0807 Uani
O2E O 0.11929(19) 0.88071(19) 0.0000 0.0807 Uani
O2F O -0.11929(19) 0.88071(19) 0.0000 0.0807 Uani
O2G O -0.11929(19) 1.11929(19) 0.0000 0.0807 Uani
O3C O 0.0307(3) 1.0307(3) -0.0307(3) 0.0200 Uani
O3B O -0.0307(3) 0.9693(3) -0.0307(3) 0.0200 Uani
O3A O -0.0307(3) 1.0307(3) 0.0307(3) 0.0200 Uani
O3O O 0.0307(3) 1.0307(3) 0.0307(3) 0.0200 Uani
O3N O -0.0307(3) 0.9693(3) 0.0307(3) 0.0200 Uani
O3L O -0.0307(3) 1.0307(3) -0.0307(3) 0.0200 Uani
O3M O 0.0307(3) 0.9693(3) -0.0307(3) 0.0200 Uani
W1D W 0.080910(8) 1.080910(8) 0.0000 0.0381 Uani
W1K W 0.0000 0.919090(8) 0.080910(8) 0.0381 Uani
W1C W 0.080910(8) 1.0000 -0.080910(8) 0.0381 Uani
W1B W -0.080910(8) 1.0000 -0.080910(8) 0.0381 Uani
W1A W -0.080910(8) 1.0000 0.080910(8) 0.0381 Uani
W1H W 0.0000 1.080910(8) 0.080910(8) 0.0381 Uani
W1I W 0.0000 1.080910(8) -0.080910(8) 0.0381 Uani
W1J W 0.0000 0.919090(8) -0.080910(8) 0.0381 Uani
W1E W 0.080910(8) 0.919090(8) 0.0000 0.0381 Uani
W1F W -0.080910(8) 0.919090(8) 0.0000 0.0381 Uani
W1G W -0.080910(8) 1.080910(8) 0.0000 0.0381 Uani
N1 N 0.2259(9) 0.0000 0.0000 0.0400 Uiso
N2 N 1.0000 0.6910(9) 1.0000 0.0720 Uani
O6 O 0.2500 0.7500 0.860(3) 0.1280 Uani
C1 C -0.11492(12) 1.17033(17) 1.11492(12) 0.0162 Uani
H1 H -0.1027 1.1951 1.1027 0.0200 Uiso
C2 C -0.09650(16) 1.15168(12) 1.15168(12) 0.0146 Uani
C3 C -0.05843(16) 1.17327(12) 1.17327(12) 0.0158 Uani
C4 C 0.05843(12) 1.17350(15) 1.32650(12) 0.0147 Uani
C5 C 0.09689(12) 1.15221(17) 1.34779(12) 0.0167 Uani
C6 C 0.11525(12) 1.17052(12) 1.38475(17) 0.0165 Uani
H2 H 0.1028 1.1951 1.3972 0.0200 Uiso
Cl1 Cl 0.0000 1.2500 1.2500 0.0255 Uani
Cu1 Cu 0.0000 1.167570(17) 1.249686(19) 0.0099 Uani
O4 O -0.04495(9) 1.15615(10) 1.20744(10) 0.0265 Uani
O5 O 0.04465(10) 1.15589(11) 1.29264(10) 0.0303 Uani
C1F C -0.11492(12) 1.11492(12) 1.17033(17) 0.0162 Uani
C1I C -0.17033(17) 1.11492(12) 1.11492(12) 0.0162 Uani
C1T C 0.11492(12) 1.17033(17) 1.11492(12) 0.0162 Uani
C1Q C 0.11492(12) 1.11492(12) 1.17033(17) 0.0162 Uani
C1N C 0.17033(17) 1.11492(12) 1.11492(12) 0.0162 Uani
C1M C -0.17033(17) 1.11492(12) 0.88508(12) 0.0162 Uani
C1V C -0.11492(12) 1.17033(17) 0.88508(12) 0.0162 Uani
C1P C -0.11492(12) 1.11492(12) 0.82967(17) 0.0162 Uani
C1S C -0.11492(12) 0.88508(12) 1.17033(17) 0.0162 Uani
C1O C -0.17033(17) 0.88508(12) 1.11492(12) 0.0162 Uani
C1W C -0.11492(12) 0.82967(17) 1.11492(12) 0.0162 Uani
C1H C 0.17033(17) 1.11492(12) 0.88508(12) 0.0162 Uani
C1B C 0.11492(12) 1.17033(17) 0.88508(12) 0.0162 Uani
C1E C 0.11492(12) 1.11492(12) 0.82967(17) 0.0162 Uani
C1D C 0.11492(12) 0.88508(12) 1.17033(17) 0.0162 Uani
C1J C 0.17033(17) 0.88508(12) 1.11492(12) 0.0162 Uani
C1A C 0.11492(12) 0.82967(17) 1.11492(12) 0.0162 Uani
C1AA C -0.11492(12) 1.32967(17) 1.38508(12) 0.0162 Uani
C1EA C -0.11492(12) 1.38508(12) 1.32967(17) 0.0162 Uani
C1IA C -0.17033(17) 1.38508(12) 1.38508(12) 0.0162 Uani
C1SA C 0.11492(12) 1.32967(17) 1.38508(12) 0.0162 Uani
C1PA C 0.11492(12) 1.38508(12) 1.32967(17) 0.0162 Uani
C1JA C 0.17033(17) 1.38508(12) 1.38508(12) 0.0162 Uani
H1F H -0.1027 1.1027 1.1951 0.0200 Uiso
H1I H -0.1951 1.1027 1.1027 0.0200 Uiso
H1T H 0.1027 1.1951 1.1027 0.0200 Uiso
H1Q H 0.1027 1.1027 1.1951 0.0200 Uiso
H1N H 0.1951 1.1027 1.1027 0.0200 Uiso
H1M H -0.1951 1.1027 0.8973 0.0200 Uiso
H1V H -0.1027 1.1951 0.8973 0.0200 Uiso
H1P H -0.1027 1.1027 0.8049 0.0200 Uiso
H1S H -0.1027 0.8973 1.1951 0.0200 Uiso
H1O H -0.1951 0.8973 1.1027 0.0200 Uiso
H1W H -0.1027 0.8049 1.1027 0.0200 Uiso
H1H H 0.1951 1.1027 0.8973 0.0200 Uiso
H1B H 0.1027 1.1951 0.8973 0.0200 Uiso
H1E H 0.1027 1.1027 0.8049 0.0200 Uiso
H1D H 0.1027 0.8973 1.1951 0.0200 Uiso
H1J H 0.1951 0.8973 1.1027 0.0200 Uiso
H1A H 0.1027 0.8049 1.1027 0.0200 Uiso
H1AA H -0.1027 1.3049 1.3973 0.0200 Uiso
H1EA H -0.1027 1.3973 1.3049 0.0200 Uiso
H1IA H -0.1951 1.3973 1.3973 0.0200 Uiso
H1SA H 0.1027 1.3049 1.3973 0.0200 Uiso
H1PA H 0.1027 1.3973 1.3049 0.0200 Uiso
H1JA H 0.1951 1.3973 1.3973 0.0200 Uiso
C2F C -0.15168(12) 1.09650(16) 1.15168(12) 0.0146 Uani
C2I C -0.15168(12) 1.15168(12) 1.09650(16) 0.0146 Uani
C2Q C 0.09650(16) 1.15168(12) 1.15168(12) 0.0146 Uani
C2N C 0.15168(12) 1.09650(16) 1.15168(12) 0.0146 Uani
C2T C 0.15168(12) 1.15168(12) 1.09650(16) 0.0146 Uani
C2V C -0.15168(12) 1.15168(12) 0.90350(16) 0.0146 Uani
C2P C -0.09650(16) 1.15168(12) 0.84832(12) 0.0146 Uani
C2M C -0.15168(12) 1.09650(16) 0.84832(12) 0.0146 Uani
C2O C -0.15168(12) 0.90350(16) 1.15168(12) 0.0146 Uani
C2W C -0.15168(12) 0.84832(12) 1.09650(16) 0.0146 Uani
C2S C -0.09650(16) 0.84832(12) 1.15168(12) 0.0146 Uani
C2H C 0.15168(12) 1.15168(12) 0.90350(16) 0.0146 Uani
C2B C 0.09650(16) 1.15168(12) 0.84832(12) 0.0146 Uani
C2E C 0.15168(12) 1.09650(16) 0.84832(12) 0.0146 Uani
C2D C 0.15168(12) 0.90350(16) 1.15168(12) 0.0146 Uani
C2J C 0.15168(12) 0.84832(12) 1.09650(16) 0.0146 Uani
C2A C 0.09650(16) 0.84832(12) 1.15168(12) 0.0146 Uani
C2AA C -0.09650(16) 1.34832(12) 1.34832(12) 0.0146 Uani
C2EA C -0.15168(12) 1.40350(16) 1.34832(12) 0.0146 Uani
C2IA C -0.15168(12) 1.34832(12) 1.40350(16) 0.0146 Uani
C2PA C 0.09650(16) 1.34832(12) 1.34832(12) 0.0146 Uani
C2JA C 0.15168(12) 1.40350(16) 1.34832(12) 0.0146 Uani
C2SA C 0.15168(12) 1.34832(12) 1.40350(16) 0.0146 Uani
C3I C -0.17327(12) 1.17327(12) 1.05843(16) 0.0158 Uani
C3F C -0.17327(12) 1.05843(16) 1.17327(12) 0.0158 Uani
C3Q C 0.05843(16) 1.17327(12) 1.17327(12) 0.0158 Uani
C3T C 0.17327(12) 1.17327(12) 1.05843(16) 0.0158 Uani
C3N C 0.17327(12) 1.05843(16) 1.17327(12) 0.0158 Uani
C3V C -0.17327(12) 1.17327(12) 0.94157(16) 0.0158 Uani
C3M C -0.17327(12) 1.05843(16) 0.82673(12) 0.0158 Uani
C3P C -0.05843(16) 1.17327(12) 0.82673(12) 0.0158 Uani
C3O C -0.17327(12) 0.94157(16) 1.17327(12) 0.0158 Uani
C3S C -0.05843(16) 0.82673(12) 1.17327(12) 0.0158 Uani
C3W C -0.17327(12) 0.82673(12) 1.05843(16) 0.0158 Uani
C3H C 0.17327(12) 1.17327(12) 0.94157(16) 0.0158 Uani
C3E C 0.17327(12) 1.05843(16) 0.82673(12) 0.0158 Uani
C3B C 0.05843(16) 1.17327(12) 0.82673(12) 0.0158 Uani
C3D C 0.17327(12) 0.94157(16) 1.17327(12) 0.0158 Uani
C3A C 0.05843(16) 0.82673(12) 1.17327(12) 0.0158 Uani
C3J C 0.17327(12) 0.82673(12) 1.05843(16) 0.0158 Uani
C3AA C -0.05843(16) 1.32673(12) 1.32673(12) 0.0158 Uani
C3IA C -0.17327(12) 1.32673(12) 1.44157(16) 0.0158 Uani
C3EA C -0.17327(12) 1.44157(16) 1.32673(12) 0.0158 Uani
C3PA C 0.05843(16) 1.32673(12) 1.32673(12) 0.0158 Uani
C3SA C 0.17327(12) 1.32673(12) 1.44157(16) 0.0158 Uani
C3JA C 0.17327(12) 1.44157(16) 1.32673(12) 0.0158 Uani
C4HA C 0.17350(15) 1.17350(12) 1.44157(12) 0.0147 Uani
C4CB C 0.17350(12) 1.05843(12) 1.32650(15) 0.0147 Uani
C4PA C -0.05843(12) 1.17350(12) 1.32650(15) 0.0147 Uani
C4PB C -0.17350(12) 1.17350(15) 1.44157(12) 0.0147 Uani
C4O C -0.17350(15) 1.05843(12) 1.32650(12) 0.0147 Uani
C4I C -0.17350(15) 1.32650(12) 0.94157(12) 0.0147 Uani
C4YB C -0.17350(12) 1.44157(12) 0.82650(15) 0.0147 Uani
C4Y C -0.05843(12) 1.32650(15) 0.82650(12) 0.0147 Uani
C4OC C -0.17350(12) 1.32650(15) 1.05843(12) 0.0147 Uani
C4KA C -0.17350(15) 1.44157(12) 1.17350(12) 0.0147 Uani
C4Q C -0.05843(12) 1.32650(12) 1.17350(15) 0.0147 Uani
C4DC C -0.32650(15) 1.17350(12) 0.94157(12) 0.0147 Uani
C4VA C -0.44157(12) 1.17350(15) 0.82650(12) 0.0147 Uani
C4G C -0.32650(12) 1.05843(12) 0.82650(15) 0.0147 Uani
C4V C -0.32650(12) 1.17350(15) 1.05843(12) 0.0147 Uani
C4MC C -0.44157(12) 1.17350(12) 1.17350(15) 0.0147 Uani
C4HB C -0.32650(15) 1.05843(12) 1.17350(12) 0.0147 Uani
C4F C -0.32650(12) 0.94157(12) 1.17350(15) 0.0147 Uani
C4YA C -0.44157(12) 0.82650(15) 1.17350(12) 0.0147 Uani
C4BC C -0.32650(15) 0.82650(12) 1.05843(12) 0.0147 Uani
C4AB C -0.17350(12) 0.94157(12) 1.32650(15) 0.0147 Uani
C4GA C -0.17350(15) 0.82650(12) 1.44157(12) 0.0147 Uani
C4A C -0.05843(12) 0.82650(15) 1.32650(12) 0.0147 Uani
C5HA C 0.15221(17) 1.15221(12) 1.40311(12) 0.0167 Uani
C5CB C 0.15221(12) 1.09689(12) 1.34779(17) 0.0167 Uani
C5PA C -0.09689(12) 1.15221(12) 1.34779(17) 0.0167 Uani
C5PB C -0.15221(12) 1.15221(17) 1.40311(12) 0.0167 Uani
C5O C -0.15221(17) 1.09689(12) 1.34779(12) 0.0167 Uani
C5I C -0.15221(17) 1.34779(12) 0.90311(12) 0.0167 Uani
C5YB C -0.15221(12) 1.40311(12) 0.84779(17) 0.0167 Uani
C5Y C -0.09689(12) 1.34779(17) 0.84779(12) 0.0167 Uani
C5OC C -0.15221(12) 1.34779(17) 1.09689(12) 0.0167 Uani
C5KA C -0.15221(17) 1.40311(12) 1.15221(12) 0.0167 Uani
C5Q C -0.09689(12) 1.34779(12) 1.15221(17) 0.0167 Uani
C5DC C -0.34779(17) 1.15221(12) 0.90311(12) 0.0167 Uani
C5VA C -0.40311(12) 1.15221(17) 0.84779(12) 0.0167 Uani
C5G C -0.34779(12) 1.09689(12) 0.84779(17) 0.0167 Uani
C5V C -0.34779(12) 1.15221(17) 1.09689(12) 0.0167 Uani
C5MC C -0.40311(12) 1.15221(12) 1.15221(17) 0.0167 Uani
C5HB C -0.34779(17) 1.09689(12) 1.15221(12) 0.0167 Uani
C5F C -0.34779(12) 0.90311(12) 1.15221(17) 0.0167 Uani
C5YA C -0.40311(12) 0.84779(17) 1.15221(12) 0.0167 Uani
C5BC C -0.34779(17) 0.84779(12) 1.09689(12) 0.0167 Uani
C5AB C -0.15221(12) 0.90311(12) 1.34779(17) 0.0167 Uani
C5GA C -0.15221(17) 0.84779(12) 1.40311(12) 0.0167 Uani
C5A C -0.09689(12) 0.84779(17) 1.34779(12) 0.0167 Uani
C6HA C 0.17052(12) 1.11525(17) 1.38475(12) 0.0165 Uani
C6CB C 0.11525(17) 1.11525(12) 1.32948(12) 0.0165 Uani
C6PB C -0.11525(17) 1.17052(12) 1.38475(12) 0.0165 Uani
C6O C -0.17052(12) 1.11525(12) 1.38475(17) 0.0165 Uani
C6PA C -0.11525(12) 1.11525(17) 1.32948(12) 0.0165 Uani
C6I C -0.17052(12) 1.38475(17) 0.88475(12) 0.0165 Uani
C6YB C -0.11525(17) 1.38475(12) 0.82948(12) 0.0165 Uani
C6Y C -0.11525(12) 1.32948(12) 0.88475(17) 0.0165 Uani
C6KA C -0.17052(12) 1.38475(12) 1.11525(17) 0.0165 Uani
C6Q C -0.11525(12) 1.38475(17) 1.17052(12) 0.0165 Uani
C6OC C -0.11525(17) 1.32948(12) 1.11525(12) 0.0165 Uani
C6VA C -0.38475(12) 1.17052(12) 0.88475(17) 0.0165 Uani
C6G C -0.38475(17) 1.11525(12) 0.82948(12) 0.0165 Uani
C6DC C -0.32948(12) 1.11525(17) 0.88475(12) 0.0165 Uani
C6V C -0.38475(17) 1.17052(12) 1.11525(12) 0.0165 Uani
C6MC C -0.38475(12) 1.11525(17) 1.17052(12) 0.0165 Uani
C6HB C -0.32948(12) 1.11525(12) 1.11525(17) 0.0165 Uani
C6F C -0.38475(17) 0.88475(12) 1.17052(12) 0.0165 Uani
C6YA C -0.38475(12) 0.82948(12) 1.11525(17) 0.0165 Uani
C6BC C -0.32948(12) 0.88475(17) 1.11525(12) 0.0165 Uani
C6GA C -0.17052(12) 0.88475(17) 1.38475(12) 0.0165 Uani
C6A C -0.11525(12) 0.82948(12) 1.38475(17) 0.0165 Uani
C6AB C -0.11525(17) 0.88475(12) 1.32948(12) 0.0165 Uani
H2HA H 0.1951 1.1028 1.3972 0.0200 Uiso
H2CB H 0.1028 1.1028 1.3049 0.0200 Uiso
H2PB H -0.1028 1.1951 1.3972 0.0200 Uiso
H2O H -0.1951 1.1028 1.3972 0.0200 Uiso
H2PA H -0.1028 1.1028 1.3049 0.0200 Uiso
H2I H -0.1951 1.3972 0.8972 0.0200 Uiso
H2YB H -0.1028 1.3972 0.8049 0.0200 Uiso
H2Y H -0.1028 1.3049 0.8972 0.0200 Uiso
H2KA H -0.1951 1.3972 1.1028 0.0200 Uiso
H2Q H -0.1028 1.3972 1.1951 0.0200 Uiso
H2OC H -0.1028 1.3049 1.1028 0.0200 Uiso
H2VA H -0.3972 1.1951 0.8972 0.0200 Uiso
H2G H -0.3972 1.1028 0.8049 0.0200 Uiso
H2DC H -0.3049 1.1028 0.8972 0.0200 Uiso
H2V H -0.3972 1.1951 1.1028 0.0200 Uiso
H2MC H -0.3972 1.1028 1.1951 0.0200 Uiso
H2HB H -0.3049 1.1028 1.1028 0.0200 Uiso
H2F H -0.3972 0.8972 1.1951 0.0200 Uiso
H2YA H -0.3972 0.8049 1.1028 0.0200 Uiso
H2BC H -0.3049 0.8972 1.1028 0.0200 Uiso
H2GA H -0.1951 0.8972 1.3972 0.0200 Uiso
H2A H -0.1028 0.8049 1.3972 0.0200 Uiso
H2AB H -0.1028 0.8972 1.3049 0.0200 Uiso
Cl1I Cl -0.2500 1.2500 1.0000 0.0255 Uani
Cl1F Cl -0.2500 1.0000 1.2500 0.0255 Uani
Cl1H Cl 0.2500 1.2500 1.0000 0.0255 Uani
Cl1D Cl 0.2500 1.0000 1.2500 0.0255 Uani
Cl1HA Cl 0.2500 1.2500 1.5000 0.0255 Uani
Cl1IA Cl -0.2500 1.2500 1.5000 0.0255 Uani
Cl1G Cl -0.2500 1.0000 0.7500 0.0255 Uani
Cl1B Cl 0.0000 1.2500 0.7500 0.0255 Uani
Cl1A Cl 0.0000 0.7500 1.2500 0.0255 Uani
Cu1I Cu -0.167570(17) 1.249686(19) 1.0000 0.0099 Uani
Cu1V Cu -0.249686(19) 1.167570(17) 1.0000 0.0099 Uani
Cu1F Cu -0.249686(19) 1.0000 1.167570(17) 0.0099 Uani
Cu1O Cu -0.167570(17) 1.0000 1.249686(19) 0.0099 Uani
Cu1Q Cu 0.0000 1.249686(19) 1.167570(17) 0.0099 Uani
Cu1H Cu 0.167570(17) 1.249686(19) 1.0000 0.0099 Uani
Cu1T Cu 0.249686(19) 1.167570(17) 1.0000 0.0099 Uani
Cu1D Cu 0.249686(19) 1.0000 1.167570(17) 0.0099 Uani
Cu1N Cu 0.167570(17) 1.0000 1.249686(19) 0.0099 Uani
Cu1AA Cu 0.0000 1.332430(17) 1.250314(19) 0.0099 Uani
Cu1PA Cu 0.0000 1.250314(19) 1.332430(17) 0.0099 Uani
Cu1HA Cu 0.167570(17) 1.250314(19) 1.5000 0.0099 Uani
Cu1RB Cu 0.250314(19) 1.167570(17) 1.5000 0.0099 Uani
Cu1CB Cu 0.250314(19) 1.0000 1.332430(17) 0.0099 Uani
Cu1IA Cu -0.167570(17) 1.250314(19) 1.5000 0.0099 Uani
Cu1PB Cu -0.250314(19) 1.167570(17) 1.5000 0.0099 Uani
Cu1AB Cu -0.250314(19) 1.0000 1.332430(17) 0.0099 Uani
Cu1G Cu -0.249686(19) 1.0000 0.832430(17) 0.0099 Uani
Cu1M Cu -0.167570(17) 1.0000 0.750314(19) 0.0099 Uani
Cu1B Cu 0.0000 1.167570(17) 0.750314(19) 0.0099 Uani
Cu1P Cu 0.0000 1.249686(19) 0.832430(17) 0.0099 Uani
Cu1A Cu 0.0000 0.832430(17) 1.249686(19) 0.0099 Uani
Cu1S Cu 0.0000 0.750314(19) 1.167570(17) 0.0099 Uani
Cu1DC Cu -0.332430(17) 1.250314(19) 1.0000 0.0099 Uani
Cu1OC Cu -0.250314(19) 1.332430(17) 1.0000 0.0099 Uani
Cu1YB Cu -0.250314(19) 1.5000 0.832430(17) 0.0099 Uani
Cu1MA Cu -0.167570(17) 1.5000 0.749686(19) 0.0099 Uani
Cu1Y Cu 0.0000 1.332430(17) 0.749686(19) 0.0099 Uani
Cu1XB Cu -0.250314(19) 1.5000 1.167570(17) 0.0099 Uani
Cu1KA Cu -0.167570(17) 1.5000 1.250314(19) 0.0099 Uani
Cu1LC Cu -0.5000 1.250314(19) 0.832430(17) 0.0099 Uani
Cu1VA Cu -0.5000 1.167570(17) 0.749686(19) 0.0099 Uani
Cu1JB Cu -0.332430(17) 1.0000 0.749686(19) 0.0099 Uani
Cu1MC Cu -0.5000 1.250314(19) 1.167570(17) 0.0099 Uani
Cu1XA Cu -0.5000 1.167570(17) 1.250314(19) 0.0099 Uani
Cu1HB Cu -0.332430(17) 1.0000 1.250314(19) 0.0099 Uani
Cu1K Cu -0.167570(17) 0.750314(19) 1.0000 0.0099 Uani
Cu1W Cu -0.249686(19) 0.832430(17) 1.0000 0.0099 Uani
Cu1YA Cu -0.5000 0.832430(17) 1.250314(19) 0.0099 Uani
Cu1KC Cu -0.5000 0.749686(19) 1.167570(17) 0.0099 Uani
Cu1BC Cu -0.332430(17) 0.749686(19) 1.0000 0.0099 Uani
Cu1QB Cu -0.250314(19) 0.832430(17) 1.5000 0.0099 Uani
Cu1GA Cu -0.167570(17) 0.749686(19) 1.5000 0.0099 Uani
Cu1NA Cu 0.0000 0.749686(19) 1.332430(17) 0.0099 Uani
Cu1EC Cu 0.332430(17) 1.250314(19) 1.0000 0.0099 Uani
Cu1QC Cu 0.250314(19) 1.332430(17) 1.0000 0.0099 Uani
Cu1E Cu 0.249686(19) 1.0000 0.832430(17) 0.0099 Uani
Cu1L Cu 0.167570(17) 1.0000 0.750314(19) 0.0099 Uani
Cu1IB Cu 0.332430(17) 1.0000 1.250314(19) 0.0099 Uani
Cu1J Cu 0.167570(17) 0.750314(19) 1.0000 0.0099 Uani
Cu1U Cu 0.249686(19) 0.832430(17) 1.0000 0.0099 Uani
Cu1UA Cu -0.249686(19) 1.332430(17) 1.5000 0.0099 Uani
Cu1EA Cu -0.249686(19) 1.5000 1.332430(17) 0.0099 Uani
Cu1SA Cu 0.249686(19) 1.332430(17) 1.5000 0.0099 Uani
Cu1CA Cu 0.249686(19) 1.5000 1.332430(17) 0.0099 Uani
Cu1JA Cu 0.167570(17) 1.5000 1.250314(19) 0.0099 Uani
Cu1EB Cu 0.332430(17) 1.249686(19) 1.5000 0.0099 Uani
O4I O -0.15615(10) 1.20744(10) 1.04495(9) 0.0265 Uani
O4MD O -0.20744(10) 1.15615(10) 1.04495(9) 0.0265 Uani
O4F O -0.20744(10) 1.04495(9) 1.15615(10) 0.0265 Uani
O4DD O -0.15615(10) 1.04495(9) 1.20744(10) 0.0265 Uani
O4JD O -0.04495(9) 1.20744(10) 1.15615(10) 0.0265 Uani
O4UC O 0.04495(9) 1.15615(10) 1.20744(10) 0.0265 Uani
O4CD O 0.15615(10) 1.20744(10) 1.04495(9) 0.0265 Uani
O4T O 0.20744(10) 1.15615(10) 1.04495(9) 0.0265 Uani
O4YC O 0.20744(10) 1.04495(9) 1.15615(10) 0.0265 Uani
O4N O 0.15615(10) 1.04495(9) 1.20744(10) 0.0265 Uani
O4Q O 0.04495(9) 1.20744(10) 1.15615(10) 0.0265 Uani
O4BD O -0.15615(10) 1.20744(10) 0.95505(9) 0.0265 Uani
O4VC O -0.20744(10) 1.04495(9) 0.84385(10) 0.0265 Uani
O4M O -0.15615(10) 1.04495(9) 0.79256(10) 0.0265 Uani
O4SC O -0.04495(9) 1.15615(10) 0.79256(10) 0.0265 Uani
O4P O -0.04495(9) 1.20744(10) 0.84385(10) 0.0265 Uani
O4V O -0.20744(10) 1.15615(10) 0.95505(9) 0.0265 Uani
O4WC O -0.20744(10) 0.95505(9) 1.15615(10) 0.0265 Uani
O4TC O -0.04495(9) 0.84385(10) 1.20744(10) 0.0265 Uani
O4S O -0.04495(9) 0.79256(10) 1.15615(10) 0.0265 Uani
O4ZC O -0.15615(10) 0.79256(10) 1.04495(9) 0.0265 Uani
O4W O -0.20744(10) 0.84385(10) 1.04495(9) 0.0265 Uani
O4O O -0.15615(10) 0.95505(9) 1.20744(10) 0.0265 Uani
O4H O 0.15615(10) 1.20744(10) 0.95505(9) 0.0265 Uani
O4E O 0.20744(10) 1.04495(9) 0.84385(10) 0.0265 Uani
O4GD O 0.15615(10) 1.04495(9) 0.79256(10) 0.0265 Uani
O4B O 0.04495(9) 1.15615(10) 0.79256(10) 0.0265 Uani
O4KD O 0.04495(9) 1.20744(10) 0.84385(10) 0.0265 Uani
O4OD O 0.20744(10) 1.15615(10) 0.95505(9) 0.0265 Uani
O4D O 0.20744(10) 0.95505(9) 1.15615(10) 0.0265 Uani
O4A O 0.04495(9) 0.84385(10) 1.20744(10) 0.0265 Uani
O4HD O 0.04495(9) 0.79256(10) 1.15615(10) 0.0265 Uani
O4J O 0.15615(10) 0.79256(10) 1.04495(9) 0.0265 Uani
O4ND O 0.20744(10) 0.84385(10) 1.04495(9) 0.0265 Uani
O4ED O 0.15615(10) 0.95505(9) 1.20744(10) 0.0265 Uani
O4AA O -0.04495(9) 1.34385(10) 1.29256(10) 0.0265 Uani
O4IA O -0.15615(10) 1.29256(10) 1.45505(9) 0.0265 Uani
O4JE O -0.20744(10) 1.34385(10) 1.45505(9) 0.0265 Uani
O4EA O -0.20744(10) 1.45505(9) 1.34385(10) 0.0265 Uani
O4DE O -0.15615(10) 1.45505(9) 1.29256(10) 0.0265 Uani
O4GE O -0.04495(9) 1.29256(10) 1.34385(10) 0.0265 Uani
O4PD O 0.04495(9) 1.34385(10) 1.29256(10) 0.0265 Uani
O4YD O 0.15615(10) 1.29256(10) 1.45505(9) 0.0265 Uani
O4SA O 0.20744(10) 1.34385(10) 1.45505(9) 0.0265 Uani
O4VD O 0.20744(10) 1.45505(9) 1.34385(10) 0.0265 Uani
O4JA O 0.15615(10) 1.45505(9) 1.29256(10) 0.0265 Uani
O4PA O 0.04495(9) 1.29256(10) 1.34385(10) 0.0265 Uani
O4HA O 0.15615(10) 1.29256(10) 1.54495(9) 0.0265 Uani
O4IF O 0.29256(10) 1.15615(10) 1.54495(9) 0.0265 Uani
O4RB O 0.29256(10) 1.15615(10) 1.45505(9) 0.0265 Uani
O4CB O 0.29256(10) 0.95505(9) 1.34385(10) 0.0265 Uani
O4RE O 0.29256(10) 1.04495(9) 1.34385(10) 0.0265 Uani
O4XD O -0.15615(10) 1.29256(10) 1.54495(9) 0.0265 Uani
O4PB O -0.29256(10) 1.15615(10) 1.54495(9) 0.0265 Uani
O4KF O -0.29256(10) 1.15615(10) 1.45505(9) 0.0265 Uani
O4TE O -0.29256(10) 0.95505(9) 1.34385(10) 0.0265 Uani
O4AB O -0.29256(10) 1.04495(9) 1.34385(10) 0.0265 Uani
O4G O -0.20744(10) 0.95505(9) 0.84385(10) 0.0265 Uani
O4FD O -0.15615(10) 0.95505(9) 0.79256(10) 0.0265 Uani
O5HA O 0.15589(11) 1.20736(10) 1.45535(10) 0.0303 Uani
O5IF O 0.20736(10) 1.15589(11) 1.45535(10) 0.0303 Uani
O5GE O 0.04465(10) 1.20736(10) 1.34411(11) 0.0303 Uani
O5CB O 0.20736(10) 1.04465(10) 1.34411(11) 0.0303 Uani
O5ED O 0.15589(11) 1.04465(10) 1.29264(10) 0.0303 Uani
O5UC O -0.04465(10) 1.15589(11) 1.29264(10) 0.0303 Uani
O5XD O -0.15589(11) 1.20736(10) 1.45535(10) 0.0303 Uani
O5PB O -0.20736(10) 1.15589(11) 1.45535(10) 0.0303 Uani
O5PA O -0.04465(10) 1.20736(10) 1.34411(11) 0.0303 Uani
O5TE O -0.20736(10) 1.04465(10) 1.34411(11) 0.0303 Uani
O5O O -0.15589(11) 1.04465(10) 1.29264(10) 0.0303 Uani
O5I O -0.15589(11) 1.29264(10) 0.95535(10) 0.0303 Uani
O5YB O -0.20736(10) 1.45535(10) 0.84411(11) 0.0303 Uani
O5BE O -0.15589(11) 1.45535(10) 0.79264(10) 0.0303 Uani
O5HG O -0.20736(10) 1.34411(11) 0.95535(10) 0.0303 Uani
O5Y O -0.04465(10) 1.34411(11) 0.79264(10) 0.0303 Uani
O5KD O -0.04465(10) 1.29264(10) 0.84411(11) 0.0303 Uani
O5BD O -0.15589(11) 1.29264(10) 1.04465(10) 0.0303 Uani
O5SF O -0.20736(10) 1.45535(10) 1.15589(11) 0.0303 Uani
O5KA O -0.15589(11) 1.45535(10) 1.20736(10) 0.0303 Uani
O5OC O -0.20736(10) 1.34411(11) 1.04465(10) 0.0303 Uani
O5PD O -0.04465(10) 1.34411(11) 1.20736(10) 0.0303 Uani
O5Q O -0.04465(10) 1.29264(10) 1.15589(11) 0.0303 Uani
O5MD O -0.29264(10) 1.15589(11) 0.95535(10) 0.0303 Uani
O5CG O -0.45535(10) 1.20736(10) 0.84411(11) 0.0303 Uani
O5VA O -0.45535(10) 1.15589(11) 0.79264(10) 0.0303 Uani
O5DC O -0.34411(11) 1.20736(10) 0.95535(10) 0.0303 Uani
O5AF O -0.34411(11) 1.04465(10) 0.79264(10) 0.0303 Uani
O5G O -0.29264(10) 1.04465(10) 0.84411(11) 0.0303 Uani
O5V O -0.29264(10) 1.15589(11) 1.04465(10) 0.0303 Uani
O5MC O -0.45535(10) 1.20736(10) 1.15589(11) 0.0303 Uani
O5OE O -0.45535(10) 1.15589(11) 1.20736(10) 0.0303 Uani
O5UF O -0.34411(11) 1.20736(10) 1.04465(10) 0.0303 Uani
O5HB O -0.34411(11) 1.04465(10) 1.20736(10) 0.0303 Uani
O5WC O -0.29264(10) 1.04465(10) 1.15589(11) 0.0303 Uani
O5F O -0.29264(10) 0.95535(10) 1.15589(11) 0.0303 Uani
O5YA O -0.45535(10) 0.84411(11) 1.20736(10) 0.0303 Uani
O5DG O -0.45535(10) 0.79264(10) 1.15589(11) 0.0303 Uani
O5CF O -0.34411(11) 0.95535(10) 1.20736(10) 0.0303 Uani
O5BC O -0.34411(11) 0.79264(10) 1.04465(10) 0.0303 Uani
O5LD O -0.29264(10) 0.84411(11) 1.04465(10) 0.0303 Uani
O5DD O -0.15589(11) 0.95535(10) 1.29264(10) 0.0303 Uani
O5JF O -0.20736(10) 0.84411(11) 1.45535(10) 0.0303 Uani
O5GA O -0.15589(11) 0.79264(10) 1.45535(10) 0.0303 Uani
O5AB O -0.20736(10) 0.95535(10) 1.34411(11) 0.0303 Uani
O5IE O -0.04465(10) 0.79264(10) 1.34411(11) 0.0303 Uani
O5A O -0.04465(10) 0.84411(11) 1.29264(10) 0.0303 Uani
O5JD O 0.04465(10) 1.29264(10) 1.15589(11) 0.0303 Uani
O5CD O 0.15589(11) 1.29264(10) 0.95535(10) 0.0303 Uani
O5H O 0.15589(11) 1.29264(10) 1.04465(10) 0.0303 Uani
O5T O 0.29264(10) 1.15589(11) 0.95535(10) 0.0303 Uani
O5OD O 0.29264(10) 1.15589(11) 1.04465(10) 0.0303 Uani
O5YC O 0.29264(10) 0.95535(10) 1.15589(11) 0.0303 Uani
O5D O 0.29264(10) 1.04465(10) 1.15589(11) 0.0303 Uani
O5N O 0.15589(11) 0.95535(10) 1.29264(10) 0.0303 Uani
O5AA O 0.04465(10) 1.34411(11) 1.20736(10) 0.0303 Uani
O5YD O 0.15589(11) 1.20736(10) 1.54465(10) 0.0303 Uani
O5RB O 0.20736(10) 1.15589(11) 1.54465(10) 0.0303 Uani
O5RE O 0.20736(10) 0.95535(10) 1.34411(11) 0.0303 Uani
O5IA O -0.15589(11) 1.20736(10) 1.54465(10) 0.0303 Uani
O5KF O -0.20736(10) 1.15589(11) 1.54465(10) 0.0303 Uani
O5VC O -0.29264(10) 0.95535(10) 0.84411(11) 0.0303 Uani
O5M O -0.15589(11) 0.95535(10) 0.70736(10) 0.0303 Uani
O5FD O -0.15589(11) 1.04465(10) 0.70736(10) 0.0303 Uani
O5SC O 0.04465(10) 1.15589(11) 0.70736(10) 0.0303 Uani
O5B O -0.04465(10) 1.15589(11) 0.70736(10) 0.0303 Uani
O5P O 0.04465(10) 1.29264(10) 0.84411(11) 0.0303 Uani
O5TC O 0.04465(10) 0.84411(11) 1.29264(10) 0.0303 Uani
O5S O 0.04465(10) 0.70736(10) 1.15589(11) 0.0303 Uani
O5HD O -0.04465(10) 0.70736(10) 1.15589(11) 0.0303 Uani
loop_
_atom_site_aniso_label
_atom_site_aniso_U_11
_atom_site_aniso_U_22
_atom_site_aniso_U_33
_atom_site_aniso_U_23
_atom_site_aniso_U_13
_atom_site_aniso_U_12
O1 0.092 0.092 0.105 0.052 0.052 0.045
O2 0.054 0.134 0.054 0 -0.04 0
O3 0.020(3) 0.020(3) 0.020(3) 0.004(3) -0.004(3) 0.004(3)
P1 0.0112(11) 0.0112(11) 0.0112(11) 0.000 0.000 0.000
W1 0.0294 0.0556 0.0294 0 -0.01615 0
O1D 0.105 0.092 0.092 0.045 0.052 0.052
O1N 0.092 0.092 0.105 -0.052 0.052 -0.045
O1U 0.105(7) 0.092(4) 0.092(4) -0.045(5) 0.052(4) -0.052(4)
O1H 0.092 0.105 0.092 0.052 0.045 0.052
O1T 0.105 0.092 0.092 -0.045 -0.052 0.052
O1P 0.092 0.105 0.092 -0.052 -0.045 0.052
O1S 0.092 0.105 0.092 -0.052 0.045 -0.052
O1A 0.092 0.092 0.105 -0.052 -0.052 0.045
O1K 0.092 0.105 0.092 -0.052 -0.045 0.052
O1C 0.092 0.092 0.105 0.052 -0.052 -0.045
O1E 0.105 0.092 0.092 0.045 -0.052 -0.052
O1L 0.092 0.092 0.105 -0.052 -0.052 0.045
O1B 0.092 0.092 0.105 -0.052 0.052 -0.045
O1G 0.105 0.092 0.092 -0.045 0.052 -0.052
O1M 0.092 0.092 0.105 0.052 0.052 0.045
O1W 0.105 0.092 0.092 0.045 0.052 0.052
O1F 0.105 0.092 0.092 -0.045 -0.052 0.052
O1O 0.092 0.092 0.105 0.052 -0.052 -0.045
O1V 0.105 0.092 0.092 0.045 -0.052 -0.052
O1Q 0.092 0.105 0.092 0.052 -0.045 -0.052
O1I 0.092 0.105 0.092 -0.052 0.045 -0.052
O1R 0.092 0.105 0.092 0.052 0.045 0.052
O1J 0.092 0.105 0.092 0.052 -0.045 -0.052
O2D 0.054 0.054 0.134 0 0 -0.04
O2K 0.134 0.054 0.054 0.04 0 0
O2C 0.054 0.134 0.054 0 0.04 0
O2B 0.054 0.134 0.054 0 -0.04 0
O2A 0.054 0.134 0.054 0 0.04 0
O2H 0.134 0.054 0.054 -0.04 0 0
O2I 0.134 0.054 0.054 0.04 0 0
O2J 0.134 0.054 0.054 -0.04 0 0
O2E 0.054(4) 0.054(4) 0.134(11) 0.000 0.000 0.040(5)
O2F 0.054 0.054 0.134 0 0 -0.04
O2G 0.054 0.054 0.134 0 0 0.04
O3C 0.02 0.02 0.02 0.004 0.004 -0.004
O3B 0.02 0.02 0.02 -0.004 -0.004 -0.004
O3A 0.02 0.02 0.02 -0.004 0.004 0.004
O3O 0.02 0.02 0.02 -0.004 -0.004 -0.004
O3N 0.02 0.02 0.02 0.004 0.004 -0.004
O3L 0.02 0.02 0.02 0.004 -0.004 0.004
O3M 0.02 0.02 0.02 -0.004 0.004 0.004
W1D 0.0294 0.0294 0.0556 0 0 -0.01615
W1K 0.0556 0.0294 0.0294 0.01615 0 0
W1C 0.0294 0.0556 0.0294 0 0.01615 0
W1B 0.0294 0.0556 0.0294 0 -0.01615 0
W1A 0.0294 0.0556 0.0294 0 0.01615 0
W1H 0.0556 0.0294 0.0294 -0.01615 0 0
W1I 0.0556 0.0294 0.0294 0.01615 0 0
W1J 0.0556 0.0294 0.0294 -0.01615 0 0
W1E 0.0294(2) 0.0294(2) 0.0556(3) 0.000 0.000 0.01615(15)
W1F 0.0294 0.0294 0.0556 0 0 -0.01615
W1G 0.0294 0.0294 0.0556 0 0 0.01615
N2 0.102(18) 0.012(11) 0.102(18) 0.000 0.000 0.000
O6 0.052(17) 0.052(17) 0.28(10) 0.000 0.000 -0.02(2)
C1 0.0163 0.016 0.0163 0.0056 -0.0044 -0.0056
C2 0.013 0.0154 0.0154 0.004 -0.007 -0.007
C3 0.012 0.0177 0.0177 0.0002 -0.003 -0.003
C4 0.01 0.0171 0.0171 -0.0017 -0.0034 0.0034
C5 0.016 0.0171 0.0171 -0.0039 -0.0089 0.0089
C6 0.0168 0.016 0.0168 -0.0081 -0.0055 0.0081
Cl1 0.0516 0.0124 0.0124 -0.0008 0 0
Cu1 0.0079 0.0145 0.0073 -0.0001 0 0
O4 0.0246 0.0324 0.0225 0.0077 -0.0148 -0.012
O5 0.03 0.0343 0.0266 -0.0125 -0.018 0.0169
C1F 0.0163 0.0163 0.016 0.0056 -0.0056 -0.0044
C1I 0.016 0.0163 0.0163 0.0044 -0.0056 -0.0056
C1T 0.0163 0.016 0.0163 0.0056 0.0044 0.0056
C1Q 0.0163 0.0163 0.016 0.0056 0.0056 0.0044
C1N 0.016 0.0163 0.0163 0.0044 0.0056 0.0056
C1M 0.016 0.0163 0.0163 -0.0044 0.0056 -0.0056
C1V 0.0163 0.016 0.0163 -0.0056 0.0044 -0.0056
C1P 0.0163 0.0163 0.016 -0.0056 0.0056 -0.0044
C1S 0.0163 0.0163 0.016 -0.0056 -0.0056 0.0044
C1O 0.016 0.0163 0.0163 -0.0044 -0.0056 0.0056
C1W 0.0163 0.016 0.0163 -0.0056 -0.0044 0.0056
C1H 0.016 0.0163 0.0163 -0.0044 -0.0056 0.0056
C1B 0.0163 0.016 0.0163 -0.0056 -0.0044 0.0056
C1E 0.0163 0.0163 0.016 -0.0056 -0.0056 0.0044
C1D 0.0163 0.0163 0.016 -0.0056 0.0056 -0.0044
C1J 0.016 0.0163 0.0163 -0.0044 0.0056 -0.0056
C1A 0.0163 0.016 0.0163 -0.0056 0.0044 -0.0056
C1AA 0.0163 0.016 0.0163 0.0056 0.0044 0.0056
C1EA 0.0163 0.0163 0.016 0.0056 0.0056 0.0044
C1IA 0.016 0.0163 0.0163 0.0044 0.0056 0.0056
C1SA 0.0163 0.016 0.0163 0.0056 -0.0044 -0.0056
C1PA 0.0163 0.0163 0.016 0.0056 -0.0056 -0.0044
C1JA 0.016 0.0163 0.0163 0.0044 -0.0056 -0.0056
C2F 0.0154 0.013 0.0154 0.007 -0.004 -0.007
C2I 0.0154 0.0154 0.013 0.007 -0.007 -0.004
C2Q 0.013 0.0154 0.0154 0.004 0.007 0.007
C2N 0.0154 0.013 0.0154 0.007 0.004 0.007
C2T 0.0154 0.0154 0.013 0.007 0.007 0.004
C2V 0.0154 0.0154 0.013 -0.007 0.007 -0.004
C2P 0.013 0.0154 0.0154 -0.004 0.007 -0.007
C2M 0.0154 0.013 0.0154 -0.007 0.004 -0.007
C2O 0.0154 0.013 0.0154 -0.007 -0.004 0.007
C2W 0.0154 0.0154 0.013 -0.007 -0.007 0.004
C2S 0.013 0.0154 0.0154 -0.004 -0.007 0.007
C2H 0.0154 0.0154 0.013 -0.007 -0.007 0.004
C2B 0.013 0.0154 0.0154 -0.004 -0.007 0.007
C2E 0.0154 0.013 0.0154 -0.007 -0.004 0.007
C2D 0.0154 0.013 0.0154 -0.007 0.004 -0.007
C2J 0.0154 0.0154 0.013 -0.007 0.007 -0.004
C2A 0.013 0.0154 0.0154 -0.004 0.007 -0.007
C2AA 0.013 0.0154 0.0154 0.004 0.007 0.007
C2EA 0.0154 0.013 0.0154 0.007 0.004 0.007
C2IA 0.0154 0.0154 0.013 0.007 0.007 0.004
C2PA 0.013 0.0154 0.0154 0.004 -0.007 -0.007
C2JA 0.0154 0.013 0.0154 0.007 -0.004 -0.007
C2SA 0.0154 0.0154 0.013 0.007 -0.007 -0.004
C3I 0.0177 0.0177 0.012 0.003 -0.003 -0.0002
C3F 0.0177 0.012 0.0177 0.003 -0.0002 -0.003
C3Q 0.012 0.0177 0.0177 0.0002 0.003 0.003
C3T 0.0177 0.0177 0.012 0.003 0.003 0.0002
C3N 0.0177 0.012 0.0177 0.003 0.0002 0.003
C3V 0.0177 0.0177 0.012 -0.003 0.003 -0.0002
C3M 0.0177 0.012 0.0177 -0.003 0.0002 -0.003
C3P 0.012 0.0177 0.0177 -0.0002 0.003 -0.003
C3O 0.0177 0.012 0.0177 -0.003 -0.0002 0.003
C3S 0.012 0.0177 0.0177 -0.0002 -0.003 0.003
C3W 0.0177 0.0177 0.012 -0.003 -0.003 0.0002
C3H 0.0177 0.0177 0.012 -0.003 -0.003 0.0002
C3E 0.0177 0.012 0.0177 -0.003 -0.0002 0.003
C3B 0.012 0.0177 0.0177 -0.0002 -0.003 0.003
C3D 0.0177 0.012 0.0177 -0.003 0.0002 -0.003
C3A 0.012 0.0177 0.0177 -0.0002 0.003 -0.003
C3J 0.0177 0.0177 0.012 -0.003 0.003 -0.0002
C3AA 0.012 0.0177 0.0177 0.0002 0.003 0.003
C3IA 0.0177 0.0177 0.012 0.003 0.003 0.0002
C3EA 0.0177 0.012 0.0177 0.003 0.0002 0.003
C3PA 0.012 0.0177 0.0177 0.0002 -0.003 -0.003
C3SA 0.0177 0.0177 0.012 0.003 -0.003 -0.0002
C3JA 0.0177 0.012 0.0177 0.003 -0.0002 -0.003
C4HA 0.0171 0.0171 0.01 -0.0034 -0.0034 0.0017
C4CB 0.0171 0.01 0.0171 -0.0034 -0.0017 0.0034
C4PA 0.01 0.0171 0.0171 -0.0017 0.0034 -0.0034
C4PB 0.0171 0.0171 0.01 -0.0034 0.0034 -0.0017
C4O 0.0171 0.01 0.0171 -0.0034 0.0017 -0.0034
C4I 0.0171 0.0171 0.01 0.0034 0.0034 0.0017
C4YB 0.0171 0.01 0.0171 0.0034 0.0017 0.0034
C4Y 0.01 0.0171 0.0171 0.0017 0.0034 0.0034
C4OC 0.0171 0.0171 0.01 -0.0034 -0.0034 0.0017
C4KA 0.0171 0.01 0.0171 -0.0034 -0.0017 0.0034
C4Q 0.01 0.0171 0.0171 -0.0017 -0.0034 0.0034
C4DC 0.0171 0.0171 0.01 -0.0034 -0.0034 0.0017
C4VA 0.01 0.0171 0.0171 -0.0017 -0.0034 0.0034
C4G 0.0171 0.01 0.0171 -0.0034 -0.0017 0.0034
C4V 0.0171 0.0171 0.01 0.0034 0.0034 0.0017
C4MC 0.01 0.0171 0.0171 0.0017 0.0034 0.0034
C4HB 0.0171 0.01 0.0171 0.0034 0.0017 0.0034
C4F 0.0171 0.01 0.0171 -0.0034 0.0017 -0.0034
C4YA 0.01 0.0171 0.0171 -0.0017 0.0034 -0.0034
C4BC 0.0171 0.0171 0.01 -0.0034 0.0034 -0.0017
C4AB 0.0171 0.01 0.0171 0.0034 0.0017 0.0034
C4GA 0.0171 0.0171 0.01 0.0034 0.0034 0.0017
C4A 0.01 0.0171 0.0171 0.0017 0.0034 0.0034
C5HA 0.0171 0.0171 0.016 -0.0089 -0.0089 0.0039
C5CB 0.0171 0.016 0.0171 -0.0089 -0.0039 0.0089
C5PA 0.016 0.0171 0.0171 -0.0039 0.0089 -0.0089
C5PB 0.0171 0.0171 0.016 -0.0089 0.0089 -0.0039
C5O 0.0171 0.016 0.0171 -0.0089 0.0039 -0.0089
C5I 0.0171 0.0171 0.016 0.0089 0.0089 0.0039
C5YB 0.0171 0.016 0.0171 0.0089 0.0039 0.0089
C5Y 0.016 0.0171 0.0171 0.0039 0.0089 0.0089
C5OC 0.0171 0.0171 0.016 -0.0089 -0.0089 0.0039
C5KA 0.0171 0.016 0.0171 -0.0089 -0.0039 0.0089
C5Q 0.016 0.0171 0.0171 -0.0039 -0.0089 0.0089
C5DC 0.0171 0.0171 0.016 -0.0089 -0.0089 0.0039
C5VA 0.016 0.0171 0.0171 -0.0039 -0.0089 0.0089
C5G 0.0171 0.016 0.0171 -0.0089 -0.0039 0.0089
C5V 0.0171 0.0171 0.016 0.0089 0.0089 0.0039
C5MC 0.016 0.0171 0.0171 0.0039 0.0089 0.0089
C5HB 0.0171 0.016 0.0171 0.0089 0.0039 0.0089
C5F 0.0171 0.016 0.0171 -0.0089 0.0039 -0.0089
C5YA 0.016 0.0171 0.0171 -0.0039 0.0089 -0.0089
C5BC 0.0171 0.0171 0.016 -0.0089 0.0089 -0.0039
C5AB 0.0171 0.016 0.0171 0.0089 0.0039 0.0089
C5GA 0.0171 0.0171 0.016 0.0089 0.0089 0.0039
C5A 0.016 0.0171 0.0171 0.0039 0.0089 0.0089
C6HA 0.016 0.0168 0.0168 -0.0055 -0.0081 0.0081
C6CB 0.0168 0.0168 0.016 -0.0081 -0.0081 0.0055
C6PB 0.0168 0.016 0.0168 -0.0081 0.0055 -0.0081
C6O 0.016 0.0168 0.0168 -0.0055 0.0081 -0.0081
C6PA 0.0168 0.0168 0.016 -0.0081 0.0081 -0.0055
C6I 0.016 0.0168 0.0168 0.0055 0.0081 0.0081
C6YB 0.0168 0.0168 0.016 0.0081 0.0081 0.0055
C6Y 0.0168 0.016 0.0168 0.0081 0.0055 0.0081
C6KA 0.016 0.0168 0.0168 -0.0055 -0.0081 0.0081
C6Q 0.0168 0.0168 0.016 -0.0081 -0.0081 0.0055
C6OC 0.0168 0.016 0.0168 -0.0081 -0.0055 0.0081
C6VA 0.0168 0.016 0.0168 -0.0081 -0.0055 0.0081
C6G 0.0168 0.0168 0.016 -0.0081 -0.0081 0.0055
C6DC 0.016 0.0168 0.0168 -0.0055 -0.0081 0.0081
C6V 0.0168 0.016 0.0168 0.0081 0.0055 0.0081
C6MC 0.0168 0.0168 0.016 0.0081 0.0081 0.0055
C6HB 0.016 0.0168 0.0168 0.0055 0.0081 0.0081
C6F 0.0168 0.0168 0.016 -0.0081 0.0081 -0.0055
C6YA 0.0168 0.016 0.0168 -0.0081 0.0055 -0.0081
C6BC 0.016 0.0168 0.0168 -0.0055 0.0081 -0.0081
C6GA 0.016 0.0168 0.0168 0.0055 0.0081 0.0081
C6A 0.0168 0.016 0.0168 0.0081 0.0055 0.0081
C6AB 0.0168 0.0168 0.016 0.0081 0.0081 0.0055
Cl1I 0.0124 0.0124 0.0516 0 0 0.0008
Cl1F 0.0124 0.0516 0.0124 0 0.0008 0
Cl1H 0.0124 0.0124 0.0516 0 0 -0.0008
Cl1D 0.0124 0.0516 0.0124 0 -0.0008 0
Cl1HA 0.0124 0.0124 0.0516 0 0 0.0008
Cl1IA 0.0124 0.0124 0.0516 0 0 -0.0008
Cl1G 0.0124 0.0516 0.0124 0 -0.0008 0
Cl1B 0.0516 0.0124 0.0124 0.0008 0 0
Cl1A 0.0516 0.0124 0.0124 0.0008 0 0
Cu1I 0.0145 0.0073 0.0079 0 0 0.0001
Cu1V 0.0073 0.0145 0.0079 0 0 0.0001
Cu1F 0.0073 0.0079 0.0145 0 0.0001 0
Cu1O 0.0145 0.0079 0.0073 0 0.0001 0
Cu1Q 0.0079 0.0073 0.0145 -0.0001 0 0
Cu1H 0.0145 0.0073 0.0079 0 0 -0.0001
Cu1T 0.0073 0.0145 0.0079 0 0 -0.0001
Cu1D 0.0073 0.0079 0.0145 0 -0.0001 0
Cu1N 0.0145 0.0079 0.0073 0 -0.0001 0
Cu1AA 0.0079 0.0145 0.0073 -0.0001 0 0
Cu1PA 0.0079 0.0073 0.0145 -0.0001 0 0
Cu1HA 0.0145 0.0073 0.0079 0 0 0.0001
Cu1RB 0.0073 0.0145 0.0079 0 0 0.0001
Cu1CB 0.0073 0.0079 0.0145 0 -0.0001 0
Cu1IA 0.0145 0.0073 0.0079 0 0 -0.0001
Cu1PB 0.0073 0.0145 0.0079 0 0 -0.0001
Cu1AB 0.0073 0.0079 0.0145 0 0.0001 0
Cu1G 0.0073 0.0079 0.0145 0 -0.0001 0
Cu1M 0.0145 0.0079 0.0073 0 -0.0001 0
Cu1B 0.0079 0.0145 0.0073 0.0001 0 0
Cu1P 0.0079 0.0073 0.0145 0.0001 0 0
Cu1A 0.0079 0.0145 0.0073 0.0001 0 0
Cu1S 0.0079 0.0073 0.0145 0.0001 0 0
Cu1DC 0.0145 0.0073 0.0079 0 0 0.0001
Cu1OC 0.0073 0.0145 0.0079 0 0 0.0001
Cu1YB 0.0073 0.0079 0.0145 0 0.0001 0
Cu1MA 0.0145 0.0079 0.0073 0 0.0001 0
Cu1Y 0.0079 0.0145 0.0073 0.0001 0 0
Cu1XB 0.0073 0.0079 0.0145 0 -0.0001 0
Cu1KA 0.0145 0.0079 0.0073 0 -0.0001 0
Cu1LC 0.0079 0.0073 0.0145 -0.0001 0 0
Cu1VA 0.0079 0.0145 0.0073 -0.0001 0 0
Cu1JB 0.0145 0.0079 0.0073 0 -0.0001 0
Cu1MC 0.0079 0.0073 0.0145 0.0001 0 0
Cu1XA 0.0079 0.0145 0.0073 0.0001 0 0
Cu1HB 0.0145 0.0079 0.0073 0 0.0001 0
Cu1K 0.0145 0.0073 0.0079 0 0 -0.0001
Cu1W 0.0073 0.0145 0.0079 0 0 -0.0001
Cu1YA 0.0079 0.0145 0.0073 -0.0001 0 0
Cu1KC 0.0079 0.0073 0.0145 -0.0001 0 0
Cu1BC 0.0145 0.0073 0.0079 0 0 -0.0001
Cu1QB 0.0073 0.0145 0.0079 0 0 0.0001
Cu1GA 0.0145 0.0073 0.0079 0 0 0.0001
Cu1NA 0.0079 0.0073 0.0145 0.0001 0 0
Cu1EC 0.0145 0.0073 0.0079 0 0 -0.0001
Cu1QC 0.0073 0.0145 0.0079 0 0 -0.0001
Cu1E 0.0073 0.0079 0.0145 0 0.0001 0
Cu1L 0.0145 0.0079 0.0073 0 0.0001 0
Cu1IB 0.0145 0.0079 0.0073 0 -0.0001 0
Cu1J 0.0145(3) 0.0073(3) 0.0079(3) 0.000 0.000 0.0001(2)
Cu1U 0.0073 0.0145 0.0079 0 0 0.0001
Cu1UA 0.0073 0.0145 0.0079 0 0 -0.0001
Cu1EA 0.0073 0.0079 0.0145 0 -0.0001 0
Cu1SA 0.0073 0.0145 0.0079 0 0 0.0001
Cu1CA 0.0073 0.0079 0.0145 0 0.0001 0
Cu1JA 0.0145 0.0079 0.0073 0 0.0001 0
Cu1EB 0.0145 0.0073 0.0079 0 0 0.0001
O4I 0.0324 0.0225 0.0246 0.0148 -0.012 -0.0077
O4MD 0.0225 0.0324 0.0246 0.012 -0.0148 -0.0077
O4F 0.0225 0.0246 0.0324 0.012 -0.0077 -0.0148
O4DD 0.0324 0.0246 0.0225 0.0148 -0.0077 -0.012
O4JD 0.0246 0.0225 0.0324 0.0077 -0.012 -0.0148
O4UC 0.0246 0.0324 0.0225 0.0077 0.0148 0.012
O4CD 0.0324 0.0225 0.0246 0.0148 0.012 0.0077
O4T 0.0225 0.0324 0.0246 0.012 0.0148 0.0077
O4YC 0.0225 0.0246 0.0324 0.012 0.0077 0.0148
O4N 0.0324 0.0246 0.0225 0.0148 0.0077 0.012
O4Q 0.0246 0.0225 0.0324 0.0077 0.012 0.0148
O4BD 0.0324 0.0225 0.0246 -0.0148 0.012 -0.0077
O4VC 0.0225 0.0246 0.0324 -0.012 0.0077 -0.0148
O4M 0.0324 0.0246 0.0225 -0.0148 0.0077 -0.012
O4SC 0.0246 0.0324 0.0225 -0.0077 0.0148 -0.012
O4P 0.0246 0.0225 0.0324 -0.0077 0.012 -0.0148
O4V 0.0225 0.0324 0.0246 -0.012 0.0148 -0.0077
O4WC 0.0225 0.0246 0.0324 -0.012 -0.0077 0.0148
O4TC 0.0246 0.0324 0.0225 -0.0077 -0.0148 0.012
O4S 0.0246 0.0225 0.0324 -0.0077 -0.012 0.0148
O4ZC 0.0324 0.0225 0.0246 -0.0148 -0.012 0.0077
O4W 0.0225 0.0324 0.0246 -0.012 -0.0148 0.0077
O4O 0.0324 0.0246 0.0225 -0.0148 -0.0077 0.012
O4H 0.0324 0.0225 0.0246 -0.0148 -0.012 0.0077
O4E 0.0225 0.0246 0.0324 -0.012 -0.0077 0.0148
O4GD 0.0324 0.0246 0.0225 -0.0148 -0.0077 0.012
O4B 0.0246 0.0324 0.0225 -0.0077 -0.0148 0.012
O4KD 0.0246 0.0225 0.0324 -0.0077 -0.012 0.0148
O4OD 0.0225 0.0324 0.0246 -0.012 -0.0148 0.0077
O4D 0.0225 0.0246 0.0324 -0.012 0.0077 -0.0148
O4A 0.0246 0.0324 0.0225 -0.0077 0.0148 -0.012
O4HD 0.0246 0.0225 0.0324 -0.0077 0.012 -0.0148
O4J 0.0324 0.0225 0.0246 -0.0148 0.012 -0.0077
O4ND 0.0225 0.0324 0.0246 -0.012 0.0148 -0.0077
O4ED 0.0324 0.0246 0.0225 -0.0148 0.0077 -0.012
O4AA 0.0246 0.0324 0.0225 0.0077 0.0148 0.012
O4IA 0.0324 0.0225 0.0246 0.0148 0.012 0.0077
O4JE 0.0225 0.0324 0.0246 0.012 0.0148 0.0077
O4EA 0.0225 0.0246 0.0324 0.012 0.0077 0.0148
O4DE 0.0324 0.0246 0.0225 0.0148 0.0077 0.012
O4GE 0.0246 0.0225 0.0324 0.0077 0.012 0.0148
O4PD 0.0246 0.0324 0.0225 0.0077 -0.0148 -0.012
O4YD 0.0324 0.0225 0.0246 0.0148 -0.012 -0.0077
O4SA 0.0225 0.0324 0.0246 0.012 -0.0148 -0.0077
O4VD 0.0225 0.0246 0.0324 0.012 -0.0077 -0.0148
O4JA 0.0324 0.0246 0.0225 0.0148 -0.0077 -0.012
O4PA 0.0246 0.0225 0.0324 0.0077 -0.012 -0.0148
O4HA 0.0324 0.0225 0.0246 -0.0148 0.012 -0.0077
O4IF 0.0225 0.0324 0.0246 0.012 -0.0148 -0.0077
O4RB 0.0225 0.0324 0.0246 -0.012 0.0148 -0.0077
O4CB 0.0225 0.0246 0.0324 0.012 0.0077 0.0148
O4RE 0.0225 0.0246 0.0324 -0.012 0.0077 -0.0148
O4XD 0.0324 0.0225 0.0246 -0.0148 -0.012 0.0077
O4PB 0.0225 0.0324 0.0246 0.012 0.0148 0.0077
O4KF 0.0225 0.0324 0.0246 -0.012 -0.0148 0.0077
O4TE 0.0225 0.0246 0.0324 0.012 -0.0077 -0.0148
O4AB 0.0225 0.0246 0.0324 -0.012 -0.0077 0.0148
O4G 0.0225 0.0246 0.0324 0.012 0.0077 0.0148
O4FD 0.0324 0.0246 0.0225 0.0148 0.0077 0.012
O5HA 0.0343 0.0266 0.03 -0.018 -0.0169 0.0125
O5IF 0.0266 0.0343 0.03 -0.0169 -0.018 0.0125
O5GE 0.03 0.0266 0.0343 -0.0125 -0.0169 0.018
O5CB 0.0266 0.03 0.0343 -0.0169 -0.0125 0.018
O5ED 0.0343 0.03 0.0266 -0.018 -0.0125 0.0169
O5UC 0.03 0.0343 0.0266 -0.0125 0.018 -0.0169
O5XD 0.0343 0.0266 0.03 -0.018 0.0169 -0.0125
O5PB 0.0266 0.0343 0.03 -0.0169 0.018 -0.0125
O5PA 0.03 0.0266 0.0343 -0.0125 0.0169 -0.018
O5TE 0.0266 0.03 0.0343 -0.0169 0.0125 -0.018
O5O 0.0343 0.03 0.0266 -0.018 0.0125 -0.0169
O5I 0.0343 0.0266 0.03 0.018 0.0169 0.0125
O5YB 0.0266 0.03 0.0343 0.0169 0.0125 0.018
O5BE 0.0343 0.03 0.0266 0.018 0.0125 0.0169
O5HG 0.0266 0.0343 0.03 0.0169 0.018 0.0125
O5Y 0.03 0.0343 0.0266 0.0125 0.018 0.0169
O5KD 0.03 0.0266 0.0343 0.0125 0.0169 0.018
O5BD 0.0343 0.0266 0.03 -0.018 -0.0169 0.0125
O5SF 0.0266 0.03 0.0343 -0.0169 -0.0125 0.018
O5KA 0.0343 0.03 0.0266 -0.018 -0.0125 0.0169
O5OC 0.0266 0.0343 0.03 -0.0169 -0.018 0.0125
O5PD 0.03 0.0343 0.0266 -0.0125 -0.018 0.0169
O5Q 0.03 0.0266 0.0343 -0.0125 -0.0169 0.018
O5MD 0.0266 0.0343 0.03 -0.0169 -0.018 0.0125
O5CG 0.03 0.0266 0.0343 -0.0125 -0.0169 0.018
O5VA 0.03 0.0343 0.0266 -0.0125 -0.018 0.0169
O5DC 0.0343 0.0266 0.03 -0.018 -0.0169 0.0125
O5AF 0.0343 0.03 0.0266 -0.018 -0.0125 0.0169
O5G 0.0266 0.03 0.0343 -0.0169 -0.0125 0.018
O5V 0.0266 0.0343 0.03 0.0169 0.018 0.0125
O5MC 0.03 0.0266 0.0343 0.0125 0.0169 0.018
O5OE 0.03 0.0343 0.0266 0.0125 0.018 0.0169
O5UF 0.0343 0.0266 0.03 0.018 0.0169 0.0125
O5HB 0.0343 0.03 0.0266 0.018 0.0125 0.0169
O5WC 0.0266 0.03 0.0343 0.0169 0.0125 0.018
O5F 0.0266 0.03 0.0343 -0.0169 0.0125 -0.018
O5YA 0.03 0.0343 0.0266 -0.0125 0.018 -0.0169
O5DG 0.03 0.0266 0.0343 -0.0125 0.0169 -0.018
O5CF 0.0343 0.03 0.0266 -0.018 0.0125 -0.0169
O5BC 0.0343 0.0266 0.03 -0.018 0.0169 -0.0125
O5LD 0.0266 0.0343 0.03 -0.0169 0.018 -0.0125
O5DD 0.0343 0.03 0.0266 0.018 0.0125 0.0169
O5JF 0.0266 0.0343 0.03 0.0169 0.018 0.0125
O5GA 0.0343 0.0266 0.03 0.018 0.0169 0.0125
O5AB 0.0266 0.03 0.0343 0.0169 0.0125 0.018
O5IE 0.03 0.0266 0.0343 0.0125 0.0169 0.018
O5A 0.03 0.0343 0.0266 0.0125 0.018 0.0169
O5JD 0.03 0.0266 0.0343 -0.0125 0.0169 -0.018
O5CD 0.0343 0.0266 0.03 0.018 -0.0169 -0.0125
O5H 0.0343 0.0266 0.03 -0.018 0.0169 -0.0125
O5T 0.0266 0.0343 0.03 -0.0169 0.018 -0.0125
O5OD 0.0266 0.0343 0.03 0.0169 -0.018 -0.0125
O5YC 0.0266 0.03 0.0343 -0.0169 -0.0125 0.018
O5D 0.0266 0.03 0.0343 0.0169 -0.0125 -0.018
O5N 0.0343 0.03 0.0266 0.018 -0.0125 -0.0169
O5AA 0.03 0.0343 0.0266 -0.0125 0.018 -0.0169
O5YD 0.0343 0.0266 0.03 0.018 0.0169 0.0125
O5RB 0.0266 0.0343 0.03 0.0169 0.018 0.0125
O5RE 0.0266 0.03 0.0343 0.0169 -0.0125 -0.018
O5IA 0.0343 0.0266 0.03 0.018 -0.0169 -0.0125
O5KF 0.0266 0.0343 0.03 0.0169 -0.018 -0.0125
O5VC 0.0266 0.03 0.0343 0.0169 -0.0125 -0.018
O5M 0.0343 0.03 0.0266 -0.018 -0.0125 0.0169
O5FD 0.0343 0.03 0.0266 0.018 -0.0125 -0.0169
O5SC 0.03 0.0343 0.0266 0.0125 0.018 0.0169
O5B 0.03 0.0343 0.0266 0.0125 -0.018 -0.0169
O5P 0.03 0.0266 0.0343 0.0125 -0.0169 -0.018
O5TC 0.03 0.0343 0.0266 0.0125 -0.018 -0.0169
O5S 0.03 0.0266 0.0343 0.0125 0.0169 0.018
O5HD 0.03 0.0266 0.0343 0.0125 -0.0169 -0.018
loop_
_geom_bond_atom_site_label_1
_geom_bond_atom_site_label_2
_geom_bond_site_symmetry_1
_geom_bond_site_symmetry_2
C1 H1 1_555 1_555
C2 C1 1_555 1_555
C3 C2 1_555 1_555
C4 C5 1_555 1_555
C5 C6 1_555 1_555
C6 H2 1_555 1_555
Cl1 Cu1 1_555 1_555
Cu1 O4 1_555 1_555
O1 W1 1_555 1_555
O2 W1 1_555 1_555
O3 P1 1_555 1_555
O4 C3 1_555 1_555
O5 C4 1_555 1_555
P1 O3C 1_555 1_555
W1 O3 1_555 1_555
C1F C2 1_555 1_555
C1I H1I 1_555 1_555
C1T H1T 1_555 1_555
C1Q H1Q 1_555 1_555
C1N H1N 1_555 1_555
C1M H1M 1_555 1_555
C1V H1V 1_555 1_555
C1P H1P 1_555 1_555
C1S H1S 1_555 1_555
C1O H1O 1_555 1_555
C1W H1W 1_555 1_555
C1H H1H 1_555 1_555
C1B H1B 1_555 1_555
C1E H1E 1_555 1_555
C1D H1D 1_555 1_555
C1J H1J 1_555 1_555
C1A H1A 1_555 1_555
C1AA H1AA 1_555 1_555
C1EA H1EA 1_555 1_555
C1IA H1IA 1_555 1_555
C1SA H1SA 1_555 1_555
C1PA H1PA 1_555 1_555
C1JA H1JA 1_555 1_555
H1F C1F 1_555 1_555
C2F C1F 1_555 1_555
C2I C1 1_555 1_555
C2Q C1T 1_555 1_555
C2N C1Q 1_555 1_555
C2T C1T 1_555 1_555
C2V C1M 1_555 1_555
C2P C1V 1_555 1_555
C2M C1M 1_555 1_555
C2O C1S 1_555 1_555
C2W C1O 1_555 1_555
C2S C1S 1_555 1_555
C2H C1H 1_555 1_555
C2B C1B 1_555 1_555
C2E C1H 1_555 1_555
C2D C1D 1_555 1_555
C2J C1J 1_555 1_555
C2A C1D 1_555 1_555
C2AA C1AA 1_555 1_555
C2EA C1EA 1_555 1_555
C2IA C1AA 1_555 1_555
C2PA C1SA 1_555 1_555
C2JA C1PA 1_555 1_555
C2SA C1SA 1_555 1_555
C3I C2I 1_555 1_555
C3F C2F 1_555 1_555
C3Q C2Q 1_555 1_555
C3T C2T 1_555 1_555
C3N C2N 1_555 1_555
C3V C2V 1_555 1_555
C3M C2M 1_555 1_555
C3P C2P 1_555 1_555
C3O C2O 1_555 1_555
C3S C2S 1_555 1_555
C3W C2W 1_555 1_555
C3H C2H 1_555 1_555
C3E C2E 1_555 1_555
C3B C2B 1_555 1_555
C3D C2D 1_555 1_555
C3A C2A 1_555 1_555
C3J C2J 1_555 1_555
C3AA C2AA 1_555 1_555
C3IA C2IA 1_555 1_555
C3EA C2EA 1_555 1_555
C3PA C2PA 1_555 1_555
C3SA C2SA 1_555 1_555
C3JA C2JA 1_555 1_555
C4HA C5HA 1_555 1_555
C4CB C5CB 1_555 1_555
C4PA C5PA 1_555 1_555
C4PB C5PB 1_555 1_555
C4O C5O 1_555 1_555
C4I C5I 1_555 1_555
C4YB C5YB 1_555 1_555
C4Y C5Y 1_555 1_555
C4OC C5OC 1_555 1_555
C4KA C5KA 1_555 1_555
C4Q C5Q 1_555 1_555
C4DC C5DC 1_555 1_555
C4VA C5VA 1_555 1_555
C4G C5G 1_555 1_555
C4V C5V 1_555 1_555
C4MC C5MC 1_555 1_555
C4HB C5HB 1_555 1_555
C4F C5F 1_555 1_555
C4YA C5YA 1_555 1_555
C4BC C5BC 1_555 1_555
C4AB C5AB 1_555 1_555
C4GA C5GA 1_555 1_555
C4A C5A 1_555 1_555
C5HA C6 1_555 1_555
C5CB C6HA 1_555 1_555
C5PA C6PB 1_555 1_555
C5PB C6PB 1_555 1_555
C5O C6O 1_555 1_555
C5I C6I 1_555 1_555
C5YB C6I 1_555 1_555
C5Y C6YB 1_555 1_555
C5OC C6KA 1_555 1_555
C5KA C6KA 1_555 1_555
C5Q C6Q 1_555 1_555
C5DC C6VA 1_555 1_555
C5VA C6VA 1_555 1_555
C5G C6G 1_555 1_555
C5V C6V 1_555 1_555
C5MC C6V 1_555 1_555
C5HB C6MC 1_555 1_555
C5F C6F 1_555 1_555
C5YA C6F 1_555 1_555
C5BC C6YA 1_555 1_555
C5AB C6GA 1_555 1_555
C5GA C6GA 1_555 1_555
C5A C6A 1_555 1_555
C6HA C5HA 1_555 1_555
C6CB C5 1_555 1_555
C6PB H2PB 1_555 1_555
C6O C5PB 1_555 1_555
C6PA C5PA 1_555 1_555
C6I H2I 1_555 1_555
C6YB C5YB 1_555 1_555
C6Y C5I 1_555 1_555
C6KA H2KA 1_555 1_555
C6Q C5KA 1_555 1_555
C6OC C5OC 1_555 1_555
C6VA H2VA 1_555 1_555
C6G C5VA 1_555 1_555
C6DC C5DC 1_555 1_555
C6V H2V 1_555 1_555
C6MC C5MC 1_555 1_555
C6HB C5V 1_555 1_555
C6F H2F 1_555 1_555
C6YA C5YA 1_555 1_555
C6BC C5F 1_555 1_555
C6GA H2GA 1_555 1_555
C6A C5GA 1_555 1_555
C6AB C5AB 1_555 1_555
H2HA C6HA 1_555 1_555
H2CB C6CB 1_555 1_555
H2O C6O 1_555 1_555
H2PA C6PA 1_555 1_555
H2YB C6YB 1_555 1_555
H2Y C6Y 1_555 1_555
H2Q C6Q 1_555 1_555
H2OC C6OC 1_555 1_555
H2G C6G 1_555 1_555
H2DC C6DC 1_555 1_555
H2MC C6MC 1_555 1_555
H2HB C6HB 1_555 1_555
H2YA C6YA 1_555 1_555
H2BC C6BC 1_555 1_555
H2A C6A 1_555 1_555
H2AB C6AB 1_555 1_555
Cl1I Cu1I 1_555 1_555
Cl1F Cu1F 1_555 1_555
Cl1H Cu1H 1_555 1_555
Cl1D Cu1D 1_555 1_555
Cl1HA Cu1HA 1_555 1_555
Cl1IA Cu1IA 1_555 1_555
Cl1G Cu1G 1_555 1_555
Cl1B Cu1B 1_555 1_555
Cl1A Cu1A 1_555 1_555
Cu1I O4I 1_555 1_555
Cu1V Cl1I 1_555 1_555
Cu1F O4F 1_555 1_555
Cu1O Cl1F 1_555 1_555
Cu1Q Cl1 1_555 1_555
Cu1H O4CD 1_555 1_555
Cu1T Cl1H 1_555 1_555
Cu1D O4YC 1_555 1_555
Cu1N Cl1D 1_555 1_555
Cu1AA Cl1 1_555 1_555
Cu1PA Cl1 1_555 1_555
Cu1HA O4YD 1_555 1_555
Cu1RB Cl1HA 1_555 1_555
Cu1CB Cl1D 1_555 1_555
Cu1IA O4IA 1_555 1_555
Cu1PB Cl1IA 1_555 1_555
Cu1AB Cl1F 1_555 1_555
Cu1G O4VC 1_555 1_555
Cu1M Cl1G 1_555 1_555
Cu1B O4SC 1_555 1_555
Cu1P Cl1B 1_555 1_555
Cu1A O4TC 1_555 1_555
Cu1S Cl1A 1_555 1_555
Cu1DC Cl1I 1_555 1_555
Cu1OC Cl1I 1_555 1_555
Cu1YB O5YB 1_555 1_555
Cu1MA O5BE 1_555 1_555
Cu1Y Cl1B 1_555 1_555
Cu1XB O5SF 1_555 1_555
Cu1KA O4DE 1_555 1_555
Cu1LC O5CG 1_555 1_555
Cu1VA O5VA 1_555 1_555
Cu1JB Cl1G 1_555 1_555
Cu1MC O5MC 1_555 1_555
Cu1XA O5OE 1_555 1_555
Cu1HB Cl1F 1_555 1_555
Cu1K O4ZC 1_555 1_555
Cu1W O4W 1_555 1_555
Cu1YA O5YA 1_555 1_555
Cu1KC O5DG 1_555 1_555
Cu1BC O5BC 1_555 1_555
Cu1QB O5JF 1_555 1_555
Cu1GA O5GA 1_555 1_555
Cu1NA Cl1A 1_555 1_555
Cu1EC Cl1H 1_555 1_555
Cu1QC Cl1H 1_555 1_555
Cu1E O4E 1_555 1_555
Cu1L O4GD 1_555 1_555
Cu1IB Cl1D 1_555 1_555
Cu1J O4J 1_555 1_555
Cu1U O4ND 1_555 1_555
Cu1UA Cl1IA 1_555 1_555
Cu1EA O4EA 1_555 1_555
Cu1SA Cl1HA 1_555 1_555
Cu1CA O4VD 1_555 1_555
Cu1JA O4JA 1_555 1_555
Cu1EB Cl1HA 1_555 1_555
O1D W1 1_555 1_555
O1N W1 1_555 1_555
O1U W1 1_555 1_555
O1H W1D 1_555 1_555
O1T W1D 1_555 1_555
O1P W1D 1_555 1_555
O1S W1K 1_555 1_555
O1A W1K 1_555 1_555
O1K W1K 1_555 1_555
O1C W1C 1_555 1_555
O1E W1C 1_555 1_555
O1L W1C 1_555 1_555
O1B W1B 1_555 1_555
O1G W1B 1_555 1_555
O1M W1B 1_555 1_555
O1W W1B 1_555 1_555
O1F W1A 1_555 1_555
O1O W1A 1_555 1_555
O1V W1A 1_555 1_555
O1Q W1H 1_555 1_555
O1I W1I 1_555 1_555
O1R W1J 1_555 1_555
O1J W1J 1_555 1_555
O2D W1D 1_555 1_555
O2K W1K 1_555 1_555
O2C W1C 1_555 1_555
O2B W1B 1_555 1_555
O2A W1A 1_555 1_555
O2H W1H 1_555 1_555
O2I W1I 1_555 1_555
O2J W1J 1_555 1_555
O2E W1E 1_555 1_555
O2F W1F 1_555 1_555
O2G W1G 1_555 1_555
O3C W1D 1_555 1_555
O3B P1 1_555 1_555
O3A P1 1_555 1_555
O3O P1 1_555 1_555
O3N P1 1_555 1_555
O3L P1 1_555 1_555
O3M P1 1_555 1_555
O4I C3I 1_555 1_555
O4MD C3I 1_555 1_555
O4F C3F 1_555 1_555
O4DD C3F 1_555 1_555
O4JD C3 1_555 1_555
O4UC Cu1 1_555 1_555
O4CD C3T 1_555 1_555
O4T C3T 1_555 1_555
O4YC C3N 1_555 1_555
O4N C3N 1_555 1_555
O4Q C3Q 1_555 1_555
O4BD C3V 1_555 1_555
O4VC C3M 1_555 1_555
O4M C3M 1_555 1_555
O4SC C3P 1_555 1_555
O4P C3P 1_555 1_555
O4V C3V 1_555 1_555
O4WC C3O 1_555 1_555
O4TC C3S 1_555 1_555
O4S C3S 1_555 1_555
O4ZC C3W 1_555 1_555
O4W C3W 1_555 1_555
O4O C3O 1_555 1_555
O4H C3H 1_555 1_555
O4E C3E 1_555 1_555
O4GD C3E 1_555 1_555
O4B C3B 1_555 1_555
O4KD C3B 1_555 1_555
O4OD C3H 1_555 1_555
O4D C3D 1_555 1_555
O4A C3A 1_555 1_555
O4HD C3A 1_555 1_555
O4J C3J 1_555 1_555
O4ND C3J 1_555 1_555
O4ED C3D 1_555 1_555
O4AA C3AA 1_555 1_555
O4IA C3IA 1_555 1_555
O4JE C3IA 1_555 1_555
O4EA C3EA 1_555 1_555
O4DE C3EA 1_555 1_555
O4GE C3AA 1_555 1_555
O4PD C3PA 1_555 1_555
O4YD C3SA 1_555 1_555
O4SA C3SA 1_555 1_555
O4VD C3JA 1_555 1_555
O4JA C3JA 1_555 1_555
O4PA C3PA 1_555 1_555
O4HA Cu1HA 1_555 1_555
O4IF Cu1RB 1_555 1_555
O4RB Cu1RB 1_555 1_555
O4CB Cu1CB 1_555 1_555
O4RE Cu1CB 1_555 1_555
O4XD Cu1IA 1_555 1_555
O4PB Cu1PB 1_555 1_555
O4KF Cu1PB 1_555 1_555
O4TE Cu1AB 1_555 1_555
O4AB Cu1AB 1_555 1_555
O4G Cu1G 1_555 1_555
O4FD Cu1M 1_555 1_555
O5HA C4HA 1_555 1_555
O5IF C4HA 1_555 1_555
O5GE C4 1_555 1_555
O5CB C4CB 1_555 1_555
O5ED C4CB 1_555 1_555
O5UC Cu1 1_555 1_555
O5XD C4PB 1_555 1_555
O5PB C4PB 1_555 1_555
O5PA C4PA 1_555 1_555
O5TE C4O 1_555 1_555
O5O C4O 1_555 1_555
O5I C4I 1_555 1_555
O5YB C4YB 1_555 1_555
O5BE C4YB 1_555 1_555
O5HG C4I 1_555 1_555
O5Y C4Y 1_555 1_555
O5KD C4Y 1_555 1_555
O5BD C4OC 1_555 1_555
O5SF C4KA 1_555 1_555
O5KA C4KA 1_555 1_555
O5OC C4OC 1_555 1_555
O5PD C4Q 1_555 1_555
O5Q C4Q 1_555 1_555
O5MD C4DC 1_555 1_555
O5CG C4VA 1_555 1_555
O5VA C4VA 1_555 1_555
O5DC C4DC 1_555 1_555
O5AF C4G 1_555 1_555
O5G C4G 1_555 1_555
O5V C4V 1_555 1_555
O5MC C4MC 1_555 1_555
O5OE C4MC 1_555 1_555
O5UF C4V 1_555 1_555
O5HB C4HB 1_555 1_555
O5WC C4HB 1_555 1_555
O5F C4F 1_555 1_555
O5YA C4YA 1_555 1_555
O5DG C4YA 1_555 1_555
O5CF C4F 1_555 1_555
O5BC C4BC 1_555 1_555
O5LD C4BC 1_555 1_555
O5DD C4AB 1_555 1_555
O5JF C4GA 1_555 1_555
O5GA C4GA 1_555 1_555
O5AB C4AB 1_555 1_555
O5IE C4A 1_555 1_555
O5A C4A 1_555 1_555
O5JD Cu1Q 1_555 1_555
O5CD Cu1H 1_555 1_555
O5H Cu1H 1_555 1_555
O5T Cu1T 1_555 1_555
O5OD Cu1T 1_555 1_555
O5YC Cu1D 1_555 1_555
O5D Cu1D 1_555 1_555
O5N Cu1N 1_555 1_555
O5AA Cu1AA 1_555 1_555
O5YD Cu1HA 1_555 1_555
O5RB Cu1RB 1_555 1_555
O5RE Cu1CB 1_555 1_555
O5IA Cu1IA 1_555 1_555
O5KF Cu1PB 1_555 1_555
O5VC Cu1G 1_555 1_555
O5M Cu1M 1_555 1_555
O5FD Cu1M 1_555 1_555
O5SC Cu1B 1_555 1_555
O5B Cu1B 1_555 1_555
O5P Cu1P 1_555 1_555
O5TC Cu1A 1_555 1_555
O5S Cu1S 1_555 1_555
O5HD Cu1S 1_555 1_555
W1D O1D 1_555 1_555
W1K O3 1_555 1_555
W1C O1T 1_555 1_555
W1B O3B 1_555 1_555
W1A O1A 1_555 1_555
W1H O1 1_555 1_555
W1I O1P 1_555 1_555
W1J O1C 1_555 1_555
W1E O3 1_555 1_555
W1F O1K 1_555 1_555
W1G O1G 1_555 1_555
Cu1 O5 1_555 1_555
W1 O3O 1_555 1_555
C1I C2F 1_555 1_555
C1I C2I 1_555 1_555
C1Q C2Q 1_555 1_555
C1N C2N 1_555 1_555
C1N C2T 1_555 1_555
C1V C2V 1_555 1_555
C1P C2P 1_555 1_555
C1P C2M 1_555 1_555
C1O C2O 1_555 1_555
C1W C2W 1_555 1_555
C1W C2S 1_555 1_555
C1B C2H 1_555 1_555
C1E C2B 1_555 1_555
C1E C2E 1_555 1_555
C1J C2D 1_555 1_555
C1A C2J 1_555 1_555
C1A C2A 1_555 1_555
C1EA C2AA 1_555 1_555
C1IA C2EA 1_555 1_555
C1IA C2IA 1_555 1_555
C1PA C2PA 1_555 1_555
C1JA C2JA 1_555 1_555
C1JA C2SA 1_555 1_555
C3Q O4UC 1_555 1_555
C4PA O5UC 1_555 1_555
C5CB C6CB 1_555 1_555
C5O C6PA 1_555 1_555
C5Y C6Y 1_555 1_555
C5Q C6OC 1_555 1_555
C5G C6DC 1_555 1_555
C5HB C6HB 1_555 1_555
C5BC C6BC 1_555 1_555
C5A C6AB 1_555 1_555
Cu1I O4BD 1_555 1_555
Cu1I O5I 1_555 1_555
Cu1I O5BD 1_555 1_555
Cu1V O4MD 1_555 1_555
Cu1V O4V 1_555 1_555
Cu1V O5MD 1_555 1_555
Cu1V O5V 1_555 1_555
Cu1F O4WC 1_555 1_555
Cu1F O5WC 1_555 1_555
Cu1F O5F 1_555 1_555
Cu1O O4DD 1_555 1_555
Cu1O O4O 1_555 1_555
Cu1O O5O 1_555 1_555
Cu1O O5DD 1_555 1_555
Cu1Q O4JD 1_555 1_555
Cu1Q O4Q 1_555 1_555
Cu1Q O5Q 1_555 1_555
Cu1H O4H 1_555 1_555
Cu1T O4T 1_555 1_555
Cu1T O4OD 1_555 1_555
Cu1D O4D 1_555 1_555
Cu1N O4N 1_555 1_555
Cu1N O4ED 1_555 1_555
Cu1N O5ED 1_555 1_555
Cu1AA O4AA 1_555 1_555
Cu1AA O4PD 1_555 1_555
Cu1AA O5PD 1_555 1_555
Cu1PA O4GE 1_555 1_555
Cu1PA O4PA 1_555 1_555
Cu1PA O5GE 1_555 1_555
Cu1PA O5PA 1_555 1_555
Cu1HA O5HA 1_555 1_555
Cu1RB O5IF 1_555 1_555
Cu1CB O5CB 1_555 1_555
Cu1IA O5XD 1_555 1_555
Cu1PB O5PB 1_555 1_555
Cu1AB O5TE 1_555 1_555
Cu1AB O5AB 1_555 1_555
Cu1G O5G 1_555 1_555
Cu1M O4M 1_555 1_555
Cu1B O4B 1_555 1_555
Cu1P O4P 1_555 1_555
Cu1P O4KD 1_555 1_555
Cu1P O5KD 1_555 1_555
Cu1A O4A 1_555 1_555
Cu1A O5A 1_555 1_555
Cu1S O4S 1_555 1_555
Cu1S O4HD 1_555 1_555
Cu1DC O5DC 1_555 1_555
Cu1DC O5UF 1_555 1_555
Cu1OC O5HG 1_555 1_555
Cu1OC O5OC 1_555 1_555
Cu1Y O5Y 1_555 1_555
Cu1KA O5KA 1_555 1_555
Cu1JB O5AF 1_555 1_555
Cu1HB O5HB 1_555 1_555
Cu1HB O5CF 1_555 1_555
Cu1W O5LD 1_555 1_555
Cu1NA O5IE 1_555 1_555
Cu1UA O4JE 1_555 1_555
Cu1SA O4SA 1_555 1_555
O1N W1K 1_555 1_555
O1U W1E 1_555 1_555
O1H W1H 1_555 1_555
O1S W1E 1_555 1_555
O1E W1E 1_555 1_555
O1L W1I 1_555 1_555
O1B W1I 1_555 1_555
O1M W1J 1_555 1_555
O1W W1F 1_555 1_555
O1F W1F 1_555 1_555
O1O W1H 1_555 1_555
O1V W1G 1_555 1_555
O1Q W1G 1_555 1_555
O1I W1G 1_555 1_555
O1R W1F 1_555 1_555
O1J W1E 1_555 1_555
O3C W1C 1_555 1_555
O3C W1I 1_555 1_555
O3B W1J 1_555 1_555
O3B W1F 1_555 1_555
O3A W1A 1_555 1_555
O3A W1H 1_555 1_555
O3A W1G 1_555 1_555
O3O W1D 1_555 1_555
O3O W1H 1_555 1_555
O3N W1K 1_555 1_555
O3N W1A 1_555 1_555
O3N W1F 1_555 1_555
O3L W1B 1_555 1_555
O3L W1I 1_555 1_555
O3L W1G 1_555 1_555
O3M W1C 1_555 1_555
O3M W1J 1_555 1_555
O3M W1E 1_555 1_555

#END
