
#######################################################################
#
#                 Cambridge Crystallographic Data Centre
#                                CCDC 
#
#######################################################################
#
# If this CIF has been generated from an entry in the Cambridge 
# Structural Database, then it will include bibliographic, chemical, 
# crystal, experimental, refinement or atomic coordinate data resulting 
# from the CCDC's data processing and validation procedures.
#
#######################################################################

data_ORUTAX
_chemical_formula_moiety         '(C36 H20 Co3 N8 O12)n'
_chemical_name_systematic        
catena-((\m~6~-benzene-1,2,4,5-tetracarboxylato)-bis(\m~4~-3,5-bis(imidazol-1-yl)benzoato)-tri-cobalt(ii))
_symmetry_cell_setting           triclinic
_symmetry_space_group_name_H-M   'P -1'
_symmetry_Int_Tables_number      2
_space_group_name_Hall           '-P 1'
loop_
_symmetry_equiv_pos_site_id
_symmetry_equiv_pos_as_xyz
1 x,y,z
2 -x,-y,-z
_cell_length_a                   8.683(6)
_cell_length_b                   9.849(6)
_cell_length_c                   10.927(7)
_cell_angle_alpha                71.60(2)
_cell_angle_beta                 73.81(3)
_cell_angle_gamma                86.83(3)
_cell_volume                     850.978
_exptl_crystal_colour            'dark violet'
_exptl_crystal_description       block
_cell_formula_units_Z            1
loop_
_atom_site_label
_atom_site_type_symbol
_atom_site_fract_x
_atom_site_fract_y
_atom_site_fract_z
Co1 Co 1.0000 0.0000 0.0000
Co2 Co 0.99219(3) -0.24196(3) -0.11612(3)
O1 O 0.93268(18) -0.02839(17) -0.15511(16)
O2 O 0.8307(3) 0.1203(3) -0.3076(2)
O3 O 0.86014(18) 0.17427(18) 0.01559(17)
O4 O 0.6529(2) 0.3140(2) 0.0434(2)
O5 O 1.1809(2) 0.15119(18) -0.13983(17)
O6 O 1.1728(2) 0.33242(19) -0.05471(18)
N1 N 1.7165(2) 0.5939(2) -0.3099(2)
N2 N 1.8542(3) 0.7085(2) -0.2306(2)
N3 N 1.6684(2) 0.2505(2) -0.5328(2)
N4 N 1.8131(2) 0.2229(2) -0.7222(2)
C1 C 1.6010(3) 0.3162(3) -0.4305(2)
C2 C 1.6872(3) 0.4236(3) -0.4203(2)
H1 H 1.7867 0.4558 -0.4809
C3 C 1.6230(3) 0.4826(3) -0.3186(2)
C4 C 1.4767(3) 0.4356(3) -0.2262(2)
H2 H 1.4347 0.4769 -0.1588
C5 C 1.3935(3) 0.3246(2) -0.2366(2)
C6 C 1.4562(3) 0.2657(3) -0.3389(2)
H3 H 1.4000 0.1918 -0.3456
C7 C 1.7651(3) 0.3140(3) -0.6552(3)
H4 H 1.7947 0.4109 -0.6886
C8 C 1.7441(4) 0.0927(3) -0.6367(3)
H5 H 1.7561 0.0072 -0.6570
C9 C 1.6566(4) 0.1075(3) -0.5190(3)
H6 H 1.5997 0.0357 -0.4438
C10 C 1.7537(3) 0.5996(3) -0.2001(3)
H7 H 1.7141 0.5354 -0.1144
C11 C 1.8810(4) 0.7748(3) -0.3655(3)
H8 H 1.9471 0.8558 -0.4153
C12 C 1.7975(4) 0.7052(3) -0.4152(3)
H9 H 1.7953 0.7283 -0.5041
C13 C 1.2356(3) 0.2647(3) -0.1365(2)
C14 C 0.6556(3) 0.0251(3) -0.0896(2)
C15 C 0.6077(3) 0.0985(2) 0.0048(2)
C16 C 0.5462(3) -0.0728(3) -0.0917(3)
H10 H 0.5778 -0.1224 -0.1537
C17 C 0.8165(3) 0.0451(3) -0.1937(3)
C18 C 0.7127(3) 0.2060(3) 0.0212(2)
Co1_2 Co 0.0000 0.0000 0.0000
Co2A Co 0.00781(3) 0.24196(3) 0.11612(3)
Co2A_2 Co 1.00781(3) 0.24196(3) 0.11612(3)
Co2_2 Co 1.99219(3) 0.75804(3) -0.11612(3)
Co2A_3 Co 2.00781(3) 0.24196(3) -0.88388(3)
Co2_3 Co -0.00781(3) -0.24196(3) -0.11612(3)
Co2A_4 Co 0.00781(3) -0.75804(3) 0.11612(3)
Co2_4 Co -0.00781(3) -0.24196(3) 0.88388(3)
O1A O 0.06732(18) 0.02839(17) 0.15511(16)
O1A_2 O 1.06732(18) 0.02839(17) 0.15511(16)
O2A O 0.1693(3) -0.1203(3) 0.3076(2)
O3A O 0.13986(18) -0.17427(18) -0.01559(17)
O3A_2 O 1.13986(18) -0.17427(18) -0.01559(17)
O3_2 O -0.13986(18) 0.17427(18) 0.01559(17)
O4A O 0.3471(2) -0.3140(2) -0.0434(2)
O5A O 0.8191(2) -0.15119(18) 0.13983(17)
O6A O 0.8272(2) -0.33242(19) 0.05471(18)
O6_2 O 0.1728(2) 0.33242(19) -0.05471(18)
N1A N 0.2835(2) -0.5939(2) 0.3099(2)
N2A N 0.1458(3) -0.7085(2) 0.2306(2)
N2_2 N 0.8542(3) -0.2915(2) -0.2306(2)
N2A_2 N 0.1458(3) 0.2915(2) 0.2306(2)
N3A N 0.3316(2) -0.2505(2) 0.5328(2)
N4A N 0.1869(2) -0.2229(2) 0.7222(2)
N4A_2 N 1.1869(2) -0.2229(2) -0.2778(2)
N4_2 N -0.1869(2) 0.2229(2) 0.2778(2)
C1A C 0.3990(3) -0.3162(3) 0.4305(2)
C2A C 0.3128(3) -0.4236(3) 0.4203(2)
H1A H 0.2133 -0.4558 0.4809
C3A C 0.3770(3) -0.4826(3) 0.3186(2)
C4A C 0.5233(3) -0.4356(3) 0.2262(2)
H2A H 0.5653 -0.4769 0.1588
C5A C 0.6065(3) -0.3246(2) 0.2366(2)
C6A C 0.5438(3) -0.2657(3) 0.3389(2)
H3A H 0.6000 -0.1918 0.3456
C7A C 0.2349(3) -0.3140(3) 0.6552(3)
H4A H 0.2053 -0.4109 0.6886
C8A C 0.2559(4) -0.0927(3) 0.6367(3)
H5A H 0.2439 -0.0072 0.6570
C9A C 0.3434(4) -0.1075(3) 0.5190(3)
H6A H 0.4003 -0.0357 0.4438
C10A C 0.2463(3) -0.5996(3) 0.2001(3)
H7A H 0.2859 -0.5354 0.1144
C11A C 0.1190(4) -0.7748(3) 0.3655(3)
H8A H 0.0529 -0.8558 0.4153
C12A C 0.2025(4) -0.7052(3) 0.4152(3)
H9A H 0.2047 -0.7283 0.5041
C13A C 0.7644(3) -0.2647(3) 0.1365(2)
C14A C 0.3444(3) -0.0251(3) 0.0896(2)
C15A C 0.3923(3) -0.0985(2) -0.0048(2)
C16A C 0.4538(3) 0.0728(3) 0.0917(3)
H10A H 0.4222 0.1224 0.1537
C17A C 0.1835(3) -0.0451(3) 0.1937(3)
C18A C 0.2873(3) -0.2060(3) -0.0212(2)
loop_
_geom_bond_atom_site_label_1
_geom_bond_atom_site_label_2
_geom_bond_site_symmetry_1
_geom_bond_site_symmetry_2
Co1 O1 1_555 1_555
Co2 O1 1_555 1_555
O1 C17 1_555 1_555
O2 C17 1_555 1_555
O3 Co1 1_555 1_555
O4 C18 1_555 1_555
O5 Co1 1_555 1_555
O6 C13 1_555 1_555
N1 C3 1_555 1_555
N2 C10 1_555 1_555
N3 C1 1_555 1_555
N4 C7 1_555 1_555
C1 C2 1_555 1_555
C2 H1 1_555 1_555
C3 C2 1_555 1_555
C4 C3 1_555 1_555
H2 C4 1_555 1_555
C5 C4 1_555 1_555
C6 C1 1_555 1_555
H3 C6 1_555 1_555
C7 N3 1_555 1_555
H4 C7 1_555 1_555
C8 N4 1_555 1_555
H5 C8 1_555 1_555
C9 N3 1_555 1_555
H6 C9 1_555 1_555
C10 N1 1_555 1_555
H7 C10 1_555 1_555
C11 N2 1_555 1_555
H8 C11 1_555 1_555
C12 N1 1_555 1_555
H9 C12 1_555 1_555
C13 O5 1_555 1_555
C14 C15 1_555 1_555
C15 C18 1_555 1_555
C16 C14 1_555 1_555
H10 C16 1_555 1_555
C17 C14 1_555 1_555
C18 O3 1_555 1_555
Co1_2 O1A 1_555 1_555
Co2A O1A 1_555 1_555
Co2A_2 O3 1_555 1_555
Co2_2 N2 1_555 1_555
Co2A_3 N4 1_555 1_555
Co2_3 O3A 1_555 1_555
Co2A_4 N2A 1_555 1_555
Co2_4 N4A 1_555 1_555
O1A C17A 1_555 1_555
O1A_2 Co1 1_555 1_555
O2A C17A 1_555 1_555
O3A Co1_2 1_555 1_555
O3A_2 Co1 1_555 1_555
O3_2 Co1_2 1_555 1_555
O4A C18A 1_555 1_555
O5A Co1 1_555 1_555
O6A Co2 1_555 1_555
O6_2 Co2A 1_555 1_555
N1A C3A 1_555 1_555
N2A C10A 1_555 1_555
N2_2 Co2 1_555 1_555
N2A_2 Co2A 1_555 1_555
N3A C1A 1_555 1_555
N4A C7A 1_555 1_555
N4A_2 Co2 1_555 1_555
N4_2 Co2A 1_555 1_555
C1A C2A 1_555 1_555
C2A H1A 1_555 1_555
C3A C2A 1_555 1_555
C4A C3A 1_555 1_555
H2A C4A 1_555 1_555
C5A C4A 1_555 1_555
C6A C1A 1_555 1_555
H3A C6A 1_555 1_555
C7A N3A 1_555 1_555
H4A C7A 1_555 1_555
C8A N4A 1_555 1_555
H5A C8A 1_555 1_555
C9A N3A 1_555 1_555
H6A C9A 1_555 1_555
C10A N1A 1_555 1_555
H7A C10A 1_555 1_555
C11A N2A 1_555 1_555
H8A C11A 1_555 1_555
C12A N1A 1_555 1_555
H9A C12A 1_555 1_555
C13A O5A 1_555 1_555
C14A C15A 1_555 1_555
C15A C16 1_555 1_555
C16A C15 1_555 1_555
H10A C16A 1_555 1_555
C17A C14A 1_555 1_555
C18A O3A 1_555 1_555
Co2 O3A_2 1_555 1_555
O6 Co2A_2 1_555 1_555
C5 C6 1_555 1_555
C5 C13 1_555 1_555
C8 C9 1_555 1_555
C11 C12 1_555 1_555
Co2A O3_2 1_555 1_555
Co2A_2 O1A_2 1_555 1_555
O6A C13A 1_555 1_555
C5A C6A 1_555 1_555
C5A C13A 1_555 1_555
C8A C9A 1_555 1_555
C11A C12A 1_555 1_555
C14A C16A 1_555 1_555
C15A C18A 1_555 1_555

#END
