
#######################################################################
#
#                 Cambridge Crystallographic Data Centre
#                                CCDC 
#
#######################################################################
#
# If this CIF has been generated from an entry in the Cambridge 
# Structural Database, then it will include bibliographic, chemical, 
# crystal, experimental, refinement or atomic coordinate data resulting 
# from the CCDC's data processing and validation procedures.
#
#######################################################################

data_MALFUD
_chemical_formula_moiety         '(C44 H42 Cu4 N12 O11)n,10n(H2 O1)'
_chemical_name_systematic        
'catena-[(\m-oxo)-bis(\m-hydroxo)-tetrakis(\m-4-(3,5-dimethyl-4H-1,2,4-triazol-4-yl)benzoato)-tetra-copper decahydrate]'
_symmetry_cell_setting           tetragonal
_symmetry_space_group_name_H-M   'P -4 21 c'
_symmetry_Int_Tables_number      114
_space_group_name_Hall           'P -4 2n'
loop_
_symmetry_equiv_pos_site_id
_symmetry_equiv_pos_as_xyz
1 x,y,z
2 -x,-y,z
3 1/2+x,1/2-y,1/2-z
4 1/2-x,1/2+y,1/2-z
5 1/2+y,1/2+x,1/2+z
6 1/2-y,1/2-x,1/2+z
7 -y,x,-z
8 y,-x,-z
_cell_length_a                   17.2544(16)
_cell_length_b                   17.2544(16)
_cell_length_c                   15.3517(16)
_cell_angle_alpha                90
_cell_angle_beta                 90
_cell_angle_gamma                90
_cell_volume                     4570.42
_exptl_crystal_colour            blue
_exptl_crystal_description       prism
_cell_formula_units_Z            2
loop_
_atom_site_label
_atom_site_type_symbol
_atom_site_fract_x
_atom_site_fract_y
_atom_site_fract_z
C1 C 0.3052(5) 0.5687(5) 0.3013(6)
C2 C 0.2556(5) 0.6194(5) 0.2466(7)
C3 C 0.1945(6) 0.5911(6) 0.1983(8)
H1 H 0.1839 0.5377 0.2001
C4 C 0.1483(6) 0.6379(5) 0.1473(7)
H2 H 0.1092 0.6167 0.1120
C5 C 0.1613(5) 0.7168(5) 0.1498(6)
C6 C 0.2193(5) 0.7470(5) 0.1963(7)
H3 H 0.2276 0.8009 0.1959
C7 C 0.2677(5) 0.6991(5) 0.2456(7)
H4 H 0.3084 0.7207 0.2781
C8 C -0.0091(6) 0.7518(7) 0.1943(7)
H5 H 0.0256 0.7410 0.2425
H6 H -0.0335 0.7041 0.1754
H7 H -0.0485 0.7883 0.2129
C9 C 0.0361(5) 0.7860(5) 0.1203(5)
C10 C 0.1309(5) 0.8135(5) 0.0336(6)
C11 C 0.2075(5) 0.8158(7) -0.0080(8)
H8 H 0.2088 0.8575 -0.0504
H9 H 0.2172 0.7668 -0.0371
H10 H 0.2470 0.8246 0.0359
N1 N 0.0108(3) 0.8382(4) 0.0679(4)
N2 N 0.0713(4) 0.8546(4) 0.0113(4)
N3 N 0.1108(4) 0.7679(4) 0.1029(4)
O1 O 0.5000 0.5000 0.5000
O2 O 0.5000 0.5000 0.3307(5)
O3 O 0.3661(3) 0.5986(3) 0.3284(4)
O4 O 0.2839(5) 0.5014(4) 0.3178(6)
Cu1 Cu 0.43218(4) 0.54997(4) 0.41692(6)
C1A C 0.6948(5) 0.4313(5) 0.3013(6)
C2A C 0.7444(5) 0.3806(5) 0.2466(7)
C3A C 0.8055(6) 0.4089(6) 0.1983(8)
H1A H 0.8161 0.4623 0.2001
C4A C 0.8517(6) 0.3621(5) 0.1473(7)
H2A H 0.8908 0.3833 0.1120
C5A C 0.8387(5) 0.2832(5) 0.1498(6)
C6A C 0.7807(5) 0.2530(5) 0.1963(7)
H3A H 0.7724 0.1991 0.1959
C7A C 0.7323(5) 0.3009(5) 0.2456(7)
H4A H 0.6916 0.2793 0.2781
C8A C 1.0091(6) 0.2482(7) 0.1943(7)
H5A H 0.9744 0.2590 0.2425
H6A H 1.0335 0.2959 0.1754
H7A H 1.0485 0.2117 0.2129
C9A C 0.9639(5) 0.2140(5) 0.1203(5)
C10A C 0.8691(5) 0.1865(5) 0.0336(6)
C11A C 0.7925(5) 0.1842(7) -0.0080(8)
H8A H 0.7912 0.1425 -0.0504
H9A H 0.7828 0.2332 -0.0371
H10A H 0.7530 0.1754 0.0359
N1A N 0.9892(3) 0.1618(4) 0.0679(4)
N2A N 0.9287(4) 0.1454(4) 0.0113(4)
N3A N 0.8892(4) 0.2321(4) 0.1029(4)
O3A O 0.6339(3) 0.4014(3) 0.3284(4)
O4A O 0.7161(5) 0.4986(4) 0.3178(6)
Cu1A Cu 0.56782(4) 0.45003(4) 0.41692(6)
C1F C 0.4313(5) 0.3052(5) 0.6987(6)
C2F C 0.3806(5) 0.2556(5) 0.7534(7)
C3F C 0.4089(6) 0.1945(6) 0.8017(8)
H1F H 0.4623 0.1839 0.7999
C4F C 0.3621(5) 0.1483(6) 0.8527(7)
H2F H 0.3833 0.1092 0.8880
C5F C 0.2832(5) 0.1613(5) 0.8502(6)
C6F C 0.2530(5) 0.2193(5) 0.8037(7)
H3F H 0.1991 0.2276 0.8041
C7F C 0.3009(5) 0.2677(5) 0.7544(7)
H4F H 0.2793 0.3084 0.7219
C8F C 0.2482(7) -0.0091(6) 0.8057(7)
H5F H 0.2590 0.0256 0.7575
H6F H 0.2959 -0.0335 0.8246
H7F H 0.2117 -0.0485 0.7871
C9F C 0.2140(5) 0.0361(5) 0.8797(5)
C10F C 0.1865(5) 0.1309(5) 0.9664(6)
C11F C 0.1842(7) 0.2075(5) 1.0080(8)
H8F H 0.1425 0.2088 1.0504
H9F H 0.2332 0.2172 1.0371
H10F H 0.1754 0.2470 0.9641
N1F N 0.1618(4) 0.0108(3) 0.9321(4)
N2F N 0.1454(4) 0.0713(4) 0.9887(4)
N3F N 0.2321(4) 0.1108(4) 0.8971(4)
O2F O 0.5000 0.5000 0.6693(5)
O3F O 0.4014(3) 0.3661(3) 0.6716(4)
O4F O 0.4986(4) 0.2839(5) 0.6822(6)
Cu1F Cu 0.45003(4) 0.43218(4) 0.58308(6)
C1G C 0.5687(5) 0.6948(5) 0.6987(6)
C2G C 0.6194(5) 0.7444(5) 0.7534(7)
C3G C 0.5911(6) 0.8055(6) 0.8017(8)
H1G H 0.5377 0.8161 0.7999
C4G C 0.6379(5) 0.8517(6) 0.8527(7)
H2G H 0.6167 0.8908 0.8880
C5G C 0.7168(5) 0.8387(5) 0.8502(6)
C6G C 0.7470(5) 0.7807(5) 0.8037(7)
H3G H 0.8009 0.7724 0.8041
C7G C 0.6991(5) 0.7323(5) 0.7544(7)
H4G H 0.7207 0.6916 0.7219
C8G C 0.7518(7) 1.0091(6) 0.8057(7)
H5G H 0.7410 0.9744 0.7575
H6G H 0.7041 1.0335 0.8246
H7G H 0.7883 1.0485 0.7871
C9G C 0.7860(5) 0.9639(5) 0.8797(5)
C10G C 0.8135(5) 0.8691(5) 0.9664(6)
C11G C 0.8158(7) 0.7925(5) 1.0080(8)
H8G H 0.8575 0.7912 1.0504
H9G H 0.7668 0.7828 1.0371
H10G H 0.8246 0.7530 0.9641
N1G N 0.8382(4) 0.9892(3) 0.9321(4)
N2G N 0.8546(4) 0.9287(4) 0.9887(4)
N3G N 0.7679(4) 0.8892(4) 0.8971(4)
O3G O 0.5986(3) 0.6339(3) 0.6716(4)
O4G O 0.5014(4) 0.7161(5) 0.6822(6)
Cu1G Cu 0.54997(4) 0.56782(4) 0.58308(6)
N1B N 0.5108(3) 0.6618(4) 0.4321(4)
N1C N 0.4892(3) 0.3382(4) 0.4321(4)
N1D N 0.3382(4) 0.5108(3) 0.5679(4)
N1E N 0.6618(4) 0.4892(3) 0.5679(4)
N2B N 0.5713(4) 0.6454(4) 0.4887(4)
N2C N 0.4287(4) 0.3546(4) 0.4887(4)
N2D N 0.3546(4) 0.5713(4) 0.5113(4)
N2E N 0.6454(4) 0.4287(4) 0.5113(4)
Cu1B Cu -0.06782(4) 0.95003(4) 0.08308(6)
Cu1B_2 Cu 0.93218(4) 0.95003(4) 1.08308(6)
Cu1C Cu 0.06782(4) 0.04997(4) 1.08308(6)
Cu1C_2 Cu 1.06782(4) 0.04997(4) 0.08308(6)
Cu1D Cu 0.04997(4) -0.06782(4) 0.91692(6)
Cu1D_2 Cu 0.04997(4) 0.93218(4) -0.08308(6)
Cu1E Cu 0.95003(4) 0.06782(4) -0.08308(6)
Cu1E_2 Cu 0.95003(4) 1.06782(4) 0.91692(6)
O5 O 0.9031(6) 0.8950(7) 0.7439(11)
O6? O 0.5000 0.0000 0.388(2)
O7? O 0.3487(15) 0.0692(16) 0.6028(18)
O8? O 0.4682(15) 0.1616(15) 0.5479(16)
O9? O 0.490(3) 0.970(3) 0.220(3)
O10? O 0.411(3) 0.927(3) 0.477(3)
O11? O 0.3442(17) 0.9036(17) 0.2045(19)
O12? O 0.307(2) 0.873(2) 0.364(2)
O13? O 0.1914(18) 0.1307(18) 0.601(2)
loop_
_geom_bond_atom_site_label_1
_geom_bond_atom_site_label_2
_geom_bond_site_symmetry_1
_geom_bond_site_symmetry_2
C1 C2 1_555 1_555
C2 C3 1_555 1_555
C3 H1 1_555 1_555
C4 C3 1_555 1_555
H2 C4 1_555 1_555
C5 C4 1_555 1_555
C6 C5 1_555 1_555
H3 C6 1_555 1_555
C7 C2 1_555 1_555
H4 C7 1_555 1_555
C8 H5 1_555 1_555
H6 C8 1_555 1_555
H7 C8 1_555 1_555
C9 C8 1_555 1_555
C10 C11 1_555 1_555
C11 H8 1_555 1_555
H9 C11 1_555 1_555
H10 C11 1_555 1_555
N1 C9 1_555 1_555
N2 C10 1_555 1_555
N3 C5 1_555 1_555
O1 Cu1 1_555 1_555
O2 Cu1 1_555 1_555
O3 C1 1_555 1_555
O4 C1 1_555 1_555
Cu1 O3 1_555 1_555
C1A C2A 1_555 1_555
C2A C3A 1_555 1_555
C3A H1A 1_555 1_555
C4A C3A 1_555 1_555
H2A C4A 1_555 1_555
C5A C4A 1_555 1_555
C6A C5A 1_555 1_555
H3A C6A 1_555 1_555
C7A C2A 1_555 1_555
H4A C7A 1_555 1_555
C8A H5A 1_555 1_555
H6A C8A 1_555 1_555
H7A C8A 1_555 1_555
C9A C8A 1_555 1_555
C10A C11A 1_555 1_555
C11A H8A 1_555 1_555
H9A C11A 1_555 1_555
H10A C11A 1_555 1_555
N1A C9A 1_555 1_555
N2A C10A 1_555 1_555
N3A C5A 1_555 1_555
O3A C1A 1_555 1_555
O4A C1A 1_555 1_555
Cu1A O1 1_555 1_555
C1F C2F 1_555 1_555
C2F C3F 1_555 1_555
C3F H1F 1_555 1_555
C4F C3F 1_555 1_555
H2F C4F 1_555 1_555
C5F C4F 1_555 1_555
C6F C5F 1_555 1_555
H3F C6F 1_555 1_555
C7F C2F 1_555 1_555
H4F C7F 1_555 1_555
C8F H5F 1_555 1_555
H6F C8F 1_555 1_555
H7F C8F 1_555 1_555
C9F C8F 1_555 1_555
C10F C11F 1_555 1_555
C11F H8F 1_555 1_555
H9F C11F 1_555 1_555
H10F C11F 1_555 1_555
N1F C9F 1_555 1_555
N2F C10F 1_555 1_555
N3F C5F 1_555 1_555
O2F Cu1F 1_555 1_555
O3F C1F 1_555 1_555
O4F C1F 1_555 1_555
Cu1F O1 1_555 1_555
C1G C2G 1_555 1_555
C2G C3G 1_555 1_555
C3G H1G 1_555 1_555
C4G C3G 1_555 1_555
H2G C4G 1_555 1_555
C5G C4G 1_555 1_555
C6G C5G 1_555 1_555
H3G C6G 1_555 1_555
C7G C2G 1_555 1_555
H4G C7G 1_555 1_555
C8G H5G 1_555 1_555
H6G C8G 1_555 1_555
H7G C8G 1_555 1_555
C9G C8G 1_555 1_555
C10G C11G 1_555 1_555
C11G H8G 1_555 1_555
H9G C11G 1_555 1_555
H10G C11G 1_555 1_555
N1G C9G 1_555 1_555
N2G C10G 1_555 1_555
N3G C5G 1_555 1_555
O3G C1G 1_555 1_555
O4G C1G 1_555 1_555
Cu1G O1 1_555 1_555
N1B Cu1 1_555 1_555
N1C Cu1A 1_555 1_555
N1D Cu1F 1_555 1_555
N1E Cu1G 1_555 1_555
N2B Cu1G 1_555 1_555
N2C Cu1F 1_555 1_555
N2D Cu1 1_555 1_555
N2E Cu1A 1_555 1_555
Cu1B N1 1_555 1_555
Cu1B_2 N2G 1_555 1_555
Cu1C N2F 1_555 1_555
Cu1C_2 N1A 1_555 1_555
Cu1D N1F 1_555 1_555
Cu1D_2 N2 1_555 1_555
Cu1E N2A 1_555 1_555
Cu1E_2 N1G 1_555 1_555
C6 C7 1_555 1_555
C9 N3 1_555 1_555
C10 N3 1_555 1_555
N1 N2 1_555 1_555
O2 Cu1A 1_555 1_555
C6A C7A 1_555 1_555
C9A N3A 1_555 1_555
C10A N3A 1_555 1_555
N1A N2A 1_555 1_555
O3A Cu1A 1_555 1_555
C6F C7F 1_555 1_555
C9F N3F 1_555 1_555
C10F N3F 1_555 1_555
N1F N2F 1_555 1_555
O2F Cu1G 1_555 1_555
O3F Cu1F 1_555 1_555
C6G C7G 1_555 1_555
C9G N3G 1_555 1_555
C10G N3G 1_555 1_555
N1G N2G 1_555 1_555
O3G Cu1G 1_555 1_555
N1B N2B 1_555 1_555
N1C N2C 1_555 1_555
N1D N2D 1_555 1_555
N1E N2E 1_555 1_555

#END
