
#######################################################################
#
#                 Cambridge Crystallographic Data Centre
#                                CCDC 
#
#######################################################################
#
# If this CIF has been generated from an entry in the Cambridge 
# Structural Database, then it will include bibliographic, chemical, 
# crystal, experimental, refinement or atomic coordinate data resulting 
# from the CCDC's data processing and validation procedures.
#
#######################################################################

data_ZOZHON
_chemical_formula_moiety         '(C36 H18 Co1 N6 O12 Pr1)n,22(H2 O1)'
_chemical_name_systematic        
"catena-(tris(\m-2,2'-Bipyridine-4,4'-dicarboxylato)-cobalt(iii)-praseodymium(iii) docosahydrate)"
_symmetry_cell_setting           orthorhombic
_symmetry_space_group_name_H-M   'F d d d'
_symmetry_Int_Tables_number      70
_space_group_name_Hall           '-F 2uv 2vw'
loop_
_symmetry_equiv_pos_site_id
_symmetry_equiv_pos_as_xyz
1 x,y,z
2 1/4-x,3/4-y,1/2+z
3 x,1/4-y,1/4-z
4 1/4-x,y,1/4-z
5 x,1/2+y,1/2+z
6 1/4-x,1/4-y,z
7 x,3/4-y,3/4-z
8 1/4-x,1/2+y,3/4-z
9 1/2+x,y,1/2+z
10 3/4-x,3/4-y,z
11 1/2+x,1/4-y,3/4-z
12 3/4-x,y,3/4-z
13 1/2+x,1/2+y,z
14 3/4-x,1/4-y,1/2+z
15 1/2+x,3/4-y,1/4-z
16 3/4-x,1/2+y,1/4-z
17 -x,-y,-z
18 3/4+x,1/4+y,1/2-z
19 -x,3/4+y,3/4+z
20 3/4+x,-y,3/4+z
21 -x,1/2-y,1/2-z
22 3/4+x,3/4+y,-z
23 -x,1/4+y,1/4+z
24 3/4+x,1/2-y,1/4+z
25 1/2-x,-y,1/2-z
26 1/4+x,1/4+y,-z
27 1/2-x,3/4+y,1/4+z
28 1/4+x,-y,1/4+z
29 1/2-x,1/2-y,-z
30 1/4+x,3/4+y,1/2-z
31 1/2-x,1/4+y,3/4+z
32 1/4+x,1/2-y,3/4+z
_cell_length_a                   23.316(5)
_cell_length_b                   28.011(6)
_cell_length_c                   36.079(7)
_cell_angle_alpha                90
_cell_angle_beta                 90
_cell_angle_gamma                90
_cell_volume                     23563.4
_exptl_crystal_colour            yellow
_exptl_crystal_description       platelet
_cell_formula_units_Z            16
loop_
_atom_site_label
_atom_site_type_symbol
_atom_site_fract_x
_atom_site_fract_y
_atom_site_fract_z
_atom_site_U_iso_or_equiv
_atom_site_thermal_displace_type
Pr1 Pr 0.898376(9) 0.1250 0.1250 0.0156 Uani
Co1 Co 0.6250 0.35740(2) 0.1250 0.0159 Uani
O1 O 0.80900(12) 0.16687(9) 0.10009(8) 0.0256 Uani
O2 O 0.83164(14) 0.18695(11) 0.15779(8) 0.0310 Uani
O3 O 0.75033(18) 0.32028(18) 0.29450(10) 0.0535 Uani
O4 O 0.67843(17) 0.36933(12) 0.31201(9) 0.0362 Uani
O5 O 0.83431(18) 0.53170(16) 0.10511(15) 0.0587 Uani
O6 O 0.7657(3) 0.57019(16) 0.13513(13) 0.0577 Uani
N1 N 0.68206(13) 0.30733(10) 0.12180(7) 0.0199 Uani
N2 N 0.64359(12) 0.35555(9) 0.17735(8) 0.0193 Uani
N3 N 0.67980(13) 0.40881(10) 0.12030(8) 0.0209 Uani
C1 C 0.69934(17) 0.28449(12) 0.09088(9) 0.0246 Uani
C2 C 0.73809(17) 0.24715(14) 0.09209(10) 0.0266 Uani
C3 C 0.75981(17) 0.23266(13) 0.12613(9) 0.0225 Uani
C4 C 0.74250(15) 0.25633(11) 0.15810(9) 0.0223 Uani
C5 C 0.70388(14) 0.29379(11) 0.15503(9) 0.0191 Uani
C6 C 0.68400(14) 0.32263(10) 0.18632(9) 0.0195 Uani
C7 C 0.70518(17) 0.31858(13) 0.22204(10) 0.0262 Uani
C8 C 0.68331(16) 0.34848(14) 0.24933(10) 0.0260 Uani
C9 C 0.64074(19) 0.38110(14) 0.24011(12) 0.0286 Uani
C10 C 0.62247(17) 0.38429(14) 0.20401(11) 0.0258 Uani
C11 C 0.80299(16) 0.19254(12) 0.12843(10) 0.0225 Uani
C12 C 0.7063(2) 0.34531(17) 0.28885(11) 0.0337 Uani
C13 C 0.73677(16) 0.40475(14) 0.11608(14) 0.0305 Uani
C14 C 0.77212(18) 0.44451(18) 0.11492(16) 0.0376 Uani
C15 C 0.7484(2) 0.48953(16) 0.11923(13) 0.0330 Uani
C16 C 0.6897(2) 0.49394(14) 0.12322(11) 0.0306 Uani
C17 C 0.65593(17) 0.45297(12) 0.12328(10) 0.0235 Uani
C18 C 0.7858(3) 0.53404(19) 0.12043(15) 0.0420 Uani
H1 H 0.6800 0.2968 0.0703 0.0356 Uiso
H2 H 0.7562 0.2339 0.0732 0.0449 Uiso
H3 H 0.7359 0.2975 0.2276 0.0301 Uiso
H4 H 0.7569 0.2470 0.1817 0.0268 Uiso
H5 H 0.6249 0.4019 0.2580 0.0483 Uiso
H6 H 0.5942 0.4031 0.1941 0.0242 Uiso
H7 H 0.7515 0.3715 0.1178 0.0178 Uiso
H8 H 0.8102 0.4382 0.1157 0.0454 Uiso
H9 H 0.6692 0.5211 0.1256 0.0327 Uiso
O5C O 0.41569(18) 0.53170(16) 0.14489(15) 0.0587 Uani
O6C O 0.4843(3) 0.57019(16) 0.11487(13) 0.0577 Uani
N3C N 0.57020(13) 0.40881(10) 0.12970(8) 0.0209 Uani
C13C C 0.51323(16) 0.40475(14) 0.13392(14) 0.0305 Uani
C14C C 0.47788(18) 0.44451(18) 0.13508(16) 0.0376 Uani
C15C C 0.5016(2) 0.48953(16) 0.13077(13) 0.0330 Uani
C16C C 0.5603(2) 0.49394(14) 0.12678(11) 0.0306 Uani
C17C C 0.59407(17) 0.45297(12) 0.12672(10) 0.0235 Uani
C18C C 0.4642(3) 0.53404(19) 0.12957(15) 0.0420 Uani
H7C H 0.4985 0.3715 0.1322 0.0178 Uiso
H8C H 0.4398 0.4382 0.1343 0.0454 Uiso
H9C H 0.5808 0.5211 0.1244 0.0327 Uiso
O1B O 0.80900(12) 0.08313(9) 0.14991(8) 0.0256 Uani
O2B O 0.83164(14) 0.06305(11) 0.09221(8) 0.0310 Uani
O3B O 0.75033(18) -0.07028(18) -0.04450(10) 0.0535 Uani
O4B O 0.67843(17) -0.11933(12) -0.06201(9) 0.0362 Uani
N1B N 0.68206(13) -0.05733(10) 0.12820(7) 0.0199 Uani
N2B N 0.64359(12) -0.10555(9) 0.07265(8) 0.0193 Uani
C1B C 0.69934(17) -0.03449(12) 0.15912(9) 0.0246 Uani
C2B C 0.73809(17) 0.00285(14) 0.15791(10) 0.0266 Uani
C3B C 0.75981(17) 0.01734(13) 0.12387(9) 0.0225 Uani
C4B C 0.74250(15) -0.00633(11) 0.09190(9) 0.0223 Uani
C5B C 0.70388(14) -0.04379(11) 0.09497(9) 0.0191 Uani
C6B C 0.68400(14) -0.07263(10) 0.06368(9) 0.0195 Uani
C7B C 0.70518(17) -0.06858(13) 0.02796(10) 0.0262 Uani
C8B C 0.68331(16) -0.09848(14) 0.00067(10) 0.0260 Uani
C9B C 0.64074(19) -0.13110(14) 0.00989(12) 0.0286 Uani
C10B C 0.62247(17) -0.13429(14) 0.04599(11) 0.0258 Uani
C11B C 0.80299(16) 0.05746(12) 0.12157(10) 0.0225 Uani
C12B C 0.7063(2) -0.09531(17) -0.03885(11) 0.0337 Uani
H1B H 0.6800 -0.0468 0.1797 0.0356 Uiso
H2B H 0.7562 0.0161 0.1768 0.0449 Uiso
H3B H 0.7359 -0.0475 0.0224 0.0301 Uiso
H4B H 0.7569 0.0030 0.0683 0.0268 Uiso
H5B H 0.6249 -0.1519 -0.0080 0.0483 Uiso
H6B H 0.5942 -0.1531 0.0559 0.0242 Uiso
Pr1S Pr 0.648376(9) -0.1250 -0.1250 0.0156 Uani
Pr1I Pr 0.851624(9) 0.6250 0.1250 0.0156 Uani
Pr1L Pr 0.398376(9) 0.6250 0.1250 0.0156 Uani
Pr1W Pr 0.648376(9) 0.3750 0.3750 0.0156 Uani
Co1B Co 0.6250 -0.10740(2) 0.1250 0.0159 Uani
O4CA O 0.92843(17) 0.11933(12) 0.18799(9) 0.0362 Uani
O4EA O 0.92843(17) 0.13067(12) 0.06201(9) 0.0362 Uani
O5I O 0.91569(18) 0.21830(16) 0.10511(15) 0.0587 Uani
O5O O 0.91569(18) 0.03170(16) 0.14489(15) 0.0587 Uani
O6I O 0.9843(3) 0.17981(16) 0.13513(13) 0.0577 Uani
O6O O 0.9843(3) 0.07019(16) 0.11487(13) 0.0577 Uani
N1C N 0.56794(13) 0.30733(10) 0.12820(7) 0.0199 Uani
N2C N 0.60641(12) 0.35555(9) 0.07265(8) 0.0193 Uani
O7 O 0.7947(3) 0.2174(3) -0.00129(13) 0.0753 Uani
O8 O 0.8704(3) 0.4874(3) 0.0396(2) 0.0873 Uani
O9 O 0.6900(7) 0.4885(5) 0.0214(3) 0.2007 Uani
O10 O 0.5240(8) 0.1184(5) 0.0519(7) 0.3467 Uani
O11 O 0.5393(8) 0.5537(6) 0.0442(4) 0.2273 Uani
O12 O 0.5286(6) 0.1916(6) 0.0004(4) 0.2060 Uani
O13 O 0.3327(5) 0.8435(4) 0.0687(5) 0.1883 Uani
O14 O 0.7674(8) 0.8012(8) 0.0343(4) 0.2637 Uani
O15 O 0.8341(5) 0.9066(5) 0.0868(6) 0.2157 Uani
O16 O 0.8726(4) 0.9872(3) 0.0484(3) 0.1090 Uani
O17 O 0.1547(7) 1.0999(10) 0.0878(6) 0.3043 Uani
loop_
_atom_site_aniso_label
_atom_site_aniso_U_11
_atom_site_aniso_U_22
_atom_site_aniso_U_33
_atom_site_aniso_U_23
_atom_site_aniso_U_13
_atom_site_aniso_U_12
Pr1 0.01673(12) 0.01067(11) 0.01932(13) 0.00184(6) 0.0000 0.0000
Co1 0.0175(3) 0.0098(3) 0.0204(3) 0.0000 0.00185(18) 0.0000
O1 0.0248(11) 0.0221(11) 0.0300(12) -0.0074(9) -0.0037(10) 0.0075(9)
O2 0.0379(15) 0.0270(13) 0.0280(13) -0.0046(10) -0.0068(11) 0.0135(11)
O3 0.048(2) 0.079(3) 0.0336(17) -0.0153(18) -0.0065(15) 0.027(2)
O4 0.0470(19) 0.0365(16) 0.0252(13) -0.0097(11) 0.0043(13) 0.0114(14)
O5 0.039(2) 0.049(3) 0.088(4) 0.016(3) -0.006(3) -0.0213(18)
O6 0.073(3) 0.044(2) 0.056(3) -0.0154(18) 0.022(3) -0.040(3)
N1 0.0253(13) 0.0132(10) 0.0211(11) -0.0004(8) 0.0038(9) 0.0046(9)
N2 0.0184(11) 0.0141(10) 0.0255(12) -0.0037(9) 0.0014(9) 0.0023(9)
N3 0.0187(11) 0.0147(11) 0.0293(13) 0.0014(9) -0.0015(10) -0.0022(9)
C1 0.0337(17) 0.0203(13) 0.0199(13) -0.0001(10) 0.0010(12) 0.0125(12)
C2 0.0341(18) 0.0237(15) 0.0220(14) -0.0022(11) 0.0020(12) 0.0127(13)
C3 0.0283(16) 0.0161(12) 0.0231(14) -0.0021(10) 0.0004(11) 0.0078(11)
C4 0.0277(15) 0.0188(13) 0.0205(13) -0.0012(10) -0.0007(11) 0.0088(11)
C5 0.0245(14) 0.0136(11) 0.0193(12) -0.0019(9) 0.0022(10) 0.0049(10)
C6 0.0229(13) 0.0131(11) 0.0226(13) -0.0032(9) 0.0015(10) 0.0043(10)
C7 0.0296(16) 0.0256(15) 0.0234(14) -0.0053(12) -0.0007(12) 0.0098(13)
C8 0.0273(15) 0.0270(15) 0.0236(14) -0.0072(12) 0.0020(12) 0.0006(13)
C9 0.0319(17) 0.0252(15) 0.0288(17) -0.0107(13) 0.0017(14) 0.0054(14)
C10 0.0286(16) 0.0222(14) 0.0267(16) -0.0080(12) -0.0010(12) 0.0095(12)
C11 0.0246(14) 0.0153(12) 0.0275(15) -0.0026(10) -0.0004(11) 0.0064(11)
C12 0.036(2) 0.038(2) 0.0272(17) -0.0110(15) 0.0003(15) 0.0054(16)
C13 0.0193(14) 0.0221(15) 0.050(3) 0.0050(15) 0.0024(14) -0.0027(12)
C14 0.0207(16) 0.036(2) 0.056(3) 0.0107(19) -0.0044(17) -0.0109(15)
C15 0.0343(19) 0.0281(18) 0.0367(19) 0.0045(14) -0.0037(16) -0.0159(15)
C16 0.036(2) 0.0168(14) 0.039(2) 0.0013(12) -0.0001(15) -0.0099(14)
C17 0.0273(15) 0.0146(12) 0.0285(16) 0.0017(10) -0.0002(12) -0.0022(11)
C18 0.046(3) 0.034(3) 0.046(3) 0.0102(18) -0.010(2) -0.026(2)
O5C 0.039 0.049 0.088 -0.016 -0.006 0.0213
O6C 0.073 0.044 0.056 0.0154 0.022 0.04
N3C 0.0187 0.0147 0.0293 -0.0014 -0.0015 0.0022
C13C 0.0193 0.0221 0.05 -0.005 0.0024 0.0027
C14C 0.0207 0.036 0.056 -0.0107 -0.0044 0.0109
C15C 0.0343 0.0281 0.0367 -0.0045 -0.0037 0.0159
C16C 0.036 0.0168 0.039 -0.0013 -0.0001 0.0099
C17C 0.0273 0.0146 0.0285 -0.0017 -0.0002 0.0022
C18C 0.046 0.034 0.046 -0.0102 -0.01 0.026
O1B 0.0248 0.0221 0.03 -0.0074 0.0037 -0.0075
O2B 0.0379 0.027 0.028 -0.0046 0.0068 -0.0135
O3B 0.048 0.079 0.0336 -0.0153 0.0065 -0.027
O4B 0.047 0.0365 0.0252 -0.0097 -0.0043 -0.0114
N1B 0.0253 0.0132 0.0211 -0.0004 -0.0038 -0.0046
N2B 0.0184 0.0141 0.0255 -0.0037 -0.0014 -0.0023
C1B 0.0337 0.0203 0.0199 -0.0001 -0.001 -0.0125
C2B 0.0341 0.0237 0.022 -0.0022 -0.002 -0.0127
C3B 0.0283 0.0161 0.0231 -0.0021 -0.0004 -0.0078
C4B 0.0277 0.0188 0.0205 -0.0012 0.0007 -0.0088
C5B 0.0245 0.0136 0.0193 -0.0019 -0.0022 -0.0049
C6B 0.0229 0.0131 0.0226 -0.0032 -0.0015 -0.0043
C7B 0.0296 0.0256 0.0234 -0.0053 0.0007 -0.0098
C8B 0.0273 0.027 0.0236 -0.0072 -0.002 -0.0006
C9B 0.0319 0.0252 0.0288 -0.0107 -0.0017 -0.0054
C10B 0.0286 0.0222 0.0267 -0.008 0.001 -0.0095
C11B 0.0246 0.0153 0.0275 -0.0026 0.0004 -0.0064
C12B 0.036 0.038 0.0272 -0.011 -0.0003 -0.0054
Pr1S 0.01673 0.01067 0.01932 -0.00184 0 0
Pr1I 0.01673 0.01067 0.01932 -0.00184 0 0
Pr1L 0.01673 0.01067 0.01932 0.00184 0 0
Pr1W 0.01673 0.01067 0.01932 -0.00184 0 0
Co1B 0.0175 0.0098 0.0204 0 -0.00185 0
O4CA 0.047 0.0365 0.0252 0.0097 -0.0043 0.0114
O4EA 0.047 0.0365 0.0252 0.0097 0.0043 -0.0114
O5I 0.039 0.049 0.088 -0.016 0.006 -0.0213
O5O 0.039 0.049 0.088 -0.016 -0.006 0.0213
O6I 0.073 0.044 0.056 0.0154 -0.022 -0.04
O6O 0.073 0.044 0.056 0.0154 0.022 0.04
N1C 0.0253 0.0132 0.0211 0.0004 0.0038 -0.0046
N2C 0.0184 0.0141 0.0255 0.0037 0.0014 -0.0023
O7 0.087(4) 0.095(5) 0.044(3) -0.004(3) -0.008(3) 0.018(4)
O8 0.087(5) 0.095(6) 0.080(5) 0.019(4) 0.007(4) 0.003(4)
O9 0.308(18) 0.165(10) 0.129(8) 0.002(7) -0.009(9) -0.180(12)
O10 0.282(18) 0.178(12) 0.58(4) 0.197(17) 0.37(3) 0.118(12)
O11 0.274(17) 0.270(17) 0.138(10) 0.074(10) 0.101(11) 0.126(14)
O12 0.168(12) 0.230(15) 0.220(15) 0.087(12) 0.003(11) -0.074(11)
O13 0.160(10) 0.112(8) 0.293(16) -0.105(10) 0.117(11) -0.049(8)
O14 0.272(18) 0.39(3) 0.129(10) -0.049(12) -0.050(11) 0.195(18)
O15 0.108(8) 0.129(10) 0.41(3) 0.141(13) 0.021(11) 0.022(7)
O16 0.124(7) 0.085(6) 0.118(7) -0.060(5) 0.046(5) -0.012(4)
O17 0.113(12) 0.45(4) 0.35(3) 0.08(3) 0.062(14) 0.090(17)
loop_
_geom_bond_atom_site_label_1
_geom_bond_atom_site_label_2
_geom_bond_site_symmetry_1
_geom_bond_site_symmetry_2
Pr1 O1 1_555 1_555
Co1 N1 1_555 1_555
O1 C11 1_555 1_555
O2 Pr1 1_555 1_555
O3 C12 1_555 1_555
O4 C12 1_555 1_555
O5 C18 1_555 1_555
O6 C18 1_555 1_555
N1 C1 1_555 1_555
N2 Co1 1_555 1_555
N3 Co1 1_555 1_555
C1 C2 1_555 1_555
C2 C3 1_555 1_555
C3 C4 1_555 1_555
C4 C5 1_555 1_555
C5 N1 1_555 1_555
C6 N2 1_555 1_555
C7 C6 1_555 1_555
C8 C7 1_555 1_555
C9 C8 1_555 1_555
C10 N2 1_555 1_555
C11 O2 1_555 1_555
C12 C8 1_555 1_555
C13 N3 1_555 1_555
C14 C13 1_555 1_555
C15 C14 1_555 1_555
C16 C15 1_555 1_555
C17 N3 1_555 1_555
C18 C15 1_555 1_555
H1 C1 1_555 1_555
H2 C2 1_555 1_555
H3 C7 1_555 1_555
H4 C4 1_555 1_555
H5 C9 1_555 1_555
H6 C10 1_555 1_555
H7 C13 1_555 1_555
H8 C14 1_555 1_555
H9 C16 1_555 1_555
O5C C18C 1_555 1_555
O6C C18C 1_555 1_555
N3C Co1 1_555 1_555
C13C N3C 1_555 1_555
C14C C13C 1_555 1_555
C15C C14C 1_555 1_555
C16C C15C 1_555 1_555
C17C C17 1_555 1_555
C18C C15C 1_555 1_555
H7C C13C 1_555 1_555
H8C C14C 1_555 1_555
H9C C16C 1_555 1_555
O1B Pr1 1_555 1_555
O2B Pr1 1_555 1_555
O3B C12B 1_555 1_555
O4B C12B 1_555 1_555
N1B C1B 1_555 1_555
N2B C6B 1_555 1_555
C1B C2B 1_555 1_555
C2B C3B 1_555 1_555
C3B C4B 1_555 1_555
C4B C5B 1_555 1_555
C5B N1B 1_555 1_555
C6B C5B 1_555 1_555
C7B C6B 1_555 1_555
C8B C7B 1_555 1_555
C9B C8B 1_555 1_555
C10B N2B 1_555 1_555
C11B O1B 1_555 1_555
C12B C8B 1_555 1_555
H1B C1B 1_555 1_555
H2B C2B 1_555 1_555
H3B C7B 1_555 1_555
H4B C4B 1_555 1_555
H5B C9B 1_555 1_555
H6B C10B 1_555 1_555
Pr1S O4B 1_555 1_555
Pr1I O5 1_555 1_555
Pr1L O5C 1_555 1_555
Pr1W O4 1_555 1_555
Co1B N1B 1_555 1_555
O4CA Pr1 1_555 1_555
O4EA Pr1 1_555 1_555
O5I Pr1 1_555 1_555
O5O Pr1 1_555 1_555
O6I Pr1 1_555 1_555
O6O Pr1 1_555 1_555
N1C Co1 1_555 1_555
N2C Co1 1_555 1_555
O6 Pr1I 1_555 1_555
C3 C11 1_555 1_555
C5 C6 1_555 1_555
C9 C10 1_555 1_555
C16 C17 1_555 1_555
O6C Pr1L 1_555 1_555
N3C C17C 1_555 1_555
C16C C17C 1_555 1_555
O2B C11B 1_555 1_555
N2B Co1B 1_555 1_555
C3B C11B 1_555 1_555
C9B C10B 1_555 1_555

#END
