
#######################################################################
#
#                 Cambridge Crystallographic Data Centre
#                                CCDC 
#
#######################################################################
#
# If this CIF has been generated from an entry in the Cambridge 
# Structural Database, then it will include bibliographic, chemical, 
# crystal, experimental, refinement or atomic coordinate data resulting 
# from the CCDC's data processing and validation procedures.
#
#######################################################################

data_XUGSEY
_chemical_formula_moiety         '(C76 H36 F10 N6 O9 Zn3)n,2n(C3 H7 N1 O1)'
_chemical_name_systematic        
'catena-[(\m~8~-Benzene-1,2,4,5-tetrabenzoato)-(\m~2~-10,20-bis(pentafluorophenyl)-5,15-dipyridylporphyrinato)-aqua-tri-zinc dimethylformamide solvate]'
_symmetry_cell_setting           triclinic
_symmetry_space_group_name_H-M   'P -1'
_symmetry_Int_Tables_number      2
_space_group_name_Hall           '-P 1'
loop_
_symmetry_equiv_pos_site_id
_symmetry_equiv_pos_as_xyz
1 x,y,z
2 -x,-y,-z
_cell_length_a                   11.569(13)
_cell_length_b                   15.447(16)
_cell_length_c                   21.19(2)
_cell_angle_alpha                76.794(12)
_cell_angle_beta                 79.025(14)
_cell_angle_gamma                89.615(11)
_cell_volume                     3616.54
_exptl_crystal_colour            red
_exptl_crystal_description       block
_cell_formula_units_Z            1
loop_
_atom_site_label
_atom_site_type_symbol
_atom_site_fract_x
_atom_site_fract_y
_atom_site_fract_z
N4 N 0.0470(11) 0.1654(7) 0.4110(8)
O5 O -0.0655(12) 0.0427(9) 0.3924(8)
C39 C -0.0193(18) 0.1176(12) 0.3720(11)
H18 H -0.0251 0.1484 0.3286
C40 C 0.023(2) 0.1481(11) 0.4793(13)
H19 H -0.0281 0.0943 0.4970
H20 H -0.0167 0.1985 0.4935
H21 H 0.0969 0.1391 0.4957
C41 C 0.1008(11) 0.2601(9) 0.3694(8)
H22 H 0.0832 0.3040 0.3964
H23 H 0.0661 0.2778 0.3298
H24 H 0.1864 0.2570 0.3562
Zn1 Zn 0.03515(4) 0.52087(3) 1.42734(3)
Zn2 Zn 0.5000 0.5000 1.0000
N1 N 0.1224(4) 0.5168(3) 1.3363(2)
N2 N 0.4452(10) 0.5955(5) 1.0472(4)
N3 N 0.5966(9) 0.5903(5) 0.9262(4)
O1 O -0.0780(3) 0.6221(2) 1.4152(2)
O2 O -0.1268(3) 0.5809(2) 1.5247(2)
O3 O -0.9051(3) 0.5716(2) 1.56141(18)
O4 O -0.8543(3) 0.6038(2) 1.45177(18)
O6 O 0.3530(15) 0.516(3) 0.9516(11)
C1 C -0.1345(4) 0.6306(3) 1.4694(3)
C2 C -0.2182(4) 0.7052(3) 1.4711(3)
C3 C -0.3027(5) 0.7026(3) 1.5265(3)
H1 H -0.3112 0.6517 1.5623
C4 C -0.3760(5) 0.7734(3) 1.5310(3)
H2 H -0.4348 0.7706 1.5694
C5 C -0.3631(4) 0.8482(3) 1.4794(3)
C6 C -0.2764(5) 0.8502(3) 1.4240(3)
H3 H -0.2651 0.9021 1.3891
C7 C -0.2073(5) 0.7804(4) 1.4183(3)
H4 H -0.1517 0.7822 1.3787
C8 C -0.4353(4) 0.9260(3) 1.4872(3)
C9 C -0.3798(4) 1.0074(3) 1.4803(3)
H5 H -0.2967 1.0131 1.4660
C10 C -0.5600(4) 0.9184(3) 1.5067(3)
C11 C -0.6270(4) 0.8357(3) 1.5097(3)
C12 C -0.6139(5) 0.7995(3) 1.4551(3)
H6 H -0.5551 0.8240 1.4174
C13 C -0.6849(5) 0.7277(3) 1.4542(3)
H7 H -0.6764 0.7050 1.4156
C14 C -0.7677(4) 0.6895(3) 1.5094(3)
C15 C -0.7782(4) 0.7224(3) 1.5656(3)
H8 H -0.8324 0.6946 1.6045
C16 C -0.7093(4) 0.7960(3) 1.5653(3)
H9 H -0.7188 0.8194 1.6037
C17 C -0.8485(4) 0.6154(3) 1.5070(3)
C18 C 0.2380(7) 0.5290(9) 1.3213(4)
H10 H 0.2771 0.5393 1.3546
C19 C 0.3030(8) 0.5278(10) 1.2631(5)
H11 H 0.3856 0.5396 1.2552
C20 C 0.2522(7) 0.5099(5) 1.2142(4)
C21 C 0.1316(8) 0.4910(9) 1.2305(5)
H12 H 0.0897 0.4770 1.1995
C22 C 0.0753(7) 0.4934(7) 1.2931(4)
H13 H -0.0059 0.4759 1.3052
C23 C 0.3236(8) 0.5080(5) 1.1465(4)
C24 C 0.3693(12) 0.5839(6) 1.1080(5)
C25 C 0.3483(19) 0.6705(8) 1.1228(7)
H14 H 0.3024 0.6831 1.1616
C26 C 0.406(3) 0.7274(8) 1.0715(8)
H15 H 0.4091 0.7929 1.0685
C27 C 0.515(3) 0.6755(11) 1.0377(10)
C28 C 0.597(2) 0.7126(10) 0.9834(9)
C29 C 0.6696(11) 0.7972(4) 0.9850(5)
C30 C 0.7713(11) 0.8098(4) 1.0082(5)
F1 F 0.8306(14) 0.7381(6) 1.0346(8)
C31 C 0.8127(10) 0.8954(5) 1.0046(5)
F2 F 0.9157(13) 0.9082(7) 1.0281(7)
C32 C 0.7523(10) 0.9685(4) 0.9778(5)
F3 F 0.7938(12) 1.0544(7) 0.9741(7)
C33 C 0.6506(10) 0.9559(4) 0.9545(5)
F4 F 0.5899(12) 1.0294(7) 0.9276(7)
C34 C 0.6092(10) 0.8703(5) 0.9582(5)
F5 F 0.5069(13) 0.8577(7) 0.9348(7)
C35 C 0.599(2) 0.6777(7) 0.9197(7)
C36 C 0.704(3) 0.7165(8) 0.8667(10)
H16 H 0.7524 0.7678 0.8626
C37 C 0.713(2) 0.6570(8) 0.8250(8)
H17 H 0.7413 0.6685 0.7787
C38 C 0.3339(11) 0.4266(6) 1.1299(5)
Zn1A Zn 0.96485(4) 0.47913(3) 0.57266(3)
Zn1A_2 Zn -0.03515(4) 0.47913(3) 1.57266(3)
Zn1A_3 Zn -1.03515(4) 0.47913(3) 1.57266(3)
Zn1_2 Zn -0.96485(4) 0.52087(3) 1.42734(3)
Zn1A_4 Zn -1.03515(4) 1.47913(3) 1.57266(3)
Zn1_3 Zn -0.96485(4) 1.52087(3) 1.42734(3)
Zn1_4 Zn 0.03515(4) 1.52087(3) 1.42734(3)
Zn1A_5 Zn -0.03515(4) 1.47913(3) 1.57266(3)
N1A N 0.8776(4) 0.4832(3) 0.6637(2)
N2A N 0.5548(10) 0.4045(5) 0.9528(4)
N3A N 0.4034(9) 0.4097(5) 1.0738(4)
O1A O -0.9220(3) 1.3779(2) 1.5848(2)
O1A_2 O 1.0780(3) 0.3779(2) 0.5848(2)
O2A O -0.8732(3) 1.4191(2) 1.4753(2)
O2A_2 O 0.1268(3) 0.4191(2) 1.4753(2)
O2_2 O 0.8732(3) 0.5809(2) 0.5247(2)
O3A O -0.0949(3) 1.4284(2) 1.43859(18)
O3A_2 O -0.0949(3) 0.4284(2) 1.43859(18)
O3_2 O 1.0949(3) 0.5716(2) 0.56141(18)
O4A O -0.1457(3) 1.3962(2) 1.54823(18)
O4_2 O 0.1457(3) 0.6038(2) 1.45177(18)
O4A_2 O 0.8543(3) 0.3962(2) 0.54823(18)
O6A O 0.6470(15) 0.484(3) 1.0484(11)
C1A C -0.8655(4) 1.3694(3) 1.5306(3)
C2A C -0.7818(4) 1.2948(3) 1.5289(3)
C3A C -0.6973(5) 1.2974(3) 1.4735(3)
H1A H -0.6888 1.3483 1.4377
C4A C -0.6240(5) 1.2266(3) 1.4690(3)
H2A H -0.5652 1.2294 1.4306
C5A C -0.6369(4) 1.1518(3) 1.5206(3)
C6A C -0.7236(5) 1.1498(3) 1.5760(3)
H3A H -0.7349 1.0979 1.6109
C7A C -0.7927(5) 1.2196(4) 1.5817(3)
H4A H -0.8483 1.2178 1.6213
C8A C -0.5647(4) 1.0740(3) 1.5128(3)
C9A C -0.6202(4) 0.9926(3) 1.5197(3)
H5A H -0.7033 0.9869 1.5340
C10A C -0.4400(4) 1.0816(3) 1.4933(3)
C11A C -0.3730(4) 1.1643(3) 1.4903(3)
C12A C -0.3861(5) 1.2005(3) 1.5449(3)
H6A H -0.4449 1.1760 1.5826
C13A C -0.3151(5) 1.2723(3) 1.5458(3)
H7A H -0.3236 1.2950 1.5844
C14A C -0.2323(4) 1.3105(3) 1.4906(3)
C15A C -0.2218(4) 1.2776(3) 1.4344(3)
H8A H -0.1676 1.3054 1.3955
C16A C -0.2907(4) 1.2040(3) 1.4347(3)
H9A H -0.2812 1.1806 1.3963
C17A C -0.1515(4) 1.3846(3) 1.4930(3)
C18A C 0.7620(7) 0.4710(9) 0.6787(4)
H10A H 0.7229 0.4607 0.6454
C19A C 0.6970(8) 0.4722(10) 0.7369(5)
H11A H 0.6144 0.4604 0.7448
C20A C 0.7478(7) 0.4901(5) 0.7858(4)
C21A C 0.8684(8) 0.5090(9) 0.7695(5)
H12A H 0.9103 0.5230 0.8005
C22A C 0.9247(7) 0.5066(7) 0.7069(4)
H13A H 1.0059 0.5241 0.6948
C23A C 0.6764(8) 0.4920(5) 0.8535(4)
C24A C 0.6307(12) 0.4161(6) 0.8920(5)
C25A C 0.6517(19) 0.3295(8) 0.8772(7)
H14A H 0.6976 0.3169 0.8384
C26A C 0.594(3) 0.2726(8) 0.9285(8)
H15A H 0.5909 0.2071 0.9315
C27A C 0.485(3) 0.3245(11) 0.9623(10)
C28A C 0.403(2) 0.2874(10) 1.0166(9)
C29A C 0.3304(11) 0.2028(4) 1.0150(5)
C30A C 0.2287(11) 0.1902(4) 0.9918(5)
F1A F 0.1694(14) 0.2619(6) 0.9654(8)
C31A C 0.1873(10) 0.1046(5) 0.9954(5)
F2A F 0.0843(13) 0.0918(7) 0.9719(7)
C32A C 0.2477(10) 0.0315(4) 1.0222(5)
F3A F 0.2062(12) -0.0544(7) 1.0259(7)
C33A C 0.3494(10) 0.0441(4) 1.0455(5)
F4A F 0.4101(12) -0.0294(7) 1.0724(7)
C34A C 0.3908(10) 0.1297(5) 1.0418(5)
F5A F 0.4931(13) 0.1423(7) 1.0652(7)
C35A C 0.401(2) 0.3223(7) 1.0803(7)
C36A C 0.296(3) 0.2835(8) 1.1333(10)
H16A H 0.2476 0.2322 1.1374
C37A C 0.287(2) 0.3430(8) 1.1750(8)
H17A H 0.2587 0.3315 1.2213
C38A C 0.6661(11) 0.5734(6) 0.8701(5)
C42? C 0.578(4) 0.3122(13) 0.9895(13)
C43? C 0.515(3) 0.2714(12) 1.0520(11)
loop_
_geom_bond_atom_site_label_1
_geom_bond_atom_site_label_2
_geom_bond_site_symmetry_1
_geom_bond_site_symmetry_2
Zn1 N1 1_555 1_555
Zn2 N2 1_555 1_555
N1 C18 1_555 1_555
N2 C24 1_555 1_555
N3 Zn2 1_555 1_555
N4 C39 1_555 1_555
O1 Zn1 1_555 1_555
O2 C1 1_555 1_555
O3 C17 1_555 1_555
O4 C17 1_555 1_555
O5 C39 1_555 1_555
O6 Zn2 1_555 1_555
C1 O1 1_555 1_555
C2 C1 1_555 1_555
C3 C2 1_555 1_555
H1 C3 1_555 1_555
C4 C3 1_555 1_555
H2 C4 1_555 1_555
C5 C4 1_555 1_555
C6 C5 1_555 1_555
H3 C6 1_555 1_555
C7 C2 1_555 1_555
H4 C7 1_555 1_555
C8 C5 1_555 1_555
C9 C8 1_555 1_555
H5 C9 1_555 1_555
C10 C8 1_555 1_555
C11 C10 1_555 1_555
C12 C11 1_555 1_555
H6 C12 1_555 1_555
C13 C12 1_555 1_555
H7 C13 1_555 1_555
C14 C13 1_555 1_555
C15 C14 1_555 1_555
H8 C15 1_555 1_555
C16 C11 1_555 1_555
H9 C16 1_555 1_555
C17 C14 1_555 1_555
C18 H10 1_555 1_555
C19 C18 1_555 1_555
H11 C19 1_555 1_555
C20 C19 1_555 1_555
C21 C20 1_555 1_555
H12 C21 1_555 1_555
C22 N1 1_555 1_555
H13 C22 1_555 1_555
C23 C20 1_555 1_555
C24 C23 1_555 1_555
C25 C24 1_555 1_555
H14 C25 1_555 1_555
C26 C25 1_555 1_555
H15 C26 1_555 1_555
C27 N2 1_555 1_555
C28 C27 1_555 1_555
C29 C28 1_555 1_555
C30 C29 1_555 1_555
F1 C30 1_555 1_555
C31 C30 1_555 1_555
F2 C31 1_555 1_555
C32 C31 1_555 1_555
F3 C32 1_555 1_555
C33 C32 1_555 1_555
F4 C33 1_555 1_555
C34 C29 1_555 1_555
F5 C34 1_555 1_555
C35 N3 1_555 1_555
C36 C35 1_555 1_555
H16 C36 1_555 1_555
C37 C36 1_555 1_555
H17 C37 1_555 1_555
C38 C23 1_555 1_555
C39 H18 1_555 1_555
C40 N4 1_555 1_555
H19 C40 1_555 1_555
H20 C40 1_555 1_555
H21 C40 1_555 1_555
C41 N4 1_555 1_555
H22 C41 1_555 1_555
H23 C41 1_555 1_555
H24 C41 1_555 1_555
Zn1A N1A 1_555 1_555
Zn1A_2 O2 1_555 1_555
Zn1A_3 O3 1_555 1_555
Zn1_2 O4 1_555 1_555
Zn1A_4 O1A 1_555 1_555
Zn1_3 O2A 1_555 1_555
Zn1_4 O3A 1_555 1_555
Zn1A_5 O4A 1_555 1_555
N1A C18A 1_555 1_555
N2A Zn2 1_555 1_555
N3A Zn2 1_555 1_555
O1A C1A 1_555 1_555
O1A_2 Zn1A 1_555 1_555
O2A C1A 1_555 1_555
O2A_2 Zn1 1_555 1_555
O2_2 Zn1A 1_555 1_555
O3A C17A 1_555 1_555
O3A_2 Zn1 1_555 1_555
O3_2 Zn1A 1_555 1_555
O4A C17A 1_555 1_555
O4_2 Zn1 1_555 1_555
O4A_2 Zn1A 1_555 1_555
O6A Zn2 1_555 1_555
C1A C2A 1_555 1_555
C2A C3A 1_555 1_555
C3A H1A 1_555 1_555
C4A C3A 1_555 1_555
H2A C4A 1_555 1_555
C5A C4A 1_555 1_555
C6A C5A 1_555 1_555
H3A C6A 1_555 1_555
C7A C2A 1_555 1_555
H4A C7A 1_555 1_555
C8A C5A 1_555 1_555
C9A C10 1_555 1_555
H5A C9A 1_555 1_555
C10A C9 1_555 1_555
C11A C10A 1_555 1_555
C12A C11A 1_555 1_555
H6A C12A 1_555 1_555
C13A C12A 1_555 1_555
H7A C13A 1_555 1_555
C14A C13A 1_555 1_555
C15A C14A 1_555 1_555
H8A C15A 1_555 1_555
C16A C11A 1_555 1_555
H9A C16A 1_555 1_555
C17A C14A 1_555 1_555
C18A H10A 1_555 1_555
C19A C18A 1_555 1_555
H11A C19A 1_555 1_555
C20A C19A 1_555 1_555
C21A C20A 1_555 1_555
H12A C21A 1_555 1_555
C22A N1A 1_555 1_555
H13A C22A 1_555 1_555
C23A C20A 1_555 1_555
C24A N2A 1_555 1_555
C25A C24A 1_555 1_555
H14A C25A 1_555 1_555
C26A C25A 1_555 1_555
H15A C26A 1_555 1_555
C27A N2A 1_555 1_555
C28A C27A 1_555 1_555
C29A C28A 1_555 1_555
C30A C29A 1_555 1_555
F1A C30A 1_555 1_555
C31A C30A 1_555 1_555
F2A C31A 1_555 1_555
C32A C31A 1_555 1_555
F3A C32A 1_555 1_555
C33A C32A 1_555 1_555
F4A C33A 1_555 1_555
C34A C29A 1_555 1_555
F5A C34A 1_555 1_555
C35A N3A 1_555 1_555
C36A C35A 1_555 1_555
H16A C36A 1_555 1_555
C37A C38 1_555 1_555
H17A C37A 1_555 1_555
C38A N3 1_555 1_555
C6 C7 1_555 1_555
C15 C16 1_555 1_555
C21 C22 1_555 1_555
C26 C27 1_555 1_555
C28 C35 1_555 1_555
C33 C34 1_555 1_555
C37 C38A 1_555 1_555
C38 N3A 1_555 1_555
C6A C7A 1_555 1_555
C8A C9A 1_555 1_555
C8A C10A 1_555 1_555
C15A C16A 1_555 1_555
C21A C22A 1_555 1_555
C23A C24A 1_555 1_555
C23A C38A 1_555 1_555
C26A C27A 1_555 1_555
C28A C35A 1_555 1_555
C33A C34A 1_555 1_555
C36A C37A 1_555 1_555

#END
