
#######################################################################
#
#                 Cambridge Crystallographic Data Centre
#                                CCDC 
#
#######################################################################
#
# If this CIF has been generated from an entry in the Cambridge 
# Structural Database, then it will include bibliographic, chemical, 
# crystal, experimental, refinement or atomic coordinate data resulting 
# from the CCDC's data processing and validation procedures.
#
#######################################################################

data_UXUPIN
_chemical_formula_moiety         '(C22 H16 Cu1 F6 N4 O6 S2)n'
_chemical_name_systematic        
"catena-(bis(\m~2~-4,4'-Bipyridine)-bis(trifluoromethanesulfonato)-copper unknown solvate)"
_symmetry_cell_setting           tetragonal
_symmetry_space_group_name_H-M   'I 41/a c d'
_symmetry_Int_Tables_number      142
_space_group_name_Hall           '-I 4bd 2c'
loop_
_symmetry_equiv_pos_site_id
_symmetry_equiv_pos_as_xyz
1 x,y,z
2 1/4-y,3/4+x,1/4+z
3 1/2-x,-y,1/2+z
4 1/4+y,1/4-x,3/4+z
5 x,-y,1/2-z
6 1/4+y,3/4+x,3/4-z
7 1/2-x,y,-z
8 1/4-y,1/4-x,1/4-z
9 1/2+x,1/2+y,1/2+z
10 3/4-y,1/4+x,3/4+z
11 -x,1/2-y,z
12 3/4+y,3/4-x,1/4+z
13 1/2+x,1/2-y,-z
14 3/4+y,1/4+x,1/4-z
15 -x,1/2+y,1/2-z
16 3/4-y,3/4-x,3/4-z
17 -x,-y,-z
18 3/4+y,1/4-x,3/4-z
19 1/2+x,y,1/2-z
20 3/4-y,3/4+x,1/4-z
21 -x,y,1/2+z
22 3/4-y,1/4-x,1/4+z
23 1/2+x,-y,z
24 3/4+y,3/4+x,3/4+z
25 1/2-x,1/2-y,1/2-z
26 1/4+y,3/4-x,1/4-z
27 x,1/2+y,-z
28 1/4-y,1/4+x,3/4-z
29 1/2-x,1/2+y,z
30 1/4-y,3/4-x,3/4+z
31 x,1/2-y,1/2+z
32 1/4+y,1/4+x,1/4+z
_cell_length_a                   28.564(2)
_cell_length_b                   28.564(2)
_cell_length_c                   18.2725(13)
_cell_angle_alpha                90
_cell_angle_beta                 90
_cell_angle_gamma                90
_cell_volume                     14908.6
_exptl_crystal_colour            blue
_exptl_crystal_description       column
_cell_formula_units_Z            16
loop_
_atom_site_label
_atom_site_type_symbol
_atom_site_fract_x
_atom_site_fract_y
_atom_site_fract_z
_atom_site_U_iso_or_equiv
_atom_site_thermal_displace_type
Cu1 Cu 0.7500 0.25885(2) 1.0000 0.0318 Uani
S1 S 0.68315(13) 0.27246(12) 0.82152(12) 0.1191 Uani
F1 F 0.6084(6) 0.2786(5) 0.7541(9) 0.3423 Uani
F2 F 0.6036(3) 0.2805(5) 0.8808(9) 0.2543 Uani
F3 F 0.6234(7) 0.2123(4) 0.8289(6) 0.3033 Uani
O1 O 0.70029(13) 0.25946(14) 0.89167(19) 0.0513 Uani
O2 O 0.6888(6) 0.3242(3) 0.8125(7) 0.2297 Uani
O3 O 0.7011(7) 0.2519(6) 0.7585(5) 0.2770 Uani
N1 N 0.79169(12) 0.20820(11) 0.9566(2) 0.0342 Uani
N2 N 0.94248(12) 0.04201(11) 0.7963(2) 0.0327 Uani
C1 C 0.83758(16) 0.20679(16) 0.9730(3) 0.0417 Uani
H1 H 0.8496 0.2287 1.0056 0.0500 Uiso
C2 C 0.86748(16) 0.17393(17) 0.9430(3) 0.0427 Uani
H2 H 0.8990 0.1735 0.9559 0.0510 Uiso
C3 C 0.84967(15) 0.14130(15) 0.8930(3) 0.0380 Uani
C4 C 0.80315(17) 0.14328(19) 0.8770(4) 0.0593 Uani
H3 H 0.7903 0.1218 0.8444 0.0710 Uiso
C5 C 0.77472(16) 0.17689(17) 0.9086(4) 0.0517 Uani
H4 H 0.7431 0.1778 0.8964 0.0620 Uiso
C6 C 0.90730(18) 0.06051(16) 0.7575(3) 0.0440 Uani
H5 H 0.9035 0.0514 0.7090 0.0530 Uiso
C7 C 0.87648(18) 0.09263(16) 0.7870(3) 0.0473 Uani
H6 H 0.8526 0.1051 0.7585 0.0570 Uiso
C8 C 0.88154(16) 0.10606(14) 0.8594(3) 0.0379 Uani
C9 C 0.91700(19) 0.08636(17) 0.8987(3) 0.0463 Uani
H7 H 0.9213 0.0948 0.9474 0.0560 Uiso
C10 C 0.94644(18) 0.05405(17) 0.8668(3) 0.0447 Uani
H8 H 0.9697 0.0402 0.8951 0.0540 Uiso
C11 C 0.6217(6) 0.2602(6) 0.8196(8) 0.5007 Uani
Cu1AA Cu 0.99115(2) 0.0000 0.7500 0.0318 Uani
Cu1Y Cu 0.50885(2) 0.0000 1.2500 0.0318 Uani
S1F S 0.81685(13) 0.27246(12) 1.17848(12) 0.1191 Uani
F1F F 0.8916(6) 0.2786(5) 1.2459(9) 0.3423 Uani
F2F F 0.8964(3) 0.2805(5) 1.1192(9) 0.2543 Uani
F3F F 0.8766(7) 0.2123(4) 1.1711(6) 0.3033 Uani
O1F O 0.79971(13) 0.25946(14) 1.10833(19) 0.0513 Uani
O2F O 0.8112(6) 0.3242(3) 1.1875(7) 0.2297 Uani
O3F O 0.7989(7) 0.2519(6) 1.2415(5) 0.2770 Uani
N1F N 0.70831(12) 0.20820(11) 1.0434(2) 0.0342 Uani
N2F N 0.55752(12) 0.04201(11) 1.2037(2) 0.0327 Uani
N2Q N 0.79201(11) 0.30752(12) 0.9537(2) 0.0327 Uani
N2U N 0.70799(11) 0.30752(12) 1.0463(2) 0.0327 Uani
C1F C 0.66242(16) 0.20679(16) 1.0270(3) 0.0417 Uani
H1F H 0.6504 0.2287 0.9944 0.0500 Uiso
C2F C 0.63252(16) 0.17393(17) 1.0570(3) 0.0427 Uani
H2F H 0.6010 0.1735 1.0441 0.0510 Uiso
C3F C 0.65033(15) 0.14130(15) 1.1070(3) 0.0380 Uani
C4F C 0.69685(17) 0.14328(19) 1.1230(4) 0.0593 Uani
H3F H 0.7097 0.1218 1.1556 0.0710 Uiso
C5F C 0.72528(16) 0.17689(17) 1.0914(4) 0.0517 Uani
H4F H 0.7569 0.1778 1.1036 0.0620 Uiso
C6F C 0.59270(18) 0.06051(16) 1.2425(3) 0.0440 Uani
H5F H 0.5965 0.0514 1.2910 0.0530 Uiso
C7F C 0.62352(18) 0.09263(16) 1.2130(3) 0.0473 Uani
H6F H 0.6474 0.1051 1.2415 0.0570 Uiso
C8F C 0.61846(16) 0.10606(14) 1.1406(3) 0.0379 Uani
C9F C 0.58300(19) 0.08636(17) 1.1013(3) 0.0463 Uani
H7F H 0.5787 0.0948 1.0526 0.0560 Uiso
C10F C 0.55356(18) 0.05405(17) 1.1332(3) 0.0447 Uani
H8F H 0.5303 0.0402 1.1049 0.0540 Uiso
C11F C 0.8783(6) 0.2602(6) 1.1804(8) 0.5007 Uani
loop_
_atom_site_aniso_label
_atom_site_aniso_U_11
_atom_site_aniso_U_22
_atom_site_aniso_U_33
_atom_site_aniso_U_23
_atom_site_aniso_U_13
_atom_site_aniso_U_12
Cu1 0.0308(4) 0.0161(4) 0.0486(5) 0.000 0.0265(3) 0.000
S1 0.154(3) 0.147(3) 0.0564(12) -0.0054(13) -0.0071(14) -0.009(2)
F1 0.377(19) 0.290(14) 0.360(17) 0.120(13) -0.289(16) -0.086(13)
F2 0.098(6) 0.358(17) 0.307(15) 0.027(13) -0.015(8) 0.031(8)
F3 0.53(3) 0.197(10) 0.183(10) -0.024(8) -0.028(12) -0.187(14)
O1 0.047(2) 0.063(2) 0.044(2) 0.0051(16) 0.0088(15) 0.0014(16)
O2 0.39(2) 0.095(6) 0.204(11) 0.046(7) -0.157(13) -0.039(9)
O3 0.38(2) 0.37(2) 0.081(6) -0.049(9) 0.082(9) -0.098(17)
N1 0.0284(17) 0.0223(15) 0.052(2) -0.0113(14) 0.0193(15) -0.0010(13)
N2 0.0232 0.0346 0.0404 -0.0209 -0.0033 0.0051
C1 0.036(2) 0.033(2) 0.056(3) -0.020(2) 0.013(2) 0.0008(17)
C2 0.030(2) 0.043(2) 0.055(3) -0.018(2) 0.0057(19) 0.0059(18)
C3 0.030(2) 0.032(2) 0.052(3) -0.0180(18) 0.0110(18) 0.0036(16)
C4 0.032(2) 0.048(3) 0.098(4) -0.047(3) 0.006(3) 0.003(2)
C5 0.023(2) 0.038(2) 0.094(4) -0.028(3) 0.011(2) 0.0042(17)
C6 0.033 0.053 0.046 -0.029 -0.009 0.012
C7 0.031 0.055 0.056 -0.028 -0.012 0.018
C8 0.0257 0.035 0.053 -0.0187 0.0069 0.0051
C9 0.045 0.052 0.042 -0.021 0.001 0.015
C10 0.039 0.052 0.043 -0.024 -0.0067 0.015
C11 0.071(9) 1.26(13) 0.171(19) 0.28(4) -0.015(11) 0.09(3)
Cu1AA 0.0161 0.0308 0.0486 -0.0265 0 0
Cu1Y 0.0161 0.0308 0.0486 0.0265 0 0
S1F 0.154 0.147 0.0564 0.0054 -0.0071 0.009
F1F 0.377 0.29 0.36 -0.12 -0.289 0.086
F2F 0.098 0.358 0.307 -0.027 -0.015 -0.031
F3F 0.53 0.197 0.183 0.024 -0.028 0.187
O1F 0.047 0.063 0.044 -0.0051 0.0088 -0.0014
O2F 0.39 0.095 0.204 -0.046 -0.157 0.039
O3F 0.38 0.37 0.081 0.049 0.082 0.098
N1F 0.0284 0.0223 0.052 0.0113 0.0193 0.001
N2F 0.0232 0.0346 0.0404 0.0209 -0.0033 -0.0051
N2Q 0.0346 0.0232 0.0404 -0.0033 0.0209 -0.0051
N2U 0.0346 0.0232 0.0404 0.0033 0.0209 0.0051
C1F 0.036 0.033 0.056 0.02 0.013 -0.0008
C2F 0.03 0.043 0.055 0.018 0.0057 -0.0059
C3F 0.03 0.032 0.052 0.018 0.011 -0.0036
C4F 0.032 0.048 0.098 0.047 0.006 -0.003
C5F 0.023 0.038 0.094 0.028 0.011 -0.0042
C6F 0.033 0.053 0.046 0.029 -0.009 -0.012
C7F 0.031 0.055 0.056 0.028 -0.012 -0.018
C8F 0.0257 0.035 0.053 0.0187 0.0069 -0.0051
C9F 0.045 0.052 0.042 0.021 0.001 -0.015
C10F 0.039 0.052 0.043 0.024 -0.0067 -0.015
C11F 0.071 1.26 0.171 -0.28 -0.015 -0.09
loop_
_geom_bond_atom_site_label_1
_geom_bond_atom_site_label_2
_geom_bond_site_symmetry_1
_geom_bond_site_symmetry_2
Cu1 O1 1_555 1_555
S1 O1 1_555 1_555
F1 C11 1_555 1_555
F2 C11 1_555 1_555
F3 C11 1_555 1_555
O2 S1 1_555 1_555
O3 S1 1_555 1_555
N1 Cu1 1_555 1_555
N2 C6 1_555 1_555
C1 N1 1_555 1_555
H1 C1 1_555 1_555
C2 C1 1_555 1_555
H2 C2 1_555 1_555
C3 C2 1_555 1_555
C4 C3 1_555 1_555
H3 C4 1_555 1_555
C5 N1 1_555 1_555
H4 C5 1_555 1_555
C6 H5 1_555 1_555
C7 C6 1_555 1_555
H6 C7 1_555 1_555
C8 C3 1_555 1_555
C9 C8 1_555 1_555
H7 C9 1_555 1_555
C10 N2 1_555 1_555
H8 C10 1_555 1_555
C11 S1 1_555 1_555
Cu1AA N2 1_555 1_555
Cu1Y N2F 1_555 1_555
S1F O1F 1_555 1_555
F1F C11F 1_555 1_555
F2F C11F 1_555 1_555
F3F C11F 1_555 1_555
O1F Cu1 1_555 1_555
O2F S1F 1_555 1_555
O3F S1F 1_555 1_555
N1F Cu1 1_555 1_555
N2F C6F 1_555 1_555
N2Q Cu1 1_555 1_555
N2U Cu1 1_555 1_555
C1F N1F 1_555 1_555
H1F C1F 1_555 1_555
C2F C1F 1_555 1_555
H2F C2F 1_555 1_555
C3F C2F 1_555 1_555
C4F C3F 1_555 1_555
H3F C4F 1_555 1_555
C5F N1F 1_555 1_555
H4F C5F 1_555 1_555
C6F H5F 1_555 1_555
C7F C6F 1_555 1_555
H6F C7F 1_555 1_555
C8F C3F 1_555 1_555
C9F C8F 1_555 1_555
H7F C9F 1_555 1_555
C10F N2F 1_555 1_555
H8F C10F 1_555 1_555
C11F S1F 1_555 1_555
C4 C5 1_555 1_555
C7 C8 1_555 1_555
C9 C10 1_555 1_555
C4F C5F 1_555 1_555
C7F C8F 1_555 1_555
C9F C10F 1_555 1_555

#END
