
#######################################################################
#
#                 Cambridge Crystallographic Data Centre
#                                CCDC 
#
#######################################################################
#
# If this CIF has been generated from an entry in the Cambridge 
# Structural Database, then it will include bibliographic, chemical, 
# crystal, experimental, refinement or atomic coordinate data resulting 
# from the CCDC's data processing and validation procedures.
#
#######################################################################

data_ECOLEP
_chemical_formula_moiety         '(C9 H15 Co2 N12 O6)n'
_chemical_name_systematic        
catena-((\m~6~-benzene-1,3,5-tris(2H-tetrazolato))-hexa-aqua-di-cobalt)
_symmetry_cell_setting           cubic
_symmetry_space_group_name_H-M   'P 41 3 2'
_symmetry_Int_Tables_number      213
_space_group_name_Hall           'P 4bd 2ab 3'
loop_
_symmetry_equiv_pos_site_id
_symmetry_equiv_pos_as_xyz
1 x,y,z
2 1/2-x,-y,1/2+z
3 1/2+x,1/2-y,-z
4 -x,1/2+y,1/2-z
5 z,x,y
6 y,z,x
7 1/2-z,-x,1/2+y
8 -y,1/2+z,1/2-x
9 1/2+z,1/2-x,-y
10 1/2-y,-z,1/2+x
11 -z,1/2+x,1/2-y
12 1/2+y,1/2-z,-x
13 3/4-y,3/4-x,3/4-z
14 3/4+y,1/4+x,1/4-z
15 1/4+y,1/4-x,3/4+z
16 1/4-y,3/4+x,1/4+z
17 3/4-x,3/4-z,3/4-y
18 3/4-z,3/4-y,3/4-x
19 3/4+x,1/4+z,1/4-y
20 1/4-z,3/4+y,1/4+x
21 1/4+x,1/4-z,3/4+y
22 3/4+z,1/4+y,1/4-x
23 1/4-x,3/4+z,1/4+y
24 1/4+z,1/4-y,3/4+x
_cell_length_a                   18.6400(18)
_cell_length_b                   18.6400(18)
_cell_length_c                   18.6400(18)
_cell_angle_alpha                90
_cell_angle_beta                 90
_cell_angle_gamma                90
_cell_volume                     6476.46
_exptl_crystal_colour            red
_exptl_crystal_description       block
_cell_formula_units_Z            4
loop_
_atom_site_label
_atom_site_type_symbol
_atom_site_fract_x
_atom_site_fract_y
_atom_site_fract_z
_atom_site_U_iso_or_equiv
_atom_site_thermal_displace_type
Co1 Co -0.06672(2) 0.06672(2) 0.56672(2) 0.0951 Uani
N1 N -0.03855(12) 0.17061(13) 0.60321(13) 0.0947 Uani
N2 N 0.02192(13) 0.20551(13) 0.58737(13) 0.0959 Uani
C1 C 0.07255(17) 0.32255(17) 0.6250 0.0970 Uani
C2 C 0.01633(17) 0.26633(17) 0.6250 0.0950 Uani
C3 C 0.07350(17) 0.3750 0.67650(17) 0.1003 Uani
H1 H 0.0382 0.3750 0.7118 0.1200 Uiso
O1 O -0.08890(14) -0.03791(14) 0.52901(14) 0.1530 Uani
N1F N -0.10321(13) 0.03855(12) 0.67061(13) 0.0947 Uani
N1G N -0.17061(13) 0.10321(13) 0.53855(12) 0.0947 Uani
N1M N -0.07939(13) 0.21145(12) 0.64679(13) 0.0947 Uani
N2M N -0.04449(13) 0.27192(13) 0.66263(13) 0.0959 Uani
C1H C 0.1250 0.42745(17) 0.67745(17) 0.0970 Uani
C3I C 0.1250 0.32350(17) 0.57350(17) 0.1003 Uani
O1F O -0.02901(14) 0.08890(14) 0.46209(14) 0.1530 Uani
O1G O 0.03791(14) 0.02901(14) 0.58890(14) 0.1530 Uani
loop_
_atom_site_aniso_label
_atom_site_aniso_U_11
_atom_site_aniso_U_22
_atom_site_aniso_U_33
_atom_site_aniso_U_23
_atom_site_aniso_U_13
_atom_site_aniso_U_12
Co1 0.0951(3) 0.0951(3) 0.0951(3) -0.0085(2) 0.0085(2) 0.0085(2)
N1 0.0947(18) 0.0934(18) 0.096(2) -0.0056(13) 0.0100(14) -0.0051(15)
N2 0.0917(17) 0.0879(19) 0.108(2) -0.0144(14) 0.0174(15) -0.0190(14)
C1 0.096(2) 0.096(2) 0.099(4) -0.019(2) 0.019(2) -0.011(3)
C2 0.099(2) 0.099(2) 0.087(3) -0.003(2) 0.003(2) -0.010(3)
C3 0.100(2) 0.101(4) 0.100(2) -0.001(2) 0.003(3) -0.001(2)
O1 0.167(2) 0.143(2) 0.149(2) -0.0076(15) -0.0002(18) 0.0027(16)
N1F 0.096 0.0947 0.0934 0.0051 0.0056 0.01
N1G 0.0934 0.096 0.0947 -0.01 -0.0051 0.0056
N1M 0.0934 0.0947 0.096 -0.01 0.0056 -0.0051
N2M 0.0879 0.0917 0.108 -0.0174 0.0144 -0.019
C1H 0.099 0.096 0.096 -0.011 0.019 -0.019
C3I 0.101 0.1 0.1 -0.003 0.001 -0.001
O1F 0.149 0.167 0.143 -0.0027 0.0076 -0.0002
O1G 0.143 0.149 0.167 0.0002 0.0027 0.0076
loop_
_geom_bond_atom_site_label_1
_geom_bond_atom_site_label_2
_geom_bond_site_symmetry_1
_geom_bond_site_symmetry_2
Co1 N1 1_555 1_555
N1 N2 1_555 1_555
N2 C2 1_555 1_555
C1 C2 1_555 1_555
C2 N2M 1_555 1_555
C3 C1 1_555 1_555
H1 C3 1_555 1_555
O1 Co1 1_555 1_555
N1F Co1 1_555 1_555
N1G Co1 1_555 1_555
N1M N1 1_555 1_555
N2M N1M 1_555 1_555
C1H C3 1_555 1_555
C3I C1 1_555 1_555
O1F Co1 1_555 1_555
O1G Co1 1_555 1_555

#END
