
#######################################################################
#
#                 Cambridge Crystallographic Data Centre
#                                CCDC 
#
#######################################################################
#
# If this CIF has been generated from an entry in the Cambridge 
# Structural Database, then it will include bibliographic, chemical, 
# crystal, experimental, refinement or atomic coordinate data resulting 
# from the CCDC's data processing and validation procedures.
#
#######################################################################

data_PARKUQ
_chemical_formula_moiety         
'(C9 H3 Cd1 O6 1-)n,n(C2 H8 N1 1+),n(C4 H9 N1 O1)'
_chemical_name_systematic        
'catena-(dimethylammonium (\m~5~-benzene-1,3,5-tricarboxylato)-cadmium N,N-dimethylacetamide solvate)'
_symmetry_cell_setting           monoclinic
_symmetry_space_group_name_H-M   'P 21/n'
_symmetry_Int_Tables_number      14
_space_group_name_Hall           '-P 2yn'
loop_
_symmetry_equiv_pos_site_id
_symmetry_equiv_pos_as_xyz
1 x,y,z
2 1/2-x,1/2+y,1/2-z
3 -x,-y,-z
4 1/2+x,1/2-y,1/2+z
_cell_length_a                   10.0957(13)
_cell_length_b                   14.3518(19)
_cell_length_c                   12.9606(17)
_cell_angle_alpha                90
_cell_angle_beta                 105.770(2)
_cell_angle_gamma                90
_cell_volume                     1807.2
_exptl_crystal_colour            colorless
_exptl_crystal_description       block
_cell_formula_units_Z            4
loop_
_atom_site_label
_atom_site_type_symbol
_atom_site_fract_x
_atom_site_fract_y
_atom_site_fract_z
Cd1 Cd 0.091234(18) 0.066234(13) 0.939534(16)
O1 O 0.3039(2) 0.09852(17) 0.93140(19)
O2 O 0.1895(3) 0.2132(3) 0.8415(3)
O3 O 0.4530(3) 0.44168(16) 0.6675(2)
O4 O 0.6006(2) 0.36335(16) 0.59716(19)
O5 O 0.8957(2) 0.13817(16) 0.86203(19)
O6 O 0.7811(3) 0.04311(17) 0.9430(2)
C1 C 0.2957(3) 0.1700(3) 0.8740(3)
C2 C 0.5301(3) 0.3742(2) 0.6627(3)
C3 C 0.7893(3) 0.1121(2) 0.8871(2)
C4 C 0.4246(3) 0.1995(2) 0.8447(2)
C5 C 0.4228(3) 0.2752(2) 0.7778(3)
H1 H 0.3442 0.3119 0.7565
C6 C 0.5374(3) 0.2968(2) 0.7423(2)
C7 C 0.6554(3) 0.2431(2) 0.7770(2)
H2 H 0.7319 0.2568 0.7527
C8 C 0.6610(3) 0.16946(19) 0.8471(2)
C9 C 0.5442(3) 0.14799(19) 0.8801(2)
H3 H 0.5467 0.0983 0.9266
Cd1A Cd 0.408766(18) 0.566234(13) 0.560466(16)
Cd1C Cd 0.591234(18) 0.433766(13) 0.439534(16)
Cd1_2 Cd 1.091234(18) 0.066234(13) 0.939534(16)
Cd1B Cd 0.908766(18) -0.066234(13) 1.060466(16)
O3A O 0.0470(3) -0.05832(16) 0.8325(2)
O4C O 0.1006(2) 0.13665(16) 1.09716(19)
O5_2 O -0.1043(2) 0.13817(16) 0.86203(19)
O6B O 0.2189(3) -0.04311(17) 1.0570(2)
N1 N 0.7715(7) 0.4484(5) 0.9651(5)
O7 O 0.8692(5) 0.4533(3) 0.8326(4)
C10 C 0.7491(11) 0.4105(7) 1.0636(6)
H4 H 0.8355 0.3910 1.1106
H5 H 0.6881 0.3580 1.0466
H6 H 0.7091 0.4576 1.0983
C11 C 0.6732(7) 0.5216(6) 0.9059(6)
H7 H 0.7015 0.5423 0.8448
H8 H 0.6731 0.5735 0.9527
H9 H 0.5822 0.4958 0.8826
C12 C 0.8620(8) 0.4219(4) 0.9230(7)
C13 C 0.9669(8) 0.3502(4) 0.9835(6)
H10 H 1.0247 0.3781 1.0473
H11 H 1.0225 0.3295 0.9385
H12 H 0.9193 0.2979 1.0028
N2 N 0.9412(3) 0.3834(3) 0.6578(3)
H13 H 0.8992 0.4042 0.7063
H14 H 0.8953 0.4068 0.5936
C14 C 0.9318(4) 0.2817(3) 0.6422(3)
H15 H 0.9859 0.2633 0.5951
H16 H 0.8375 0.2643 0.6112
H17 H 0.9660 0.2511 0.7101
C15 C 1.0844(5) 0.4175(4) 0.6898(5)
H18 H 1.1334 0.3882 0.7557
H19 H 1.0847 0.4838 0.6996
H20 H 1.1284 0.4026 0.6348
loop_
_geom_bond_atom_site_label_1
_geom_bond_atom_site_label_2
_geom_bond_site_symmetry_1
_geom_bond_site_symmetry_2
Cd1 O1 1_555 1_555
O1 C1 1_555 1_555
O2 C1 1_555 1_555
O3 C2 1_555 1_555
O4 C2 1_555 1_555
O5 C3 1_555 1_555
O6 C3 1_555 1_555
C1 C4 1_555 1_555
C2 C6 1_555 1_555
C3 C8 1_555 1_555
C4 C5 1_555 1_555
C5 H1 1_555 1_555
C6 C5 1_555 1_555
C7 C6 1_555 1_555
H2 C7 1_555 1_555
C8 C7 1_555 1_555
C9 C4 1_555 1_555
H3 C9 1_555 1_555
N1 C10 1_555 1_555
O7 C12 1_555 1_555
C10 H4 1_555 1_555
H5 C10 1_555 1_555
H6 C10 1_555 1_555
C11 N1 1_555 1_555
H7 C11 1_555 1_555
H8 C11 1_555 1_555
H9 C11 1_555 1_555
C12 N1 1_555 1_555
C13 C12 1_555 1_555
H10 C13 1_555 1_555
H11 C13 1_555 1_555
H12 C13 1_555 1_555
N2 H13 1_555 1_555
H14 N2 1_555 1_555
C14 N2 1_555 1_555
H15 C14 1_555 1_555
H16 C14 1_555 1_555
H17 C14 1_555 1_555
C15 N2 1_555 1_555
H18 C15 1_555 1_555
H19 C15 1_555 1_555
H20 C15 1_555 1_555
Cd1A O3 1_555 1_555
Cd1C O4 1_555 1_555
Cd1_2 O5 1_555 1_555
Cd1B O6 1_555 1_555
O3A Cd1 1_555 1_555
O4C Cd1 1_555 1_555
O5_2 Cd1 1_555 1_555
O6B Cd1 1_555 1_555
C8 C9 1_555 1_555

#END
