
#######################################################################
#
#                 Cambridge Crystallographic Data Centre
#                                CCDC 
#
#######################################################################
#
# If this CIF has been generated from an entry in the Cambridge 
# Structural Database, then it will include bibliographic, chemical, 
# crystal, experimental, refinement or atomic coordinate data resulting 
# from the CCDC's data processing and validation procedures.
#
#######################################################################

data_LULLOV
_chemical_formula_moiety         '(C2 H8 N1 1+)n,n(C20 H12 K1 O8 S4 Zn1 1-)'
_chemical_name_systematic        
'catena-[Dimethylammonium bis(\m~5~-3,4-dimethylthieno[2,3-b]thiophene-2,5-dicarboxylato)-potassium-zinc]'
_symmetry_cell_setting           tetragonal
_symmetry_space_group_name_H-M   'I 41/a c d'
_symmetry_Int_Tables_number      142
_space_group_name_Hall           '-I 4bd 2c'
loop_
_symmetry_equiv_pos_site_id
_symmetry_equiv_pos_as_xyz
1 x,y,z
2 -x,1/2-y,z
3 x,-y,1/2-z
4 1/2-x,y,-z
5 1/4-y,1/4-x,1/4-z
6 3/4+y,1/4+x,1/4-z
7 1/4+y,1/4-x,3/4+z
8 1/4-y,3/4+x,1/4+z
9 1/2+x,1/2+y,1/2+z
10 1/2-x,-y,1/2+z
11 1/2+x,1/2-y,-z
12 -x,1/2+y,1/2-z
13 3/4-y,3/4-x,3/4-z
14 1/4+y,3/4+x,3/4-z
15 3/4+y,3/4-x,1/4+z
16 3/4-y,1/4+x,3/4+z
17 -x,-y,-z
18 x,1/2+y,-z
19 -x,y,1/2+z
20 1/2+x,-y,z
21 3/4+y,3/4+x,3/4+z
22 1/4-y,3/4-x,3/4+z
23 3/4-y,3/4+x,1/4-z
24 3/4+y,1/4-x,3/4-z
25 1/2-x,1/2-y,1/2-z
26 1/2+x,y,1/2-z
27 1/2-x,1/2+y,z
28 x,1/2-y,1/2+z
29 1/4+y,1/4+x,1/4+z
30 3/4-y,1/4-x,1/4+z
31 1/4-y,1/4+x,3/4-z
32 1/4+y,3/4-x,1/4-z
_cell_length_a                   22.558(5)
_cell_length_b                   22.558(5)
_cell_length_c                   24.105(5)
_cell_angle_alpha                90
_cell_angle_beta                 90
_cell_angle_gamma                90
_cell_volume                     12266.2
_exptl_crystal_colour            colorless
_exptl_crystal_description       block
_cell_formula_units_Z            16
loop_
_atom_site_label
_atom_site_type_symbol
_atom_site_fract_x
_atom_site_fract_y
_atom_site_fract_z
_atom_site_U_iso_or_equiv
_atom_site_thermal_displace_type
Zn1 Zn 0.16990(2) 0.08010(2) 0.1250 0.0304 Uani
S1 S 0.43476(8) 0.07555(9) 0.34253(8) 0.0688 Uani
S2 S 0.32235(8) 0.07723(8) 0.26616(8) 0.0600 Uani
C1 C 0.3998(3) 0.0849(3) 0.1812(4) 0.0730 Uani
C2 C 0.4984(4) 0.0838(3) 0.2465(3) 0.0683 Uani
O1 O 0.23680(16) 0.07634(16) 0.17911(15) 0.0413 Uani
O2 O 0.29515(19) 0.0812(2) 0.10429(18) 0.0617 Uani
O3 O 0.60556(18) 0.07731(16) 0.31866(17) 0.0500 Uani
C3 C 0.4324(3) 0.0823(3) 0.2339(3) 0.0553 Uani
C4 C 0.3395(3) 0.0813(2) 0.1942(3) 0.0427 Uani
C5 C 0.5018(3) 0.0789(2) 0.3048(2) 0.0447 Uani
C6 C 0.3980(3) 0.0789(3) 0.2807(3) 0.0593 Uani
C7 C 0.2871(3) 0.0800(2) 0.1554(2) 0.0427 Uani
O4 O 0.5480(2) 0.0752(3) 0.39205(19) 0.0847 Uani
C8 C 0.5560(3) 0.0773(3) 0.3408(3) 0.0537 Uani
C9 C 0.4199(3) 0.0895(3) 0.1354(4) 0.0730 Uani
H1 H 0.4624 0.0907 0.1374 0.1090 Uiso
H2 H 0.4057 0.1254 0.1187 0.1090 Uiso
H3 H 0.4078 0.0562 0.1133 0.1090 Uiso
C10 C 0.5373(3) 0.0881(3) 0.2138(3) 0.0690 Uani
H4 H 0.5210 0.0912 0.1771 0.1030 Uiso
H5 H 0.5623 0.0537 0.2159 0.1030 Uiso
H6 H 0.5603 0.1228 0.2218 0.1030 Uiso
K1 K 0.67509(9) 0.0000 0.2500 0.0520 Uani
S1B S 0.43476(8) -0.07555(9) 0.15747(8) 0.0688 Uani
S2B S 0.32235(8) -0.07723(8) 0.23384(8) 0.0600 Uani
C1B C 0.3998(3) -0.0849(3) 0.3188(4) 0.0730 Uani
C2B C 0.4984(4) -0.0838(3) 0.2535(3) 0.0683 Uani
O1B O 0.23680(16) -0.07634(16) 0.32089(15) 0.0413 Uani
O2B O 0.29515(19) -0.0812(2) 0.39571(18) 0.0617 Uani
O3B O 0.60556(18) -0.07731(16) 0.18134(17) 0.0500 Uani
C3B C 0.4324(3) -0.0823(3) 0.2661(3) 0.0553 Uani
C4B C 0.3395(3) -0.0813(2) 0.3058(3) 0.0427 Uani
C5B C 0.5018(3) -0.0789(2) 0.1952(2) 0.0447 Uani
C6B C 0.3980(3) -0.0789(3) 0.2193(3) 0.0593 Uani
C7B C 0.2871(3) -0.0800(2) 0.3446(2) 0.0427 Uani
O4B O 0.5480(2) -0.0752(3) 0.10795(19) 0.0847 Uani
C8B C 0.5560(3) -0.0773(3) 0.1592(3) 0.0537 Uani
C9B C 0.4199(3) -0.0895(3) 0.3646(4) 0.0730 Uani
H1B H 0.4624 -0.0907 0.3626 0.1090 Uiso
H2B H 0.4057 -0.1254 0.3813 0.1090 Uiso
H3B H 0.4078 -0.0562 0.3867 0.1090 Uiso
C10B C 0.5373(3) -0.0881(3) 0.2862(3) 0.0690 Uani
H4B H 0.5210 -0.0912 0.3229 0.1030 Uiso
H5B H 0.5623 -0.0537 0.2841 0.1030 Uiso
H6B H 0.5603 -0.1228 0.2782 0.1030 Uiso
Zn1B Zn 0.16990(2) -0.08010(2) 0.3750 0.0304 Uani
Zn1S Zn 0.66990(2) -0.08010(2) 0.1250 0.0304 Uani
Zn1Y Zn 0.66990(2) 0.08010(2) 0.3750 0.0304 Uani
O1D O 0.17366(16) 0.01320(16) 0.07089(15) 0.0413 Uani
O1S O 0.73680(16) -0.07634(16) 0.17911(15) 0.0413 Uani
O1Y O 0.73680(16) 0.07634(16) 0.32089(15) 0.0413 Uani
O2V O 0.6688(2) 0.04515(19) 0.14571(18) 0.0617 Uani
O2CA O 0.6688(2) -0.04515(19) 0.35429(18) 0.0617 Uani
O3U O 0.17269(16) 0.14444(18) 0.06866(17) 0.0500 Uani
O3Y O 0.10556(18) 0.07731(16) 0.18134(17) 0.0500 Uani
K1S K 0.17509(9) 0.0000 0.2500 0.0520 Uani
K1U K 0.2500 0.07491(9) 0.0000 0.0520 Uani
K1BA K 0.2500 -0.07491(9) 0.5000 0.0520 Uani
loop_
_atom_site_aniso_label
_atom_site_aniso_U_11
_atom_site_aniso_U_22
_atom_site_aniso_U_33
_atom_site_aniso_U_23
_atom_site_aniso_U_13
_atom_site_aniso_U_12
Zn1 0.0340(4) 0.0340(4) 0.0232(5) 0.0021(2) 0.0021(2) 0.0001(4)
S1 0.0585(11) 0.0902(14) 0.0577(11) -0.0009(10) -0.0128(8) 0.0047(10)
S2 0.0543(10) 0.0720(12) 0.0536(10) 0.0016(8) -0.0115(7) -0.0017(8)
C1 0.046(4) 0.043(4) 0.130(8) -0.005(5) -0.037(5) -0.002(3)
C2 0.084(5) 0.037(3) 0.084(6) 0.004(4) -0.053(5) 0.001(4)
O1 0.035(2) 0.050(2) 0.039(2) 0.0036(17) -0.0053(17) -0.0027(18)
O2 0.048(2) 0.097(4) 0.040(2) 0.014(2) -0.012(2) -0.013(2)
O3 0.042(2) 0.057(3) 0.051(2) -0.0001(19) -0.0121(19) 0.007(2)
C3 0.046(3) 0.039(3) 0.081(5) 0.000(3) -0.034(3) 0.002(3)
C4 0.041(3) 0.047(3) 0.040(3) 0.003(3) -0.007(3) -0.002(3)
C5 0.044(3) 0.051(3) 0.039(3) -0.006(3) -0.012(3) 0.009(3)
C6 0.056(4) 0.053(4) 0.069(5) 0.004(3) -0.015(4) -0.002(3)
C7 0.046(3) 0.039(3) 0.043(3) 0.008(3) -0.015(3) -0.006(3)
O4 0.062(3) 0.149(6) 0.043(3) -0.003(3) -0.016(2) 0.018(3)
C8 0.044(4) 0.051(4) 0.066(4) -0.008(3) -0.010(3) 0.006(3)
C9 0.054(4) 0.073(5) 0.092(6) -0.006(5) -0.051(5) 0.008(4)
C10 0.064(5) 0.057(5) 0.086(6) -0.009(4) -0.044(4) 0.012(4)
K1 0.0661(13) 0.0601(12) 0.0298(9) -0.0125(8) 0.000 0.000
S1B 0.0585 0.0902 0.0577 -0.0009 0.0128 -0.0047
S2B 0.0543 0.072 0.0536 0.0016 0.0115 0.0017
C1B 0.046 0.043 0.13 -0.005 0.037 0.002
C2B 0.084 0.037 0.084 0.004 0.053 -0.001
O1B 0.035 0.05 0.039 0.0036 0.0053 0.0027
O2B 0.048 0.097 0.04 0.014 0.012 0.013
O3B 0.042 0.057 0.051 -0.0001 0.0121 -0.007
C3B 0.046 0.039 0.081 0 0.034 -0.002
C4B 0.041 0.047 0.04 0.003 0.007 0.002
C5B 0.044 0.051 0.039 -0.006 0.012 -0.009
C6B 0.056 0.053 0.069 0.004 0.015 0.002
C7B 0.046 0.039 0.043 0.008 0.015 0.006
O4B 0.062 0.149 0.043 -0.003 0.016 -0.018
C8B 0.044 0.051 0.066 -0.008 0.01 -0.006
C9B 0.054 0.073 0.092 -0.006 0.051 -0.008
C10B 0.064 0.057 0.086 -0.009 0.044 -0.012
Zn1B 0.034 0.034 0.0232 0.0021 -0.0021 -0.0001
Zn1S 0.034 0.034 0.0232 -0.0021 0.0021 -0.0001
Zn1Y 0.034 0.034 0.0232 -0.0021 -0.0021 0.0001
O1D 0.05 0.035 0.039 -0.0053 0.0036 -0.0027
O1S 0.035 0.05 0.039 -0.0036 -0.0053 0.0027
O1Y 0.035 0.05 0.039 -0.0036 0.0053 -0.0027
O2V 0.097 0.048 0.04 0.012 0.014 0.013
O2CA 0.097 0.048 0.04 0.012 -0.014 -0.013
O3U 0.057 0.042 0.051 0.0121 0.0001 0.007
O3Y 0.042 0.057 0.051 0.0001 0.0121 0.007
K1S 0.0661 0.0601 0.0298 0.0125 0 0
K1U 0.0601 0.0661 0.0298 0 0.0125 0
K1BA 0.0601 0.0661 0.0298 0 -0.0125 0
loop_
_geom_bond_atom_site_label_1
_geom_bond_atom_site_label_2
_geom_bond_site_symmetry_1
_geom_bond_site_symmetry_2
Zn1 O1 1_555 1_555
S1 C5 1_555 1_555
S2 C4 1_555 1_555
C1 C3 1_555 1_555
C2 C3 1_555 1_555
O1 C7 1_555 1_555
O2 C7 1_555 1_555
O3 C8 1_555 1_555
C3 C6 1_555 1_555
C4 C1 1_555 1_555
C5 C2 1_555 1_555
C6 S1 1_555 1_555
C7 C4 1_555 1_555
O4 C8 1_555 1_555
C8 C5 1_555 1_555
C9 C1 1_555 1_555
H1 C9 1_555 1_555
H2 C9 1_555 1_555
H3 C9 1_555 1_555
C10 C2 1_555 1_555
H4 C10 1_555 1_555
H5 C10 1_555 1_555
H6 C10 1_555 1_555
K1 O3 1_555 1_555
S1B C5B 1_555 1_555
S2B C4B 1_555 1_555
C1B C3B 1_555 1_555
C2B C3B 1_555 1_555
O1B C7B 1_555 1_555
O2B C7B 1_555 1_555
O3B K1 1_555 1_555
C3B C6B 1_555 1_555
C4B C1B 1_555 1_555
C5B C2B 1_555 1_555
C6B S1B 1_555 1_555
C7B C4B 1_555 1_555
O4B C8B 1_555 1_555
C8B O3B 1_555 1_555
C9B C1B 1_555 1_555
H1B C9B 1_555 1_555
H2B C9B 1_555 1_555
H3B C9B 1_555 1_555
C10B C2B 1_555 1_555
H4B C10B 1_555 1_555
H5B C10B 1_555 1_555
H6B C10B 1_555 1_555
Zn1B O1B 1_555 1_555
Zn1S O3B 1_555 1_555
Zn1Y O3 1_555 1_555
O1D Zn1 1_555 1_555
O1S K1 1_555 1_555
O1Y K1 1_555 1_555
O2V K1 1_555 1_555
O2CA K1 1_555 1_555
O3U Zn1 1_555 1_555
O3Y Zn1 1_555 1_555
K1S O1 1_555 1_555
K1U O2 1_555 1_555
K1BA O2B 1_555 1_555
S2 C6 1_555 1_555
S2B C6B 1_555 1_555
O1B K1S 1_555 1_555
C5B C8B 1_555 1_555
Zn1S O1S 1_555 1_555
Zn1Y O1Y 1_555 1_555
O1D K1U 1_555 1_555
O3U K1U 1_555 1_555
O3Y K1S 1_555 1_555

#END
