
#######################################################################
#
#                 Cambridge Crystallographic Data Centre
#                                CCDC 
#
#######################################################################
#
# If this CIF has been generated from an entry in the Cambridge 
# Structural Database, then it will include bibliographic, chemical, 
# crystal, experimental, refinement or atomic coordinate data resulting 
# from the CCDC's data processing and validation procedures.
#
#######################################################################

data_MAVRAE
_chemical_name_common            NJU-Bai3
_chemical_formula_moiety         '(C32 H23 Cu3 N2 O17)n'
_chemical_name_systematic        
'catena-(bis(\m~6~-5-(4-Carboxylatobenzoylamino)isophthalato)-triaqua-tri-copper unknown solvate)'
_symmetry_cell_setting           hexagonal
_symmetry_space_group_name_H-M   'P 63/m m c'
_symmetry_Int_Tables_number      194
_space_group_name_Hall           '-P 6c 2c'
loop_
_symmetry_equiv_pos_site_id
_symmetry_equiv_pos_as_xyz
1 x,y,z
2 x-y,x,1/2+z
3 -y,x-y,z
4 -x,-y,1/2+z
5 -x+y,-x,z
6 y,-x+y,1/2+z
7 -y,-x,1/2-z
8 x-y,-y,-z
9 x,x-y,1/2-z
10 y,x,-z
11 -x+y,y,1/2-z
12 -x,-x+y,-z
13 -x,-y,-z
14 -x+y,-x,1/2-z
15 y,-x+y,-z
16 x,y,1/2-z
17 x-y,x,-z
18 -y,x-y,1/2-z
19 y,x,1/2+z
20 -x+y,y,z
21 -x,-x+y,1/2+z
22 -y,-x,z
23 x-y,-y,1/2+z
24 x,x-y,z
_cell_length_a                   18.701(2)
_cell_length_b                   18.701(2)
_cell_length_c                   49.754(5)
_cell_angle_alpha                90
_cell_angle_beta                 90
_cell_angle_gamma                120
_cell_volume                     15069.1
_cell_formula_units_Z            6
loop_
_atom_site_label
_atom_site_type_symbol
_atom_site_fract_x
_atom_site_fract_y
_atom_site_fract_z
_atom_site_U_iso_or_equiv
_atom_site_thermal_displace_type
C1 C -0.07028(22) 0.07032(10) 0.29158(7) 0.0478 Uani
C2 C -0.08700(22) 0.08700(10) 0.31778(6) 0.0441 Uani
C3 C -0.02904(26) 0.15851(21) 0.33125(5) 0.0527 Uani
H1 H 0.0208 0.1947 0.3230 0.0630 Uiso
C4 C -0.04608(27) 0.17551(22) 0.35705(5) 0.0521 Uani
H2 H -0.0074 0.2224 0.3662 0.0620 Uiso
C5 C -0.12150(23) 0.12150(11) 0.36889(7) 0.0539 Uani
C6 C -0.13932(23) 0.13928(11) 0.39592(6) 0.0462 Uani
C7 C -0.20010(23) 0.20010(11) 0.42635(7) 0.0512 Uani
C8 C -0.14432(28) 0.27419(23) 0.43891(5) 0.0535 Uani
H3 H -0.0961 0.3128 0.4304 0.0640 Uiso
C9 C -0.16378(26) 0.28801(21) 0.46484(4) 0.0442 Uani
C10 C -0.23423(23) 0.23427(11) 0.47892(6) 0.0458 Uani
H4 H -0.2447 0.2446 0.4963 0.0550 Uiso
C11 C -0.11091(27) 0.36064(22) 0.47811(5) 0.0495 Uani
Cu1 Cu 0.06079(3) 0.12158(2) 0.2500 0.0499 Uani
Cu2 Cu 0.050410(12) 0.525203(23) 0.478452(7) 0.0361 Uani
N1 N -0.18277(20) 0.18277(9) 0.40015(5) 0.0473 Uani
H5 H -0.1996 0.1997 0.3858 0.0570 Uiso
O1 O -0.00424(17) 0.12340(14) 0.28167(3) 0.0525 Uani
O2 O -0.11746(16) 0.11746(7) 0.41580(5) 0.0506 Uani
O3 O -0.05246(14) 0.41033(10) 0.46476(3) 0.0489 Uani
O4 O -0.12697(13) 0.36962(9) 0.50130(3) 0.0457 Uani
O5 O 0.13010(16) 0.26020(11) 0.2500 0.0513 Uani
O6 O 0.1113(7) 0.5556(16) 0.4392(4) 0.0350 Uani
C1J C 0.14060(24) 0.07032(10) 0.20842(7) 0.0478 Uani
C2J C 0.17400(24) 0.08700(10) 0.18222(6) 0.0441 Uani
C3U C -0.15851(21) 0.02904(26) 0.33125(5) 0.0527 Uani
C3J C 0.18755(33) 0.15851(21) 0.16875(5) 0.0527 Uani
C3M C 0.18755(33) 0.02904(26) 0.16875(5) 0.0527 Uani
H1U H -0.1947 -0.0208 0.3230 0.0630 Uiso
H1J H 0.1739 0.1947 0.1770 0.0630 Uiso
H1M H 0.1739 -0.0208 0.1770 0.0630 Uiso
C4U C -0.17551(22) 0.04608(27) 0.35705(5) 0.0521 Uani
C4J C 0.22159(35) 0.17551(22) 0.14295(5) 0.0521 Uani
C4M C 0.22159(35) 0.04608(27) 0.14295(5) 0.0521 Uani
H2U H -0.2224 0.0074 0.3662 0.0620 Uiso
H2J H 0.2298 0.2224 0.1338 0.0620 Uiso
H2M H 0.2298 0.0074 0.1338 0.0620 Uiso
C5J C 0.24300(25) 0.12150(11) 0.13111(7) 0.0539 Uani
C6J C 0.27860(25) 0.13928(11) 0.10408(6) 0.0462 Uani
C7J C 0.40020(25) 0.20010(11) 0.07365(7) 0.0512 Uani
C8U C -0.27419(23) 0.14432(28) 0.43891(5) 0.0535 Uani
C8J C 0.41851(36) 0.27419(23) 0.06109(5) 0.0535 Uani
C8M C 0.41851(36) 0.14432(28) 0.06109(5) 0.0535 Uani
H3U H -0.3128 0.0961 0.4304 0.0640 Uiso
H3J H 0.4089 0.3128 0.0696 0.0640 Uiso
H3M H 0.4089 0.0961 0.0696 0.0640 Uiso
C9U C -0.28801(21) 0.16378(26) 0.46484(4) 0.0442 Uani
C9J C 0.45179(33) 0.28801(21) 0.03516(4) 0.0442 Uani
C9M C 0.45179(33) 0.16378(26) 0.03516(4) 0.0442 Uani
C10J C 0.46850(25) 0.23427(11) 0.02108(6) 0.0458 Uani
H4J H 0.4893 0.2446 0.0037 0.0550 Uiso
C11U C -0.36064(22) 0.11091(27) 0.47811(5) 0.0495 Uani
C11J C 0.47155(35) 0.36064(22) 0.02189(5) 0.0495 Uani
C11M C 0.47155(35) 0.11091(27) 0.02189(5) 0.0495 Uani
Cu1B Cu -0.12158(2) -0.06079(4) 0.2500 0.0499 Uani
Cu1D Cu 0.06079(4) -0.06079(3) 0.2500 0.0499 Uani
Cu2U Cu -0.525203(23) -0.050410(12) 0.478452(7) 0.0361 Uani
Cu2K Cu -0.050410(12) 0.474793(26) 0.521548(7) 0.0361 Uani
Cu2P Cu -0.474793(26) 0.050410(12) 0.521548(7) 0.0361 Uani
Cu2J Cu 0.474793(26) 0.525203(23) 0.021548(7) 0.0361 Uani
Cu2E Cu 0.525203(23) 0.474793(26) -0.021548(7) 0.0361 Uani
Cu2M Cu 0.474793(26) -0.050410(12) 0.021548(7) 0.0361 Uani
Cu2R Cu 0.525203(23) 0.050410(12) -0.021548(7) 0.0361 Uani
N1J N 0.36554(22) 0.18277(9) 0.09985(5) 0.0473 Uani
H5J H 0.3993 0.1997 0.1142 0.0570 Uiso
O1U O -0.12340(14) 0.00424(17) 0.28167(3) 0.0525 Uani
O1J O 0.12764(22) 0.12340(14) 0.21833(3) 0.0525 Uani
O1M O 0.12764(22) 0.00424(17) 0.21833(3) 0.0525 Uani
O1O O -0.00424(17) 0.12340(14) 0.21833(3) 0.0525 Uani
O1S O 0.12764(22) 0.12340(14) 0.28167(3) 0.0525 Uani
O2J O 0.23492(17) 0.11746(7) 0.08420(5) 0.0506 Uani
O3U O -0.41033(10) 0.05246(14) 0.46476(3) 0.0489 Uani
O3J O 0.46279(17) 0.41033(10) 0.03524(3) 0.0489 Uani
O3M O 0.46279(17) 0.05246(14) 0.03524(3) 0.0489 Uani
O3W O -0.05246(14) 0.53721(17) 0.46476(3) 0.0489 Uani
O3D O -0.53721(17) 0.05246(14) 0.46476(3) 0.0489 Uani
O4U O -0.36962(9) 0.12697(13) 0.50130(3) 0.0457 Uani
O4J O 0.49659(16) 0.36962(9) -0.00130(3) 0.0457 Uani
O4M O 0.49659(16) 0.12697(13) -0.00130(3) 0.0457 Uani
O4K O 0.12697(13) 0.49659(16) 0.49870(3) 0.0457 Uani
O4L O 0.12697(13) 0.63038(9) 0.49870(3) 0.0457 Uani
O4P O -0.49659(16) -0.12697(13) 0.49870(3) 0.0457 Uani
O4I O -0.63038(9) -0.12697(13) 0.49870(3) 0.0457 Uani
O6U O -0.5556(16) -0.1113(7) 0.4392(4) 0.0350 Uani
H6? H -0.2800 -0.1697 0.2644 0.0620 Uiso
H7? H -0.2800 -0.0920 0.2475 0.0620 Uiso
H8? H 0.1733 0.5723 0.4423 0.0420 Uiso
H9? H 0.1220 0.6126 0.4324 0.0420 Uiso
H10? H -0.0843 -0.5562 -0.0701 0.0410 Uiso
H11? H -0.1356 -0.6198 -0.0602 0.0410 Uiso
O7? O -0.1268(13) -0.5634(6) -0.0560(4) 0.0342 Uani
loop_
_atom_site_aniso_label
_atom_site_aniso_U_11
_atom_site_aniso_U_22
_atom_site_aniso_U_33
_atom_site_aniso_U_23
_atom_site_aniso_U_13
_atom_site_aniso_U_12
C1 0.0447 0.0449 0.057 -0.0106 0.0107 0.0248
C2 0.0518 0.0518 0.0374 0.0008 -0.0008 0.0324
C3 0.0406 0.0638 0.0547 -0.0107 0.0076 0.0268
C4 0.0478 0.0664 0.049 -0.0102 -0.0009 0.0337
C5 0.0505 0.0509 0.06 -0.015 0.0151 0.0252
C6 0.0545 0.0545 0.0387 -0.0028 0.0028 0.0341
C7 0.0516 0.0516 0.052 -0.0115 0.0114 0.0271
C8 0.0485 0.0666 0.0455 -0.0157 0.0055 0.0288
C9 0.0466 0.0501 0.0359 -0.0045 0.0074 0.0242
C10 0.0456 0.0454 0.0375 -0.0071 0.0071 0.016
C11 0.0458 0.0489 0.0478 -0.0088 0.0061 0.0192
Cu1 0.0465 0.0676 0.0425 0 0 0.0338
Cu2 0.0399 0.03807 0.03082 0.00321 0.00642 0.01997
N1 0.0457 0.0457 0.048 -0.0059 0.0058 0.0209
O1 0.0481 0.0573 0.0543 -0.0039 0.0082 0.0279
O2 0.047 0.047 0.0588 0.0077 -0.0078 0.0243
O3 0.0486 0.0515 0.0463 -0.0049 0.0099 0.0248
O4 0.0409 0.0487 0.0491 -0.009 0.0063 0.0236
O5 0.0451 0.0634 0.0516 0 0 0.0317
O6 0.023 0.042 0.033 -0.0031 -0.006 0.011
C1J 0.040(2) 0.0449(15) 0.057(2) 0.0106(8) 0.0213(16) 0.0201(10)
C2J 0.0388(19) 0.0518(16) 0.0374(16) -0.0008(7) -0.0016(14) 0.0194(9)
C3U 0.0638 0.0406 0.0547 -0.0076 0.0107 0.0268
C3J 0.0508 0.0638 0.0547 0.0107 0.0183 0.037
C3M 0.0508(15) 0.0406(14) 0.0547(15) 0.0076(12) 0.0183(12) 0.0138(12)
C4U 0.0664 0.0478 0.049 0.0009 0.0102 0.0337
C4J 0.0468 0.0664 0.049 0.0102 0.0093 0.0327
C4M 0.0468(14) 0.0478(15) 0.0490(13) -0.0009(12) 0.0093(12) 0.0141(12)
C5J 0.051(2) 0.0509(16) 0.060(2) 0.0150(9) 0.0301(18) 0.0257(11)
C6J 0.0408(19) 0.0545(16) 0.0387(17) 0.0028(8) 0.0056(16) 0.0204(10)
C7J 0.049(2) 0.0516(16) 0.052(2) 0.0115(9) 0.0229(17) 0.0245(11)
C8U 0.0666 0.0485 0.0455 -0.0055 0.0157 0.0288
C8J 0.0575 0.0666 0.0455 0.0157 0.0212 0.0378
C8M 0.0575(16) 0.0485(15) 0.0455(13) 0.0055(12) 0.0212(12) 0.0197(13)
C9U 0.0501 0.0466 0.0359 -0.0074 0.0045 0.0242
C9J 0.0483 0.0501 0.0359 0.0045 0.0119 0.0259
C9M 0.0483(14) 0.0466(14) 0.0359(12) 0.0074(10) 0.0119(10) 0.0224(12)
C10J 0.059(2) 0.0454(13) 0.0375(16) 0.0071(8) 0.0142(16) 0.0294(11)
C11U 0.0489 0.0458 0.0478 -0.0061 0.0088 0.0192
C11J 0.0563 0.0489 0.0478 0.0088 0.0149 0.0297
C11M 0.0563(15) 0.0458(14) 0.0478(13) 0.0061(12) 0.0149(13) 0.0266(12)
Cu1B 0.0676 0.0465 0.0425 0 0 0.0338
Cu1D 0.0465(3) 0.0465(3) 0.0425(3) 0.000 0.000 0.0127(3)
Cu2U 0.03803 0.0399 0.03082 -0.00642 -0.00321 0.01993
Cu2K 0.0399 0.03803 0.03082 0.00321 0.00642 0.01993
Cu2P 0.03807 0.0399 0.03082 -0.00642 -0.00321 0.01997
Cu2J 0.03803 0.03807 0.03082 -0.00321 0.00321 0.0181
Cu2E 0.03807 0.03803 0.03082 -0.00321 0.00321 0.0181
Cu2M 0.03807 0.0399 0.03082 0.00642 0.00321 0.01997
Cu2R 0.03803(16) 0.0399(2) 0.03082(18) 0.00642(17) 0.00321(8) 0.01993(11)
N1J 0.0496(17) 0.0457(12) 0.0480(16) 0.0059(7) 0.0117(13) 0.0248(9)
O1U 0.0573 0.0481 0.0543 -0.0082 0.0039 0.0279
O1J 0.0496 0.0573 0.0543 0.0039 0.0121 0.0294
O1M 0.0496(10) 0.0481(10) 0.0543(9) 0.0082(8) 0.0121(8) 0.0202(9)
O1O 0.0481 0.0573 0.0543 0.0039 -0.0082 0.0279
O1S 0.0496 0.0573 0.0543 -0.0039 -0.0121 0.0294
O2J 0.0454(14) 0.0470(10) 0.0588(14) -0.0077(6) -0.0155(12) 0.0227(7)
O3U 0.0515 0.0486 0.0463 -0.0099 0.0049 0.0248
O3J 0.0505 0.0515 0.0463 0.0049 0.0148 0.0267
O3M 0.0505(10) 0.0486(10) 0.0463(9) 0.0099(8) 0.0148(8) 0.0238(9)
O3W 0.0486 0.0505 0.0463 0.0148 0.0099 0.0238
O3D 0.0505 0.0486 0.0463 -0.0099 -0.0148 0.0238
O4U 0.0487 0.0409 0.0491 -0.0063 0.009 0.0236
O4J 0.0424 0.0487 0.0491 0.009 0.0153 0.0251
O4M 0.0424(9) 0.0409(9) 0.0491(9) 0.0063(7) 0.0153(7) 0.0173(8)
O4K 0.0409 0.0424 0.0491 0.0153 0.0063 0.0173
O4L 0.0409 0.0487 0.0491 -0.009 0.0063 0.0236
O4P 0.0424 0.0409 0.0491 -0.0063 -0.0153 0.0173
O4I 0.0487 0.0409 0.0491 -0.0063 0.009 0.0236
O6U 0.043 0.023 0.033 0.006 0.0029 0.012
O7? 0.027 0.045 0.024 0.001 0.003 0.013
loop_
_geom_bond_atom_site_label_1
_geom_bond_atom_site_label_2
_geom_bond_site_symmetry_1
_geom_bond_site_symmetry_2
C1 C2 1_555 1_555
C2 C3 1_555 1_555
C3 H1 1_555 1_555
C4 C3 1_555 1_555
H2 C4 1_555 1_555
C5 C4 1_555 1_555
C6 C5 1_555 1_555
C7 C8 1_555 1_555
C8 H3 1_555 1_555
C9 C8 1_555 1_555
C10 C9 1_555 1_555
H4 C10 1_555 1_555
C11 C9 1_555 1_555
Cu1 O1 1_555 1_555
Cu2 O3 1_555 1_555
N1 C6 1_555 1_555
H5 N1 1_555 1_555
O1 C1 1_555 1_555
O2 C6 1_555 1_555
O3 C11 1_555 1_555
O4 C11 1_555 1_555
O5 Cu1 1_555 1_555
O6 Cu2 1_555 1_555
C1J C2J 1_555 1_555
C2J C3J 1_555 1_555
C3U C2 1_555 1_555
C3J H1J 1_555 1_555
C3M C2J 1_555 1_555
H1U C3U 1_555 1_555
H1M C3M 1_555 1_555
C4U C5 1_555 1_555
C4J C3J 1_555 1_555
C4M C3M 1_555 1_555
H2U C4U 1_555 1_555
H2J C4J 1_555 1_555
H2M C4M 1_555 1_555
C5J C4J 1_555 1_555
C6J C5J 1_555 1_555
C7J C8J 1_555 1_555
C8U C7 1_555 1_555
C8J H3J 1_555 1_555
C8M C7J 1_555 1_555
H3U C8U 1_555 1_555
H3M C8M 1_555 1_555
C9U C10 1_555 1_555
C9J C8J 1_555 1_555
C9M C8M 1_555 1_555
C10J C9J 1_555 1_555
H4J C10J 1_555 1_555
C11U C9U 1_555 1_555
C11J C9J 1_555 1_555
C11M C9M 1_555 1_555
Cu1B O1U 1_555 1_555
Cu1D O1M 1_555 1_555
Cu2U O3U 1_555 1_555
Cu2K O4 1_555 1_555
Cu2P O4U 1_555 1_555
Cu2J O3J 1_555 1_555
Cu2E O4J 1_555 1_555
Cu2M O3M 1_555 1_555
Cu2R O4M 1_555 1_555
N1J C6J 1_555 1_555
H5J N1J 1_555 1_555
O1U C1 1_555 1_555
O1J Cu1 1_555 1_555
O1M C1J 1_555 1_555
O1O Cu1 1_555 1_555
O1S Cu1 1_555 1_555
O2J C6J 1_555 1_555
O3U C11U 1_555 1_555
O3J C11J 1_555 1_555
O3M C11M 1_555 1_555
O3W Cu2 1_555 1_555
O3D Cu2U 1_555 1_555
O4U C11U 1_555 1_555
O4J C11J 1_555 1_555
O4M C11M 1_555 1_555
O4K Cu2 1_555 1_555
O4L Cu2 1_555 1_555
O4P Cu2U 1_555 1_555
O4I Cu2U 1_555 1_555
O6U Cu2U 1_555 1_555
C7 N1 1_555 1_555
C1J O1J 1_555 1_555
C3U C4U 1_555 1_555
C4M C5J 1_555 1_555
C7J N1J 1_555 1_555
C8U C9U 1_555 1_555
C9M C10J 1_555 1_555

#END
