
#######################################################################
#
#                 Cambridge Crystallographic Data Centre
#                                CCDC 
#
#######################################################################
#
# If this CIF has been generated from an entry in the Cambridge 
# Structural Database, then it will include bibliographic, chemical, 
# crystal, experimental, refinement or atomic coordinate data resulting 
# from the CCDC's data processing and validation procedures.
#
#######################################################################

data_XACGIT
_chemical_formula_moiety         
'(C18 H29 Cd10 N72 2+)n,2n(N1 O3 1-),16n(H2 O1)'
_chemical_name_systematic        
'catena-(hexakis(\m~4~-Tetrazolato)-dodecakis(\m~3~-tetrazolato)-deca-cadmium dinitrate hexadecahydrate)'
_symmetry_cell_setting           hexagonal
_symmetry_space_group_name_H-M   'P 63/m m c'
_symmetry_Int_Tables_number      194
_space_group_name_Hall           '-P 6c 2c'
loop_
_symmetry_equiv_pos_site_id
_symmetry_equiv_pos_as_xyz
1 x,y,z
2 -y,x-y,z
3 -x+y,-x,z
4 -x,-y,1/2+z
5 y,-x+y,1/2+z
6 x-y,x,1/2+z
7 y,x,-z
8 x-y,-y,-z
9 -x,-x+y,-z
10 -y,-x,1/2-z
11 -x+y,y,1/2-z
12 x,x-y,1/2-z
13 -x,-y,-z
14 y,-x+y,-z
15 x-y,x,-z
16 x,y,1/2-z
17 -y,x-y,1/2-z
18 -x+y,-x,1/2-z
19 -y,-x,z
20 -x+y,y,z
21 x,x-y,z
22 y,x,1/2+z
23 x-y,-y,1/2+z
24 -x,-x+y,1/2+z
_cell_length_a                   13.0732(10)
_cell_length_b                   13.0732(10)
_cell_length_c                   13.435(2)
_cell_angle_alpha                90
_cell_angle_beta                 90
_cell_angle_gamma                120
_cell_volume                     1988.53
_exptl_crystal_colour            colorless
_exptl_crystal_description       block
_cell_formula_units_Z            1
loop_
_atom_site_label
_atom_site_type_symbol
_atom_site_fract_x
_atom_site_fract_y
_atom_site_fract_z
_atom_site_U_iso_or_equiv
_atom_site_thermal_displace_type
O2 O 0.0000 0.0000 0.6017(18) 0.0569 Uani
O3 O 0.8808(7) 0.7617(14) 0.6477(11) 0.0663 Uani
Cd1 Cd 0.5000 1.0000 0.5000 0.0101 Uani
Cd2 Cd 0.3333 0.6666 0.40339(12) 0.0176 Uani
N2 N 0.2489(9) 0.7510(10) 0.5024(7) 0.0149 Uani
N3 N 0.3036(7) 0.8618(10) 0.5344(6) 0.0160 Uani
N4 N 0.4174(13) 0.5826(10) 0.2995(7) 0.0146 Uani
N5 N 0.5266(5) 1.0531(11) 0.6687(8) 0.0171 Uani
C1 C 0.4934(20) 0.9869(9) 0.7500 0.0232 Uani
H1 H 0.4515 0.9032 0.7500 0.0280 Uiso
C2 C 0.2253(8) 0.8765(14) 0.5862(7) 0.0223 Uani
H2 H 0.2385 0.9473 0.6184 0.0270 Uiso
N2A N 0.2490(10) 0.4979(13) 0.5024(7) 0.0149 Uani
N2B N 0.5021(13) 0.7511(9) 0.5024(7) 0.0149 Uani
N3G N 0.4418(12) 1.1382(10) 0.4656(6) 0.0160 Uani
N3L N 0.6964(7) 1.1382(10) 0.4656(6) 0.0160 Uani
N3S N 0.5582(12) 0.8618(10) 0.5344(6) 0.0160 Uani
N3R N 0.1382(10) 0.6964(7) 0.5344(6) 0.0160 Uani
N4B N 0.1652(16) 0.5826(13) 0.2995(7) 0.0146 Uani
N4A N 0.4174(10) 0.8348(16) 0.2995(7) 0.0146 Uani
N4I N 0.4174(10) 0.5826(13) 0.2005(7) 0.0146 Uani
N4H N 0.5826(13) 1.1652(16) 0.7005(7) 0.0146 Uani
N5G N 0.4735(12) 0.9469(11) 0.3313(8) 0.0171 Uani
N5H N 0.4734(5) 0.5265(12) 0.3313(8) 0.0171 Uani
N5J N 0.5265(12) 1.0531(11) 0.8313(8) 0.0171 Uani
C2R C 0.1235(14) 0.7747(8) 0.5862(7) 0.0223 Uani
N1 N 0.6667 0.3333 0.2500 0.0446 Uani
O1 O 0.7216(10) 0.2785(4) 0.2500 0.1382 Uani
O1A O 0.7215(4) 0.4431(11) 0.2500 0.1382 Uani
O1B O 0.5569(11) 0.2784(10) 0.2500 0.1382 Uani
N6? N 0.6512(8) 0.7747(14) 0.5862(7) 0.0223 Uani
loop_
_atom_site_aniso_label
_atom_site_aniso_U_11
_atom_site_aniso_U_22
_atom_site_aniso_U_33
_atom_site_aniso_U_23
_atom_site_aniso_U_13
_atom_site_aniso_U_12
O2 0.071(12) 0.071(12) 0.028(12) 0.000 0.000 0.035(6)
O3 0.082(9) 0.077(11) 0.039(7) -0.008(8) -0.004(4) 0.039(5)
Cd1 0.0131 0.0096 0.0065 -0.0004 -0.0002 0.0048
Cd2 0.0176(8) 0.0176(8) 0.0177(10) 0.000 0.000 0.0088(4)
N2 0.013 0.013 0.018 -0.002 0.002 0.006
N3 0.019 0.011 0.016 0 0 0.006
N4 0.019 0.019 0.009 -0.002 0.002 0.012
N5 0.027 0.014 0.006 -0.004 -0.002 0.007
C1 0.04 0.009 0.011 0 0 0.005
C2 0.023 0.019 0.027 -0.007 0.007 0.012
N2A 0.013 0.014 0.018 0.004 0.002 0.007
N2B 0.014(7) 0.013(5) 0.018(7) -0.002(2) -0.004(4) 0.007(3)
N3G 0.018 0.011 0.016 0 0 0.005
N3L 0.019 0.011 0.016 0 0 0.006
N3S 0.018 0.011 0.016 0 0 0.005
N3R 0.011 0.019 0.016 0 0 0.006
N4B 0.014 0.019 0.009 -0.002 -0.004 0.007
N4A 0.019(4) 0.014(6) 0.009(5) 0.004(5) 0.002(2) 0.007(3)
N4I 0.019 0.019 0.009 0.002 -0.002 0.012
N4H 0.019 0.014 0.009 0.004 0.002 0.007
N5G 0.027(5) 0.014(6) 0.006(5) -0.004(5) -0.002(2) 0.007(3)
N5H 0.027 0.027 0.006 0.002 -0.002 0.02
N5J 0.027 0.014 0.006 0.004 0.002 0.007
C2R 0.019 0.023 0.027 -0.007 0.007 0.012
N1 0.043(5) 0.043(5) 0.047(8) 0.000 0.000 0.021(3)
O1 0.137 0.137 0.14 0 0 0.068
O1A 0.137(8) 0.138(7) 0.140(9) 0.000 0.000 0.069(4)
O1B 0.138 0.137 0.14 0 0 0.069
N6? 0.018(5) 0.023(5) 0.027(5) -0.007(4) -0.014(4) 0.011(4)
loop_
_geom_bond_atom_site_label_1
_geom_bond_atom_site_label_2
_geom_bond_site_symmetry_1
_geom_bond_site_symmetry_2
N1 O1 1_555 1_555
Cd1 N3 1_555 1_555
Cd2 N2 1_555 1_555
N2 N3 1_555 1_555
N3 C2 1_555 1_555
N4 Cd2 1_555 1_555
N5 Cd1 1_555 1_555
C1 N5 1_555 1_555
H1 C1 1_555 1_555
C2 H2 1_555 1_555
O1A N1 1_555 1_555
O1B N1 1_555 1_555
N2A Cd2 1_555 1_555
N2B Cd2 1_555 1_555
N3G Cd1 1_555 1_555
N3L Cd1 1_555 1_555
N3S Cd1 1_555 1_555
N3R N2 1_555 1_555
N4B Cd2 1_555 1_555
N4A Cd2 1_555 1_555
N4I N4 1_555 1_555
N4H N5 1_555 1_555
N5G Cd1 1_555 1_555
N5H N4 1_555 1_555
N5J C1 1_555 1_555
C2R C2 1_555 1_555
N2B N3S 1_555 1_555
N3R C2R 1_555 1_555
N4A N5G 1_555 1_555

#END
