
#######################################################################
#
#                 Cambridge Crystallographic Data Centre
#                                CCDC 
#
#######################################################################
#
# If this CIF has been generated from an entry in the Cambridge 
# Structural Database, then it will include bibliographic, chemical, 
# crystal, experimental, refinement or atomic coordinate data resulting 
# from the CCDC's data processing and validation procedures.
#
#######################################################################

data_KELCUA01
_chemical_formula_moiety         '(C34 H28 N2 O8 Rh2)n'
_chemical_name_systematic        
catena-(tetrakis(\m~2~-Benzoato)-(\m~2~-2-ethylpyrazine)-di-rhodium(ii))
_symmetry_cell_setting           triclinic
_symmetry_space_group_name_H-M   'P -1'
_symmetry_Int_Tables_number      2
_space_group_name_Hall           '-P 1'
loop_
_symmetry_equiv_pos_site_id
_symmetry_equiv_pos_as_xyz
1 x,y,z
2 -x,-y,-z
_cell_length_a                   10.2833(10)
_cell_length_b                   10.4707(10)
_cell_length_c                   15.5700(15)
_cell_angle_alpha                79.133(2)
_cell_angle_beta                 81.323(2)
_cell_angle_gamma                86.287(2)
_cell_volume                     1626.43
_exptl_crystal_colour            red
_exptl_crystal_description       plate
_cell_formula_units_Z            2
loop_
_atom_site_label
_atom_site_type_symbol
_atom_site_fract_x
_atom_site_fract_y
_atom_site_fract_z
_atom_site_U_iso_or_equiv
_atom_site_thermal_displace_type
C1 C 1.0935(6) 0.2910(6) -0.0597(4) 0.0125 Uani
C2 C 1.1453(6) 0.1717(6) -0.0947(4) 0.0111 Uani
C3 C 1.1549(6) 0.0534(6) -0.0373(4) 0.0149 Uani
H1 H 1.1222 0.0465 0.0237 0.0180 Uiso
C4 C 1.2125(6) -0.0541(6) -0.0699(4) 0.0167 Uani
H2 H 1.2191 -0.1353 -0.0311 0.0200 Uiso
C5 C 1.2602(6) -0.0438(6) -0.1583(4) 0.0165 Uani
H3 H 1.3022 -0.1174 -0.1798 0.0200 Uiso
C6 C 1.2477(7) 0.0739(6) -0.2172(4) 0.0191 Uani
H4 H 1.2791 0.0798 -0.2784 0.0230 Uiso
C7 C 1.1899(6) 0.1798(6) -0.1854(4) 0.0167 Uani
H5 H 1.1797 0.2597 -0.2249 0.0200 Uiso
C8 C 1.2206(6) 0.5388(6) 0.0540(4) 0.0175 Uani
C9 C 1.3382(7) 0.5738(6) 0.0877(4) 0.0195 Uani
C10 C 1.3444(7) 0.5442(7) 0.1783(5) 0.0259 Uani
H6 H 1.2755 0.4986 0.2173 0.0310 Uiso
C11 C 1.4509(8) 0.5813(7) 0.2112(5) 0.0320 Uani
H7 H 1.4563 0.5597 0.2727 0.0390 Uiso
C12 C 1.5482(8) 0.6491(7) 0.1552(5) 0.0342 Uani
H8 H 1.6202 0.6764 0.1782 0.0410 Uiso
C13 C 1.5432(7) 0.6786(7) 0.0650(5) 0.0321 Uani
H9 H 1.6129 0.7233 0.0265 0.0380 Uiso
C14 C 1.4370(7) 0.6431(6) 0.0312(5) 0.0258 Uani
H10 H 1.4318 0.6661 -0.0302 0.0310 Uiso
C15 C 0.3799(6) -0.0504(6) 0.3743(4) 0.0139 Uani
C16 C 0.3150(6) -0.0848(6) 0.3033(4) 0.0129 Uani
C17 C 0.3685(7) -0.0486(6) 0.2151(4) 0.0187 Uani
H11 H 0.4469 -0.0011 0.2002 0.0220 Uiso
C18 C 0.3087(7) -0.0810(6) 0.1494(4) 0.0204 Uani
H12 H 0.3460 -0.0554 0.0894 0.0250 Uiso
C19 C 0.1959(7) -0.1497(6) 0.1695(4) 0.0207 Uani
H13 H 0.1552 -0.1722 0.1238 0.0250 Uiso
C20 C 0.1416(7) -0.1862(6) 0.2573(4) 0.0212 Uani
H14 H 0.0628 -0.2330 0.2717 0.0250 Uiso
C21 C 0.2015(6) -0.1548(6) 0.3235(4) 0.0171 Uani
H15 H 0.1645 -0.1815 0.3835 0.0210 Uiso
C22 C 0.3536(6) 0.2118(6) 0.5133(4) 0.0135 Uani
C23 C 0.2790(7) 0.3339(6) 0.5270(4) 0.0163 Uani
C24 C 0.3351(7) 0.4536(6) 0.4920(4) 0.0211 Uani
H16 H 0.4188 0.4564 0.4564 0.0250 Uiso
C25 C 0.2706(7) 0.5679(6) 0.5083(4) 0.0249 Uani
H17 H 0.3104 0.6489 0.4853 0.0300 Uiso
C26 C 0.1469(7) 0.5636(7) 0.5588(5) 0.0264 Uani
H18 H 0.1013 0.6420 0.5698 0.0320 Uiso
C27 C 0.0904(7) 0.4458(7) 0.5928(5) 0.0278 Uani
H19 H 0.0059 0.4431 0.6274 0.0330 Uiso
C28 C 0.1559(7) 0.3314(6) 0.5769(4) 0.0222 Uani
H20 H 0.1160 0.2505 0.6004 0.0270 Uiso
C29 C 0.7494(6) 0.3580(6) 0.2257(4) 0.0130 Uani
H21 H 0.7121 0.4318 0.1911 0.0160 Uiso
C30 C 0.6720(6) 0.2891(6) 0.2961(4) 0.0124 Uani
H22 H 0.5826 0.3166 0.3097 0.0150 Uiso
C31 C 0.8456(6) 0.1523(6) 0.3264(4) 0.0143 Uani
H23 H 0.8824 0.0791 0.3620 0.0170 Uiso
C32 C 0.9269(6) 0.2220(6) 0.2559(4) 0.0135 Uani
C33 C 1.0718(7) 0.1842(6) 0.2400(4) 0.0235 Uani
H24 H 1.1090 0.2231 0.1789 0.0280 Uiso
H25 H 1.0828 0.0884 0.2463 0.0280 Uiso
C34 C 1.1460(8) 0.2308(8) 0.3053(5) 0.0354 Uani
H26 H 1.1278 0.3242 0.3034 0.0530 Uiso
H27 H 1.2407 0.2145 0.2895 0.0530 Uiso
H28 H 1.1172 0.1835 0.3651 0.0530 Uiso
N1 N 0.8765(5) 0.3243(5) 0.2043(3) 0.0137 Uani
N2 N 0.7200(5) 0.1835(5) 0.3461(3) 0.0127 Uani
O1 O 1.0401(4) 0.2758(4) 0.0204(3) 0.0140 Uani
O2 O 1.1066(4) 0.3978(4) -0.1128(3) 0.0142 Uani
O3 O 1.1388(4) 0.4657(4) 0.1078(3) 0.0146 Uani
O4 O 1.2070(4) 0.5877(4) -0.0261(3) 0.0160 Uani
O5 O 0.4797(4) 0.0203(4) 0.3516(3) 0.0145 Uani
O6 O 0.3325(4) -0.0969(4) 0.4530(3) 0.0143 Uani
O7 O 0.4600(4) 0.2226(4) 0.4585(3) 0.0151 Uani
O8 O 0.3097(4) 0.1056(4) 0.5582(3) 0.0129 Uani
Rh1 Rh 0.96399(5) 0.43593(4) 0.07093(3) 0.0109 Uani
Rh2 Rh 0.57857(5) 0.06236(4) 0.44649(3) 0.0106 Uani
O2A O 0.8934(4) 0.6022(4) 0.1128(3) 0.0142 Uani
O4A O 0.7930(4) 0.4123(4) 0.0261(3) 0.0160 Uani
O6A O 0.6675(4) 0.0969(4) 0.5470(3) 0.0143 Uani
O8A O 0.6903(4) -0.1056(4) 0.4418(3) 0.0129 Uani
Rh1A Rh 1.03601(5) 0.56407(4) -0.07093(3) 0.0109 Uani
Rh2A Rh 0.42143(5) -0.06236(4) 0.55351(3) 0.0106 Uani
loop_
_atom_site_aniso_label
_atom_site_aniso_U_11
_atom_site_aniso_U_22
_atom_site_aniso_U_33
_atom_site_aniso_U_23
_atom_site_aniso_U_13
_atom_site_aniso_U_12
C1 0.010(3) 0.015(3) 0.012(3) -0.003(2) 0.000(2) 0.002(2)
C2 0.010(3) 0.012(3) 0.012(3) -0.005(2) 0.000(2) 0.000(2)
C3 0.017(3) 0.015(3) 0.012(3) -0.003(2) 0.001(2) -0.001(2)
C4 0.018(3) 0.016(3) 0.015(3) 0.000(2) -0.003(2) 0.001(2)
C5 0.019(3) 0.015(3) 0.018(3) -0.011(2) -0.002(2) 0.003(2)
C6 0.020(3) 0.023(3) 0.014(3) -0.005(2) 0.003(2) -0.006(3)
C7 0.018(3) 0.018(3) 0.014(3) -0.004(2) 0.000(2) -0.001(2)
C8 0.017 0.013 0.022 -0.008 0.004 0.002
C9 0.017 0.018 0.026 -0.009 -0.005 0.001
C10 0.027 0.021 0.03 -0.002 -0.009 0.001
C11 0.032 0.03 0.037 -0.007 -0.016 0.006
C12 0.026 0.03 0.051 -0.012 -0.013 -0.002
C13 0.02 0.026 0.049 -0.005 -0.001 -0.006
C14 0.019 0.019 0.038 -0.006 0.001 0
C15 0.018(3) 0.010(3) 0.010(3) 0.002(2) 0.004(2) 0.001(2)
C16 0.016(3) 0.012(3) 0.009(3) 0.001(2) 0.000(2) -0.001(2)
C17 0.019(3) 0.020(3) 0.015(3) 0.000(2) 0.001(2) -0.003(3)
C18 0.022(3) 0.027(3) 0.011(3) -0.002(3) -0.002(3) 0.002(3)
C19 0.024(3) 0.025(3) 0.014(3) -0.005(3) -0.003(3) -0.003(3)
C20 0.023(3) 0.022(3) 0.019(3) -0.005(3) 0.000(3) -0.007(3)
C21 0.022(3) 0.018(3) 0.010(3) 0.000(2) 0.000(2) -0.003(2)
C22 0.015 0.017 0.009 -0.004 -0.001 -0.001
C23 0.022 0.016 0.012 -0.005 -0.003 0
C24 0.025 0.016 0.021 -0.003 0.001 -0.003
C25 0.031 0.017 0.027 -0.003 -0.006 -0.002
C26 0.028 0.021 0.029 -0.007 0 0.007
C27 0.026 0.026 0.028 -0.005 0.006 0.001
C28 0.026 0.018 0.019 -0.001 0.007 -0.004
C29 0.015(3) 0.008(3) 0.015(3) 0.001(2) -0.003(2) -0.001(2)
C30 0.012(3) 0.013(3) 0.010(3) 0.001(2) 0.003(2) -0.003(2)
C31 0.020(3) 0.014(3) 0.010(3) -0.005(2) -0.002(2) 0.000(2)
C32 0.017(3) 0.013(3) 0.011(3) -0.006(2) 0.001(2) -0.001(2)
C33 0.024(3) 0.020(3) 0.023(3) 0.000(3) 0.002(3) 0.002(3)
C34 0.025(4) 0.038(4) 0.042(4) -0.007(3) -0.003(3) 0.003(3)
N1 0.020(3) 0.007(2) 0.012(2) -0.001(2) 0.003(2) 0.000(2)
N2 0.017(3) 0.012(2) 0.008(2) -0.0024(19) 0.003(2) -0.002(2)
O1 0.017(2) 0.013(2) 0.010(2) -0.0017(17) 0.0035(17) 0.0016(17)
O2 0.019(2) 0.012(2) 0.0086(19) 0.0030(17) 0.0025(17) -0.0027(17)
O3 0.015 0.016 0.011 0.0018 -0.0003 -0.003
O4 0.017 0.016 0.013 -0.0023 0.0044 -0.003
O5 0.018(2) 0.014(2) 0.010(2) 0.0004(17) 0.0013(18) -0.0040(18)
O6 0.018(2) 0.015(2) 0.009(2) -0.0024(17) 0.0039(17) -0.0074(18)
O7 0.017 0.012 0.013 0.0003 0.0049 -0.0009
O8 0.013 0.012 0.012 -0.0006 0.0026 -0.0031
Rh1 0.0131(3) 0.0095(3) 0.0078(3) -0.00034(19) 0.00491(19) -0.00185(19)
Rh2 0.0154(3) 0.0095(3) 0.0052(2) -0.00048(19) 0.00402(19) -0.00328(19)
O2A 0.019 0.012 0.0086 0.003 0.0025 -0.0027
O4A 0.017(2) 0.016(2) 0.013(2) -0.0023(18) 0.0044(18) -0.0030(18)
O6A 0.018 0.015 0.009 -0.0024 0.0039 -0.0074
O8A 0.013(2) 0.012(2) 0.012(2) -0.0006(17) 0.0026(17) -0.0031(17)
Rh1A 0.0131 0.0095 0.0078 -0.00034 0.00491 -0.00185
Rh2A 0.0154 0.0095 0.0052 -0.00048 0.00402 -0.00328
loop_
_geom_bond_atom_site_label_1
_geom_bond_atom_site_label_2
_geom_bond_site_symmetry_1
_geom_bond_site_symmetry_2
C1 C2 1_555 1_555
C2 C3 1_555 1_555
C3 H1 1_555 1_555
C4 C3 1_555 1_555
H2 C4 1_555 1_555
C5 C4 1_555 1_555
H3 C5 1_555 1_555
C6 C5 1_555 1_555
H4 C6 1_555 1_555
C7 C2 1_555 1_555
H5 C7 1_555 1_555
C8 C9 1_555 1_555
C9 C10 1_555 1_555
C10 H6 1_555 1_555
C11 C10 1_555 1_555
H7 C11 1_555 1_555
C12 C11 1_555 1_555
H8 C12 1_555 1_555
C13 C12 1_555 1_555
H9 C13 1_555 1_555
C14 C9 1_555 1_555
H10 C14 1_555 1_555
C15 C16 1_555 1_555
C16 C17 1_555 1_555
C17 H11 1_555 1_555
C18 C17 1_555 1_555
H12 C18 1_555 1_555
C19 C18 1_555 1_555
H13 C19 1_555 1_555
C20 C19 1_555 1_555
H14 C20 1_555 1_555
C21 C16 1_555 1_555
H15 C21 1_555 1_555
C22 C23 1_555 1_555
C23 C24 1_555 1_555
C24 H16 1_555 1_555
C25 C24 1_555 1_555
H17 C25 1_555 1_555
C26 C25 1_555 1_555
H18 C26 1_555 1_555
C27 C26 1_555 1_555
H19 C27 1_555 1_555
C28 C23 1_555 1_555
H20 C28 1_555 1_555
C29 H21 1_555 1_555
C30 C29 1_555 1_555
H22 C30 1_555 1_555
C31 H23 1_555 1_555
C32 C31 1_555 1_555
C33 C32 1_555 1_555
H24 C33 1_555 1_555
H25 C33 1_555 1_555
C34 C33 1_555 1_555
H26 C34 1_555 1_555
H27 C34 1_555 1_555
H28 C34 1_555 1_555
N1 C29 1_555 1_555
N2 C30 1_555 1_555
O1 C1 1_555 1_555
O2 C1 1_555 1_555
O3 C8 1_555 1_555
O4 C8 1_555 1_555
O5 C15 1_555 1_555
O6 C15 1_555 1_555
O7 C22 1_555 1_555
O8 C22 1_555 1_555
Rh1 N1 1_555 1_555
Rh2 N2 1_555 1_555
O2A Rh1 1_555 1_555
O4A Rh1 1_555 1_555
O6A Rh2 1_555 1_555
O8A Rh2 1_555 1_555
Rh1A O2 1_555 1_555
Rh2A O6 1_555 1_555
C6 C7 1_555 1_555
C13 C14 1_555 1_555
C20 C21 1_555 1_555
C27 C28 1_555 1_555
C31 N2 1_555 1_555
C32 N1 1_555 1_555
O1 Rh1 1_555 1_555
O3 Rh1 1_555 1_555
O4 Rh1A 1_555 1_555
O5 Rh2 1_555 1_555
O7 Rh2 1_555 1_555
O8 Rh2A 1_555 1_555
Rh1 Rh1A 1_555 1_555
Rh2 Rh2A 1_555 1_555

#END
