
#######################################################################
#
#                 Cambridge Crystallographic Data Centre
#                                CCDC 
#
#######################################################################
#
# If this CIF has been generated from an entry in the Cambridge 
# Structural Database, then it will include bibliographic, chemical, 
# crystal, experimental, refinement or atomic coordinate data resulting 
# from the CCDC's data processing and validation procedures.
#
#######################################################################

data_KELCUA
_chemical_formula_moiety         '(C34 H28 N2 O8 Rh2)n'
_chemical_name_systematic        
catena-(tetrakis(\m~2~-Benzoato)-(\m~2~-2-ethylpyrazine)-di-rhodium(ii))
_symmetry_cell_setting           triclinic
_symmetry_space_group_name_H-M   'P -1'
_symmetry_Int_Tables_number      2
_space_group_name_Hall           '-P 1'
loop_
_symmetry_equiv_pos_site_id
_symmetry_equiv_pos_as_xyz
1 x,y,z
2 -x,-y,-z
_cell_length_a                   10.5184(7)
_cell_length_b                   10.5191(8)
_cell_length_c                   15.6108(11)
_cell_angle_alpha                81.007(2)
_cell_angle_beta                 79.760(2)
_cell_angle_gamma                87.933(2)
_cell_volume                     1678.78
_exptl_crystal_colour            red
_exptl_crystal_description       plate
_cell_formula_units_Z            2
loop_
_atom_site_label
_atom_site_type_symbol
_atom_site_fract_x
_atom_site_fract_y
_atom_site_fract_z
_atom_site_U_iso_or_equiv
_atom_site_thermal_displace_type
C1 C 0.5446(7) 0.7177(7) 0.0522(5) 0.0416 Uani
C2 C 0.5772(8) 0.8357(8) 0.0836(6) 0.0510 Uani
C3 C 0.5428(10) 0.8462(9) 0.1721(6) 0.0693 Uani
H1 H 0.4947 0.7816 0.2104 0.0830 Uiso
C4 C 0.5804(11) 0.9540(11) 0.2043(8) 0.0884 Uani
H2 H 0.5602 0.9619 0.2637 0.1060 Uiso
C5 C 0.6460(11) 1.0441(11) 0.1458(8) 0.0920 Uani
H3 H 0.6713 1.1156 0.1667 0.1110 Uiso
C6 C 0.6787(10) 1.0409(10) 0.0595(8) 0.0842 Uani
H4 H 0.7226 1.1093 0.0224 0.1010 Uiso
C7 C 0.6459(9) 0.9322(8) 0.0251(7) 0.0684 Uani
H5 H 0.6696 0.9259 -0.0344 0.0820 Uiso
C8 C 0.2937(7) 0.5929(6) -0.0594(4) 0.0315 Uani
C9 C 0.1760(7) 0.6460(7) -0.0937(4) 0.0322 Uani
C10 C 0.0595(7) 0.6537(8) -0.0375(5) 0.0420 Uani
H6 H 0.0525 0.6210 0.0220 0.0500 Uiso
C11 C -0.0456(8) 0.7097(8) -0.0696(5) 0.0524 Uani
H7 H -0.1243 0.7133 -0.0319 0.0630 Uiso
C12 C -0.0353(8) 0.7606(8) -0.1574(5) 0.0539 Uani
H8 H -0.1062 0.8015 -0.1782 0.0640 Uiso
C13 C 0.0787(8) 0.7513(8) -0.2141(5) 0.0517 Uani
H9 H 0.0849 0.7839 -0.2736 0.0620 Uiso
C14 C 0.1830(8) 0.6939(7) -0.1828(5) 0.0440 Uani
H10 H 0.2600 0.6866 -0.2216 0.0530 Uiso
C15 C 0.2094(7) -0.1386(7) 0.5130(4) 0.0354 Uani
C16 C 0.3289(7) -0.2107(8) 0.5246(5) 0.0429 Uani
C17 C 0.4483(8) -0.1575(9) 0.4870(6) 0.0616 Uani
H11 H 0.4521 -0.0775 0.4515 0.0740 Uiso
C18 C 0.5602(9) -0.2198(10) 0.5008(7) 0.0777 Uani
H12 H 0.6395 -0.1818 0.4762 0.0930 Uiso
C19 C 0.5554(10) -0.3386(10) 0.5511(7) 0.0793 Uani
H13 H 0.6317 -0.3818 0.5605 0.0950 Uiso
C20 C 0.4391(10) -0.3942(10) 0.5878(7) 0.0804 Uani
H14 H 0.4358 -0.4757 0.6213 0.0960 Uiso
C21 C 0.3268(9) -0.3287(9) 0.5750(6) 0.0656 Uani
H15 H 0.2477 -0.3659 0.6014 0.0780 Uiso
C22 C -0.0491(7) -0.1194(7) 0.3748(4) 0.0354 Uani
C23 C -0.0825(7) -0.1848(7) 0.3051(4) 0.0410 Uani
C24 C -0.0476(9) -0.1319(9) 0.2185(5) 0.0571 Uani
H16 H -0.0027 -0.0547 0.2038 0.0680 Uiso
C25 C -0.0786(10) -0.1926(9) 0.1528(6) 0.0667 Uani
H17 H -0.0547 -0.1564 0.0940 0.0800 Uiso
C26 C -0.1447(9) -0.3065(9) 0.1744(6) 0.0624 Uani
H18 H -0.1648 -0.3483 0.1303 0.0750 Uiso
C27 C -0.1808(9) -0.3581(9) 0.2607(6) 0.0623 Uani
H19 H -0.2248 -0.4358 0.2756 0.0750 Uiso
C28 C -0.1524(8) -0.2959(8) 0.3254(5) 0.0538 Uani
H20 H -0.1810 -0.3296 0.3841 0.0640 Uiso
C29 C 0.3559(7) 0.2505(7) 0.2257(4) 0.0390 Uani
H21 H 0.4271 0.2163 0.1921 0.0470 Uiso
C30 C 0.2849(7) 0.1726(7) 0.2952(4) 0.0376 Uani
H22 H 0.3087 0.0866 0.3075 0.0460 Uiso
C31 C 0.1553(7) 0.3414(7) 0.3269(4) 0.0360 Uani
H23 H 0.0864 0.3754 0.3626 0.0430 Uiso
C32 C 0.2247(7) 0.4232(7) 0.2566(4) 0.0373 Uani
C33 C 0.1910(9) 0.5655(8) 0.2425(5) 0.0580 Uani
H24 H 0.0980 0.5753 0.2475 0.0700 Uiso
H25 H 0.2298 0.6030 0.1832 0.0700 Uiso
C34 C 0.2370(12) 0.6392(11) 0.3084(7) 0.0992 Uani
H26 H 0.1866 0.6143 0.3658 0.1490 Uiso
H27 H 0.2267 0.7300 0.2905 0.1490 Uiso
H28 H 0.3264 0.6196 0.3101 0.1490 Uiso
N1 N 0.3244(5) 0.3755(6) 0.2050(3) 0.0349 Uani
N2 N 0.1830(5) 0.2174(6) 0.3452(3) 0.0328 Uani
O1 O 0.4719(5) 0.6360(5) 0.1059(3) 0.0422 Uani
O2 O 0.5921(5) 0.7029(5) -0.0271(3) 0.0420 Uani
O3 O 0.2793(4) 0.5400(5) 0.0205(3) 0.0377 Uani
O4 O 0.3992(4) 0.6058(5) -0.1122(3) 0.0384 Uani
O5 O 0.2197(5) -0.0348(5) 0.4589(3) 0.0414 Uani
O6 O 0.1038(5) -0.1823(5) 0.5587(3) 0.0388 Uani
O7 O 0.0193(5) -0.0199(5) 0.3528(3) 0.0379 Uani
O8 O -0.0969(5) -0.1660(5) 0.4535(3) 0.0402 Uani
Rh1 Rh 0.43665(5) 0.46451(5) 0.07086(3) 0.0295 Uani
Rh2 Rh 0.06197(5) 0.07805(6) 0.44641(3) 0.0304 Uani
O2A O 0.4079(5) 0.2971(5) 0.0271(3) 0.0420 Uani
O4A O 0.6008(4) 0.3942(5) 0.1122(3) 0.0384 Uani
O6A O -0.1038(5) 0.1823(5) 0.4413(3) 0.0388 Uani
O8A O 0.0969(5) 0.1660(5) 0.5465(3) 0.0402 Uani
Rh1A Rh 0.56335(5) 0.53549(5) -0.07086(3) 0.0295 Uani
Rh2A Rh -0.06197(5) -0.07805(6) 0.55359(3) 0.0304 Uani
loop_
_atom_site_aniso_label
_atom_site_aniso_U_11
_atom_site_aniso_U_22
_atom_site_aniso_U_33
_atom_site_aniso_U_23
_atom_site_aniso_U_13
_atom_site_aniso_U_12
C1 0.041(3) 0.037(3) 0.046(3) -0.001(3) -0.009(3) -0.004(3)
C2 0.046(4) 0.042(4) 0.068(4) -0.008(3) -0.018(3) -0.002(3)
C3 0.074(5) 0.059(4) 0.078(5) -0.024(4) -0.009(4) -0.005(4)
C4 0.092(5) 0.079(5) 0.099(5) -0.039(5) -0.007(5) -0.003(5)
C5 0.090(5) 0.075(5) 0.116(6) -0.033(5) -0.013(5) -0.011(5)
C6 0.080(5) 0.056(5) 0.115(5) -0.006(5) -0.016(5) -0.015(4)
C7 0.065(5) 0.049(4) 0.092(5) -0.006(4) -0.018(4) -0.010(4)
C8 0.032 0.03 0.029 0.004 -0.003 -0.002
C9 0.031 0.034 0.031 -0.001 -0.006 -0.006
C10 0.034 0.054 0.036 -0.001 -0.007 0.004
C11 0.042 0.065 0.05 -0.009 -0.008 0.005
C12 0.051 0.065 0.05 -0.003 -0.026 0.001
C13 0.054 0.064 0.039 0.002 -0.021 -0.006
C14 0.042 0.051 0.036 0.003 -0.006 -0.007
C15 0.032(3) 0.046(4) 0.025(3) 0.003(3) -0.003(3) -0.003(3)
C16 0.032(3) 0.051(4) 0.042(3) 0.001(3) -0.004(3) 0.002(3)
C17 0.039(4) 0.068(5) 0.070(4) 0.007(4) -0.004(4) 0.001(4)
C18 0.046(4) 0.085(5) 0.094(5) 0.002(4) -0.005(4) 0.004(4)
C19 0.054(4) 0.086(5) 0.093(5) -0.001(4) -0.014(4) 0.014(4)
C20 0.063(5) 0.078(5) 0.087(5) 0.017(4) -0.006(4) 0.013(4)
C21 0.049(4) 0.066(5) 0.070(4) 0.013(4) 0.000(4) 0.006(4)
C22 0.034 0.043 0.026 0.003 -0.003 -0.006
C23 0.042 0.048 0.032 -0.003 -0.006 -0.003
C24 0.068 0.061 0.041 -0.005 -0.007 -0.008
C25 0.083 0.071 0.046 -0.01 -0.009 -0.005
C26 0.073 0.071 0.048 -0.02 -0.013 -0.005
C27 0.062 0.065 0.058 -0.011 -0.002 -0.011
C28 0.053 0.063 0.043 -0.006 -0.002 -0.009
C29 0.030(3) 0.045(4) 0.032(3) 0.009(3) 0.008(3) 0.004(3)
C30 0.033(3) 0.041(4) 0.030(3) 0.012(3) 0.003(3) 0.000(3)
C31 0.031(3) 0.047(4) 0.027(3) -0.003(3) 0.001(3) -0.001(3)
C32 0.033(3) 0.042(3) 0.034(3) 0.003(3) -0.005(3) -0.002(3)
C33 0.058(5) 0.053(4) 0.051(4) 0.009(4) 0.007(4) 0.005(4)
C34 0.118(7) 0.079(6) 0.103(7) -0.023(6) -0.018(6) -0.001(6)
N1 0.027(3) 0.042(3) 0.028(3) 0.009(2) 0.003(2) 0.000(3)
N2 0.028(3) 0.042(3) 0.024(2) 0.006(2) -0.002(2) -0.003(2)
O1 0.047(3) 0.040(3) 0.036(3) -0.003(2) 0.002(2) -0.009(2)
O2 0.041(3) 0.040(3) 0.041(3) 0.001(2) -0.001(2) -0.009(2)
O3 0.032 0.046 0.029 0.01 -0.003 0.001
O4 0.029 0.048 0.032 0.01 -0.003 0
O5 0.031(3) 0.048(3) 0.036(2) 0.014(2) 0.002(2) -0.004(2)
O6 0.031(3) 0.045(3) 0.033(2) 0.011(2) 0.000(2) -0.004(2)
O7 0.042 0.043 0.025 0.004 -0.002 -0.01
O8 0.042 0.046 0.029 0.003 -0.001 -0.015
Rh1 0.0263(3) 0.0328(3) 0.0227(3) 0.0098(2) 0.0025(2) -0.0047(2)
Rh2 0.0254(3) 0.0411(4) 0.0186(3) 0.0092(2) 0.0018(2) -0.0080(3)
O2A 0.041 0.04 0.041 0.001 -0.001 -0.009
O4A 0.029(3) 0.048(3) 0.032(2) 0.010(2) -0.003(2) 0.000(2)
O6A 0.031 0.045 0.033 0.011 0 -0.004
O8A 0.042(3) 0.046(3) 0.029(2) 0.003(2) -0.001(2) -0.015(2)
Rh1A 0.0263 0.0328 0.0227 0.0098 0.0025 -0.0047
Rh2A 0.0254 0.0411 0.0186 0.0092 0.0018 -0.008
loop_
_geom_bond_atom_site_label_1
_geom_bond_atom_site_label_2
_geom_bond_site_symmetry_1
_geom_bond_site_symmetry_2
C1 C2 1_555 1_555
C2 C3 1_555 1_555
C3 H1 1_555 1_555
C4 C3 1_555 1_555
H2 C4 1_555 1_555
C5 C4 1_555 1_555
H3 C5 1_555 1_555
C6 C5 1_555 1_555
H4 C6 1_555 1_555
C7 C2 1_555 1_555
H5 C7 1_555 1_555
C8 C9 1_555 1_555
C9 C10 1_555 1_555
C10 H6 1_555 1_555
C11 C10 1_555 1_555
H7 C11 1_555 1_555
C12 C11 1_555 1_555
H8 C12 1_555 1_555
C13 C12 1_555 1_555
H9 C13 1_555 1_555
C14 C9 1_555 1_555
H10 C14 1_555 1_555
C15 C16 1_555 1_555
C16 C17 1_555 1_555
C17 H11 1_555 1_555
C18 C17 1_555 1_555
H12 C18 1_555 1_555
C19 C18 1_555 1_555
H13 C19 1_555 1_555
C20 C19 1_555 1_555
H14 C20 1_555 1_555
C21 C16 1_555 1_555
H15 C21 1_555 1_555
C22 C23 1_555 1_555
C23 C24 1_555 1_555
C24 H16 1_555 1_555
C25 C24 1_555 1_555
H17 C25 1_555 1_555
C26 C25 1_555 1_555
H18 C26 1_555 1_555
C27 C26 1_555 1_555
H19 C27 1_555 1_555
C28 C23 1_555 1_555
H20 C28 1_555 1_555
C29 H21 1_555 1_555
C30 C29 1_555 1_555
H22 C30 1_555 1_555
C31 H23 1_555 1_555
C32 C31 1_555 1_555
C33 C32 1_555 1_555
H24 C33 1_555 1_555
H25 C33 1_555 1_555
C34 C33 1_555 1_555
H26 C34 1_555 1_555
H27 C34 1_555 1_555
H28 C34 1_555 1_555
N1 C29 1_555 1_555
N2 C30 1_555 1_555
O1 C1 1_555 1_555
O2 C1 1_555 1_555
O3 C8 1_555 1_555
O4 C8 1_555 1_555
O5 C15 1_555 1_555
O6 C15 1_555 1_555
O7 C22 1_555 1_555
O8 C22 1_555 1_555
Rh1 N1 1_555 1_555
Rh2 N2 1_555 1_555
O2A Rh1 1_555 1_555
O4A Rh1 1_555 1_555
O6A Rh2 1_555 1_555
O8A Rh2 1_555 1_555
Rh1A O2 1_555 1_555
Rh2A O6 1_555 1_555
C6 C7 1_555 1_555
C13 C14 1_555 1_555
C20 C21 1_555 1_555
C27 C28 1_555 1_555
C31 N2 1_555 1_555
C32 N1 1_555 1_555
O1 Rh1 1_555 1_555
O3 Rh1 1_555 1_555
O4 Rh1A 1_555 1_555
O5 Rh2 1_555 1_555
O7 Rh2 1_555 1_555
O8 Rh2A 1_555 1_555
Rh1 Rh1A 1_555 1_555
Rh2 Rh2A 1_555 1_555

#END
