
#######################################################################
#
#                 Cambridge Crystallographic Data Centre
#                                CCDC 
#
#######################################################################
#
# If this CIF has been generated from an entry in the Cambridge 
# Structural Database, then it will include bibliographic, chemical, 
# crystal, experimental, refinement or atomic coordinate data resulting 
# from the CCDC's data processing and validation procedures.
#
#######################################################################

data_KELDAH
_chemical_formula_moiety         '(C34 H28 N2 O8 Rh2)n,0.075n(C1 O2)'
_chemical_name_systematic        
'catena-(tetrakis(\m~2~-Benzoato)-(\m~2~-2-ethylpyrazine)-di-rhodium(ii) carbon dioxide)'
_symmetry_cell_setting           triclinic
_symmetry_space_group_name_H-M   'P -1'
_symmetry_Int_Tables_number      2
_space_group_name_Hall           '-P 1'
loop_
_symmetry_equiv_pos_site_id
_symmetry_equiv_pos_as_xyz
1 x,y,z
2 -x,-y,-z
_cell_length_a                   10.5231(10)
_cell_length_b                   10.5597(11)
_cell_length_c                   15.6019(14)
_cell_angle_alpha                81.092(2)
_cell_angle_beta                 79.994(2)
_cell_angle_gamma                88.246(2)
_cell_volume                     1686.72
_exptl_crystal_colour            red
_exptl_crystal_description       plate
_cell_formula_units_Z            2
loop_
_atom_site_label
_atom_site_type_symbol
_atom_site_fract_x
_atom_site_fract_y
_atom_site_fract_z
_atom_site_U_iso_or_equiv
_atom_site_thermal_displace_type
C1 C -0.2933(5) -0.5936(6) 0.5589(4) 0.0373 Uani
C2 C -0.1769(5) -0.6458(5) 0.5935(4) 0.0365 Uani
C3 C -0.0608(6) -0.6529(6) 0.5369(4) 0.0465 Uani
H1 H -0.0540 -0.6191 0.4776 0.0560 Uiso
C4 C 0.0455(6) -0.7107(7) 0.5691(4) 0.0561 Uani
H2 H 0.1237 -0.7145 0.5312 0.0670 Uiso
C5 C 0.0358(6) -0.7622(7) 0.6559(4) 0.0557 Uani
H3 H 0.1065 -0.8033 0.6764 0.0670 Uiso
C6 C -0.0782(6) -0.7533(7) 0.7130(4) 0.0547 Uani
H4 H -0.0839 -0.7865 0.7724 0.0660 Uiso
C7 C -0.1843(6) -0.6951(6) 0.6822(4) 0.0458 Uani
H5 H -0.2612 -0.6889 0.7210 0.0550 Uiso
C8 C -0.5439(6) -0.7146(6) 0.4469(4) 0.0437 Uani
C9 C -0.5777(7) -0.8345(7) 0.4166(5) 0.0600 Uani
C10 C -0.5441(8) -0.8445(8) 0.3282(6) 0.0796 Uani
H6 H -0.4990 -0.7783 0.2898 0.0960 Uiso
C11 C -0.5777(9) -0.9547(10) 0.2955(7) 0.1011 Uani
H7 H -0.5563 -0.9627 0.2361 0.1210 Uiso
C12 C -0.6418(10) -1.0466(10) 0.3545(8) 0.1042 Uani
H8 H -0.6649 -1.1195 0.3344 0.1250 Uiso
C13 C -0.6748(9) -1.0404(9) 0.4407(8) 0.1001 Uani
H9 H -0.7180 -1.1082 0.4786 0.1200 Uiso
C14 C -0.6437(8) -0.9316(7) 0.4729(6) 0.0798 Uani
H10 H -0.6678 -0.9252 0.5323 0.0960 Uiso
C15 C 0.0512(6) 0.1191(6) 0.1246(4) 0.0409 Uani
C16 C 0.0833(6) 0.1857(6) 0.1947(4) 0.0452 Uani
C17 C 0.0496(7) 0.1339(7) 0.2814(4) 0.0617 Uani
H11 H 0.0051 0.0568 0.2963 0.0740 Uiso
C18 C 0.0808(8) 0.1944(8) 0.3471(5) 0.0746 Uani
H12 H 0.0570 0.1579 0.4057 0.0900 Uiso
C19 C 0.1461(8) 0.3073(8) 0.3268(5) 0.0702 Uani
H13 H 0.1662 0.3487 0.3711 0.0840 Uiso
C20 C 0.1818(7) 0.3591(8) 0.2403(5) 0.0684 Uani
H14 H 0.2268 0.4361 0.2259 0.0820 Uiso
C21 C 0.1517(7) 0.2985(7) 0.1738(5) 0.0594 Uani
H15 H 0.1776 0.3339 0.1151 0.0710 Uiso
C22 C -0.2081(5) 0.1377(6) -0.0133(4) 0.0403 Uani
C23 C -0.3285(6) 0.2092(6) -0.0245(4) 0.0465 Uani
C24 C -0.4462(7) 0.1560(8) 0.0125(5) 0.0705 Uani
H16 H -0.4500 0.0760 0.0474 0.0850 Uiso
C25 C -0.5586(8) 0.2190(9) -0.0013(6) 0.0851 Uani
H17 H -0.6378 0.1810 0.0235 0.1020 Uiso
C26 C -0.5543(8) 0.3367(9) -0.0513(6) 0.0838 Uani
H18 H -0.6305 0.3799 -0.0597 0.1010 Uiso
C27 C -0.4386(8) 0.3916(9) -0.0891(6) 0.0896 Uani
H19 H -0.4352 0.4719 -0.1237 0.1080 Uiso
C28 C -0.3272(7) 0.3267(8) -0.0753(5) 0.0736 Uani
H20 H -0.2482 0.3641 -0.1015 0.0880 Uiso
C29 C -0.3543(6) -0.2509(6) 0.2749(4) 0.0443 Uani
H21 H -0.4246 -0.2170 0.3091 0.0530 Uiso
C30 C -0.2858(6) -0.1725(6) 0.2058(4) 0.0427 Uani
H22 H -0.3106 -0.0872 0.1934 0.0510 Uiso
C31 C -0.1534(5) -0.3403(6) 0.1745(4) 0.0397 Uani
H23 H -0.0832 -0.3741 0.1403 0.0470 Uiso
C32 C -0.2250(6) -0.4208(6) 0.2448(4) 0.0424 Uani
C33 C -0.1918(7) -0.5622(7) 0.2591(5) 0.0664 Uani
H24 H -0.2284 -0.5984 0.3190 0.0800 Uiso
H25 H -0.0988 -0.5715 0.2528 0.0800 Uiso
C34 C -0.2408(11) -0.6398(10) 0.1950(7) 0.1203 Uani
H26 H -0.3291 -0.6176 0.1917 0.1810 Uiso
H27 H -0.2345 -0.7298 0.2160 0.1810 Uiso
H28 H -0.1891 -0.6201 0.1376 0.1810 Uiso
N1 N -0.3245(4) -0.3749(5) 0.2957(3) 0.0414 Uani
N2 N -0.1822(4) -0.2176(5) 0.1553(3) 0.0369 Uani
O1 O -0.2793(3) -0.5393(4) 0.4797(2) 0.0413 Uani
O2 O -0.3996(4) -0.6062(4) 0.6119(2) 0.0429 Uani
O3 O -0.4730(4) -0.6347(4) 0.3937(3) 0.0464 Uani
O4 O -0.5918(4) -0.7018(4) 0.5258(3) 0.0469 Uani
O5 O -0.0181(4) 0.0207(4) 0.1469(2) 0.0442 Uani
O6 O 0.0979(4) 0.1665(4) 0.0458(2) 0.0463 Uani
O7 O -0.2188(4) 0.0345(4) 0.0409(3) 0.0462 Uani
O8 O -0.1031(4) 0.1819(4) -0.0593(2) 0.0424 Uani
Rh1 Rh -0.43683(4) -0.46378(4) 0.42938(3) 0.0335 Uani
Rh2 Rh -0.06199(4) -0.07759(5) 0.05384(3) 0.0341 Uani
O2A O -0.6004(4) -0.3938(4) 0.3881(2) 0.0429 Uani
O4A O -0.4082(4) -0.2982(4) 0.4742(3) 0.0469 Uani
O6A O -0.0979(4) -0.1665(4) -0.0458(2) 0.0463 Uani
O8A O 0.1031(4) -0.1819(4) 0.0593(2) 0.0424 Uani
Rh1A Rh -0.56317(4) -0.53622(4) 0.57062(3) 0.0335 Uani
Rh2A Rh 0.06199(4) 0.07759(5) -0.05384(3) 0.0341 Uani
C35 C 0.0000 -0.5000 0.0000 0.2005 Uani
O9 O -0.106(3) -0.532(7) 0.005(5) 0.2068 Uani
O9A O 0.106(3) -0.468(7) -0.005(5) 0.2068 Uani
loop_
_atom_site_aniso_label
_atom_site_aniso_U_11
_atom_site_aniso_U_22
_atom_site_aniso_U_33
_atom_site_aniso_U_23
_atom_site_aniso_U_13
_atom_site_aniso_U_12
C1 0.034 0.039 0.036 0.001 -0.002 -0.009
C2 0.035 0.038 0.035 0.002 -0.007 -0.007
C3 0.036 0.06 0.041 0 -0.006 -0.001
C4 0.041 0.075 0.052 -0.01 -0.008 0.006
C5 0.047 0.069 0.055 -0.006 -0.024 0.006
C6 0.052 0.069 0.042 0.003 -0.015 0.001
C7 0.042 0.056 0.039 -0.002 -0.009 -0.008
C8 0.038 0.04 0.052 -0.004 -0.007 -0.001
C9 0.052 0.052 0.079 -0.013 -0.017 -0.001
C10 0.072 0.073 0.098 -0.031 -0.009 -0.006
C11 0.101 0.091 0.117 -0.039 -0.012 -0.009
C12 0.097 0.085 0.136 -0.03 -0.021 -0.014
C13 0.098 0.068 0.136 -0.012 -0.024 -0.02
C14 0.079 0.056 0.106 -0.005 -0.024 -0.015
C15 0.041 0.047 0.032 0.001 -0.005 0
C16 0.047 0.05 0.037 -0.003 -0.006 -0.001
C17 0.077 0.064 0.042 -0.003 -0.007 -0.011
C18 0.098 0.077 0.049 -0.007 -0.013 -0.014
C19 0.082 0.08 0.054 -0.018 -0.019 -0.005
C20 0.069 0.072 0.065 -0.015 -0.007 -0.013
C21 0.059 0.071 0.046 -0.007 -0.002 -0.016
C22 0.033 0.05 0.035 0.001 -0.004 -0.002
C23 0.037 0.056 0.044 0.002 -0.009 0.002
C24 0.047 0.075 0.083 0.004 -0.008 0.001
C25 0.05 0.091 0.106 0.001 -0.005 0.001
C26 0.058 0.091 0.097 0.001 -0.015 0.018
C27 0.07 0.086 0.099 0.019 -0.009 0.017
C28 0.052 0.078 0.079 0.017 -0.005 0.005
C29 0.037 0.049 0.039 0.006 0.003 0.007
C30 0.042 0.044 0.033 0.013 0.002 -0.001
C31 0.036 0.049 0.03 0.001 0 -0.001
C32 0.039 0.049 0.035 0.004 -0.004 0.001
C33 0.064 0.062 0.062 0.006 0.005 0.01
C34 0.131 0.102 0.132 -0.036 -0.017 -0.002
N1 0.033 0.05 0.034 0.013 -0.003 -0.002
N2 0.033 0.048 0.024 0.005 0.002 -0.004
O1 0.031 0.052 0.032 0.013 0.0023 -0.0039
O2 0.032 0.055 0.034 0.013 -0.0007 -0.0053
O3 0.049 0.043 0.045 -0.009 0.0011 -0.004
O4 0.045 0.042 0.048 0.002 0.0018 -0.0088
O5 0.047 0.052 0.029 0.007 -0.0036 -0.013
O6 0.047 0.057 0.031 0.004 -0.0024 -0.017
O7 0.033 0.058 0.038 0.014 0.0021 -0.0056
O8 0.033 0.05 0.037 0.011 -0.0013 -0.0036
Rh1 0.0296 0.0369 0.0265 0.0112 0.00253 -0.00529
Rh2 0.0278 0.0459 0.0219 0.0098 0.00198 -0.0084
O2A 0.032 0.055 0.034 0.013 -0.0007 -0.0053
O4A 0.045 0.042 0.048 0.002 0.0018 -0.0088
O6A 0.047 0.057 0.031 0.004 -0.0024 -0.017
O8A 0.033 0.05 0.037 0.011 -0.0013 -0.0036
Rh1A 0.0296 0.0369 0.0265 0.0112 0.00253 -0.00529
Rh2A 0.0278 0.0459 0.0219 0.0098 0.00198 -0.0084
C35 0.201 0.201 0.2 -0.03 -0.036 -0.001
O9 0.207 0.206 0.206 -0.029 -0.034 0.001
O9A 0.207 0.206 0.206 -0.029 -0.034 0.001
loop_
_geom_bond_atom_site_label_1
_geom_bond_atom_site_label_2
_geom_bond_site_symmetry_1
_geom_bond_site_symmetry_2
C1 C2 1_555 1_555
C2 C3 1_555 1_555
C3 H1 1_555 1_555
C4 C3 1_555 1_555
H2 C4 1_555 1_555
C5 C4 1_555 1_555
H3 C5 1_555 1_555
C6 C5 1_555 1_555
H4 C6 1_555 1_555
C7 C2 1_555 1_555
H5 C7 1_555 1_555
C8 C9 1_555 1_555
C9 C10 1_555 1_555
C10 H6 1_555 1_555
C11 C10 1_555 1_555
H7 C11 1_555 1_555
C12 C11 1_555 1_555
H8 C12 1_555 1_555
C13 C12 1_555 1_555
H9 C13 1_555 1_555
C14 C9 1_555 1_555
H10 C14 1_555 1_555
C15 C16 1_555 1_555
C16 C17 1_555 1_555
C17 H11 1_555 1_555
C18 C17 1_555 1_555
H12 C18 1_555 1_555
C19 C18 1_555 1_555
H13 C19 1_555 1_555
C20 C19 1_555 1_555
H14 C20 1_555 1_555
C21 C16 1_555 1_555
H15 C21 1_555 1_555
C22 C23 1_555 1_555
C23 C24 1_555 1_555
C24 H16 1_555 1_555
C25 C24 1_555 1_555
H17 C25 1_555 1_555
C26 C25 1_555 1_555
H18 C26 1_555 1_555
C27 C26 1_555 1_555
H19 C27 1_555 1_555
C28 C23 1_555 1_555
H20 C28 1_555 1_555
C29 H21 1_555 1_555
C30 C29 1_555 1_555
H22 C30 1_555 1_555
C31 H23 1_555 1_555
C32 C31 1_555 1_555
C33 C32 1_555 1_555
H24 C33 1_555 1_555
H25 C33 1_555 1_555
C34 C33 1_555 1_555
H26 C34 1_555 1_555
H27 C34 1_555 1_555
H28 C34 1_555 1_555
C35 O9 1_555 1_555
N1 C29 1_555 1_555
N2 C30 1_555 1_555
O1 C1 1_555 1_555
O2 C1 1_555 1_555
O3 C8 1_555 1_555
O4 C8 1_555 1_555
O5 C15 1_555 1_555
O6 C15 1_555 1_555
O7 C22 1_555 1_555
O8 C22 1_555 1_555
Rh1 N1 1_555 1_555
Rh2 N2 1_555 1_555
O2A Rh1 1_555 1_555
O4A Rh1 1_555 1_555
O6A Rh2 1_555 1_555
O8A Rh2 1_555 1_555
O9A C35 1_555 1_555
Rh1A O2 1_555 1_555
Rh2A O6 1_555 1_555
C6 C7 1_555 1_555
C13 C14 1_555 1_555
C20 C21 1_555 1_555
C27 C28 1_555 1_555
C31 N2 1_555 1_555
C32 N1 1_555 1_555
O1 Rh1 1_555 1_555
O3 Rh1 1_555 1_555
O4 Rh1A 1_555 1_555
O5 Rh2 1_555 1_555
O7 Rh2 1_555 1_555
O8 Rh2A 1_555 1_555
Rh1 Rh1A 1_555 1_555
Rh2 Rh2A 1_555 1_555

#END
