
#######################################################################
#
#                 Cambridge Crystallographic Data Centre
#                                CCDC 
#
#######################################################################
#
# If this CIF has been generated from an entry in the Cambridge 
# Structural Database, then it will include bibliographic, chemical, 
# crystal, experimental, refinement or atomic coordinate data resulting 
# from the CCDC's data processing and validation procedures.
#
#######################################################################

data_FOKYAH
_chemical_formula_moiety         '(C20 H24 N3 O9 Pr1)n'
_chemical_name_systematic        
catena-((\m~4~-Naphthalene-2,6-dicarboxylato)-bis(N,N-dimethylacetamide)-(nitrato-O,O')-praseodymium)
_symmetry_cell_setting           orthorhombic
_symmetry_space_group_name_H-M   'P b c a'
_symmetry_Int_Tables_number      61
_space_group_name_Hall           '-P 2ac 2ab'
loop_
_symmetry_equiv_pos_site_id
_symmetry_equiv_pos_as_xyz
1 x,y,z
2 1/2-x,-y,1/2+z
3 1/2+x,1/2-y,-z
4 -x,1/2+y,1/2-z
5 -x,-y,-z
6 1/2+x,y,1/2-z
7 1/2-x,1/2+y,z
8 x,1/2-y,1/2+z
_cell_length_a                   13.2815(17)
_cell_length_b                   18.287(2)
_cell_length_c                   19.155(2)
_cell_angle_alpha                90
_cell_angle_beta                 90
_cell_angle_gamma                90
_cell_volume                     4652.34
_exptl_crystal_colour            colorless
_exptl_crystal_description       block
_cell_formula_units_Z            8
loop_
_atom_site_label
_atom_site_type_symbol
_atom_site_fract_x
_atom_site_fract_y
_atom_site_fract_z
_atom_site_U_iso_or_equiv
_atom_site_thermal_displace_type
Pr1 Pr 0.338206(14) 0.486470(12) 0.502225(9) 0.0137 Uani
O1 O 0.4665(2) 0.44380(14) 0.42483(13) 0.0214 Uani
O2 O 0.62852(19) 0.43414(14) 0.39789(14) 0.0229 Uani
O3 O 0.59764(19) 0.09881(14) 0.05007(14) 0.0233 Uani
O4 O 0.43300(19) 0.09565(14) 0.07689(14) 0.0218 Uani
O5 O 0.2602(2) 0.36898(15) 0.47317(15) 0.0271 Uani
O6 O 0.21293(19) 0.46161(15) 0.59323(14) 0.0235 Uani
O7 O 0.1860(2) 0.56962(19) 0.47275(17) 0.0363 Uani
O8 O 0.2414(3) 0.5074(2) 0.38526(18) 0.0434 Uani
O9 O 0.1294(4) 0.5928(3) 0.3686(2) 0.0813 Uani
N1 N 0.1202(4) 0.3203(3) 0.5176(3) 0.0527 Uani
N2 N 0.1469(3) 0.4505(2) 0.6998(2) 0.0339 Uani
N3 N 0.1840(3) 0.5572(3) 0.4078(2) 0.0429 Uani
C1 C 0.5137(3) 0.36613(19) 0.33049(19) 0.0178 Uani
C2 C 0.4209(3) 0.3270(2) 0.33071(19) 0.0204 Uani
H1 H 0.3721 0.3376 0.3640 0.0240 Uiso
C3 C 0.4038(3) 0.2738(2) 0.2818(2) 0.0217 Uani
H2 H 0.3438 0.2476 0.2831 0.0260 Uiso
C4 C 0.4761(3) 0.25800(19) 0.2292(2) 0.0180 Uani
C5 C 0.5671(2) 0.30009(18) 0.22666(18) 0.0162 Uani
C6 C 0.5837(3) 0.35314(19) 0.27878(18) 0.0176 Uani
H3 H 0.6431 0.3800 0.2783 0.0210 Uiso
C7 C 0.5378(3) 0.41857(19) 0.38811(18) 0.0187 Uani
C8 C 0.4623(3) 0.2016(2) 0.17982(19) 0.0196 Uani
H4 H 0.4024 0.1753 0.1801 0.0230 Uiso
C9 C 0.6393(3) 0.28346(19) 0.17487(19) 0.0181 Uani
H5 H 0.6971 0.3119 0.1714 0.0220 Uiso
C10 C 0.5353(2) 0.18445(19) 0.13117(18) 0.0177 Uani
C11 C 0.6257(3) 0.22603(19) 0.12963(19) 0.0192 Uani
H6 H 0.6760 0.2143 0.0978 0.0230 Uiso
C12 C 0.5208(3) 0.12114(19) 0.08198(19) 0.0185 Uani
C13 C 0.2152(5) 0.3186(4) 0.5091(3) 0.0457 Uani
C14 C 0.2715(4) 0.2556(3) 0.5409(3) 0.0453 Uani
H7 H 0.3420 0.2603 0.5308 0.0680 Uiso
H8 H 0.2469 0.2105 0.5216 0.0680 Uiso
H9 H 0.2616 0.2555 0.5905 0.0680 Uiso
C15 C 0.0637(4) 0.3826(3) 0.4818(3) 0.0487 Uani
H10 H 0.1107 0.4131 0.4572 0.0730 Uiso
H11 H 0.0289 0.4112 0.5162 0.0730 Uiso
H12 H 0.0158 0.3627 0.4493 0.0730 Uiso
C16 C 0.0624(5) 0.2673(3) 0.5575(3) 0.0563 Uani
H13 H 0.1070 0.2313 0.5767 0.0840 Uiso
H14 H 0.0144 0.2439 0.5275 0.0840 Uiso
H15 H 0.0276 0.2918 0.5947 0.0840 Uiso
C17 C 0.1653(3) 0.4883(2) 0.6431(2) 0.0254 Uani
C18 C 0.1271(5) 0.5663(3) 0.6411(3) 0.0520 Uani
H16 H 0.1452 0.5884 0.5974 0.0780 Uiso
H17 H 0.1568 0.5936 0.6787 0.0780 Uiso
H18 H 0.0552 0.5665 0.6461 0.0780 Uiso
C19 C 0.0845(5) 0.4756(3) 0.7585(3) 0.0493 Uani
H19 H 0.0622 0.5247 0.7498 0.0740 Uiso
H20 H 0.1234 0.4744 0.8007 0.0740 Uiso
H21 H 0.0271 0.4441 0.7633 0.0740 Uiso
C20 C 0.1869(5) 0.3760(3) 0.7073(3) 0.0550 Uani
H22 H 0.2273 0.3641 0.6673 0.0820 Uiso
H23 H 0.1321 0.3420 0.7109 0.0820 Uiso
H24 H 0.2276 0.3732 0.7487 0.0820 Uiso
Pr1C Pr 0.661794(14) -0.013530(12) -0.002225(9) 0.0137 Uani
Pr1D Pr 0.661794(14) 0.513530(12) 0.497775(9) 0.0137 Uani
Pr1G Pr 0.338206(14) 0.013530(12) 0.002225(9) 0.0137 Uani
O2D O 0.37148(19) 0.56586(14) 0.60211(14) 0.0229 Uani
O3C O 0.40236(19) 0.59881(14) 0.44993(14) 0.0233 Uani
O4G O 0.43300(19) 0.40435(14) 0.57689(14) 0.0218 Uani
loop_
_atom_site_aniso_label
_atom_site_aniso_U_11
_atom_site_aniso_U_22
_atom_site_aniso_U_33
_atom_site_aniso_U_23
_atom_site_aniso_U_13
_atom_site_aniso_U_12
Pr1 0.01322(17) 0.01445(19) 0.01345(16) -0.00055(6) 0.00082(6) -0.00140(6)
O1 0.0271(13) 0.0190(12) 0.0180(13) -0.0029(10) 0.0061(11) 0.0021(10)
O2 0.0223(13) 0.0237(13) 0.0227(13) -0.0062(10) -0.0014(11) -0.0035(11)
O3 0.0217(13) 0.0223(13) 0.0260(14) -0.0078(11) 0.0039(11) 0.0014(10)
O4 0.0212(13) 0.0195(12) 0.0246(13) -0.0053(10) -0.0004(10) 0.0028(10)
O5 0.0250(13) 0.0320(15) 0.0242(14) -0.0083(12) 0.0065(12) -0.0158(12)
O6 0.0199(12) 0.0272(14) 0.0235(13) -0.0007(11) 0.0060(11) -0.0033(11)
O7 0.0232(14) 0.051(2) 0.0348(18) 0.0108(15) 0.0040(13) 0.0113(14)
O8 0.047(2) 0.052(2) 0.0313(18) -0.0064(15) -0.0139(16) 0.0058(16)
O9 0.074(3) 0.116(4) 0.054(3) 0.021(3) -0.020(2) 0.049(3)
N1 0.055(3) 0.059(3) 0.044(2) -0.009(2) 0.017(2) -0.037(2)
N2 0.044(2) 0.0288(19) 0.0290(19) 0.0000(15) 0.0130(16) 0.0096(16)
N3 0.0338(19) 0.058(3) 0.037(2) 0.011(2) -0.0091(18) 0.0098(19)
C1 0.0182(15) 0.0149(16) 0.0204(18) -0.0011(13) -0.0004(14) 0.0020(13)
C2 0.0180(16) 0.0203(17) 0.0228(18) -0.0049(14) 0.0044(14) 0.0030(14)
C3 0.0133(15) 0.0246(18) 0.0272(19) -0.0058(15) 0.0009(14) -0.0011(13)
C4 0.0133(15) 0.0183(16) 0.0225(18) -0.0014(13) -0.0008(15) 0.0038(13)
C5 0.0150(15) 0.0145(15) 0.0191(17) -0.0008(13) -0.0022(13) 0.0013(13)
C6 0.0166(16) 0.0169(16) 0.0192(17) -0.0010(13) -0.0005(13) 0.0009(13)
C7 0.0251(18) 0.0137(16) 0.0174(17) 0.0016(13) 0.0001(14) -0.0001(13)
C8 0.0138(16) 0.0189(17) 0.0260(19) -0.0045(14) -0.0017(14) -0.0007(13)
C9 0.0160(15) 0.0196(17) 0.0188(17) -0.0010(13) 0.0002(13) 0.0013(13)
C10 0.0161(16) 0.0186(17) 0.0184(17) -0.0039(13) -0.0026(13) 0.0017(13)
C11 0.0182(16) 0.0196(16) 0.0199(17) -0.0012(13) 0.0043(13) 0.0029(13)
C12 0.0230(17) 0.0141(15) 0.0183(17) -0.0013(13) -0.0023(14) 0.0027(13)
C13 0.054(3) 0.047(3) 0.036(3) -0.018(2) -0.004(2) 0.001(3)
C14 0.060(3) 0.024(2) 0.052(3) 0.002(2) -0.017(3) 0.000(2)
C15 0.024(2) 0.059(3) 0.063(3) -0.012(3) -0.008(2) 0.005(2)
C16 0.062(3) 0.054(3) 0.053(3) 0.004(3) 0.014(3) -0.037(3)
C17 0.0181(19) 0.030(2) 0.028(2) -0.0015(16) 0.0042(15) -0.0011(14)
C18 0.067(3) 0.042(3) 0.047(3) 0.016(2) 0.021(3) 0.025(3)
C19 0.071(4) 0.042(3) 0.035(3) 0.008(2) 0.029(3) 0.025(2)
C20 0.077(4) 0.032(3) 0.056(3) 0.008(2) 0.032(3) 0.015(3)
Pr1C 0.01322 0.01445 0.01345 0.00055 0.00082 0.0014
Pr1D 0.01322 0.01445 0.01345 -0.00055 0.00082 -0.0014
Pr1G 0.01322 0.01445 0.01345 0.00055 0.00082 0.0014
O2D 0.0223 0.0237 0.0227 -0.0062 -0.0014 -0.0035
O3C 0.0217 0.0223 0.026 0.0078 0.0039 -0.0014
O4G 0.0212 0.0195 0.0246 0.0053 -0.0004 -0.0028
loop_
_geom_bond_atom_site_label_1
_geom_bond_atom_site_label_2
_geom_bond_site_symmetry_1
_geom_bond_site_symmetry_2
Pr1 O1 1_555 1_555
O1 C7 1_555 1_555
O2 C7 1_555 1_555
O3 C12 1_555 1_555
O4 C12 1_555 1_555
O5 Pr1 1_555 1_555
O6 Pr1 1_555 1_555
O7 Pr1 1_555 1_555
O8 Pr1 1_555 1_555
O9 N3 1_555 1_555
N1 C13 1_555 1_555
N2 C17 1_555 1_555
N3 O7 1_555 1_555
C1 C2 1_555 1_555
C2 H1 1_555 1_555
C3 C2 1_555 1_555
H2 C3 1_555 1_555
C4 C3 1_555 1_555
C5 C4 1_555 1_555
C6 C1 1_555 1_555
H3 C6 1_555 1_555
C7 C1 1_555 1_555
C8 C4 1_555 1_555
H4 C8 1_555 1_555
C9 C5 1_555 1_555
H5 C9 1_555 1_555
C10 C8 1_555 1_555
C11 C9 1_555 1_555
H6 C11 1_555 1_555
C12 C10 1_555 1_555
C13 O5 1_555 1_555
C14 C13 1_555 1_555
H7 C14 1_555 1_555
H8 C14 1_555 1_555
H9 C14 1_555 1_555
C15 N1 1_555 1_555
H10 C15 1_555 1_555
H11 C15 1_555 1_555
H12 C15 1_555 1_555
C16 N1 1_555 1_555
H13 C16 1_555 1_555
H14 C16 1_555 1_555
H15 C16 1_555 1_555
C17 O6 1_555 1_555
C18 C17 1_555 1_555
H16 C18 1_555 1_555
H17 C18 1_555 1_555
H18 C18 1_555 1_555
C19 N2 1_555 1_555
H19 C19 1_555 1_555
H20 C19 1_555 1_555
H21 C19 1_555 1_555
C20 N2 1_555 1_555
H22 C20 1_555 1_555
H23 C20 1_555 1_555
H24 C20 1_555 1_555
Pr1C O3 1_555 1_555
Pr1D O2 1_555 1_555
Pr1G O4 1_555 1_555
O2D Pr1 1_555 1_555
O3C Pr1 1_555 1_555
O4G Pr1 1_555 1_555
O8 N3 1_555 1_555
C5 C6 1_555 1_555
C10 C11 1_555 1_555

#END
