
#######################################################################
#
#                 Cambridge Crystallographic Data Centre
#                                CCDC 
#
#######################################################################
#
# If this CIF has been generated from an entry in the Cambridge 
# Structural Database, then it will include bibliographic, chemical, 
# crystal, experimental, refinement or atomic coordinate data resulting 
# from the CCDC's data processing and validation procedures.
#
#######################################################################

data_HINVAD01
_chemical_formula_moiety         '(C30 H30 Fe1 N24 2+)n,2(Cl1 O4 1-)'
_chemical_name_systematic        
"catena-[tris(\m~2~-1,1'-(1,4-phenylenebis(methylene))bis(1H-tetrazole))-iron(ii) diperchlorate]"
_symmetry_cell_setting           hexagonal
_symmetry_space_group_name_H-M   'P 63/m'
_symmetry_Int_Tables_number      176
_space_group_name_Hall           '-P 6c'
loop_
_symmetry_equiv_pos_site_id
_symmetry_equiv_pos_as_xyz
1 x,y,z
2 -y,x-y,z
3 -x+y,-x,z
4 -x,-y,1/2+z
5 y,-x+y,1/2+z
6 x-y,x,1/2+z
7 -x,-y,-z
8 y,-x+y,-z
9 x-y,x,-z
10 x,y,1/2-z
11 -y,x-y,1/2-z
12 -x+y,-x,1/2-z
_cell_length_a                   10.5117(7)
_cell_length_b                   10.5117(7)
_cell_length_c                   23.576(2)
_cell_angle_alpha                90
_cell_angle_beta                 90
_cell_angle_gamma                120
_cell_volume                     2256.04
_exptl_crystal_colour            colorless
_exptl_crystal_description       block
_cell_formula_units_Z            2
loop_
_atom_site_label
_atom_site_type_symbol
_atom_site_fract_x
_atom_site_fract_y
_atom_site_fract_z
_atom_site_U_iso_or_equiv
_atom_site_thermal_displace_type
Fe1 Fe 1.0000 1.0000 0.5000 0.0281 Uani
N1 N 0.9551(7) 0.8137(7) 0.5525(2) 0.0364 Uani
C1 C 1.0339(9) 0.7515(9) 0.5620(3) 0.0378 Uani
H1 H 1.1210 0.7738 0.5428 0.0460 Uiso
N2 N 0.9733(8) 0.6528(7) 0.6027(3) 0.0417 Uani
N3 N 0.8471(8) 0.6465(9) 0.6184(3) 0.0622 Uani
N4 N 0.8391(8) 0.7484(9) 0.5887(3) 0.0579 Uani
C2 C 1.0125(11) 0.5480(10) 0.6262(3) 0.0549 Uani
H2 H 1.1095 0.5716 0.6120 0.0820 Uiso
H3 H 0.9413 0.4488 0.6132 0.0820 Uiso
C3 C 1.0152(9) 0.5501(9) 0.6909(3) 0.0402 Uani
C4 C 1.1143(10) 0.6718(10) 0.7201(3) 0.0622 Uani
H4 H 1.1828 0.7560 0.7002 0.0750 Uiso
C5 C 0.9163(10) 0.4277(9) 0.7208(3) 0.0510 Uani
H5 H 0.8480 0.3431 0.7011 0.0610 Uiso
N1I N 0.9551(7) 0.8137(7) 0.9475(2) 0.0364 Uani
C1I C 1.0339(9) 0.7515(9) 0.9380(3) 0.0378 Uani
H1I H 1.1210 0.7738 0.9572 0.0460 Uiso
N2I N 0.9733(8) 0.6528(7) 0.8973(3) 0.0417 Uani
N3I N 0.8471(8) 0.6465(9) 0.8816(3) 0.0622 Uani
N4I N 0.8391(8) 0.7484(9) 0.9113(3) 0.0579 Uani
C2I C 1.0125(11) 0.5480(10) 0.8738(3) 0.0549 Uani
H2I H 1.1095 0.5716 0.8880 0.0820 Uiso
H3I H 0.9413 0.4488 0.8868 0.0820 Uiso
C3I C 1.0152(9) 0.5501(9) 0.8091(3) 0.0402 Uani
C4I C 1.1143(10) 0.6718(10) 0.7799(3) 0.0622 Uani
H4I H 1.1828 0.7560 0.7998 0.0750 Uiso
C5I C 0.9163(10) 0.4277(9) 0.7792(3) 0.0510 Uani
H5I H 0.8480 0.3431 0.7989 0.0610 Uiso
N1A N 1.1863(7) 1.1414(10) 0.5525(2) 0.0364 Uani
C1A C 1.2485(9) 1.2824(13) 0.5620(3) 0.0378 Uani
H1A H 1.2262 1.3472 0.5428 0.0460 Uiso
N2A N 1.3472(7) 1.3205(11) 0.6027(3) 0.0417 Uani
N3A N 1.3535(9) 1.2006(12) 0.6184(3) 0.0622 Uani
N4A N 1.2516(9) 1.0907(12) 0.5887(3) 0.0579 Uani
C2A C 1.4520(10) 1.4645(15) 0.6262(3) 0.0549 Uani
H2A H 1.4284 1.5379 0.6120 0.0820 Uiso
H3A H 1.5512 1.4925 0.6132 0.0820 Uiso
C3A C 1.4499(9) 1.4651(13) 0.6909(3) 0.0402 Uani
C4A C 1.3282(10) 1.4425(14) 0.7201(3) 0.0622 Uani
H4A H 1.2440 1.4268 0.7002 0.0750 Uiso
C5A C 1.5723(9) 1.4886(13) 0.7208(3) 0.0510 Uani
H5A H 1.6569 1.5049 0.7011 0.0610 Uiso
N1J N 1.1863(7) 1.1414(10) 0.9475(2) 0.0364 Uani
C1J C 1.2485(9) 1.2824(13) 0.9380(3) 0.0378 Uani
H1J H 1.2262 1.3472 0.9572 0.0460 Uiso
N2J N 1.3472(7) 1.3205(11) 0.8973(3) 0.0417 Uani
N3J N 1.3535(9) 1.2006(12) 0.8816(3) 0.0622 Uani
N4J N 1.2516(9) 1.0907(12) 0.9113(3) 0.0579 Uani
C2J C 1.4520(10) 1.4645(15) 0.8738(3) 0.0549 Uani
H2J H 1.4284 1.5379 0.8880 0.0820 Uiso
H3J H 1.5512 1.4925 0.8868 0.0820 Uiso
C3J C 1.4499(9) 1.4651(13) 0.8091(3) 0.0402 Uani
C4J C 1.3282(10) 1.4425(14) 0.7799(3) 0.0622 Uani
H4J H 1.2440 1.4268 0.7998 0.0750 Uiso
C5J C 1.5723(9) 1.4886(13) 0.7792(3) 0.0510 Uani
H5J H 1.6569 1.5049 0.7989 0.0610 Uiso
N1B N 0.8586(10) 1.0449(7) 0.5525(2) 0.0364 Uani
C1B C 0.7176(13) 0.9661(9) 0.5620(3) 0.0378 Uani
H1B H 0.6528 0.8790 0.5428 0.0460 Uiso
N2B N 0.6795(11) 1.0267(8) 0.6027(3) 0.0417 Uani
N3B N 0.7994(12) 1.1529(8) 0.6184(3) 0.0622 Uani
N4B N 0.9093(12) 1.1609(8) 0.5887(3) 0.0579 Uani
C2B C 0.5355(15) 0.9875(11) 0.6262(3) 0.0549 Uani
H2B H 0.4621 0.8905 0.6120 0.0820 Uiso
H3B H 0.5075 1.0587 0.6132 0.0820 Uiso
C3B C 0.5349(13) 0.9848(9) 0.6909(3) 0.0402 Uani
C4B C 0.5575(14) 0.8857(10) 0.7201(3) 0.0622 Uani
H4B H 0.5732 0.8172 0.7002 0.0750 Uiso
C5B C 0.5114(13) 1.0837(10) 0.7208(3) 0.0510 Uani
H5B H 0.4951 1.1520 0.7011 0.0610 Uiso
N1K N 0.8586(10) 1.0449(7) 0.9475(2) 0.0364 Uani
C1K C 0.7176(13) 0.9661(9) 0.9380(3) 0.0378 Uani
H1K H 0.6528 0.8790 0.9572 0.0460 Uiso
N2K N 0.6795(11) 1.0267(8) 0.8973(3) 0.0417 Uani
N3K N 0.7994(12) 1.1529(8) 0.8816(3) 0.0622 Uani
N4K N 0.9093(12) 1.1609(8) 0.9113(3) 0.0579 Uani
C2K C 0.5355(15) 0.9875(11) 0.8738(3) 0.0549 Uani
H2K H 0.4621 0.8905 0.8880 0.0820 Uiso
H3K H 0.5075 1.0587 0.8868 0.0820 Uiso
C3K C 0.5349(13) 0.9848(9) 0.8091(3) 0.0402 Uani
C4K C 0.5575(14) 0.8857(10) 0.7799(3) 0.0622 Uani
H4K H 0.5732 0.8172 0.7998 0.0750 Uiso
C5K C 0.5114(13) 1.0837(10) 0.7792(3) 0.0510 Uani
H5K H 0.4951 1.1520 0.7989 0.0610 Uiso
Fe1C Fe 1.0000 1.0000 1.0000 0.0281 Uani
N1F N 1.0449(7) 1.1863(7) 0.4475(2) 0.0364 Uani
N1G N 0.8137(7) 0.8586(10) 0.4475(2) 0.0364 Uani
N1H N 1.1414(10) 0.9551(7) 0.4475(2) 0.0364 Uani
O1 O 0.8020(10) 0.4505(9) 0.4954(3) 0.0980 Uiso
Cl1 Cl 0.6667 0.3333 0.5075(5) 0.0350 Uiso
O2 O 0.6667 0.3333 0.5655(10) 0.1060 Uiso
O1A O 0.5495(9) 0.3515(13) 0.4954(3) 0.0980 Uiso
O1B O 0.6485(13) 0.1980(10) 0.4954(3) 0.0980 Uiso
Cl2? Cl 0.6667 0.3333 0.4871(11) 0.0560 Uiso
O3? O 0.6667 0.3333 0.4284(15) 0.0790 Uiso
loop_
_atom_site_aniso_label
_atom_site_aniso_U_11
_atom_site_aniso_U_22
_atom_site_aniso_U_33
_atom_site_aniso_U_23
_atom_site_aniso_U_13
_atom_site_aniso_U_12
Fe1 0.0288(11) 0.0288(11) 0.0268(14) 0.000 0.000 0.0144(5)
N1 0.034(4) 0.044(4) 0.032(3) 0.003(3) 0.012(3) 0.020(4)
C1 0.035(5) 0.044(6) 0.040(5) 0.002(4) 0.006(4) 0.024(5)
N2 0.053(5) 0.046(4) 0.033(4) 0.005(3) 0.004(3) 0.030(4)
N3 0.053(5) 0.068(6) 0.068(5) 0.032(4) 0.021(4) 0.032(5)
N4 0.050(5) 0.072(6) 0.063(5) 0.023(5) 0.019(4) 0.039(4)
C2 0.092(8) 0.062(6) 0.026(4) 0.010(4) 0.006(4) 0.050(6)
C3 0.047(6) 0.039(5) 0.042(5) 0.009(4) 0.006(4) 0.027(5)
C4 0.050(6) 0.049(6) 0.056(5) 0.010(5) 0.005(5) 0.001(5)
C5 0.082(7) 0.036(5) 0.029(4) -0.008(4) -0.008(4) 0.025(5)
N1I 0.034 0.044 0.032 -0.003 -0.012 0.02
C1I 0.035 0.044 0.04 -0.002 -0.006 0.024
N2I 0.053 0.046 0.033 -0.005 -0.004 0.03
N3I 0.053 0.068 0.068 -0.032 -0.021 0.032
N4I 0.05 0.072 0.063 -0.023 -0.019 0.039
C2I 0.092 0.062 0.026 -0.01 -0.006 0.05
C3I 0.047 0.039 0.042 -0.009 -0.006 0.027
C4I 0.05 0.049 0.056 -0.01 -0.005 0.001
C5I 0.082 0.036 0.029 0.008 0.008 0.025
N1A 0.044 0.038 0.032 0.009 -0.003 0.024
C1A 0.044 0.031 0.04 0.004 -0.002 0.02
N2A 0.046 0.039 0.033 -0.001 -0.005 0.016
N3A 0.068 0.057 0.068 -0.011 -0.032 0.036
N4A 0.072 0.044 0.063 -0.004 -0.023 0.033
C2A 0.062 0.054 0.026 -0.004 -0.01 0.012
C3A 0.039 0.032 0.042 -0.003 -0.009 0.012
C4A 0.049 0.097 0.056 -0.005 -0.01 0.048
C5A 0.036 0.068 0.029 1.45433e-18 0.008 0.011
N1J 0.044 0.038 0.032 -0.009 0.003 0.024
C1J 0.044 0.031 0.04 -0.004 0.002 0.02
N2J 0.046 0.039 0.033 0.001 0.005 0.016
N3J 0.068 0.057 0.068 0.011 0.032 0.036
N4J 0.072 0.044 0.063 0.004 0.023 0.033
C2J 0.062 0.054 0.026 0.004 0.01 0.012
C3J 0.039 0.032 0.042 0.003 0.009 0.012
C4J 0.049 0.097 0.056 0.005 0.01 0.048
C5J 0.036 0.068 0.029 -1.45433e-18 -0.008 0.011
N1B 0.038 0.034 0.032 -0.012 -0.009 0.014
C1B 0.031 0.035 0.04 -0.006 -0.004 0.011
N2B 0.039 0.053 0.033 -0.004 0.001 0.023
N3B 0.057 0.053 0.068 -0.021 0.011 0.021
N4B 0.044 0.05 0.063 -0.019 0.004 0.011
C2B 0.054 0.092 0.026 -0.006 0.004 0.042
C3B 0.032 0.047 0.042 -0.006 0.003 0.02
C4B 0.097 0.05 0.056 -0.005 0.005 0.049
C5B 0.068 0.082 0.029 0.008 -1.45433e-18 0.057
N1K 0.038 0.034 0.032 0.012 0.009 0.014
C1K 0.031 0.035 0.04 0.006 0.004 0.011
N2K 0.039 0.053 0.033 0.004 -0.001 0.023
N3K 0.057 0.053 0.068 0.021 -0.011 0.021
N4K 0.044 0.05 0.063 0.019 -0.004 0.011
C2K 0.054 0.092 0.026 0.006 -0.004 0.042
C3K 0.032 0.047 0.042 0.006 -0.003 0.02
C4K 0.097 0.05 0.056 0.005 -0.005 0.049
C5K 0.068 0.082 0.029 -0.008 1.45433e-18 0.057
Fe1C 0.0288 0.0288 0.0268 0 0 0.0144
N1F 0.034 0.044 0.032 0.003 0.012 0.02
N1G 0.044 0.038 0.032 0.009 -0.003 0.024
N1H 0.038 0.034 0.032 -0.012 -0.009 0.014
loop_
_geom_bond_atom_site_label_1
_geom_bond_atom_site_label_2
_geom_bond_site_symmetry_1
_geom_bond_site_symmetry_2
Fe1 N1 1_555 1_555
N1 C1 1_555 1_555
C1 H1 1_555 1_555
N2 C1 1_555 1_555
N3 N2 1_555 1_555
N4 N1 1_555 1_555
C2 N2 1_555 1_555
H2 C2 1_555 1_555
H3 C2 1_555 1_555
C3 C2 1_555 1_555
C4 C3 1_555 1_555
H4 C4 1_555 1_555
C5 C3 1_555 1_555
H5 C5 1_555 1_555
O1 Cl1 1_555 1_555
Cl1 O2 1_555 1_555
N1I C1I 1_555 1_555
C1I H1I 1_555 1_555
N2I C1I 1_555 1_555
N3I N2I 1_555 1_555
N4I N1I 1_555 1_555
C2I N2I 1_555 1_555
H2I C2I 1_555 1_555
H3I C2I 1_555 1_555
C3I C2I 1_555 1_555
C4I C4 1_555 1_555
H4I C4I 1_555 1_555
C5I C5 1_555 1_555
H5I C5I 1_555 1_555
N1A Fe1 1_555 1_555
C1A N1A 1_555 1_555
H1A C1A 1_555 1_555
N2A C1A 1_555 1_555
N3A N2A 1_555 1_555
N4A N1A 1_555 1_555
C2A N2A 1_555 1_555
H2A C2A 1_555 1_555
H3A C2A 1_555 1_555
C3A C2A 1_555 1_555
C4A C3A 1_555 1_555
H4A C4A 1_555 1_555
C5A C3A 1_555 1_555
H5A C5A 1_555 1_555
N1J C1J 1_555 1_555
C1J H1J 1_555 1_555
N2J C1J 1_555 1_555
N3J N2J 1_555 1_555
N4J N1J 1_555 1_555
C2J N2J 1_555 1_555
H2J C2J 1_555 1_555
H3J C2J 1_555 1_555
C3J C2J 1_555 1_555
C4J C4A 1_555 1_555
H4J C4J 1_555 1_555
C5J C5A 1_555 1_555
H5J C5J 1_555 1_555
N1B Fe1 1_555 1_555
C1B N1B 1_555 1_555
H1B C1B 1_555 1_555
N2B C1B 1_555 1_555
N3B N2B 1_555 1_555
N4B N1B 1_555 1_555
C2B N2B 1_555 1_555
H2B C2B 1_555 1_555
H3B C2B 1_555 1_555
C3B C2B 1_555 1_555
C4B C3B 1_555 1_555
H4B C4B 1_555 1_555
C5B C3B 1_555 1_555
H5B C5B 1_555 1_555
N1K C1K 1_555 1_555
C1K H1K 1_555 1_555
N2K C1K 1_555 1_555
N3K N2K 1_555 1_555
N4K N1K 1_555 1_555
C2K N2K 1_555 1_555
H2K C2K 1_555 1_555
H3K C2K 1_555 1_555
C3K C2K 1_555 1_555
C4K C4B 1_555 1_555
H4K C4K 1_555 1_555
C5K C5B 1_555 1_555
H5K C5K 1_555 1_555
Fe1C N1I 1_555 1_555
N1F Fe1 1_555 1_555
N1G Fe1 1_555 1_555
N1H Fe1 1_555 1_555
O1A Cl1 1_555 1_555
O1B Cl1 1_555 1_555
N3 N4 1_555 1_555
N3I N4I 1_555 1_555
C3I C4I 1_555 1_555
C3I C5I 1_555 1_555
N3A N4A 1_555 1_555
N1J Fe1C 1_555 1_555
N3J N4J 1_555 1_555
C3J C4J 1_555 1_555
C3J C5J 1_555 1_555
N3B N4B 1_555 1_555
N1K Fe1C 1_555 1_555
N3K N4K 1_555 1_555
C3K C4K 1_555 1_555
C3K C5K 1_555 1_555

#END
