
#######################################################################
#
#                 Cambridge Crystallographic Data Centre
#                                CCDC 
#
#######################################################################
#
# If this CIF has been generated from an entry in the Cambridge 
# Structural Database, then it will include bibliographic, chemical, 
# crystal, experimental, refinement or atomic coordinate data resulting 
# from the CCDC's data processing and validation procedures.
#
#######################################################################

data_PITYUN
_chemical_formula_moiety         '(C12 Ag3 F18 N9)n'
_chemical_name_systematic        
catena-((\m~5~-3,5-bis(Trifluoromethyl)-1,2,4-triazolato)-bis(\m~3~-3,5-bis(trifluoromethyl)-1,2,4-triazolato)-tri-silver)
_symmetry_cell_setting           tetragonal
_symmetry_space_group_name_H-M   'I -4 2 d'
_symmetry_Int_Tables_number      122
_space_group_name_Hall           'I -4 2bw'
loop_
_symmetry_equiv_pos_site_id
_symmetry_equiv_pos_as_xyz
1 x,y,z
2 -x,-y,z
3 y,-x,-z
4 -y,x,-z
5 1/2-x,y,3/4-z
6 1/2+x,-y,3/4-z
7 1/2-y,-x,3/4+z
8 1/2+y,x,3/4+z
9 1/2+x,1/2+y,1/2+z
10 1/2-x,1/2-y,1/2+z
11 1/2+y,1/2-x,1/2-z
12 1/2-y,1/2+x,1/2-z
13 -x,1/2+y,1/4-z
14 x,1/2-y,1/4-z
15 -y,1/2-x,1/4+z
16 y,1/2+x,1/4+z
_cell_length_a                   13.4273(7)
_cell_length_b                   13.4273(7)
_cell_length_c                   39.175(4)
_cell_angle_alpha                90
_cell_angle_beta                 90
_cell_angle_gamma                90
_cell_volume                     7062.95
_exptl_crystal_colour            colorless
_exptl_crystal_description       block
_cell_formula_units_Z            8
_exptl_crystal_recrystallization_method acetonitrile/toluene
loop_
_atom_site_label
_atom_site_type_symbol
_atom_site_fract_x
_atom_site_fract_y
_atom_site_fract_z
_atom_site_U_iso_or_equiv
_atom_site_thermal_displace_type
Ag1 Ag 0.0000 0.5000 0.09705(3) 0.0539 Uani
Ag2 Ag -0.13847(7) 0.38295(7) 0.24462(3) 0.0670 Uani
N1 N 0.0000 0.5000 0.1535(3) 0.0513 Uani
N2 N -0.0484(7) 0.5186(8) 0.2075(3) 0.0580 Uani
N3 N 0.0067(8) 0.6329(6) 0.0613(2) 0.0587 Uani
N4 N -0.0382(8) 0.7449(8) 0.0225(3) 0.0627 Uani
N5 N 0.0589(8) 0.7624(8) 0.0308(3) 0.0603 Uani
C1 C -0.0711(10) 0.5293(10) 0.1750(3) 0.0633 Uani
C2 C -0.1682(11) 0.5738(12) 0.1642(4) 0.0730 Uani
C3 C -0.0632(10) 0.6687(9) 0.0410(3) 0.0603 Uani
C4 C 0.0815(10) 0.6935(10) 0.0538(3) 0.0590 Uani
C5 C 0.1842(12) 0.6913(11) 0.0696(4) 0.0773 Uani
C6 C -0.1662(11) 0.6259(12) 0.0394(4) 0.0810 Uani
F1 F -0.1554(8) 0.6628(9) 0.1518(3) 0.1217 Uani
F2 F -0.2087(6) 0.5221(9) 0.1398(2) 0.1123 Uani
F3 F -0.2290(7) 0.5878(10) 0.1890(2) 0.1133 Uani
F4 F 0.2125(9) 0.7793(8) 0.0792(4) 0.1267 Uani
F5 F 0.2537(8) 0.6701(12) 0.0464(3) 0.1333 Uani
F6 F 0.1946(7) 0.6246(8) 0.0910(3) 0.1007 Uani
F7 F -0.2031(8) 0.6101(14) 0.0685(3) 0.1510 Uani
F8 F -0.1630(9) 0.5319(8) 0.0273(4) 0.1573 Uani
F9 F -0.2279(7) 0.6740(7) 0.0209(3) 0.1087 Uani
Ag2A Ag 0.13847(7) 0.61705(7) 0.24462(3) 0.0670 Uani
Ag2J Ag -0.11705(7) 0.63847(7) 0.25538(3) 0.0670 Uani
Ag2G Ag -0.11705(7) 0.86153(7) -0.00538(3) 0.0670 Uani
Ag2L Ag 0.13847(7) 0.88295(7) 0.00538(3) 0.0670 Uani
Ag2K Ag 0.11705(7) 0.36153(7) 0.25538(3) 0.0670 Uani
Ag2F Ag 0.11705(7) 0.13847(7) -0.00538(3) 0.0670 Uani
Ag2M Ag -0.13847(7) 0.11705(7) 0.00538(3) 0.0670 Uani
N2A N 0.0484(7) 0.4814(8) 0.2075(3) 0.0580 Uani
N2K N -0.0186(8) 0.4516(7) 0.2925(3) 0.0580 Uani
N2J N 0.0186(8) 0.5484(7) 0.2925(3) 0.0580 Uani
N3A N -0.0067(8) 0.3671(6) 0.0613(2) 0.0587 Uani
N4A N 0.0382(8) 0.2551(8) 0.0225(3) 0.0627 Uani
N4O N -0.2551(8) 0.4618(8) 0.2725(3) 0.0627 Uani
N4N N 0.2551(8) 0.5382(8) 0.2725(3) 0.0627 Uani
N5A N -0.0589(8) 0.2376(8) 0.0308(3) 0.0603 Uani
N5L N -0.0589(8) 0.2624(8) 0.2192(3) 0.0603 Uani
N5M N 0.0589(8) 0.7376(8) 0.2192(3) 0.0603 Uani
C1A C 0.0711(10) 0.4707(10) 0.1750(3) 0.0633 Uani
C2A C 0.1682(11) 0.4262(12) 0.1642(4) 0.0730 Uani
C3A C 0.0632(10) 0.3313(9) 0.0410(3) 0.0603 Uani
C4A C -0.0815(10) 0.3065(10) 0.0538(3) 0.0590 Uani
C5A C -0.1842(12) 0.3087(11) 0.0696(4) 0.0773 Uani
C6A C 0.1662(11) 0.3741(12) 0.0394(4) 0.0810 Uani
F1A F 0.1554(8) 0.3372(9) 0.1518(3) 0.1217 Uani
F2A F 0.2087(6) 0.4779(9) 0.1398(2) 0.1123 Uani
F3A F 0.2290(7) 0.4122(10) 0.1890(2) 0.1133 Uani
F4A F -0.2125(9) 0.2207(8) 0.0792(4) 0.1267 Uani
F5A F -0.2537(8) 0.3299(12) 0.0464(3) 0.1333 Uani
F6A F -0.1946(7) 0.3754(8) 0.0910(3) 0.1007 Uani
F7A F 0.2031(8) 0.3899(14) 0.0685(3) 0.1510 Uani
F8A F 0.1630(9) 0.4681(8) 0.0273(4) 0.1573 Uani
F9A F 0.2279(7) 0.3260(7) 0.0209(3) 0.1087 Uani
loop_
_atom_site_aniso_label
_atom_site_aniso_U_11
_atom_site_aniso_U_22
_atom_site_aniso_U_33
_atom_site_aniso_U_23
_atom_site_aniso_U_13
_atom_site_aniso_U_12
Ag1 0.0513(7) 0.0545(7) 0.0558(7) 0.000 0.000 0.0016(6)
Ag2 0.0661(6) 0.0686(6) 0.0662(6) -0.0097(5) 0.0116(5) 0.0032(4)
N1 0.037(6) 0.058(7) 0.059(7) 0.000 0.000 0.005(7)
N2 0.051(5) 0.056(6) 0.067(6) 0.001(5) 0.007(4) 0.005(4)
N3 0.068(6) 0.046(5) 0.062(5) -0.002(4) -0.019(5) -0.006(5)
N4 0.064(6) 0.056(6) 0.068(6) 0.007(5) -0.010(5) -0.014(5)
N5 0.060(6) 0.055(6) 0.066(6) 0.013(5) -0.004(5) -0.005(5)
C1 0.060(7) 0.070(8) 0.060(7) 0.008(6) 0.012(6) 0.000(6)
C2 0.073(9) 0.081(10) 0.065(8) 0.002(7) -0.008(7) 0.019(7)
C3 0.062(7) 0.053(7) 0.066(7) -0.001(6) -0.006(6) -0.015(6)
C4 0.062(8) 0.054(7) 0.061(7) 0.001(6) -0.013(6) -0.003(6)
C5 0.077(9) 0.062(8) 0.093(11) 0.014(8) -0.018(8) -0.015(7)
C6 0.067(9) 0.075(10) 0.101(11) 0.021(9) -0.020(8) -0.019(7)
F1 0.098(7) 0.102(8) 0.165(10) 0.024(8) -0.029(7) 0.032(6)
F2 0.068(5) 0.170(10) 0.099(6) -0.051(7) -0.026(5) 0.050(6)
F3 0.075(6) 0.181(11) 0.084(5) -0.013(6) 0.011(5) 0.046(6)
F4 0.123(9) 0.072(6) 0.185(11) 0.009(7) -0.081(9) -0.019(6)
F5 0.066(6) 0.184(13) 0.150(10) 0.033(9) 0.008(7) 0.004(7)
F6 0.084(6) 0.094(7) 0.124(7) 0.038(6) -0.044(5) -0.018(5)
F7 0.077(7) 0.246(18) 0.130(9) 0.062(11) -0.017(6) -0.065(9)
F8 0.115(9) 0.087(7) 0.270(17) 0.003(9) -0.085(10) -0.033(6)
F9 0.072(5) 0.095(6) 0.159(9) 0.052(6) -0.052(6) -0.017(5)
Ag2A 0.0661 0.0686 0.0662 0.0097 -0.0116 0.0032
Ag2J 0.0686 0.0661 0.0662 0.0116 0.0097 -0.0032
Ag2G 0.0686 0.0661 0.0662 0.0116 -0.0097 0.0032
Ag2L 0.0661 0.0686 0.0662 0.0097 0.0116 -0.0032
Ag2K 0.0686 0.0661 0.0662 -0.0116 -0.0097 -0.0032
Ag2F 0.0686 0.0661 0.0662 -0.0116 0.0097 0.0032
Ag2M 0.0661 0.0686 0.0662 -0.0097 -0.0116 -0.0032
N2A 0.051 0.056 0.067 -0.001 -0.007 0.005
N2K 0.056 0.051 0.067 -0.007 0.001 -0.005
N2J 0.056 0.051 0.067 0.007 -0.001 -0.005
N3A 0.068 0.046 0.062 0.002 0.019 -0.006
N4A 0.064 0.056 0.068 -0.007 0.01 -0.014
N4O 0.056 0.064 0.068 -0.01 0.007 -0.014
N4N 0.056 0.064 0.068 0.01 -0.007 -0.014
N5A 0.06 0.055 0.066 -0.013 0.004 -0.005
N5L 0.06 0.055 0.066 -0.013 -0.004 0.005
N5M 0.06 0.055 0.066 0.013 0.004 0.005
C1A 0.06 0.07 0.06 -0.008 -0.012 0
C2A 0.073 0.081 0.065 -0.002 0.008 0.019
C3A 0.062 0.053 0.066 0.001 0.006 -0.015
C4A 0.062 0.054 0.061 -0.001 0.013 -0.003
C5A 0.077 0.062 0.093 -0.014 0.018 -0.015
C6A 0.067 0.075 0.101 -0.021 0.02 -0.019
F1A 0.098 0.102 0.165 -0.024 0.029 0.032
F2A 0.068 0.17 0.099 0.051 0.026 0.05
F3A 0.075 0.181 0.084 0.013 -0.011 0.046
F4A 0.123 0.072 0.185 -0.009 0.081 -0.019
F5A 0.066 0.184 0.15 -0.033 -0.008 0.004
F6A 0.084 0.094 0.124 -0.038 0.044 -0.018
F7A 0.077 0.246 0.13 -0.062 0.017 -0.065
F8A 0.115 0.087 0.27 -0.003 0.085 -0.033
F9A 0.072 0.095 0.159 -0.052 0.052 -0.017
loop_
_geom_bond_atom_site_label_1
_geom_bond_atom_site_label_2
_geom_bond_site_symmetry_1
_geom_bond_site_symmetry_2
Ag1 N1 1_555 1_555
Ag2 N2 1_555 1_555
N1 C1 1_555 1_555
N2 C1 1_555 1_555
N3 Ag1 1_555 1_555
N4 N5 1_555 1_555
N5 C4 1_555 1_555
C1 C2 1_555 1_555
C2 F1 1_555 1_555
C3 N3 1_555 1_555
C4 N3 1_555 1_555
C5 C4 1_555 1_555
C6 C3 1_555 1_555
F2 C2 1_555 1_555
F3 C2 1_555 1_555
F4 C5 1_555 1_555
F5 C5 1_555 1_555
F6 C5 1_555 1_555
F7 C6 1_555 1_555
F8 C6 1_555 1_555
F9 C6 1_555 1_555
Ag2A N2A 1_555 1_555
Ag2J N2 1_555 1_555
Ag2G N4 1_555 1_555
Ag2L N5 1_555 1_555
Ag2K N2A 1_555 1_555
Ag2F N4A 1_555 1_555
Ag2M N5A 1_555 1_555
N2A N2 1_555 1_555
N2K Ag2 1_555 1_555
N2J Ag2A 1_555 1_555
N3A Ag1 1_555 1_555
N4A N5A 1_555 1_555
N4O Ag2 1_555 1_555
N4N Ag2A 1_555 1_555
N5A C4A 1_555 1_555
N5L Ag2 1_555 1_555
N5M Ag2A 1_555 1_555
C1A N1 1_555 1_555
C2A C1A 1_555 1_555
C3A N3A 1_555 1_555
C4A N3A 1_555 1_555
C5A C4A 1_555 1_555
C6A C3A 1_555 1_555
F1A C2A 1_555 1_555
F2A C2A 1_555 1_555
F3A C2A 1_555 1_555
F4A C5A 1_555 1_555
F5A C5A 1_555 1_555
F6A C5A 1_555 1_555
F7A C6A 1_555 1_555
F8A C6A 1_555 1_555
F9A C6A 1_555 1_555
N4 C3 1_555 1_555
Ag2J N2J 1_555 1_555
Ag2K N2K 1_555 1_555
N2A C1A 1_555 1_555
N2K N2J 1_555 1_555
N4A C3A 1_555 1_555

#END
