
#######################################################################
#
#                 Cambridge Crystallographic Data Centre
#                                CCDC 
#
#######################################################################
#
# If this CIF has been generated from an entry in the Cambridge 
# Structural Database, then it will include bibliographic, chemical, 
# crystal, experimental, refinement or atomic coordinate data resulting 
# from the CCDC's data processing and validation procedures.
#
#######################################################################

data_WALBOC02
_chemical_formula_moiety         '(C6 H6 N8 O4 Zn2)n,1.3n(C1 O2)'
_chemical_name_systematic        
"catena-[bis(\m~3~-3-Amino-1,2,4-triazolato-N^1^,N^2^,N^4^)-(\m~2~-oxalato-O,O',O'',O''')-di-zinc carbon dioxide clathrate]"
_symmetry_cell_setting           orthorhombic
_symmetry_space_group_name_H-M   'P b c a'
_symmetry_Int_Tables_number      61
_space_group_name_Hall           '-P 2ac 2ab'
loop_
_symmetry_equiv_pos_site_id
_symmetry_equiv_pos_as_xyz
1 x,y,z
2 1/2-x,-y,1/2+z
3 -x,1/2+y,1/2-z
4 1/2+x,1/2-y,-z
5 -x,-y,-z
6 1/2+x,y,1/2-z
7 x,1/2-y,1/2+z
8 1/2-x,1/2+y,z
_cell_length_a                   13.7971(2)
_cell_length_b                   12.9591(2)
_cell_length_c                   16.8153(2)
_cell_angle_alpha                90
_cell_angle_beta                 90
_cell_angle_gamma                90
_cell_volume                     3006.54
_exptl_crystal_colour            colorless
_exptl_crystal_description       cube
_cell_formula_units_Z            8
_exptl_crystal_preparation       
'The as-synthesised material was evacuated, backfilled with 850 mbar (at 293 K) of CO2 and sealed in a capillary prior to data collection'
loop_
_atom_site_label
_atom_site_type_symbol
_atom_site_fract_x
_atom_site_fract_y
_atom_site_fract_z
_atom_site_U_iso_or_equiv
_atom_site_thermal_displace_type
Zn1 Zn 0.02246(2) -0.42665(3) -0.40392(2) 0.0184 Uani
Zn2 Zn 0.09286(2) -0.47660(3) -0.07610(2) 0.0182 Uani
C1 C -0.0060(2) -0.4235(3) -0.22305(19) 0.0284 Uani
C2 C 0.0909(2) -0.4724(3) -0.24642(19) 0.0309 Uani
O1 O -0.05825(18) -0.3947(2) -0.27924(14) 0.0377 Uani
O2 O 0.10947(18) -0.4825(2) -0.31869(14) 0.0403 Uani
O3 O -0.02290(17) -0.4172(2) -0.14989(14) 0.0369 Uani
O4 O 0.14516(16) -0.5025(2) -0.19171(13) 0.0373 Uani
C3 C -0.0475(2) -0.2023(2) -0.41099(18) 0.0249 Uani
C4 C 0.0805(2) -0.2221(2) -0.47818(18) 0.0246 Uani
H1 H 0.1366 -0.2518 -0.5016 0.0290 Uiso
C5 C -0.2204(2) -0.5269(3) -0.51992(19) 0.0253 Uani
C6 C -0.1880(2) -0.4716(3) -0.40569(18) 0.0252 Uani
H2 H -0.1950 -0.4466 -0.3529 0.0300 Uiso
N1 N 0.02147(18) -0.2737(2) -0.42800(15) 0.0242 Uani
N2 N 0.05283(17) -0.1271(2) -0.49140(14) 0.0215 Uani
N3 N -0.03140(17) -0.1136(2) -0.44764(15) 0.0223 Uani
N4 N -0.1256(2) -0.2210(2) -0.3639(2) 0.0444 Uani
H3 H -0.1693 -0.1725 -0.3563 0.0530 Uiso
H4 H -0.1325 -0.2817 -0.3410 0.0530 Uiso
N5 N -0.12399(17) -0.5233(2) -0.51537(15) 0.0223 Uani
N6 N -0.10408(17) -0.4867(2) -0.43960(15) 0.0212 Uani
N7 N -0.26318(17) -0.4948(2) -0.45276(15) 0.0225 Uani
N8 N -0.2696(2) -0.5637(3) -0.58371(18) 0.0493 Uani
H5 H -0.2378 -0.5871 -0.6253 0.0590 Uiso
H6 H -0.3334 -0.5642 -0.5835 0.0590 Uiso
Zn1D Zn -0.02246(2) -0.57335(3) -0.59608(2) 0.0184 Uani
Zn2F Zn 0.09286(2) -0.02340(3) -0.57610(2) 0.0182 Uani
Zn2B Zn -0.09286(2) 0.02340(3) -0.42390(2) 0.0182 Uani
Zn2E Zn -0.40714(2) -0.47660(3) -0.42390(2) 0.0182 Uani
N2F N 0.05283(17) -0.3729(2) 0.00860(14) 0.0215 Uani
N3B N 0.03140(17) -0.6136(2) -0.05236(15) 0.0223 Uani
N5D N 0.12399(17) -0.4767(2) -0.48463(15) 0.0223 Uani
N7E N 0.23682(17) -0.4948(2) -0.04724(15) 0.0225 Uani
C7 C 0.1611(11) -0.7104(7) -0.3692(6) 0.1117 Uani
O5 O 0.2143(7) -0.7211(6) -0.3145(5) 0.1383 Uani
O6 O 0.1101(10) -0.7010(6) -0.4121(6) 0.2243 Uani
C8 C 0.6162(12) -0.1835(10) -0.2785(12) 0.1410 Uani
O7 O 0.5756(11) -0.1383(9) -0.2417(8) 0.1853 Uani
O8 O 0.6547(8) -0.2375(10) -0.3248(8) 0.1423 Uani
loop_
_atom_site_aniso_label
_atom_site_aniso_U_11
_atom_site_aniso_U_22
_atom_site_aniso_U_33
_atom_site_aniso_U_23
_atom_site_aniso_U_13
_atom_site_aniso_U_12
Zn1 0.0133 0.0256 0.0162 8e-05 -0.00102 0.00059
Zn2 0.0128 0.026 0.0157 0.00018 0.00012 4e-05
C1 0.0298 0.0325 0.0229 0.002 -0.007 -0.0037
C2 0.0274 0.05 0.0154 0.0075 -0.0062 -0.0138
O1 0.038 0.0467 0.0285 0.0036 -0.0111 0.0066
O2 0.0298 0.0701 0.0211 0.0069 -0.001 0.003
O3 0.034 0.0522 0.0244 -0.0002 -0.003 0.0102
O4 0.0239 0.0657 0.0223 0.0064 -0.0006 0.0026
C3 0.0218 0.0262 0.0267 0.0035 0.0028 0.0003
C4 0.0213 0.0273 0.0251 0.0016 0.0039 0.0042
C5 0.0159 0.0362 0.0238 -0.0043 -0.0007 -0.0011
C6 0.0155 0.04 0.02 -0.0033 0.0008 -0.0024
N1 0.0221 0.0243 0.0262 0.0025 0.0025 0.002
N2 0.0175 0.0269 0.0202 0.0005 0.0025 0.0014
N3 0.0181 0.0262 0.0225 0.0015 0.003 0.0032
N4 0.0401 0.035 0.058 0.0137 0.0238 0.009
N5 0.0145 0.0329 0.0196 -0.0057 0.0005 -0.0012
N6 0.0149 0.0308 0.0178 -0.0025 -0.0008 -0.0022
N7 0.0136 0.0327 0.0212 -0.0009 0.0006 0.0001
N8 0.0174 0.098 0.0324 -0.0296 -0.0004 -0.0033
Zn1D 0.0133 0.0256 0.0162 8e-05 -0.00102 0.00059
Zn2F 0.0128 0.026 0.0157 -0.00018 0.00012 -4e-05
Zn2B 0.0128 0.026 0.0157 -0.00018 0.00012 -4e-05
Zn2E 0.0128 0.026 0.0157 -0.00018 -0.00012 4e-05
N2F 0.0175 0.0269 0.0202 -0.0005 0.0025 -0.0014
N3B 0.0181 0.0262 0.0225 -0.0015 0.003 -0.0032
N5D 0.0145 0.0329 0.0196 -0.0057 0.0005 -0.0012
N7E 0.0136 0.0327 0.0212 0.0009 -0.0006 0.0001
C7 0.205 0.066 0.064 -0.001 -0.04 -0.015
O5 0.177 0.117 0.121 -0.042 0.012 0.008
O6 0.403 0.067 0.203 0.033 -0.208 -0.054
C8 0.139 0.063 0.221 0.033 0.135 0.029
O7 0.243 0.125 0.188 0.07 0.149 0.1
O8 0.083 0.167 0.177 -0.024 0.022 -0.018
loop_
_geom_bond_atom_site_label_1
_geom_bond_atom_site_label_2
_geom_bond_site_symmetry_1
_geom_bond_site_symmetry_2
Zn1 O1 1_555 1_555
Zn2 O3 1_555 1_555
C1 C2 1_555 1_555
C2 O2 1_555 1_555
O1 C1 1_555 1_555
O2 Zn1 1_555 1_555
O3 C1 1_555 1_555
O4 Zn2 1_555 1_555
C3 N1 1_555 1_555
C4 H1 1_555 1_555
C5 N5 1_555 1_555
C6 H2 1_555 1_555
N1 Zn1 1_555 1_555
N2 C4 1_555 1_555
N3 C3 1_555 1_555
N4 C3 1_555 1_555
H3 N4 1_555 1_555
H4 N4 1_555 1_555
N5 N6 1_555 1_555
N6 Zn1 1_555 1_555
N7 C5 1_555 1_555
N8 C5 1_555 1_555
H5 N8 1_555 1_555
H6 N8 1_555 1_555
C7 O5 1_555 1_555
O6 C7 1_555 1_555
C8 O7 1_555 1_555
O8 C8 1_555 1_555
Zn1D N5 1_555 1_555
Zn2F N2 1_555 1_555
Zn2B N3 1_555 1_555
Zn2E N7 1_555 1_555
N2F Zn2 1_555 1_555
N3B Zn2 1_555 1_555
N5D Zn1 1_555 1_555
N7E Zn2 1_555 1_555
C2 O4 1_555 1_555
C4 N1 1_555 1_555
C6 N6 1_555 1_555
C6 N7 1_555 1_555
N2 N3 1_555 1_555

#END
