
#######################################################################
#
#                 Cambridge Crystallographic Data Centre
#                                CCDC 
#
#######################################################################
#
# If this CIF has been generated from an entry in the Cambridge 
# Structural Database, then it will include bibliographic, chemical, 
# crystal, experimental, refinement or atomic coordinate data resulting 
# from the CCDC's data processing and validation procedures.
#
#######################################################################

data_WALBOC01
_chemical_formula_moiety         '(C6 H6 N8 O4 Zn2)n,1.3n(C1 O2)'
_chemical_name_systematic        
"catena-[bis(\m~3~-3-Amino-1,2,4-triazolato-N^1^,N^2^,N^4^)-(\m~2~-oxalato-O,O',O'',O''')-di-zinc carbon dioxide clathrate]"
_symmetry_cell_setting           orthorhombic
_symmetry_space_group_name_H-M   'P b c a'
_symmetry_Int_Tables_number      61
_space_group_name_Hall           '-P 2ac 2ab'
loop_
_symmetry_equiv_pos_site_id
_symmetry_equiv_pos_as_xyz
1 x,y,z
2 1/2-x,-y,1/2+z
3 -x,1/2+y,1/2-z
4 1/2+x,1/2-y,-z
5 -x,-y,-z
6 1/2+x,y,1/2-z
7 x,1/2-y,1/2+z
8 1/2-x,1/2+y,z
_cell_length_a                   13.8034(2)
_cell_length_b                   12.9639(2)
_cell_length_c                   16.8318(3)
_cell_angle_alpha                90
_cell_angle_beta                 90
_cell_angle_gamma                90
_cell_volume                     3011.98
_exptl_crystal_colour            colorless
_exptl_crystal_description       cube
_cell_formula_units_Z            8
_exptl_crystal_preparation       
'The as-synthesised material was evacuated, backfilled with 850 mbar (at 293 K) of CO2 and sealed in a capillary prior to data collection'
loop_
_atom_site_label
_atom_site_type_symbol
_atom_site_fract_x
_atom_site_fract_y
_atom_site_fract_z
_atom_site_U_iso_or_equiv
_atom_site_thermal_displace_type
Zn1 Zn 0.59259(2) 0.02386(3) 0.423968(18) 0.0154 Uani
Zn2 Zn 0.52199(2) 0.07359(2) 0.096147(18) 0.0155 Uani
C1 C 0.59028(18) 0.0278(2) 0.25394(16) 0.0220 Uani
C2 C 0.49301(19) 0.0773(2) 0.27748(15) 0.0211 Uani
O1 O 0.64482(13) -0.00069(16) 0.30866(11) 0.0273 Uani
O2 O 0.47688(13) 0.08394(16) 0.35041(11) 0.0278 Uani
O3 O 0.44098(14) 0.10575(15) 0.22132(11) 0.0285 Uani
O4 O 0.60861(14) 0.01752(17) 0.18153(11) 0.0298 Uani
C3 C 0.77964(18) -0.0279(2) 0.52007(15) 0.0193 Uani
C4 C 0.81180(18) 0.0289(2) 0.40587(16) 0.0201 Uani
H1 H 0.808(2) 0.050(2) 0.3554(19) 0.0170 Uiso
C5 C 0.45209(18) 0.2021(2) 0.58937(15) 0.0195 Uani
C6 C 0.58105(18) 0.2221(2) 0.52303(15) 0.0202 Uani
H2 H 0.646(2) 0.249(2) 0.4966(18) 0.0220 Uiso
N1 N 0.73659(15) 0.00498(16) 0.45285(12) 0.0187 Uani
N2 N 0.89595(14) 0.01294(17) 0.43948(12) 0.0173 Uani
N3 N 0.87605(14) -0.02496(16) 0.51497(12) 0.0178 Uani
N4 N 0.73089(19) -0.0665(2) 0.58336(15) 0.0357 Uani
H3 H 0.757(3) -0.061(3) 0.631(2) 0.0430 Uiso
H4 H 0.670(3) -0.058(3) 0.5895(19) 0.0310 Uiso
N5 N 0.55337(15) 0.12709(17) 0.50907(12) 0.0182 Uani
N6 N 0.46835(14) 0.11321(16) 0.55226(12) 0.0182 Uani
N7 N 0.52141(15) 0.27342(16) 0.57287(13) 0.0198 Uani
N8 N 0.37340(19) 0.2210(2) 0.63560(16) 0.0334 Uani
H5 H 0.382(3) 0.274(3) 0.676(3) 0.0600 Uiso
H6 H 0.340(3) 0.162(3) 0.654(2) 0.0460 Uiso
Zn1D Zn 0.40741(2) -0.02386(3) 0.576032(18) 0.0154 Uani
Zn2E Zn 1.02199(2) 0.07359(2) 0.403853(18) 0.0155 Uani
Zn2A Zn 0.97801(2) -0.07359(2) 0.596147(18) 0.0155 Uani
Zn2F Zn 0.52199(2) 0.42641(2) 0.596147(18) 0.0155 Uani
N2E N 0.39595(14) 0.01294(17) 0.06052(12) 0.0173 Uani
N3A N 0.62395(14) 0.02496(16) 0.01497(12) 0.0178 Uani
N6D N 0.53165(14) -0.11321(16) 0.44774(12) 0.0182 Uani
N7F N 0.52141(15) 0.22658(16) 0.07287(13) 0.0198 Uani
C7 C 0.3342(6) 0.2908(4) 0.3679(4) 0.0773 Uani
O5 O 0.2846(4) 0.2806(4) 0.3145(3) 0.0957 Uani
O6 O 0.3857(7) 0.2994(4) 0.4156(4) 0.1720 Uani
C8 C 0.1081(8) 0.3120(7) 0.2109(8) 0.0920 Uani
O7 O 0.1514(6) 0.2626(8) 0.1674(6) 0.1103 Uani
O8 O 0.0684(8) 0.3602(7) 0.2559(6) 0.1507 Uani
loop_
_atom_site_aniso_label
_atom_site_aniso_U_11
_atom_site_aniso_U_22
_atom_site_aniso_U_33
_atom_site_aniso_U_23
_atom_site_aniso_U_13
_atom_site_aniso_U_12
Zn1 0.01272(17) 0.02120(19) 0.01216(17) -0.00024(13) 0.00010(12) 0.00003(13)
Zn2 0.01314(17) 0.02044(19) 0.01290(17) -0.00016(13) -0.00065(13) 0.00059(13)
C1 0.0193(12) 0.0325(15) 0.0143(13) 0.0027(11) -0.0024(11) -0.0055(11)
C2 0.0237(13) 0.0225(13) 0.0172(13) 0.0006(10) -0.0034(11) -0.0035(11)
O1 0.0201(9) 0.0483(12) 0.0136(9) 0.0045(8) -0.0015(8) 0.0011(8)
O2 0.0246(10) 0.0406(12) 0.0182(9) -0.0006(8) -0.0014(8) 0.0083(8)
O3 0.0296(10) 0.0355(11) 0.0203(9) 0.0023(8) -0.0098(8) 0.0039(9)
O4 0.0232(9) 0.0514(13) 0.0147(10) 0.0060(9) -0.0011(8) 0.0034(9)
C3 0.0151(12) 0.0269(14) 0.0160(13) 0.0014(11) -0.0014(10) -0.0010(10)
C4 0.0158(13) 0.0311(14) 0.0133(13) 0.0027(11) -0.0012(10) -0.0020(11)
C5 0.0177(12) 0.0215(13) 0.0194(13) -0.0005(10) 0.0010(11) 0.0001(10)
C6 0.0197(12) 0.0235(14) 0.0173(12) -0.0017(10) 0.0025(11) -0.0027(10)
N1 0.0137(10) 0.0264(11) 0.0159(10) 0.0006(9) -0.0004(9) -0.0004(8)
N2 0.0144(10) 0.0250(11) 0.0125(10) 0.0012(8) 0.0008(8) -0.0011(8)
N3 0.0138(10) 0.0246(11) 0.0150(10) 0.0032(8) -0.0001(9) -0.0007(9)
N4 0.0164(13) 0.070(2) 0.0206(13) 0.0162(12) 0.0007(10) -0.0042(12)
N5 0.0153(10) 0.0230(11) 0.0162(10) -0.0019(9) 0.0033(8) -0.0019(9)
N6 0.0161(10) 0.0203(11) 0.0181(10) -0.0013(9) 0.0033(9) -0.0008(8)
N7 0.0194(11) 0.0205(11) 0.0196(11) -0.0009(9) 0.0019(9) -0.0013(8)
N8 0.0324(14) 0.0264(14) 0.0413(15) -0.0090(12) 0.0164(12) -0.0053(11)
Zn1D 0.01272 0.0212 0.01216 -0.00024 0.0001 3e-05
Zn2E 0.01314 0.02044 0.0129 0.00016 0.00065 0.00059
Zn2A 0.01314 0.02044 0.0129 0.00016 0.00065 0.00059
Zn2F 0.01314 0.02044 0.0129 0.00016 -0.00065 -0.00059
N2E 0.0144 0.025 0.0125 -0.0012 -0.0008 -0.0011
N3A 0.0138 0.0246 0.015 -0.0032 0.0001 -0.0007
N6D 0.0161 0.0203 0.0181 -0.0013 0.0033 -0.0008
N7F 0.0194 0.0205 0.0196 0.0009 0.0019 0.0013
C7 0.139(7) 0.046(3) 0.047(3) 0.001(3) -0.019(4) 0.010(4)
O5 0.117(4) 0.090(4) 0.080(3) 0.027(3) 0.000(3) -0.009(3)
O6 0.326(11) 0.053(3) 0.137(6) -0.023(3) -0.145(7) 0.036(5)
C8 0.082(7) 0.049(5) 0.145(11) 0.028(6) 0.067(8) 0.016(5)
O7 0.063(5) 0.142(8) 0.126(7) -0.018(6) 0.006(5) -0.009(5)
O8 0.182(10) 0.111(7) 0.159(9) 0.056(7) 0.115(9) 0.076(7)
loop_
_geom_bond_atom_site_label_1
_geom_bond_atom_site_label_2
_geom_bond_site_symmetry_1
_geom_bond_site_symmetry_2
Zn1 O1 1_555 1_555
Zn2 O3 1_555 1_555
C1 C2 1_555 1_555
C2 O2 1_555 1_555
O1 C1 1_555 1_555
O2 Zn1 1_555 1_555
O3 C2 1_555 1_555
O4 Zn2 1_555 1_555
C3 N1 1_555 1_555
C4 H1 1_555 1_555
C5 N6 1_555 1_555
C6 H2 1_555 1_555
N1 Zn1 1_555 1_555
N2 C4 1_555 1_555
N3 C3 1_555 1_555
N4 C3 1_555 1_555
H3 N4 1_555 1_555
H4 N4 1_555 1_555
N5 Zn1 1_555 1_555
N6 N5 1_555 1_555
N7 C5 1_555 1_555
N8 C5 1_555 1_555
H5 N8 1_555 1_555
H6 N8 1_555 1_555
C7 O5 1_555 1_555
C8 O7 1_555 1_555
O6 C7 1_555 1_555
O8 C8 1_555 1_555
Zn1D N6 1_555 1_555
Zn2E N2 1_555 1_555
Zn2A N3 1_555 1_555
Zn2F N7 1_555 1_555
N2E Zn2 1_555 1_555
N3A Zn2 1_555 1_555
N6D Zn1 1_555 1_555
N7F Zn2 1_555 1_555
C1 O4 1_555 1_555
C4 N1 1_555 1_555
C6 N5 1_555 1_555
C6 N7 1_555 1_555
N2 N3 1_555 1_555

#END
