
#######################################################################
#
#                 Cambridge Crystallographic Data Centre
#                                CCDC 
#
#######################################################################
#
# If this CIF has been generated from an entry in the Cambridge 
# Structural Database, then it will include bibliographic, chemical, 
# crystal, experimental, refinement or atomic coordinate data resulting 
# from the CCDC's data processing and validation procedures.
#
#######################################################################

data_WALBOC
_chemical_formula_moiety         '(C6 H6 N8 O4 Zn2)n,1.3n(C1 O2)'
_chemical_name_systematic        
"catena-[bis(\m~3~-3-Amino-1,2,4-triazolato-N^1^,N^2^,N^4^)-(\m~2~-oxalato-O,O',O'',O''')-di-zinc carbon dioxide clathrate]"
_symmetry_cell_setting           orthorhombic
_symmetry_space_group_name_H-M   'P b c a'
_symmetry_Int_Tables_number      61
_space_group_name_Hall           '-P 2ac 2ab'
loop_
_symmetry_equiv_pos_site_id
_symmetry_equiv_pos_as_xyz
1 x,y,z
2 1/2-x,-y,1/2+z
3 -x,1/2+y,1/2-z
4 1/2+x,1/2-y,-z
5 -x,-y,-z
6 1/2+x,y,1/2-z
7 x,1/2-y,1/2+z
8 1/2-x,1/2+y,z
_cell_length_a                   13.7961(2)
_cell_length_b                   12.9305(2)
_cell_length_c                   16.8295(2)
_cell_angle_alpha                90
_cell_angle_beta                 90
_cell_angle_gamma                90
_cell_volume                     3002.22
_exptl_crystal_colour            colorless
_exptl_crystal_description       cube
_cell_formula_units_Z            8
_exptl_crystal_preparation       
'The as-synthesised material was evacuated, backfilled with 850 mbar (at 293 K) of CO2 and sealed in a capillary prior to data collection'
loop_
_atom_site_label
_atom_site_type_symbol
_atom_site_fract_x
_atom_site_fract_y
_atom_site_fract_z
_atom_site_U_iso_or_equiv
_atom_site_thermal_displace_type
Zn1 Zn 0.59270(4) 0.52431(5) 0.57610(4) 0.0089 Uani
Zn2 Zn 0.52207(4) 0.57293(5) 0.90351(4) 0.0087 Uani
C1 C 0.4938(3) 0.5769(4) 0.7228(3) 0.0153 Uani
C2 C 0.5913(3) 0.5263(4) 0.7468(3) 0.0160 Uani
O1 O 0.6089(3) 0.5156(3) 0.8185(2) 0.0197 Uani
O2 O 0.4414(2) 0.6050(3) 0.7792(2) 0.0195 Uani
O3 O 0.6457(2) 0.4981(3) 0.6910(2) 0.0210 Uani
O4 O 0.4777(2) 0.5845(3) 0.6498(2) 0.0186 Uani
C3 C 0.4525(4) 0.7016(4) 0.4102(3) 0.0140 Uani
C4 C 0.5809(3) 0.7220(4) 0.4768(3) 0.0123 Uani
H1 H 0.6374 0.7517 0.4996 0.0150 Uiso
C5 C 0.7788(3) 0.4724(4) 0.4791(3) 0.0133 Uani
C6 C 0.8120(3) 0.5294(4) 0.5947(3) 0.0130 Uani
H2 H 0.8050 0.5552 0.6472 0.0150 Uiso
N1 N 0.5215(3) 0.7744(3) 0.4265(2) 0.0127 Uani
N2 N 0.5533(3) 0.6277(3) 0.4907(2) 0.0105 Uani
N3 N 0.4683(3) 0.6136(3) 0.4472(2) 0.0133 Uani
N4 N 0.3739(3) 0.7206(4) 0.3627(3) 0.0250 Uani
H3 H 0.3299 0.6722 0.3554 0.0300 Uiso
H4 H 0.3673 0.7812 0.3395 0.0300 Uiso
N5 N 0.8960(3) 0.5129(3) 0.5604(2) 0.0096 Uani
N6 N 0.8764(3) 0.4756(3) 0.4847(2) 0.0107 Uani
N7 N 0.7368(3) 0.5058(3) 0.5472(2) 0.0114 Uani
N8 N 0.7302(3) 0.4355(4) 0.4161(3) 0.0247 Uani
H5 H 0.7621 0.4113 0.3748 0.0300 Uiso
H6 H 0.6664 0.4355 0.4160 0.0300 Uiso
Zn1D Zn 0.40730(4) 0.47569(5) 0.42390(4) 0.0089 Uani
Zn2F Zn 0.52207(4) 0.92707(5) 0.40351(4) 0.0087 Uani
Zn2E Zn 1.02207(4) 0.57293(5) 0.59649(4) 0.0087 Uani
Zn2A Zn 0.97793(4) 0.42707(5) 0.40351(4) 0.0087 Uani
N1F N 0.5215(3) 0.7256(3) 0.9265(2) 0.0127 Uani
N3D N 0.5317(3) 0.3864(3) 0.5528(2) 0.0133 Uani
N5E N 0.3960(3) 0.5129(3) 0.9396(2) 0.0096 Uani
N6A N 0.6236(3) 0.5244(3) 0.9847(2) 0.0107 Uani
C7 C 0.8923(15) 0.1884(14) 0.2093(14) 0.0817 Uani
O5 O 0.8494(10) 0.2423(13) 0.1645(9) 0.0963 Uani
O6 O 0.9338(13) 0.1438(14) 0.2523(10) 0.1350 Uani
C8 C 0.6658(10) 0.2109(8) 0.3679(7) 0.0560 Uani
O7 O 0.7163(6) 0.2220(6) 0.3122(4) 0.0657 Uani
O8 O 0.6173(10) 0.2021(7) 0.4193(6) 0.1220 Uani
loop_
_atom_site_aniso_label
_atom_site_aniso_U_11
_atom_site_aniso_U_22
_atom_site_aniso_U_33
_atom_site_aniso_U_23
_atom_site_aniso_U_13
_atom_site_aniso_U_12
Zn1 0.0071(3) 0.0143(4) 0.0054(4) 0.0004(3) 0.0000(2) 0.0006(3)
Zn2 0.007 0.0135 0.0056 0.0005 0.0005 0.0004
C1 0.011 0.018 0.017 -0.003 0.004 -0.002
C2 0.013 0.022 0.013 -0.005 0 -0.006
O1 0.013 0.037 0.009 -0.0035 0.0006 0.0032
O2 0.0187 0.027 0.0127 -0.0007 0.0072 0.0036
O3 0.0131 0.037 0.013 -0.0062 0.004 0.0003
O4 0.0185 0.028 0.0094 0.0016 0.0015 0.003
C3 0.015 0.016 0.011 0 0.002 -0.002
C4 0.015 0.012 0.01 0 -0.002 -0.006
C5 0.01 0.02 0.01 -0.001 0.001 0
C6 0.009 0.02 0.01 -0.003 0.0018 -0.002
N1 0.015 0.011 0.012 0.0002 -0.0017 -0.0055
N2 0.0044 0.017 0.01 0.0008 -0.0021 0.0012
N3 0.0138 0.018 0.008 -0.0026 -0.0024 0.0022
N4 0.023 0.018 0.034 0.009 -0.017 -0.005
N5 0.0107 0.014 0.004 -0.001 0.0023 0.0001
N6 0.0031 0.017 0.012 -0.0025 -0.0011 -0.0032
N7 0.0091 0.016 0.009 -0.0012 -0.0001 0.0009
N8 0.013 0.051 0.01 -0.016 -0.0008 -0.002
Zn1D 0.0071 0.0143 0.0054 0.0004 0 0.0006
Zn2F 0.007 0.0135 0.0056 -0.0005 0.0005 -0.0004
Zn2E 0.007 0.0135 0.0056 -0.0005 -0.0005 0.0004
Zn2A 0.007 0.0135 0.0056 -0.0005 -0.0005 0.0004
N1F 0.015 0.011 0.012 -0.0002 -0.0017 0.0055
N3D 0.0138(19) 0.018(2) 0.008(2) -0.0026(18) -0.0024(16) 0.0022(19)
N5E 0.0107 0.014 0.004 0.001 -0.0023 0.0001
N6A 0.0031 0.017 0.012 0.0025 0.0011 -0.0032
C7 0.087(14) 0.038(11) 0.120(18) -0.017(10) -0.069(14) 0.026(10)
O5 0.058(8) 0.143(16) 0.088(10) -0.014(10) 0.011(7) -0.026(9)
O6 0.146(15) 0.111(14) 0.148(16) -0.071(12) -0.102(14) 0.076(12)
C8 0.103(9) 0.021(5) 0.044(6) -0.004(4) 0.004(7) 0.006(6)
O7 0.083(6) 0.069(6) 0.045(5) -0.023(4) 0.008(4) -0.010(5)
O8 0.235(14) 0.039(5) 0.092(7) 0.016(5) 0.113(9) 0.014(7)
loop_
_geom_bond_atom_site_label_1
_geom_bond_atom_site_label_2
_geom_bond_site_symmetry_1
_geom_bond_site_symmetry_2
Zn1 O3 1_555 1_555
Zn2 O1 1_555 1_555
C1 C2 1_555 1_555
C2 O1 1_555 1_555
O2 Zn2 1_555 1_555
O3 C2 1_555 1_555
O4 Zn1 1_555 1_555
C3 N1 1_555 1_555
C4 H1 1_555 1_555
C5 N6 1_555 1_555
C6 H2 1_555 1_555
N1 C4 1_555 1_555
N2 Zn1 1_555 1_555
N3 C3 1_555 1_555
N4 C3 1_555 1_555
H3 N4 1_555 1_555
H4 N4 1_555 1_555
N5 C6 1_555 1_555
N6 N5 1_555 1_555
N7 Zn1 1_555 1_555
N8 C5 1_555 1_555
H5 N8 1_555 1_555
H6 N8 1_555 1_555
C7 O5 1_555 1_555
O6 C7 1_555 1_555
C8 O7 1_555 1_555
O8 C8 1_555 1_555
Zn1D N3 1_555 1_555
Zn2F N1 1_555 1_555
Zn2E N5 1_555 1_555
Zn2A N6 1_555 1_555
N1F Zn2 1_555 1_555
N3D Zn1 1_555 1_555
N5E Zn2 1_555 1_555
N6A Zn2 1_555 1_555
C1 O2 1_555 1_555
C1 O4 1_555 1_555
C4 N2 1_555 1_555
C5 N7 1_555 1_555
C6 N7 1_555 1_555
N2 N3 1_555 1_555

#END
