
#######################################################################
#
#                 Cambridge Crystallographic Data Centre
#                                CCDC 
#
#######################################################################
#
# If this CIF has been generated from an entry in the Cambridge 
# Structural Database, then it will include bibliographic, chemical, 
# crystal, experimental, refinement or atomic coordinate data resulting 
# from the CCDC's data processing and validation procedures.
#
#######################################################################

data_WALCIX
_chemical_formula_moiety         '(C6 H6 N8 O4 Zn2)n'
_chemical_name_systematic        
catena-[bis(\m~3~-3-Amino-1,2,4-triazolato-N^1^,N^2^,N^4^)-(\m~2~-oxalato-O,O',O'',O''')-di-zinc]
_symmetry_cell_setting           orthorhombic
_symmetry_space_group_name_H-M   'P b c a'
_symmetry_Int_Tables_number      61
_space_group_name_Hall           '-P 2ac 2ab'
loop_
_symmetry_equiv_pos_site_id
_symmetry_equiv_pos_as_xyz
1 x,y,z
2 1/2-x,-y,1/2+z
3 -x,1/2+y,1/2-z
4 1/2+x,1/2-y,-z
5 -x,-y,-z
6 1/2+x,y,1/2-z
7 x,1/2-y,1/2+z
8 1/2-x,1/2+y,z
_cell_length_a                   13.8107(1)
_cell_length_b                   12.8732(2)
_cell_length_c                   16.8085(2)
_cell_angle_alpha                90
_cell_angle_beta                 90
_cell_angle_gamma                90
_cell_volume                     2988.35
_exptl_crystal_colour            colorless
_exptl_crystal_description       cube
_cell_formula_units_Z            8
_exptl_crystal_preparation       
'The as-synthesised material was evacuated for 72 hrs followed heating at 80 deg.C for 80 min under vacuum prior to data collection'
loop_
_atom_site_label
_atom_site_type_symbol
_atom_site_fract_x
_atom_site_fract_y
_atom_site_fract_z
_atom_site_U_iso_or_equiv
_atom_site_thermal_displace_type
Zn1 Zn -0.02131(4) -0.42939(5) -0.09718(3) 0.0173 Uani
Zn2 Zn -0.09294(4) -0.47612(5) -0.42537(3) 0.0168 Uani
C1 C 0.0090(3) -0.4247(4) -0.2788(3) 0.0250 Uani
C2 C -0.0891(3) -0.4697(4) -0.2557(3) 0.0270 Uani
O1 O 0.0625(2) -0.3989(3) -0.22210(18) 0.0333 Uani
O2 O -0.1079(2) -0.4804(3) -0.18371(19) 0.0355 Uani
O3 O 0.0251(2) -0.4181(3) -0.35207(18) 0.0337 Uani
O4 O -0.1447(2) -0.4952(3) -0.31051(18) 0.0349 Uani
C3 C 0.0466(3) -0.2028(4) -0.0910(3) 0.0230 Uani
C4 C -0.0790(3) -0.2243(4) -0.0221(3) 0.0220 Uani
H1 H -0.1344 -0.2549 0.0018 0.0260 Uiso
C5 C 0.2204(3) -0.5262(4) 0.0220(3) 0.0233 Uani
C6 C 0.1887(3) -0.4746(4) -0.0938(3) 0.0213 Uani
H2 H 0.1961 -0.4518 -0.1473 0.0260 Uiso
N1 N -0.0207(2) -0.2754(3) -0.0735(2) 0.0216 Uani
N2 N -0.0519(2) -0.1290(3) -0.0085(2) 0.0187 Uani
N3 N 0.0303(2) -0.1136(3) -0.0534(2) 0.0206 Uani
N4 N 0.1237(3) -0.2201(3) -0.1399(2) 0.0407 Uani
H3 H 0.1664 -0.1705 -0.1482 0.0490 Uiso
H4 H 0.1308 -0.2808 -0.1632 0.0490 Uiso
N5 N 0.1239(2) -0.5220(3) 0.0171(2) 0.0206 Uani
N6 N 0.1043(2) -0.4879(3) -0.05922(19) 0.0193 Uani
N7 N 0.2638(2) -0.4968(3) -0.0454(2) 0.0199 Uani
N8 N 0.2679(3) -0.5627(4) 0.0865(2) 0.0487 Uani
H5 H 0.2351 -0.5852 0.1280 0.0580 Uiso
H6 H 0.3316 -0.5640 0.0871 0.0580 Uiso
Zn1D Zn 0.02131(4) -0.57061(5) 0.09718(3) 0.0173 Uani
Zn2F Zn -0.09294(4) -0.02388(5) 0.07463(3) 0.0168 Uani
Zn2B Zn 0.09294(4) 0.02388(5) -0.07463(3) 0.0168 Uani
Zn2E Zn 0.40706(4) -0.47612(5) -0.07463(3) 0.0168 Uani
N2F N -0.0519(2) -0.3710(3) -0.5085(2) 0.0187 Uani
N3B N -0.0303(2) -0.6136(3) -0.4466(2) 0.0206 Uani
N5D N -0.1239(2) -0.4780(3) -0.0171(2) 0.0206 Uani
N7E N -0.2362(2) -0.4968(3) -0.4546(2) 0.0199 Uani
loop_
_atom_site_aniso_label
_atom_site_aniso_U_11
_atom_site_aniso_U_22
_atom_site_aniso_U_33
_atom_site_aniso_U_23
_atom_site_aniso_U_13
_atom_site_aniso_U_12
Zn1 0.0112 0.0274 0.0132 -0.0001 -0.0011 -0.0001
Zn2 0.0112 0.0266 0.0127 -0.0006 0.0002 -0.0003
C1 0.026 0.026 0.023 -0.001 -0.003 0.007
C2 0.032 0.043 0.006 -0.005 -0.004 0.016
O1 0.0371 0.04 0.0229 -0.0045 -0.011 -0.0011
O2 0.0244 0.057 0.025 -0.004 -0.003 -0.0017
O3 0.0309 0.049 0.0212 0.0002 -0.0036 -0.0085
O4 0.0204 0.065 0.0194 -0.0048 -0.0011 0.0007
C3 0.021 0.027 0.021 -0.002 0.0048 -0.001
C4 0.015 0.03 0.021 0.002 0.0032 -0.002
C5 0.015 0.041 0.014 0.006 -0.0033 0.001
C6 0.012 0.033 0.019 0.003 -0.0021 -0.001
N1 0.0177 0.026 0.021 -0.0005 0.0019 -0.0029
N2 0.0162 0.025 0.015 -0.001 0.0011 0
N3 0.0147 0.029 0.018 -0.0015 0.0057 -0.0011
N4 0.037 0.033 0.052 -0.015 0.027 -0.007
N5 0.0138 0.033 0.015 0.0037 0.0005 0.0035
N6 0.0134 0.032 0.0125 0.0016 -0.0008 -0.0003
N7 0.0136 0.03 0.016 0.0033 0.0008 0.0015
N8 0.012 0.102 0.032 0.031 -0.0012 0.001
Zn1D 0.0112 0.0274 0.0132 -0.0001 -0.0011 -0.0001
Zn2F 0.0112 0.0266 0.0127 0.0006 0.0002 0.0003
Zn2B 0.0112 0.0266 0.0127 0.0006 0.0002 0.0003
Zn2E 0.0112 0.0266 0.0127 0.0006 -0.0002 -0.0003
N2F 0.0162 0.025 0.015 0.001 0.0011 0
N3B 0.0147 0.029 0.018 0.0015 0.0057 0.0011
N5D 0.0138 0.033 0.015 0.0037 0.0005 0.0035
N7E 0.0136 0.03 0.016 -0.0033 -0.0008 0.0015
loop_
_geom_bond_atom_site_label_1
_geom_bond_atom_site_label_2
_geom_bond_site_symmetry_1
_geom_bond_site_symmetry_2
Zn1 O1 1_555 1_555
Zn2 O3 1_555 1_555
C1 C2 1_555 1_555
C2 O2 1_555 1_555
O1 C1 1_555 1_555
O2 Zn1 1_555 1_555
O3 C1 1_555 1_555
O4 Zn2 1_555 1_555
C3 N1 1_555 1_555
C4 H1 1_555 1_555
C5 N5 1_555 1_555
C6 H2 1_555 1_555
N1 Zn1 1_555 1_555
N2 C4 1_555 1_555
N3 C3 1_555 1_555
N4 C3 1_555 1_555
H3 N4 1_555 1_555
H4 N4 1_555 1_555
N5 N6 1_555 1_555
N6 Zn1 1_555 1_555
N7 C5 1_555 1_555
N8 C5 1_555 1_555
H5 N8 1_555 1_555
H6 N8 1_555 1_555
Zn1D N5 1_555 1_555
Zn2F N2 1_555 1_555
Zn2B N3 1_555 1_555
Zn2E N7 1_555 1_555
N2F Zn2 1_555 1_555
N3B Zn2 1_555 1_555
N5D Zn1 1_555 1_555
N7E Zn2 1_555 1_555
C2 O4 1_555 1_555
C4 N1 1_555 1_555
C6 N6 1_555 1_555
C6 N7 1_555 1_555
N2 N3 1_555 1_555

#END
