
#######################################################################
#
#                 Cambridge Crystallographic Data Centre
#                                CCDC 
#
#######################################################################
#
# If this CIF has been generated from an entry in the Cambridge 
# Structural Database, then it will include bibliographic, chemical, 
# crystal, experimental, refinement or atomic coordinate data resulting 
# from the CCDC's data processing and validation procedures.
#
#######################################################################

data_WALCET
_chemical_formula_moiety         '(C6 H6 N8 O4 Zn2)n,1.39n(C1 O2)'
_chemical_name_systematic        
"catena-[bis(\m~3~-3-Amino-1,2,4-triazolato-N^1^,N^2^,N^4^)-(\m~2~-oxalato-O,O',O'',O''')-di-zinc carbon dioxide clathrate]"
_symmetry_cell_setting           orthorhombic
_symmetry_space_group_name_H-M   'P b c a'
_symmetry_Int_Tables_number      61
_space_group_name_Hall           '-P 2ac 2ab'
loop_
_symmetry_equiv_pos_site_id
_symmetry_equiv_pos_as_xyz
1 x,y,z
2 1/2-x,-y,1/2+z
3 -x,1/2+y,1/2-z
4 1/2+x,1/2-y,-z
5 -x,-y,-z
6 1/2+x,y,1/2-z
7 x,1/2-y,1/2+z
8 1/2-x,1/2+y,z
_cell_length_a                   13.8033(2)
_cell_length_b                   13.0094(2)
_cell_length_c                   16.8281(2)
_cell_angle_alpha                90
_cell_angle_beta                 90
_cell_angle_gamma                90
_cell_volume                     3021.87
_exptl_crystal_colour            colorless
_exptl_crystal_description       cube
_cell_formula_units_Z            8
_exptl_crystal_preparation       
'The as-synthesised material was evacuated, backfilled with 850 mbar (at 293 K) of CO2 and sealed in a capillary prior to data collection'
loop_
_atom_site_label
_atom_site_type_symbol
_atom_site_fract_x
_atom_site_fract_y
_atom_site_fract_z
_atom_site_U_iso_or_equiv
_atom_site_thermal_displace_type
Zn1 Zn 0.02213(2) -0.42561(3) -0.404490(19) 0.0232 Uani
Zn2 Zn 0.09270(2) -0.47683(3) -0.07598(2) 0.0226 Uani
C1 C 0.0897(2) -0.4684(3) -0.24570(17) 0.0370 Uani
C2 C -0.0082(2) -0.4224(2) -0.22229(17) 0.0343 Uani
O1 O 0.10889(17) -0.4762(2) -0.31791(13) 0.0525 Uani
O2 O -0.06039(18) -0.3946(2) -0.27832(13) 0.0488 Uani
O3 O 0.14419(15) -0.4977(2) -0.19134(13) 0.0492 Uani
O4 O -0.02452(16) -0.4182(2) -0.14953(13) 0.0462 Uani
C3 C -0.0474(2) -0.2022(2) -0.41150(17) 0.0309 Uani
C4 C 0.0796(2) -0.2218(2) -0.47909(17) 0.0320 Uani
H1 H 0.1342 -0.2510 -0.5022 0.0380 Uiso
C5 C -0.22026(19) -0.5271(2) -0.52009(17) 0.0313 Uani
C6 C -0.18821(19) -0.4711(2) -0.40631(16) 0.0311 Uani
H2 H -0.1952 -0.4463 -0.3548 0.0370 Uiso
N1 N 0.02076(17) -0.27289(18) -0.42902(14) 0.0301 Uani
N2 N 0.05245(16) -0.12737(18) -0.49200(13) 0.0278 Uani
N3 N -0.03145(15) -0.11361(18) -0.44798(14) 0.0271 Uani
N4 N -0.1253(2) -0.2201(2) -0.3637(2) 0.0581 Uani
H3 H -0.1674 -0.1725 -0.3559 0.0700 Uiso
H4 H -0.1324 -0.2791 -0.3414 0.0700 Uiso
N5 N -0.12401(16) -0.52300(18) -0.51552(13) 0.0272 Uani
N6 N -0.10416(15) -0.48595(19) -0.44006(13) 0.0262 Uani
N7 N -0.26319(15) -0.49511(19) -0.45302(14) 0.0283 Uani
N8 N -0.2690(2) -0.5638(3) -0.58381(17) 0.0668 Uani
H5 H -0.2376 -0.5862 -0.6244 0.0800 Uiso
H6 H -0.3313 -0.5647 -0.5837 0.0800 Uiso
Zn1D Zn -0.02213(2) -0.57439(3) -0.595510(19) 0.0232 Uani
Zn2F Zn 0.09270(2) -0.02317(3) -0.57598(2) 0.0226 Uani
Zn2B Zn -0.09270(2) 0.02317(3) -0.42402(2) 0.0226 Uani
Zn2E Zn -0.40730(2) -0.47683(3) -0.42402(2) 0.0226 Uani
N2F N 0.05245(16) -0.37263(18) 0.00800(13) 0.0278 Uani
N3B N 0.03145(15) -0.61361(18) -0.05202(14) 0.0271 Uani
N5D N 0.12401(16) -0.47700(18) -0.48448(13) 0.0272 Uani
N7E N 0.23681(15) -0.49511(19) -0.04698(14) 0.0283 Uani
C7 C 0.169(2) -0.7072(18) -0.368(3) 0.3440 Uani
O5 O 0.223(2) -0.7194(19) -0.3184(13) 0.3900 Uani
O6 O 0.093(2) -0.6972(11) -0.3925(16) 0.4717 Uani
C8 C 0.6254(18) -0.1848(12) -0.2738(14) 0.2443 Uani
O7 O 0.5834(16) -0.1340(12) -0.2359(11) 0.3177 Uani
O8 O 0.6600(11) -0.2376(13) -0.3176(12) 0.2753 Uani
loop_
_atom_site_aniso_label
_atom_site_aniso_U_11
_atom_site_aniso_U_22
_atom_site_aniso_U_33
_atom_site_aniso_U_23
_atom_site_aniso_U_13
_atom_site_aniso_U_12
Zn1 0.01751 0.0306 0.02139 5e-05 -0.00126 0.00065
Zn2 0.01727 0.0307 0.01971 0.00046 0.0004 -7e-05
C1 0.0334 0.059 0.0187 0.0084 -0.0059 -0.012
C2 0.036 0.0388 0.028 0.0027 -0.0091 -0.0026
O1 0.0378 0.095 0.0246 0.0085 -0.0017 0.007
O2 0.0499 0.0589 0.0375 0.0048 -0.017 0.0075
O3 0.0294 0.0926 0.0256 0.0088 -0.0015 0.0043
O4 0.0418 0.0665 0.0304 -0.0014 -0.0026 0.0138
C3 0.0289 0.0313 0.0325 0.0036 0.0061 0.0027
C4 0.0266 0.0355 0.0339 0.0037 0.0069 0.0057
C5 0.0188 0.0472 0.0279 -0.0056 0.0011 -0.0016
C6 0.0192 0.0525 0.0216 -0.006 0.0018 -0.0019
N1 0.0285 0.0277 0.0342 0.0039 0.0054 0.0022
N2 0.0231 0.0333 0.0269 0.0044 0.0041 0.002
N3 0.0227 0.03 0.0286 0.0023 0.0053 0.0034
N4 0.054 0.0422 0.078 0.0201 0.0369 0.0128
N5 0.0179 0.0402 0.0234 -0.0063 -0.0001 -0.0005
N6 0.0182 0.0396 0.0208 -0.0027 -0.0008 -0.0021
N7 0.0158 0.0439 0.0252 -0.0036 0.0014 -0.0012
N8 0.0206 0.139 0.0409 -0.0422 -0.0006 -0.0063
Zn1D 0.01751 0.0306 0.02139 5e-05 -0.00126 0.00065
Zn2F 0.01727 0.0307 0.01971 -0.00046 0.0004 7e-05
Zn2B 0.01727 0.0307 0.01971 -0.00046 0.0004 7e-05
Zn2E 0.01727 0.0307 0.01971 -0.00046 -0.0004 -7e-05
N2F 0.0231 0.0333 0.0269 -0.0044 0.0041 -0.002
N3B 0.0227 0.03 0.0286 -0.0023 0.0053 -0.0034
N5D 0.0179 0.0402 0.0234 -0.0063 -0.0001 -0.0005
N7E 0.0158 0.0439 0.0252 0.0036 -0.0014 -0.0012
C7 0.38 0.072 0.58 -0.09 0.17 -0.013
O5 0.47 0.26 0.44 -0.12 0.24 -0.01
O6 0.83 0.105 0.48 0.12 -0.4 -0.181
C8 0.28 0.103 0.35 0.059 0.24 0.055
O7 0.43 0.183 0.34 0.1 0.22 0.14
O8 0.165 0.251 0.41 -0.086 0.11 -0.031
loop_
_geom_bond_atom_site_label_1
_geom_bond_atom_site_label_2
_geom_bond_site_symmetry_1
_geom_bond_site_symmetry_2
Zn1 O1 1_555 1_555
Zn2 O3 1_555 1_555
C1 C2 1_555 1_555
C2 O2 1_555 1_555
O1 C1 1_555 1_555
O2 Zn1 1_555 1_555
O3 C1 1_555 1_555
O4 Zn2 1_555 1_555
C3 N1 1_555 1_555
C4 H1 1_555 1_555
C5 N5 1_555 1_555
C6 H2 1_555 1_555
N1 Zn1 1_555 1_555
N2 C4 1_555 1_555
N3 C3 1_555 1_555
N4 C3 1_555 1_555
H3 N4 1_555 1_555
H4 N4 1_555 1_555
N5 N6 1_555 1_555
N6 Zn1 1_555 1_555
N7 C5 1_555 1_555
N8 C5 1_555 1_555
H5 N8 1_555 1_555
H6 N8 1_555 1_555
C7 O5 1_555 1_555
O6 C7 1_555 1_555
C8 O7 1_555 1_555
O8 C8 1_555 1_555
Zn1D N5 1_555 1_555
Zn2F N2 1_555 1_555
Zn2B N3 1_555 1_555
Zn2E N7 1_555 1_555
N2F Zn2 1_555 1_555
N3B Zn2 1_555 1_555
N5D Zn1 1_555 1_555
N7E Zn2 1_555 1_555
C2 O4 1_555 1_555
C4 N1 1_555 1_555
C6 N6 1_555 1_555
C6 N7 1_555 1_555
N2 N3 1_555 1_555

#END
