
#######################################################################
#
#                 Cambridge Crystallographic Data Centre
#                                CCDC 
#
#######################################################################
#
# If this CIF has been generated from an entry in the Cambridge 
# Structural Database, then it will include bibliographic, chemical, 
# crystal, experimental, refinement or atomic coordinate data resulting 
# from the CCDC's data processing and validation procedures.
#
#######################################################################

data_YUZPEQ
_chemical_formula_moiety         '(C96 H60 N20 O30 Zn6)n'
_chemical_name_systematic        
"catena-[bis(\m-5,5',5''-(nitrilotris((4,1-phenylene)-1H-1,2,3-triazole-4,1-diyl))tri(benzene-1,3-dicarboxylato))-hexaaqua-hexa-zinc unknown solvate]"
_symmetry_cell_setting           tetragonal
_symmetry_space_group_name_H-M   'I 4/m'
_symmetry_Int_Tables_number      87
_space_group_name_Hall           '-I 4'
loop_
_symmetry_equiv_pos_site_id
_symmetry_equiv_pos_as_xyz
1 x,y,z
2 -y,x,z
3 -x,-y,z
4 y,-x,z
5 1/2+x,1/2+y,1/2+z
6 1/2-y,1/2+x,1/2+z
7 1/2-x,1/2-y,1/2+z
8 1/2+y,1/2-x,1/2+z
9 -x,-y,-z
10 y,-x,-z
11 x,y,-z
12 -y,x,-z
13 1/2-x,1/2-y,1/2-z
14 1/2+y,1/2-x,1/2-z
15 1/2+x,1/2+y,1/2-z
16 1/2-y,1/2+x,1/2-z
_cell_length_a                   35.9096(4)
_cell_length_b                   35.9096(4)
_cell_length_c                   51.3533(9)
_cell_angle_alpha                90
_cell_angle_beta                 90
_cell_angle_gamma                90
_cell_volume                     66220
_exptl_crystal_colour            yellow
_exptl_crystal_description       block
_cell_formula_units_Z            8
loop_
_atom_site_label
_atom_site_type_symbol
_atom_site_fract_x
_atom_site_fract_y
_atom_site_fract_z
_atom_site_U_iso_or_equiv
_atom_site_thermal_displace_type
Zn1 Zn 0.783217(11) 0.046377(13) 0.5000 0.0541 Uani
Zn2 Zn 0.916084(9) 0.132758(9) 0.390144(6) 0.0545 Uani
Zn3 Zn 0.887893(9) 0.176820(9) 0.353657(6) 0.0566 Uani
Zn4 Zn 0.710777(12) 0.061462(14) 0.5000 0.0562 Uani
O1 O 0.94175(9) 0.09911(7) 0.41974(5) 0.1351 Uani
H1 H 0.9294 0.0801 0.4219 0.2020 Uiso
O2 O 0.86475(7) 0.21152(7) 0.32397(5) 0.1126 Uani
H2 H 0.8434 0.2047 0.3207 0.1690 Uiso
O3 O 0.72551(5) 0.09627(5) 0.47271(3) 0.0650 Uani
O4 O 0.84107(8) 0.03276(15) 0.5000 0.1378 Uani
H3 H 0.8495 0.0352 0.5148 0.2070 Uiso
O5 O 0.65375(7) 0.07646(10) 0.5000 0.1022 Uani
H4 H 0.6417 0.0606 0.5078 0.1540 Uiso
O6 O 0.86695(4) 0.13827(5) 0.40666(3) 0.0658 Uani
O7 O 0.78637(5) 0.08453(5) 0.47307(3) 0.0647 Uani
O8 O 0.84242(5) 0.17294(5) 0.37482(3) 0.0667 Uani
C1 C 0.73264(7) 0.14274(9) 0.43001(6) 0.0827 Uani
H5 H 0.7090 0.1397 0.4371 0.0990 Uiso
C2 C 0.76346(7) 0.12566(7) 0.44100(5) 0.0624 Uani
C3 C 0.75759(7) 0.09949(7) 0.46408(4) 0.0550 Uani
C4 C 0.79890(7) 0.13035(7) 0.43054(5) 0.0594 Uani
H6 H 0.8194 0.1191 0.4384 0.0710 Uiso
N1 N 0.70601(7) 0.18089(11) 0.39542(7) 0.1277 Uani
C5 C 0.80342(7) 0.15200(7) 0.40824(5) 0.0602 Uani
C6 C 0.84104(6) 0.15444(7) 0.39477(5) 0.0573 Uani
C7 C 0.77265(7) 0.16916(9) 0.39679(6) 0.0839 Uani
H7 H 0.7754 0.1835 0.3818 0.1010 Uiso
C8 C 0.73821(8) 0.16447(10) 0.40810(7) 0.0931 Uani
C9 C 0.67137(9) 0.16826(13) 0.39490(8) 0.1235 Uani
H8 H 0.6623 0.1466 0.4025 0.1480 Uiso
N2 N 0.70935(9) 0.21459(14) 0.38378(11) 0.2217 Uani
C10 C 0.65216(10) 0.19376(17) 0.38094(11) 0.1737 Uani
C11 C 0.61299(10) 0.19537(17) 0.37300(11) 0.1843 Uani
N3 N 0.67609(10) 0.22199(15) 0.37511(13) 0.2557 Uani
C12 C 0.59208(12) 0.16494(19) 0.37445(13) 0.2277 Uani
H9 H 0.6024 0.1433 0.3812 0.2730 Uiso
C13 C 0.59629(12) 0.22800(17) 0.36555(13) 0.2113 Uani
H10 H 0.6091 0.2505 0.3660 0.2540 Uiso
C14 C 0.55961(13) 0.2262(2) 0.35728(15) 0.2690 Uani
H11 H 0.5484 0.2481 0.3516 0.3230 Uiso
C15 C 0.55515(13) 0.1645(2) 0.36607(13) 0.2347 Uani
H12 H 0.5416 0.1425 0.3669 0.2820 Uiso
C16 C 0.53920(11) 0.1948(2) 0.35699(13) 0.2490 Uani
N4 N 0.50096(9) 0.19555(17) 0.34915(9) 0.2465 Uani
C17 C 0.49024(12) 0.2160(2) 0.32718(12) 0.2397 Uani
C18 C 0.51081(13) 0.2205(2) 0.30684(12) 0.2330 Uani
H13 H 0.5342 0.2093 0.3070 0.2800 Uiso
C19 C 0.45909(14) 0.2360(3) 0.32770(14) 0.3330 Uani
H14 H 0.4437 0.2353 0.3422 0.4000 Uiso
C20 C 0.47486(11) 0.1732(2) 0.36231(11) 0.2047 Uani
C21 C 0.44448(14) 0.1623(2) 0.35237(12) 0.2317 Uani
H15 H 0.4391 0.1702 0.3355 0.2780 Uiso
C22 C 0.50128(13) 0.24055(19) 0.28459(11) 0.2090 Uani
H16 H 0.5173 0.2412 0.2704 0.2510 Uiso
C23 C 0.47033(11) 0.2580(2) 0.28398(11) 0.2183 Uani
C24 C 0.44949(14) 0.2584(3) 0.30607(12) 0.3123 Uani
H17 H 0.4286 0.2736 0.3070 0.3750 Uiso
C25 C 0.42180(12) 0.1306(2) 0.38851(12) 0.2403 Uani
C26 C 0.41790(13) 0.1390(3) 0.36481(14) 0.2963 Uani
H18 H 0.3976 0.1299 0.3555 0.3560 Uiso
C27 C 0.44821(16) 0.1511(2) 0.40325(13) 0.2943 Uani
H19 H 0.4470 0.1527 0.4213 0.3530 Uiso
C28 C 0.47675(15) 0.1693(2) 0.38851(13) 0.2820 Uani
H20 H 0.4973 0.1788 0.3973 0.3380 Uiso
N5 N 0.45571(8) 0.31126(13) 0.22565(6) 0.1616 Uani
C29 C 0.47778(10) 0.29141(13) 0.24020(8) 0.1317 Uani
H21 H 0.5023 0.2854 0.2362 0.1580 Uiso
C30 C 0.46015(12) 0.2812(2) 0.26141(10) 0.2053 Uani
N6 N 0.34570(8) 0.07812(12) 0.41558(7) 0.1617 Uani
C31 C 0.35887(9) 0.09842(13) 0.39647(8) 0.1337 Uani
H22 H 0.3459 0.1056 0.3816 0.1600 Uiso
N7 N 0.37042(11) 0.07851(19) 0.43605(11) 0.2763 Uani
N8 N 0.40023(13) 0.0968(2) 0.42730(11) 0.3137 Uani
C32 C 0.39330(12) 0.1069(2) 0.40186(12) 0.2187 Uani
N9 N 0.42505(13) 0.3170(3) 0.23890(11) 0.3820 Uani
N10 N 0.42718(15) 0.2985(3) 0.26039(11) 0.3673 Uani
C33 C 0.50001(7) 0.34656(7) 0.16549(5) 0.0630 Uani
C34 C 0.49564(8) 0.32914(9) 0.18984(6) 0.0852 Uani
H23 H 0.5158 0.3181 0.1982 0.1020 Uiso
C35 C 0.43010(8) 0.34464(10) 0.18920(6) 0.0890 Uani
H24 H 0.4067 0.3433 0.1970 0.1070 Uiso
C36 C 0.46036(9) 0.32883(11) 0.20106(6) 0.1035 Uani
C37 C 0.23930(7) 0.03748(7) 0.43141(5) 0.0588 Uani
H25 H 0.2154 0.0298 0.4359 0.0710 Uiso
C38 C 0.24450(7) 0.06255(7) 0.41146(5) 0.0630 Uani
C39 C 0.27019(7) 0.02360(8) 0.44490(5) 0.0672 Uani
C40 C 0.27950(8) 0.07572(9) 0.40577(6) 0.0898 Uani
H26 H 0.2830 0.0929 0.3924 0.1080 Uiso
C41 C 0.30497(8) 0.03642(10) 0.43926(6) 0.0952 Uani
H27 H 0.3255 0.0272 0.4483 0.1140 Uiso
C42 C 0.30968(8) 0.06289(11) 0.42028(7) 0.1051 Uani
C43 C 0.40108(7) 0.37895(7) 0.15198(5) 0.0598 Uani
C44 C 0.53688(7) 0.34587(7) 0.15170(5) 0.0577 Uani
C45 C 0.46951(7) 0.36334(7) 0.15403(5) 0.0606 Uani
H28 H 0.4724 0.3754 0.1381 0.0730 Uiso
C46 C 0.43451(7) 0.36260(7) 0.16569(5) 0.0628 Uani
C47 C 0.21112(7) 0.07598(7) 0.39629(5) 0.0595 Uani
C48 C 0.26418(7) -0.00606(8) 0.46578(4) 0.0626 Uani
O9 O 0.53995(4) 0.36580(5) 0.13224(3) 0.0634 Uani
O10 O 0.40817(4) 0.39561(5) 0.13110(3) 0.0653 Uani
O11 O 0.56226(4) 0.32668(5) 0.16167(3) 0.0635 Uani
O12 O 0.37066(5) 0.37440(5) 0.16279(3) 0.0704 Uani
O13 O 0.17973(4) 0.06860(5) 0.40553(3) 0.0638 Uani
O14 O 0.21716(4) 0.09485(5) 0.37622(3) 0.0660 Uani
O15 O 0.23155(5) -0.00974(5) 0.47299(3) 0.0692 Uani
O16 O 0.29292(5) -0.02167(5) 0.47344(4) 0.0679 Uani
H3J H 0.8495 0.0352 0.4852 0.2070 Uiso
H4J H 0.6417 0.0606 0.4922 0.1540 Uiso
Zn2A Zn 0.867242(9) 0.916084(9) 0.390144(6) 0.0545 Uani
Zn3A Zn 0.823180(9) 0.887893(9) 0.353657(6) 0.0566 Uani
O1A O 0.90089(7) 0.94175(9) 0.41974(5) 0.1351 Uani
H1A H 0.9199 0.9294 0.4219 0.2020 Uiso
O2A O 0.78848(7) 0.86475(7) 0.32397(5) 0.1126 Uani
H2A H 0.7953 0.8434 0.3207 0.1690 Uiso
O3A O 0.90373(5) 0.72551(5) 0.47271(3) 0.0650 Uani
O6A O 0.86173(5) 0.86695(4) 0.40666(3) 0.0658 Uani
O7A O 0.91547(5) 0.78637(5) 0.47307(3) 0.0647 Uani
O8A O 0.82706(5) 0.84242(5) 0.37482(3) 0.0667 Uani
C1A C 0.85726(9) 0.73264(7) 0.43001(6) 0.0827 Uani
H5A H 0.8603 0.7090 0.4371 0.0990 Uiso
C2A C 0.87434(7) 0.76346(7) 0.44100(5) 0.0624 Uani
C3A C 0.90051(7) 0.75759(7) 0.46408(4) 0.0550 Uani
C4A C 0.86965(7) 0.79890(7) 0.43054(5) 0.0594 Uani
H6A H 0.8809 0.8194 0.4384 0.0710 Uiso
N1A N 0.81911(11) 0.70601(7) 0.39542(7) 0.1277 Uani
C5A C 0.84800(7) 0.80342(7) 0.40824(5) 0.0602 Uani
C6A C 0.84556(7) 0.84104(6) 0.39477(5) 0.0573 Uani
C7A C 0.83084(9) 0.77265(7) 0.39679(6) 0.0839 Uani
H7A H 0.8165 0.7754 0.3818 0.1010 Uiso
C8A C 0.83553(10) 0.73821(8) 0.40810(7) 0.0931 Uani
C9A C 0.83174(13) 0.67137(9) 0.39490(8) 0.1235 Uani
H8A H 0.8534 0.6623 0.4025 0.1480 Uiso
N2A N 0.78541(14) 0.70935(9) 0.38378(11) 0.2217 Uani
C10A C 0.80624(17) 0.65216(10) 0.38094(11) 0.1737 Uani
C11A C 0.80463(17) 0.61299(10) 0.37300(11) 0.1843 Uani
N3A N 0.77801(15) 0.67609(10) 0.37511(13) 0.2557 Uani
C12A C 0.83506(19) 0.59208(12) 0.37445(13) 0.2277 Uani
H9A H 0.8567 0.6024 0.3812 0.2730 Uiso
C13A C 0.77200(17) 0.59629(12) 0.36555(13) 0.2113 Uani
H10A H 0.7495 0.6091 0.3660 0.2540 Uiso
C14A C 0.7738(2) 0.55961(13) 0.35728(15) 0.2690 Uani
H11A H 0.7519 0.5484 0.3516 0.3230 Uiso
C15A C 0.8355(2) 0.55515(13) 0.36607(13) 0.2347 Uani
H12A H 0.8575 0.5416 0.3669 0.2820 Uiso
C16A C 0.8052(2) 0.53920(11) 0.35699(13) 0.2490 Uani
N4A N 0.80445(17) 0.50096(9) 0.34915(9) 0.2465 Uani
C17A C 0.7840(2) 0.49024(12) 0.32718(12) 0.2397 Uani
C18A C 0.7795(2) 0.51081(13) 0.30684(12) 0.2330 Uani
H13A H 0.7907 0.5342 0.3070 0.2800 Uiso
C19A C 0.7640(3) 0.45909(14) 0.32770(14) 0.3330 Uani
H14A H 0.7647 0.4437 0.3422 0.4000 Uiso
C20A C 0.8268(2) 0.47486(11) 0.36231(11) 0.2047 Uani
C21A C 0.8377(2) 0.44448(14) 0.35237(12) 0.2317 Uani
H15A H 0.8298 0.4391 0.3355 0.2780 Uiso
C22A C 0.75945(19) 0.50128(13) 0.28459(11) 0.2090 Uani
H16A H 0.7588 0.5173 0.2704 0.2510 Uiso
C23A C 0.7420(2) 0.47033(11) 0.28398(11) 0.2183 Uani
C24A C 0.7416(3) 0.44949(14) 0.30607(12) 0.3123 Uani
H17A H 0.7264 0.4286 0.3070 0.3750 Uiso
C25A C 0.8694(2) 0.42180(12) 0.38851(12) 0.2403 Uani
C26A C 0.8610(3) 0.41790(13) 0.36481(14) 0.2963 Uani
H18A H 0.8701 0.3976 0.3555 0.3560 Uiso
C27A C 0.8489(2) 0.44821(16) 0.40325(13) 0.2943 Uani
H19A H 0.8473 0.4470 0.4213 0.3530 Uiso
C28A C 0.8307(2) 0.47675(15) 0.38851(13) 0.2820 Uani
H20A H 0.8212 0.4973 0.3973 0.3380 Uiso
N5A N 0.68874(13) 0.45571(8) 0.22565(6) 0.1616 Uani
C29A C 0.70859(13) 0.47778(10) 0.24020(8) 0.1317 Uani
H21A H 0.7146 0.5023 0.2362 0.1580 Uiso
C30A C 0.7188(2) 0.46015(12) 0.26141(10) 0.2053 Uani
N6A N 0.92188(12) 0.34570(8) 0.41558(7) 0.1617 Uani
C31A C 0.90158(13) 0.35887(9) 0.39647(8) 0.1337 Uani
H22A H 0.8944 0.3459 0.3816 0.1600 Uiso
N7A N 0.92149(19) 0.37042(11) 0.43605(11) 0.2763 Uani
N8A N 0.9032(2) 0.40023(13) 0.42730(11) 0.3137 Uani
C32A C 0.8931(2) 0.39330(12) 0.40186(12) 0.2187 Uani
N9A N 0.6830(3) 0.42505(13) 0.23890(11) 0.3820 Uani
N10A N 0.7015(3) 0.42718(15) 0.26039(11) 0.3673 Uani
C33A C 0.65344(7) 0.50001(7) 0.16549(5) 0.0630 Uani
C34A C 0.67086(9) 0.49564(8) 0.18984(6) 0.0852 Uani
H23A H 0.6819 0.5158 0.1982 0.1020 Uiso
C35A C 0.65536(10) 0.43010(8) 0.18920(6) 0.0890 Uani
H24A H 0.6567 0.4067 0.1970 0.1070 Uiso
C36A C 0.67117(11) 0.46036(9) 0.20106(6) 0.1035 Uani
C37A C 0.96252(7) 0.23930(7) 0.43141(5) 0.0588 Uani
H25A H 0.9702 0.2154 0.4359 0.0710 Uiso
C38A C 0.93745(7) 0.24450(7) 0.41146(5) 0.0630 Uani
C39A C 0.97640(8) 0.27019(7) 0.44490(5) 0.0672 Uani
C40A C 0.92428(9) 0.27950(8) 0.40577(6) 0.0898 Uani
H26A H 0.9071 0.2830 0.3924 0.1080 Uiso
C41A C 0.96358(10) 0.30497(8) 0.43926(6) 0.0952 Uani
H27A H 0.9728 0.3255 0.4483 0.1140 Uiso
C42A C 0.93711(11) 0.30968(8) 0.42028(7) 0.1051 Uani
C43A C 0.62105(7) 0.40108(7) 0.15198(5) 0.0598 Uani
C44A C 0.65413(7) 0.53688(7) 0.15170(5) 0.0577 Uani
C45A C 0.63666(7) 0.46951(7) 0.15403(5) 0.0606 Uani
H28A H 0.6246 0.4724 0.1381 0.0730 Uiso
C46A C 0.63740(7) 0.43451(7) 0.16569(5) 0.0628 Uani
C47A C 0.92402(7) 0.21112(7) 0.39629(5) 0.0595 Uani
C48A C 1.00606(8) 0.26418(7) 0.46578(4) 0.0626 Uani
O9A O 0.63420(5) 0.53995(4) 0.13224(3) 0.0634 Uani
O10A O 0.60439(5) 0.40817(4) 0.13110(3) 0.0653 Uani
O11A O 0.67332(5) 0.56226(4) 0.16167(3) 0.0635 Uani
O12A O 0.62560(5) 0.37066(5) 0.16279(3) 0.0704 Uani
O13A O 0.93140(5) 0.17973(4) 0.40553(3) 0.0638 Uani
O14A O 0.90515(5) 0.21716(4) 0.37622(3) 0.0660 Uani
O15A O 1.00974(5) 0.23155(5) 0.47299(3) 0.0692 Uani
O16A O 1.02167(5) 0.29292(5) 0.47344(4) 0.0679 Uani
Zn1A Zn 0.953623(13) 0.783217(11) 0.5000 0.0541 Uani
Zn1B Zn 0.216783(11) -0.046377(13) 0.5000 0.0541 Uani
Zn1C Zn 1.046377(13) 0.216783(11) 0.5000 0.0541 Uani
Zn2C Zn 0.132758(9) 0.083916(9) 0.390144(6) 0.0545 Uani
Zn2L Zn 0.583916(9) 0.367242(9) 0.109856(6) 0.0545 Uani
Zn2M Zn 0.632758(9) 0.583916(9) 0.109856(6) 0.0545 Uani
Zn2O Zn 0.367242(9) 0.416084(9) 0.109856(6) 0.0545 Uani
Zn3C Zn 0.176820(9) 0.112107(9) 0.353657(6) 0.0566 Uani
Zn3L Zn 0.612107(9) 0.323180(9) 0.146343(6) 0.0566 Uani
Zn3M Zn 0.676820(9) 0.612107(9) 0.146343(6) 0.0566 Uani
Zn3O Zn 0.323180(9) 0.387893(9) 0.146343(6) 0.0566 Uani
Zn4A Zn 0.938538(14) 0.710777(12) 0.5000 0.0562 Uani
Zn4B Zn 0.289223(12) -0.061462(14) 0.5000 0.0562 Uani
Zn4C Zn 1.061462(14) 0.289223(12) 0.5000 0.0562 Uani
O3J O 0.72551(5) 0.09627(5) 0.52729(3) 0.0650 Uani
O7J O 0.78637(5) 0.08453(5) 0.52693(3) 0.0647 Uani
O9L O 0.96005(4) 0.13420(5) 0.36776(3) 0.0634 Uani
O9M O 0.86580(5) 0.96005(4) 0.36776(3) 0.0634 Uani
O10M O 0.89561(5) 0.09183(4) 0.36890(3) 0.0653 Uani
O10N O 0.90817(4) 0.89561(5) 0.36890(3) 0.0653 Uani
O11L O 0.93774(4) 0.17332(5) 0.33833(3) 0.0635 Uani
O11M O 0.82668(5) 0.93774(4) 0.33833(3) 0.0635 Uani
O12M O 0.87440(5) 0.12934(5) 0.33721(3) 0.0704 Uani
O12N O 0.87066(5) 0.87440(5) 0.33721(3) 0.0704 Uani
O13B O 0.82027(4) 0.93140(5) 0.40553(3) 0.0638 Uani
O14B O 0.78284(4) 0.90515(5) 0.37622(3) 0.0660 Uani
O15B O 0.76845(5) 0.00974(5) 0.47299(3) 0.0692 Uani
O15H O 0.76845(5) 0.00974(5) 0.52701(3) 0.0692 Uani
O16B O 0.70708(5) 0.02167(5) 0.47344(4) 0.0679 Uani
O16H O 0.70708(5) 0.02167(5) 0.52656(4) 0.0679 Uani
loop_
_atom_site_aniso_label
_atom_site_aniso_U_11
_atom_site_aniso_U_22
_atom_site_aniso_U_33
_atom_site_aniso_U_23
_atom_site_aniso_U_13
_atom_site_aniso_U_12
Zn1 0.0395(2) 0.0712(3) 0.05161(19) 0.000 0.000 0.0044(2)
Zn2 0.05174(18) 0.05403(18) 0.05775(15) 0.01155(14) -0.01222(14) -0.00436(13)
Zn3 0.05603(19) 0.05530(19) 0.05833(15) 0.01251(15) -0.01272(15) -0.00294(14)
Zn4 0.0415(2) 0.0729(3) 0.0542(2) 0.000 0.000 0.0062(2)
O1 0.216(3) 0.114(2) 0.0752(13) 0.0228(14) -0.0320(17) 0.0871(19)
O2 0.126(2) 0.1124(19) 0.0995(15) 0.0501(15) -0.0311(16) 0.0237(15)
O3 0.0464(10) 0.0830(13) 0.0655(9) 0.0204(9) 0.0030(8) 0.0035(8)
O4 0.0313(15) 0.143(3) 0.239(5) 0.000 0.000 0.0063(17)
O5 0.0435(15) 0.118(3) 0.145(3) 0.000 0.000 0.0160(15)
O6 0.0495(10) 0.0810(12) 0.0668(9) 0.0157(9) -0.0024(8) 0.0019(8)
O7 0.0506(10) 0.0831(13) 0.0603(8) 0.0181(9) -0.0036(8) -0.0017(8)
O8 0.0558(10) 0.0753(12) 0.0690(10) 0.0258(9) -0.0018(8) -0.0030(8)
C1 0.0424(15) 0.115(2) 0.0907(18) 0.0344(18) -0.0017(14) 0.0005(14)
C2 0.0530(15) 0.0707(17) 0.0635(13) 0.0133(12) -0.0022(12) 0.0003(12)
C3 0.0450(14) 0.0740(17) 0.0460(10) 0.0040(11) -0.0001(10) 0.0085(11)
C4 0.0476(14) 0.0680(16) 0.0627(12) 0.0082(12) -0.0071(11) 0.0006(11)
N1 0.0412(14) 0.195(3) 0.147(3) 0.104(3) -0.0100(15) -0.0012(16)
C5 0.0517(14) 0.0678(16) 0.0610(12) 0.0156(12) -0.0059(11) -0.0044(11)
C6 0.0435(13) 0.0589(15) 0.0694(14) 0.0091(12) -0.0133(11) -0.0108(10)
C7 0.0485(16) 0.115(2) 0.0881(19) 0.0434(18) -0.0036(14) -0.0099(15)
C8 0.0522(17) 0.122(3) 0.105(2) 0.060(2) -0.0143(16) -0.0034(16)
C9 0.0505(19) 0.186(4) 0.134(3) 0.095(3) -0.0148(19) -0.008(2)
N2 0.072(2) 0.252(5) 0.341(7) 0.225(5) -0.045(3) -0.024(3)
C10 0.050(2) 0.264(6) 0.207(5) 0.164(5) -0.010(3) 0.005(3)
C11 0.056(2) 0.266(6) 0.231(5) 0.191(5) -0.032(3) -0.034(3)
N3 0.072(2) 0.295(6) 0.400(8) 0.277(6) -0.056(3) -0.037(3)
C12 0.080(3) 0.308(8) 0.295(8) 0.221(7) -0.070(4) -0.051(4)
C13 0.081(3) 0.243(6) 0.310(8) 0.201(6) -0.033(4) -0.001(3)
C14 0.070(3) 0.401(10) 0.336(9) 0.285(9) -0.027(4) -0.018(4)
C15 0.083(3) 0.335(8) 0.286(7) 0.229(7) -0.063(4) -0.056(4)
C16 0.047(2) 0.430(10) 0.270(7) 0.289(7) -0.025(3) -0.039(4)
N4 0.0535(18) 0.435(8) 0.251(5) 0.282(5) -0.035(2) -0.046(3)
C17 0.058(3) 0.415(10) 0.246(6) 0.266(7) -0.008(3) -0.020(4)
C18 0.081(3) 0.380(10) 0.238(6) 0.232(7) -0.010(4) 0.006(4)
C19 0.072(3) 0.651(16) 0.276(8) 0.352(10) -0.017(4) -0.009(6)
C20 0.055(2) 0.353(8) 0.206(5) 0.212(6) -0.033(3) -0.043(3)
C21 0.097(4) 0.372(9) 0.226(6) 0.222(7) -0.031(4) -0.045(4)
C22 0.087(3) 0.332(8) 0.208(5) 0.204(6) 0.009(3) 0.015(4)
C23 0.057(2) 0.404(9) 0.194(5) 0.228(6) 0.001(3) 0.012(4)
C24 0.091(4) 0.627(15) 0.219(6) 0.304(9) 0.026(4) 0.064(6)
C25 0.062(3) 0.449(11) 0.210(5) 0.239(7) -0.040(3) -0.070(4)
C26 0.068(3) 0.539(14) 0.282(8) 0.306(9) -0.039(4) -0.074(5)
C27 0.127(4) 0.519(13) 0.237(7) 0.280(8) -0.072(4) -0.154(6)
C28 0.119(4) 0.472(12) 0.255(7) 0.272(8) -0.078(5) -0.136(6)
N5 0.0638(18) 0.297(5) 0.124(2) 0.143(3) 0.0196(17) 0.042(2)
C29 0.063(2) 0.201(4) 0.131(3) 0.108(3) 0.005(2) 0.015(2)
C30 0.068(3) 0.392(9) 0.156(4) 0.187(5) 0.018(3) 0.042(4)
N6 0.0562(17) 0.261(5) 0.168(3) 0.154(3) -0.0264(19) -0.039(2)
C31 0.058(2) 0.208(5) 0.135(3) 0.110(3) -0.010(2) -0.025(2)
N7 0.101(3) 0.466(9) 0.262(6) 0.273(6) -0.084(3) -0.138(4)
N8 0.123(4) 0.550(11) 0.268(6) 0.306(7) -0.095(4) -0.155(5)
C32 0.062(3) 0.378(9) 0.216(5) 0.217(6) -0.021(3) -0.052(4)
N9 0.115(3) 0.773(15) 0.258(6) 0.375(9) 0.091(4) 0.171(6)
N10 0.149(4) 0.701(14) 0.252(6) 0.354(8) 0.102(4) 0.177(7)
C33 0.0522(15) 0.0687(17) 0.0680(13) 0.0168(12) 0.0005(12) 0.0004(12)
C34 0.0572(17) 0.117(3) 0.0814(17) 0.0436(18) -0.0020(14) 0.0133(15)
C35 0.0546(17) 0.132(3) 0.0804(17) 0.0483(19) 0.0063(14) 0.0142(16)
C36 0.0654(19) 0.157(3) 0.088(2) 0.069(2) 0.0108(16) 0.0258(19)
C37 0.0514(14) 0.0609(15) 0.0640(13) 0.0114(12) 0.0081(11) 0.0004(11)
C38 0.0464(14) 0.0698(17) 0.0727(14) 0.0149(13) 0.0019(12) 0.0037(11)
C39 0.0461(14) 0.0820(19) 0.0736(15) 0.0235(14) -0.0087(12) -0.0056(12)
C40 0.0581(18) 0.119(3) 0.0924(19) 0.052(2) 0.0010(15) -0.0054(16)
C41 0.0556(17) 0.137(3) 0.093(2) 0.064(2) -0.0013(15) 0.0007(17)
C42 0.0434(16) 0.147(3) 0.125(3) 0.068(3) -0.0061(17) -0.0142(17)
C43 0.0595(15) 0.0539(14) 0.0659(13) 0.0199(12) 0.0039(12) 0.0129(11)
C44 0.0519(14) 0.0541(14) 0.0672(14) 0.0142(12) -0.0162(11) -0.0017(11)
C45 0.0657(16) 0.0559(15) 0.0601(12) 0.0167(11) -0.0036(12) -0.0010(11)
C46 0.0479(14) 0.0763(18) 0.0642(13) 0.0174(13) 0.0032(11) 0.0072(12)
C47 0.0608(16) 0.0521(14) 0.0655(13) 0.0192(11) 0.0133(12) 0.0112(11)
C48 0.0550(16) 0.090(2) 0.0429(10) 0.0153(11) 0.0048(10) -0.0004(13)
O9 0.0507(10) 0.0699(11) 0.0696(10) 0.0195(9) 0.0002(8) 0.0017(8)
O10 0.0514(10) 0.0767(12) 0.0679(9) 0.0232(9) 0.0038(8) 0.0096(8)
O11 0.0537(10) 0.0694(11) 0.0675(9) 0.0221(9) 0.0024(8) -0.0005(8)
O12 0.0528(11) 0.0887(13) 0.0698(10) 0.0233(10) 0.0068(9) 0.0080(9)
O13 0.0483(10) 0.0697(11) 0.0734(10) 0.0212(9) 0.0022(8) 0.0060(8)
O14 0.0515(10) 0.0723(11) 0.0743(10) 0.0259(9) -0.0001(8) 0.0053(8)
O15 0.0502(11) 0.0882(13) 0.0691(9) 0.0204(9) 0.0048(8) 0.0003(8)
O16 0.0487(10) 0.0802(13) 0.0749(10) 0.0205(9) -0.0014(8) 0.0069(8)
Zn2A 0.05403 0.05174 0.05775 -0.01222 -0.01155 0.00436
Zn3A 0.0553 0.05603 0.05833 -0.01272 -0.01251 0.00294
O1A 0.114 0.216 0.0752 -0.032 -0.0228 -0.0871
O2A 0.1124 0.126 0.0995 -0.0311 -0.0501 -0.0237
O3A 0.083 0.0464 0.0655 0.003 -0.0204 -0.0035
O6A 0.081 0.0495 0.0668 -0.0024 -0.0157 -0.0019
O7A 0.0831 0.0506 0.0603 -0.0036 -0.0181 0.0017
O8A 0.0753 0.0558 0.069 -0.0018 -0.0258 0.003
C1A 0.115 0.0424 0.0907 -0.0017 -0.0344 -0.0005
C2A 0.0707 0.053 0.0635 -0.0022 -0.0133 -0.0003
C3A 0.074 0.045 0.046 -0.0001 -0.004 -0.0085
C4A 0.068 0.0476 0.0627 -0.0071 -0.0082 -0.0006
N1A 0.195 0.0412 0.147 -0.01 -0.104 0.0012
C5A 0.0678 0.0517 0.061 -0.0059 -0.0156 0.0044
C6A 0.0589 0.0435 0.0694 -0.0133 -0.0091 0.0108
C7A 0.115 0.0485 0.0881 -0.0036 -0.0434 0.0099
C8A 0.122 0.0522 0.105 -0.0143 -0.06 0.0034
C9A 0.186 0.0505 0.134 -0.0148 -0.095 0.008
N2A 0.252 0.072 0.341 -0.045 -0.225 0.024
C10A 0.264 0.05 0.207 -0.01 -0.164 -0.005
C11A 0.266 0.056 0.231 -0.032 -0.191 0.034
N3A 0.295 0.072 0.4 -0.056 -0.277 0.037
C12A 0.308 0.08 0.295 -0.07 -0.221 0.051
C13A 0.243 0.081 0.31 -0.033 -0.201 0.001
C14A 0.401 0.07 0.336 -0.027 -0.285 0.018
C15A 0.335 0.083 0.286 -0.063 -0.229 0.056
C16A 0.43 0.047 0.27 -0.025 -0.289 0.039
N4A 0.435 0.0535 0.251 -0.035 -0.282 0.046
C17A 0.415 0.058 0.246 -0.008 -0.266 0.02
C18A 0.38 0.081 0.238 -0.01 -0.232 -0.006
C19A 0.651 0.072 0.276 -0.017 -0.352 0.009
C20A 0.353 0.055 0.206 -0.033 -0.212 0.043
C21A 0.372 0.097 0.226 -0.031 -0.222 0.045
C22A 0.332 0.087 0.208 0.009 -0.204 -0.015
C23A 0.404 0.057 0.194 0.001 -0.228 -0.012
C24A 0.627 0.091 0.219 0.026 -0.304 -0.064
C25A 0.449 0.062 0.21 -0.04 -0.239 0.07
C26A 0.539 0.068 0.282 -0.039 -0.306 0.074
C27A 0.519 0.127 0.237 -0.072 -0.28 0.154
C28A 0.472 0.119 0.255 -0.078 -0.272 0.136
N5A 0.297 0.0638 0.124 0.0196 -0.143 -0.042
C29A 0.201 0.063 0.131 0.005 -0.108 -0.015
C30A 0.392 0.068 0.156 0.018 -0.187 -0.042
N6A 0.261 0.0562 0.168 -0.0264 -0.154 0.039
C31A 0.208 0.058 0.135 -0.01 -0.11 0.025
N7A 0.466 0.101 0.262 -0.084 -0.273 0.138
N8A 0.55 0.123 0.268 -0.095 -0.306 0.155
C32A 0.378 0.062 0.216 -0.021 -0.217 0.052
N9A 0.773 0.115 0.258 0.091 -0.375 -0.171
N10A 0.701 0.149 0.252 0.102 -0.354 -0.177
C33A 0.0687 0.0522 0.068 0.0005 -0.0168 -0.0004
C34A 0.117 0.0572 0.0814 -0.002 -0.0436 -0.0133
C35A 0.132 0.0546 0.0804 0.0063 -0.0483 -0.0142
C36A 0.157 0.0654 0.088 0.0108 -0.069 -0.0258
C37A 0.0609 0.0514 0.064 0.0081 -0.0114 -0.0004
C38A 0.0698 0.0464 0.0727 0.0019 -0.0149 -0.0037
C39A 0.082 0.0461 0.0736 -0.0087 -0.0235 0.0056
C40A 0.119 0.0581 0.0924 0.001 -0.052 0.0054
C41A 0.137 0.0556 0.093 -0.0013 -0.064 -0.0007
C42A 0.147 0.0434 0.125 -0.0061 -0.068 0.0142
C43A 0.0539 0.0595 0.0659 0.0039 -0.0199 -0.0129
C44A 0.0541 0.0519 0.0672 -0.0162 -0.0142 0.0017
C45A 0.0559 0.0657 0.0601 -0.0036 -0.0167 0.001
C46A 0.0763 0.0479 0.0642 0.0032 -0.0174 -0.0072
C47A 0.0521 0.0608 0.0655 0.0133 -0.0192 -0.0112
C48A 0.09 0.055 0.0429 0.0048 -0.0153 0.0004
O9A 0.0699 0.0507 0.0696 0.0002 -0.0195 -0.0017
O10A 0.0767 0.0514 0.0679 0.0038 -0.0232 -0.0096
O11A 0.0694 0.0537 0.0675 0.0024 -0.0221 0.0005
O12A 0.0887 0.0528 0.0698 0.0068 -0.0233 -0.008
O13A 0.0697 0.0483 0.0734 0.0022 -0.0212 -0.006
O14A 0.0723 0.0515 0.0743 -0.0001 -0.0259 -0.0053
O15A 0.0882 0.0502 0.0691 0.0048 -0.0204 -0.0003
O16A 0.0802 0.0487 0.0749 -0.0014 -0.0205 -0.0069
Zn1A 0.0712 0.0395 0.05161 0 0 -0.0044
Zn1B 0.0395 0.0712 0.05161 0 0 0.0044
Zn1C 0.0712 0.0395 0.05161 0 0 -0.0044
Zn2C 0.05403 0.05174 0.05775 0.01222 0.01155 0.00436
Zn2L 0.05174 0.05403 0.05775 0.01155 -0.01222 -0.00436
Zn2M 0.05403 0.05174 0.05775 -0.01222 -0.01155 0.00436
Zn2O 0.05403 0.05174 0.05775 0.01222 0.01155 0.00436
Zn3C 0.0553 0.05603 0.05833 0.01272 0.01251 0.00294
Zn3L 0.05603 0.0553 0.05833 0.01251 -0.01272 -0.00294
Zn3M 0.0553 0.05603 0.05833 -0.01272 -0.01251 0.00294
Zn3O 0.0553 0.05603 0.05833 0.01272 0.01251 0.00294
Zn4A 0.0729 0.0415 0.0542 0 0 -0.0062
Zn4B 0.0415 0.0729 0.0542 0 0 0.0062
Zn4C 0.0729 0.0415 0.0542 0 0 -0.0062
O3J 0.0464 0.083 0.0655 -0.0204 -0.003 0.0035
O7J 0.0506 0.0831 0.0603 -0.0181 0.0036 -0.0017
O9L 0.0507 0.0699 0.0696 0.0195 0.0002 0.0017
O9M 0.0699 0.0507 0.0696 0.0002 -0.0195 -0.0017
O10M 0.0767 0.0514 0.0679 0.0038 -0.0232 -0.0096
O10N 0.0514 0.0767 0.0679 -0.0232 -0.0038 0.0096
O11L 0.0537 0.0694 0.0675 0.0221 0.0024 -0.0005
O11M 0.0694 0.0537 0.0675 0.0024 -0.0221 0.0005
O12M 0.0887 0.0528 0.0698 0.0068 -0.0233 -0.008
O12N 0.0528 0.0887 0.0698 -0.0233 -0.0068 0.008
O13B 0.0483 0.0697 0.0734 -0.0212 -0.0022 0.006
O14B 0.0515 0.0723 0.0743 -0.0259 0.0001 0.0053
O15B 0.0502 0.0882 0.0691 -0.0204 -0.0048 0.0003
O15H 0.0502 0.0882 0.0691 0.0204 0.0048 0.0003
O16B 0.0487 0.0802 0.0749 -0.0205 0.0014 0.0069
O16H 0.0487 0.0802 0.0749 0.0205 -0.0014 0.0069
loop_
_geom_bond_atom_site_label_1
_geom_bond_atom_site_label_2
_geom_bond_site_symmetry_1
_geom_bond_site_symmetry_2
Zn1 O4 1_555 1_555
Zn2 O1 1_555 1_555
Zn3 O2 1_555 1_555
Zn4 O3 1_555 1_555
O1 H1 1_555 1_555
O2 H2 1_555 1_555
O3 C3 1_555 1_555
O4 H3 1_555 1_555
O5 Zn4 1_555 1_555
H4 O5 1_555 1_555
O6 Zn2 1_555 1_555
O7 Zn1 1_555 1_555
O8 Zn3 1_555 1_555
C1 H5 1_555 1_555
C2 C1 1_555 1_555
C3 O7 1_555 1_555
C4 C2 1_555 1_555
H6 C4 1_555 1_555
N1 C8 1_555 1_555
C5 C4 1_555 1_555
C6 O6 1_555 1_555
C7 C5 1_555 1_555
H7 C7 1_555 1_555
C8 C1 1_555 1_555
C9 N1 1_555 1_555
H8 C9 1_555 1_555
N2 N1 1_555 1_555
C10 C9 1_555 1_555
C11 C10 1_555 1_555
N3 N2 1_555 1_555
C12 C11 1_555 1_555
H9 C12 1_555 1_555
C13 C11 1_555 1_555
H10 C13 1_555 1_555
C14 C13 1_555 1_555
H11 C14 1_555 1_555
C15 C12 1_555 1_555
H12 C15 1_555 1_555
C16 C14 1_555 1_555
N4 C16 1_555 1_555
C17 N4 1_555 1_555
C18 C17 1_555 1_555
H13 C18 1_555 1_555
C19 C17 1_555 1_555
H14 C19 1_555 1_555
C20 N4 1_555 1_555
C21 C20 1_555 1_555
H15 C21 1_555 1_555
C22 C18 1_555 1_555
H16 C22 1_555 1_555
C23 C22 1_555 1_555
C24 C19 1_555 1_555
H17 C24 1_555 1_555
C25 C26 1_555 1_555
C26 C21 1_555 1_555
H18 C26 1_555 1_555
C27 C25 1_555 1_555
H19 C27 1_555 1_555
C28 C20 1_555 1_555
H20 C28 1_555 1_555
N5 C29 1_555 1_555
C29 H21 1_555 1_555
C30 C23 1_555 1_555
N6 C31 1_555 1_555
C31 H22 1_555 1_555
N7 N6 1_555 1_555
N8 N7 1_555 1_555
C32 C25 1_555 1_555
N9 N5 1_555 1_555
N10 C30 1_555 1_555
C33 C34 1_555 1_555
C34 H23 1_555 1_555
C35 H24 1_555 1_555
C36 N5 1_555 1_555
C37 H25 1_555 1_555
C38 C37 1_555 1_555
C39 C37 1_555 1_555
C40 C38 1_555 1_555
H26 C40 1_555 1_555
C41 C39 1_555 1_555
H27 C41 1_555 1_555
C42 N6 1_555 1_555
C43 C46 1_555 1_555
C44 C33 1_555 1_555
C45 C33 1_555 1_555
H28 C45 1_555 1_555
C46 C35 1_555 1_555
C47 C38 1_555 1_555
C48 C39 1_555 1_555
O9 C44 1_555 1_555
O10 C43 1_555 1_555
O11 C44 1_555 1_555
O12 C43 1_555 1_555
O13 C47 1_555 1_555
O14 C47 1_555 1_555
O15 C48 1_555 1_555
O16 C48 1_555 1_555
H3J O4 1_555 1_555
H4J O5 1_555 1_555
Zn2A O1A 1_555 1_555
Zn3A O2A 1_555 1_555
O1A H1A 1_555 1_555
O2A H2A 1_555 1_555
O3A C3A 1_555 1_555
O6A Zn2A 1_555 1_555
O7A C3A 1_555 1_555
O8A Zn3A 1_555 1_555
C1A H5A 1_555 1_555
C2A C1A 1_555 1_555
C3A C2A 1_555 1_555
C4A C2A 1_555 1_555
H6A C4A 1_555 1_555
N1A C8A 1_555 1_555
C5A C4A 1_555 1_555
C6A O6A 1_555 1_555
C7A C5A 1_555 1_555
H7A C7A 1_555 1_555
C8A C1A 1_555 1_555
C9A N1A 1_555 1_555
H8A C9A 1_555 1_555
N2A N1A 1_555 1_555
C10A C9A 1_555 1_555
C11A C10A 1_555 1_555
N3A N2A 1_555 1_555
C12A C11A 1_555 1_555
H9A C12A 1_555 1_555
C13A C11A 1_555 1_555
H10A C13A 1_555 1_555
C14A C13A 1_555 1_555
H11A C14A 1_555 1_555
C15A C12A 1_555 1_555
H12A C15A 1_555 1_555
C16A C14A 1_555 1_555
N4A C16A 1_555 1_555
C17A N4A 1_555 1_555
C18A C17A 1_555 1_555
H13A C18A 1_555 1_555
C19A C17A 1_555 1_555
H14A C19A 1_555 1_555
C20A N4A 1_555 1_555
C21A C20A 1_555 1_555
H15A C21A 1_555 1_555
C22A C18A 1_555 1_555
H16A C22A 1_555 1_555
C23A C22A 1_555 1_555
C24A C19A 1_555 1_555
H17A C24A 1_555 1_555
C25A C26A 1_555 1_555
C26A C21A 1_555 1_555
H18A C26A 1_555 1_555
C27A C25A 1_555 1_555
H19A C27A 1_555 1_555
C28A C20A 1_555 1_555
H20A C28A 1_555 1_555
N5A C29A 1_555 1_555
C29A H21A 1_555 1_555
C30A C23A 1_555 1_555
N6A C31A 1_555 1_555
C31A H22A 1_555 1_555
N7A N6A 1_555 1_555
N8A N7A 1_555 1_555
C32A C25A 1_555 1_555
N9A N5A 1_555 1_555
N10A C30A 1_555 1_555
C33A C34A 1_555 1_555
C34A H23A 1_555 1_555
C35A H24A 1_555 1_555
C36A N5A 1_555 1_555
C37A H25A 1_555 1_555
C38A C37A 1_555 1_555
C39A C37A 1_555 1_555
C40A C38A 1_555 1_555
H26A C40A 1_555 1_555
C41A C39A 1_555 1_555
H27A C41A 1_555 1_555
C42A N6A 1_555 1_555
C43A C46A 1_555 1_555
C44A C33A 1_555 1_555
C45A C33A 1_555 1_555
H28A C45A 1_555 1_555
C46A C35A 1_555 1_555
C47A C38A 1_555 1_555
C48A C39A 1_555 1_555
O9A C44A 1_555 1_555
O10A C43A 1_555 1_555
O11A C44A 1_555 1_555
O12A C43A 1_555 1_555
O13A Zn2 1_555 1_555
O14A Zn3 1_555 1_555
O15A C48A 1_555 1_555
O16A C48A 1_555 1_555
Zn1A O7A 1_555 1_555
Zn1B O15 1_555 1_555
Zn1C O15A 1_555 1_555
Zn2C O13 1_555 1_555
Zn2L O9 1_555 1_555
Zn2M O9A 1_555 1_555
Zn2O O10 1_555 1_555
Zn3C O14 1_555 1_555
Zn3L O11 1_555 1_555
Zn3M O11A 1_555 1_555
Zn3O O12 1_555 1_555
Zn4A O3A 1_555 1_555
Zn4B O16 1_555 1_555
Zn4C O16A 1_555 1_555
O3J Zn4 1_555 1_555
O7J Zn1 1_555 1_555
O9L Zn2 1_555 1_555
O9M Zn2A 1_555 1_555
O10M Zn2 1_555 1_555
O10N Zn2A 1_555 1_555
O11L Zn3 1_555 1_555
O11M Zn3A 1_555 1_555
O12M Zn3 1_555 1_555
O12N Zn3A 1_555 1_555
O13B Zn2A 1_555 1_555
O14B Zn3A 1_555 1_555
O15B Zn1 1_555 1_555
O15H Zn1 1_555 1_555
O16B Zn4 1_555 1_555
O16H Zn4 1_555 1_555
O8 C6 1_555 1_555
C2 C3 1_555 1_555
C5 C6 1_555 1_555
C7 C8 1_555 1_555
C10 N3 1_555 1_555
C15 C16 1_555 1_555
C23 C24 1_555 1_555
C27 C28 1_555 1_555
C29 C30 1_555 1_555
C31 C32 1_555 1_555
N8 C32 1_555 1_555
N9 N10 1_555 1_555
C34 C36 1_555 1_555
C35 C36 1_555 1_555
C40 C42 1_555 1_555
C41 C42 1_555 1_555
C45 C46 1_555 1_555
O8A C6A 1_555 1_555
C5A C6A 1_555 1_555
C7A C8A 1_555 1_555
C10A N3A 1_555 1_555
C15A C16A 1_555 1_555
C23A C24A 1_555 1_555
C27A C28A 1_555 1_555
C29A C30A 1_555 1_555
C31A C32A 1_555 1_555
N8A C32A 1_555 1_555
N9A N10A 1_555 1_555
C34A C36A 1_555 1_555
C35A C36A 1_555 1_555
C40A C42A 1_555 1_555
C41A C42A 1_555 1_555
C45A C46A 1_555 1_555
C47A O13A 1_555 1_555
C47A O14A 1_555 1_555
O10A Zn2L 1_555 1_555
O12A Zn3L 1_555 1_555

#END
