
#######################################################################
#
#                 Cambridge Crystallographic Data Centre
#                                CCDC 
#
#######################################################################
#
# If this CIF has been generated from an entry in the Cambridge 
# Structural Database, then it will include bibliographic, chemical, 
# crystal, experimental, refinement or atomic coordinate data resulting 
# from the CCDC's data processing and validation procedures.
#
#######################################################################

data_YUZPIU
_chemical_formula_moiety         '(C108 H66 N18 O30 Zn6)n'
_chemical_name_systematic        
'catena-[bis(\m-1,3,5-tris(4-[1-(3,5-dicarboxylatophenyl)-1H-1,2,3-triazol-4-yl]phenyl)benzene)-hexaaqua-hexa-zinc unknown solvate]'
_symmetry_cell_setting           tetragonal
_symmetry_space_group_name_H-M   'I 4/m'
_symmetry_Int_Tables_number      87
_space_group_name_Hall           '-I 4'
loop_
_symmetry_equiv_pos_site_id
_symmetry_equiv_pos_as_xyz
1 x,y,z
2 -y,x,z
3 -x,-y,z
4 y,-x,z
5 1/2+x,1/2+y,1/2+z
6 1/2-y,1/2+x,1/2+z
7 1/2-x,1/2-y,1/2+z
8 1/2+y,1/2-x,1/2+z
9 -x,-y,-z
10 y,-x,-z
11 x,y,-z
12 -y,x,-z
13 1/2-x,1/2-y,1/2-z
14 1/2+y,1/2-x,1/2-z
15 1/2+x,1/2+y,1/2-z
16 1/2-y,1/2+x,1/2-z
_cell_length_a                   38.1682(4)
_cell_length_b                   38.1682(4)
_cell_length_c                   55.0917(14)
_cell_angle_alpha                90
_cell_angle_beta                 90
_cell_angle_gamma                90
_cell_volume                     80258.2
_exptl_crystal_colour            colorless
_exptl_crystal_description       block
_cell_formula_units_Z            8
loop_
_atom_site_label
_atom_site_type_symbol
_atom_site_fract_x
_atom_site_fract_y
_atom_site_fract_z
_atom_site_U_iso_or_equiv
_atom_site_thermal_displace_type
C1 C 0.35535(8) 1.25372(7) 0.06578(5) 0.0776 Uani
H1 H 0.3565 1.2315 0.0588 0.0930 Uiso
C2 C 0.33255(8) 1.29230(7) 0.09638(5) 0.0819 Uani
H2 H 0.3185 1.2957 0.1100 0.0980 Uiso
C3 C 0.30849(15) 1.14293(9) 0.12177(9) 0.1887 Uani
C4 C 0.33719(17) 1.12137(12) 0.11709(11) 0.2553 Uani
H3 H 0.3574 1.1300 0.1098 0.3060 Uiso
C5 C 0.2823(2) 1.12997(12) 0.13526(13) 0.3370 Uani
H4 H 0.2637 1.1442 0.1398 0.4040 Uiso
C6 C 0.33433(19) 1.08638(11) 0.12379(11) 0.2940 Uani
H5 H 0.3514 1.0710 0.1181 0.3530 Uiso
C7 C 0.2832(2) 1.09432(13) 0.14261(14) 0.3567 Uani
H6 H 0.2644 1.0855 0.1514 0.4280 Uiso
C8 C 0.30917(19) 1.07339(10) 0.13763(10) 0.2357 Uani
C9 C 0.30961(17) 1.03657(9) 0.14630(10) 0.2195 Uani
C10 C 0.28982(15) 1.02688(9) 0.16661(9) 0.2027 Uani
H7 H 0.2762 1.0434 0.1747 0.2430 Uiso
C11 C 0.33198(16) 1.01184(10) 0.13550(9) 0.2350 Uani
H8 H 0.3462 1.0186 0.1226 0.2820 Uiso
Zn1 Zn 0.552230(13) 0.702993(11) 0.0000 0.0549 Uani
Zn2 Zn 0.425785(8) 0.628306(8) 0.102130(6) 0.0562 Uani
Zn3 Zn 0.569302(13) 0.770280(11) 0.0000 0.0563 Uani
Zn4 Zn 0.401140(9) 0.670509(9) 0.136184(6) 0.0585 Uani
O1 O 0.38111(7) 0.70423(6) 0.16402(4) 0.1092 Uani
H9 H 0.3625 0.6964 0.1690 0.1640 Uiso
O2 O 0.53657(12) 0.64867(8) 0.0000 0.1235 Uani
H10 H 0.5362 0.6413 0.0140 0.1850 Uiso
O3 O 0.44667(7) 0.59448(7) 0.07431(4) 0.1200 Uani
H11 H 0.4669 0.6002 0.0713 0.1800 Uiso
O4 O 0.58527(11) 0.82399(7) 0.0000 0.1044 Uani
H12 H 0.5779 0.8337 0.0123 0.1560 Uiso
O5 O 0.41891(4) 0.70752(4) 0.11529(3) 0.0651 Uani
O6 O 0.51902(5) 0.71797(4) 0.02533(3) 0.0689 Uani
O7 O 0.44189(4) 0.67165(4) 0.08757(3) 0.0639 Uani
O8 O 0.53259(5) 0.77520(4) 0.02494(3) 0.0728 Uani
C12 C 0.47453(6) 0.72703(6) 0.06377(4) 0.0584 Uani
H13 H 0.4802 0.7043 0.0591 0.0700 Uiso
C13 C 0.43689(7) 0.70137(6) 0.09640(4) 0.0607 Uani
N1 N 0.44657(10) 0.82891(7) 0.08339(7) 0.1580 Uani
C14 C 0.48943(7) 0.75523(6) 0.05182(4) 0.0609 Uani
C15 C 0.51661(7) 0.74912(6) 0.03203(4) 0.0574 Uani
C16 C 0.48053(8) 0.78902(7) 0.05819(5) 0.0893 Uani
H14 H 0.4902 0.8080 0.0500 0.1070 Uiso
C17 C 0.45124(7) 0.73263(6) 0.08264(4) 0.0598 Uani
C18 C 0.37376(18) 0.89175(10) 0.12182(10) 0.2440 Uani
H15 H 0.3703 0.8680 0.1248 0.2930 Uiso
N2 N 0.44963(17) 0.88421(10) 0.08400(12) 0.3397 Uani
C19 C 0.23031(18) 0.96396(11) 0.23693(9) 0.2207 Uani
C20 C 0.44196(8) 0.76637(7) 0.08934(5) 0.0880 Uani
H16 H 0.4261 0.7702 0.1019 0.1050 Uiso
C21 C 0.45680(9) 0.79420(7) 0.07700(6) 0.0946 Uani
C22 C 0.26911(18) 0.98216(10) 0.19609(10) 0.2257 Uani
C23 C 0.33314(16) 0.97705(9) 0.14380(9) 0.2068 Uani
C24 C 0.31223(16) 0.96795(10) 0.16281(9) 0.2133 Uani
H17 H 0.3123 0.9448 0.1681 0.2560 Uiso
C25 C 0.24007(17) 0.99520(11) 0.23351(9) 0.2473 Uani
H18 H 0.2343 1.0121 0.2450 0.2970 Uiso
C26 C 0.42039(11) 0.84022(9) 0.09707(7) 0.1377 Uani
H19 H 0.4035 0.8265 0.1047 0.1650 Uiso
C27 C 0.29079(16) 0.99202(10) 0.17461(9) 0.2037 Uani
C28 C 0.39905(17) 0.90109(11) 0.10887(11) 0.2237 Uani
C29 C 0.38650(19) 0.96028(11) 0.12064(12) 0.2837 Uani
H20 H 0.3926 0.9839 0.1204 0.3400 Uiso
C30 C 0.35657(18) 0.95112(10) 0.13190(10) 0.2243 Uani
C31 C 0.2579(2) 0.94936(12) 0.19952(10) 0.3187 Uani
H21 H 0.2643 0.9321 0.1885 0.3820 Uiso
C32 C 0.42288(16) 0.87541(9) 0.09779(9) 0.1845 Uani
C33 C 0.25917(18) 1.00534(12) 0.21312(10) 0.2687 Uani
H22 H 0.2652 1.0288 0.2112 0.3220 Uiso
C34 C 0.2371(2) 0.94039(12) 0.21879(10) 0.3653 Uani
H23 H 0.2275 0.9180 0.2196 0.4390 Uiso
C35 C 0.34952(19) 0.91696(12) 0.13242(11) 0.2833 Uani
H24 H 0.3289 0.9091 0.1396 0.3400 Uiso
C36 C 0.4093(2) 0.93625(12) 0.10917(13) 0.3353 Uani
H25 H 0.4302 0.9435 0.1021 0.4030 Uiso
N3 N 0.46468(17) 0.85635(9) 0.07577(12) 0.3517 Uani
C37 C 0.37259(6) 1.28198(6) 0.05513(4) 0.0589 Uani
C38 C 0.36936(6) 1.31518(6) 0.06465(4) 0.0569 Uani
H26 H 0.3803 1.3341 0.0572 0.0680 Uiso
C39 C 0.34956(7) 1.32004(6) 0.08561(4) 0.0625 Uani
C40 C 0.39636(7) 1.27558(6) 0.03345(4) 0.0562 Uani
N4 N 0.32025(9) 1.22946(6) 0.09859(6) 0.1254 Uani
C41 C 0.33675(9) 1.25906(7) 0.08649(6) 0.0935 Uani
C42 C 0.33156(11) 1.19674(8) 0.09874(7) 0.1250 Uani
H27 H 0.3511 1.1878 0.0908 0.1500 Uiso
C43 C 0.30809(14) 1.17874(9) 0.11313(9) 0.1633 Uani
N5 N 0.28430(14) 1.20308(9) 0.12126(10) 0.2503 Uani
N6 N 0.17948(11) 0.95083(8) 0.29107(6) 0.1653 Uani
C44 C 0.19734(11) 0.97234(8) 0.27727(6) 0.1307 Uani
H28 H 0.2006 0.9962 0.2800 0.1570 Uiso
C45 C 0.20991(16) 0.95392(10) 0.25873(8) 0.1920 Uani
N7 N 0.1794(2) 0.91982(10) 0.28106(9) 0.4153 Uani
N8 N 0.1975(2) 0.92097(13) 0.26134(10) 0.4367 Uani
O9 O 0.41181(4) 1.30137(4) 0.02522(3) 0.0594 Uani
O10 O 0.39820(4) 1.24480(4) 0.02554(3) 0.0628 Uani
C46 C 0.16205(8) 0.98873(7) 0.32419(5) 0.0827 Uani
H29 H 0.1739 1.0071 0.3167 0.0990 Uiso
C47 C 0.14513(8) 0.92802(7) 0.32451(5) 0.0855 Uani
H30 H 0.1459 0.9060 0.3173 0.1020 Uiso
C48 C 0.16155(10) 0.95647(8) 0.31381(5) 0.1019 Uani
C49 C 0.12722(6) 0.96589(6) 0.35688(4) 0.0584 Uani
H31 H 0.1153 0.9693 0.3714 0.0700 Uiso
C50 C 0.12754(7) 0.93336(7) 0.34631(4) 0.0644 Uani
C51 C 0.14474(7) 0.99416(6) 0.34599(4) 0.0625 Uani
C52 C 0.34799(6) 1.35593(6) 0.09792(4) 0.0575 Uani
C53 C 0.14644(6) 1.02881(6) 0.35877(4) 0.0585 Uani
C54 C 0.11136(6) 0.90216(7) 0.35879(4) 0.0607 Uani
N9 N 0.29249(13) 1.23370(9) 0.11258(9) 0.2527 Uani
O11 O 0.12775(4) 1.03245(4) 0.37742(3) 0.0614 Uani
O12 O 0.36489(5) 1.37959(4) 0.08690(3) 0.0674 Uani
O13 O 0.33110(5) 1.35781(4) 0.11665(3) 0.0701 Uani
O14 O 0.09520(4) 0.90925(4) 0.37801(3) 0.0649 Uani
O15 O 0.16514(4) 1.05202(4) 0.34938(3) 0.0633 Uani
O16 O 0.11384(5) 0.87357(5) 0.34859(3) 0.0720 Uani
H10J H 0.5362 0.6413 -0.0140 0.1850 Uiso
H12J H 0.5779 0.8337 -0.0123 0.1560 Uiso
C1A C -0.25372(7) 1.35535(8) 0.06578(5) 0.0776 Uani
H1A H -0.2315 1.3565 0.0588 0.0930 Uiso
C2A C -0.29230(7) 1.33255(8) 0.09638(5) 0.0819 Uani
H2A H -0.2957 1.3185 0.1100 0.0980 Uiso
C3A C -0.14293(9) 1.30849(15) 0.12177(9) 0.1887 Uani
C4A C -0.12137(12) 1.33719(17) 0.11709(11) 0.2553 Uani
H3A H -0.1300 1.3574 0.1098 0.3060 Uiso
C5A C -0.12997(12) 1.2823(2) 0.13526(13) 0.3370 Uani
H4A H -0.1442 1.2637 0.1398 0.4040 Uiso
C6A C -0.08638(11) 1.33433(19) 0.12379(11) 0.2940 Uani
H5A H -0.0710 1.3514 0.1181 0.3530 Uiso
C7A C -0.09432(13) 1.2832(2) 0.14261(14) 0.3567 Uani
H6A H -0.0855 1.2644 0.1514 0.4280 Uiso
C8A C -0.07339(10) 1.30917(19) 0.13763(10) 0.2357 Uani
C9A C -0.03657(9) 1.30961(17) 0.14630(10) 0.2195 Uani
C10A C -0.02688(9) 1.28982(15) 0.16661(9) 0.2027 Uani
H7A H -0.0434 1.2762 0.1747 0.2430 Uiso
C11A C -0.01184(10) 1.33198(16) 0.13550(9) 0.2350 Uani
H8A H -0.0186 1.3462 0.1226 0.2820 Uiso
Zn2A Zn 0.371694(8) 1.425785(8) 0.102130(6) 0.0562 Uani
Zn4A Zn 0.329491(9) 1.401140(9) 0.136184(6) 0.0585 Uani
O1A O 0.29577(6) 1.38111(7) 0.16402(4) 0.1092 Uani
H9A H 0.3036 1.3625 0.1690 0.1640 Uiso
O3A O 0.40552(7) 1.44667(7) 0.07431(4) 0.1200 Uani
H11A H 0.3998 1.4669 0.0713 0.1800 Uiso
O5A O 0.29248(4) 1.41891(4) 0.11529(3) 0.0651 Uani
O6A O 0.28203(4) 1.51902(5) 0.02533(3) 0.0689 Uani
O7A O 0.32835(4) 1.44189(4) 0.08757(3) 0.0639 Uani
O8A O 0.22480(4) 1.53259(5) 0.02494(3) 0.0728 Uani
C12A C 0.27297(6) 1.47453(6) 0.06377(4) 0.0584 Uani
H13A H 0.2957 1.4802 0.0591 0.0700 Uiso
C13A C 0.29863(6) 1.43689(7) 0.09640(4) 0.0607 Uani
N1A N 0.17109(7) 1.44657(10) 0.08339(7) 0.1580 Uani
C14A C 0.24477(6) 1.48943(7) 0.05182(4) 0.0609 Uani
C15A C 0.25088(6) 1.51661(7) 0.03203(4) 0.0574 Uani
C16A C 0.21098(7) 1.48053(8) 0.05819(5) 0.0893 Uani
H14A H 0.1920 1.4902 0.0500 0.1070 Uiso
C17A C 0.26737(6) 1.45124(7) 0.08264(4) 0.0598 Uani
C18A C 0.10825(10) 1.37376(18) 0.12182(10) 0.2440 Uani
H15A H 0.1320 1.3703 0.1248 0.2930 Uiso
N2A N 0.11579(10) 1.44963(17) 0.08400(12) 0.3397 Uani
C19A C 0.03604(11) 1.23031(18) 0.23693(9) 0.2207 Uani
C20A C 0.23363(7) 1.44196(8) 0.08934(5) 0.0880 Uani
H16A H 0.2298 1.4261 0.1019 0.1050 Uiso
C21A C 0.20580(7) 1.45680(9) 0.07700(6) 0.0946 Uani
C22A C 0.01784(10) 1.26911(18) 0.19609(10) 0.2257 Uani
C23A C 0.02295(9) 1.33314(16) 0.14380(9) 0.2068 Uani
C24A C 0.03205(10) 1.31223(16) 0.16281(9) 0.2133 Uani
H17A H 0.0552 1.3123 0.1681 0.2560 Uiso
C25A C 0.00480(11) 1.24007(17) 0.23351(9) 0.2473 Uani
H18A H -0.0121 1.2343 0.2450 0.2970 Uiso
C26A C 0.15978(9) 1.42039(11) 0.09707(7) 0.1377 Uani
H19A H 0.1735 1.4035 0.1047 0.1650 Uiso
C27A C 0.00798(10) 1.29079(16) 0.17461(9) 0.2037 Uani
C28A C 0.09891(11) 1.39905(17) 0.10887(11) 0.2237 Uani
C29A C 0.03972(11) 1.38650(19) 0.12064(12) 0.2837 Uani
H20A H 0.0161 1.3926 0.1204 0.3400 Uiso
C30A C 0.04888(10) 1.35657(18) 0.13190(10) 0.2243 Uani
C31A C 0.05064(12) 1.2579(2) 0.19952(10) 0.3187 Uani
H21A H 0.0679 1.2643 0.1885 0.3820 Uiso
C32A C 0.12459(9) 1.42288(16) 0.09779(9) 0.1845 Uani
C33A C -0.00534(12) 1.25917(18) 0.21312(10) 0.2687 Uani
H22A H -0.0288 1.2652 0.2112 0.3220 Uiso
C34A C 0.05961(12) 1.2371(2) 0.21879(10) 0.3653 Uani
H23A H 0.0820 1.2275 0.2196 0.4390 Uiso
C35A C 0.08304(12) 1.34952(19) 0.13242(11) 0.2833 Uani
H24A H 0.0909 1.3289 0.1396 0.3400 Uiso
C36A C 0.06375(12) 1.4093(2) 0.10917(13) 0.3353 Uani
H25A H 0.0565 1.4302 0.1021 0.4030 Uiso
N3A N 0.14365(9) 1.46468(17) 0.07577(12) 0.3517 Uani
C37A C -0.28198(6) 1.37259(6) 0.05513(4) 0.0589 Uani
C38A C -0.31518(6) 1.36936(6) 0.06465(4) 0.0569 Uani
H26A H -0.3341 1.3803 0.0572 0.0680 Uiso
C39A C -0.32004(6) 1.34956(7) 0.08561(4) 0.0625 Uani
C40A C -0.27558(6) 1.39636(7) 0.03345(4) 0.0562 Uani
N4A N -0.22946(6) 1.32025(9) 0.09859(6) 0.1254 Uani
C41A C -0.25906(7) 1.33675(9) 0.08649(6) 0.0935 Uani
C42A C -0.19674(8) 1.33156(11) 0.09874(7) 0.1250 Uani
H27A H -0.1878 1.3511 0.0908 0.1500 Uiso
C43A C -0.17874(9) 1.30809(14) 0.11313(9) 0.1633 Uani
N5A N -0.20308(9) 1.28430(14) 0.12126(10) 0.2503 Uani
N6A N 0.04917(8) 1.17948(11) 0.29107(6) 0.1653 Uani
C44A C 0.02766(8) 1.19734(11) 0.27727(6) 0.1307 Uani
H28A H 0.0038 1.2006 0.2800 0.1570 Uiso
C45A C 0.04608(10) 1.20991(16) 0.25873(8) 0.1920 Uani
N7A N 0.08018(10) 1.1794(2) 0.28106(9) 0.4153 Uani
N8A N 0.07903(13) 1.1975(2) 0.26134(10) 0.4367 Uani
O9A O -0.30137(4) 1.41181(4) 0.02522(3) 0.0594 Uani
O10A O -0.24480(4) 1.39820(4) 0.02554(3) 0.0628 Uani
C46A C 0.01127(7) 1.16205(8) 0.32419(5) 0.0827 Uani
H29A H -0.0071 1.1739 0.3167 0.0990 Uiso
C47A C 0.07198(7) 1.14513(8) 0.32451(5) 0.0855 Uani
H30A H 0.0940 1.1459 0.3173 0.1020 Uiso
C48A C 0.04353(8) 1.16155(10) 0.31381(5) 0.1019 Uani
C49A C 0.03411(6) 1.12722(6) 0.35688(4) 0.0584 Uani
H31A H 0.0307 1.1153 0.3714 0.0700 Uiso
C50A C 0.06664(7) 1.12754(7) 0.34631(4) 0.0644 Uani
C51A C 0.00584(6) 1.14474(7) 0.34599(4) 0.0625 Uani
C52A C -0.35593(6) 1.34799(6) 0.09792(4) 0.0575 Uani
C53A C -0.02881(6) 1.14644(6) 0.35877(4) 0.0585 Uani
C54A C 0.09784(7) 1.11136(6) 0.35879(4) 0.0607 Uani
N9A N -0.23370(9) 1.29249(13) 0.11258(9) 0.2527 Uani
O11A O -0.03245(4) 1.12775(4) 0.37742(3) 0.0614 Uani
O12A O -0.37959(4) 1.36489(5) 0.08690(3) 0.0674 Uani
O13A O -0.35781(4) 1.33110(5) 0.11665(3) 0.0701 Uani
O14A O 0.09075(4) 1.09520(4) 0.37801(3) 0.0649 Uani
O15A O -0.05202(4) 1.16514(4) 0.34938(3) 0.0633 Uani
O16A O 0.12643(5) 1.11384(5) 0.34859(3) 0.0720 Uani
Zn1A Zn 0.297007(11) 1.552230(13) 0.0000 0.0549 Uani
Zn1B Zn 0.447770(13) 1.297007(11) 0.0000 0.0549 Uani
Zn1C Zn -0.297007(11) 1.447770(13) 0.0000 0.0549 Uani
Zn2B Zn -0.425785(8) 1.371694(8) 0.102130(6) 0.0562 Uani
Zn2L Zn 0.074215(8) 0.871694(8) 0.397870(6) 0.0562 Uani
Zn2M Zn 0.128306(8) 1.074215(8) 0.397870(6) 0.0562 Uani
Zn2N Zn -0.074215(8) 1.128306(8) 0.397870(6) 0.0562 Uani
Zn3A Zn 0.229720(11) 1.569302(13) 0.0000 0.0563 Uani
Zn3B Zn 0.430698(13) 1.229720(11) 0.0000 0.0563 Uani
Zn3C Zn -0.229720(11) 1.430698(13) 0.0000 0.0563 Uani
Zn4B Zn -0.401140(9) 1.329491(9) 0.136184(6) 0.0585 Uani
Zn4L Zn 0.098860(9) 0.829491(9) 0.363816(6) 0.0585 Uani
Zn4M Zn 0.170509(9) 1.098860(9) 0.363816(6) 0.0585 Uani
Zn4N Zn -0.098860(9) 1.170509(9) 0.363816(6) 0.0585 Uani
O6J O 0.51902(5) 0.71797(4) -0.02533(3) 0.0689 Uani
O8J O 0.53259(5) 0.77520(4) -0.02494(3) 0.0728 Uani
O9B O 0.58819(4) 0.69863(4) 0.02522(3) 0.0594 Uani
O9H O 0.58819(4) 0.69863(4) -0.02522(3) 0.0594 Uani
O10B O 0.60180(4) 0.75520(4) 0.02554(3) 0.0628 Uani
O10H O 0.60180(4) 0.75520(4) -0.02554(3) 0.0628 Uani
O11L O 0.37225(4) 1.46755(4) 0.12258(3) 0.0614 Uani
O11O O 0.46755(4) 0.62775(4) 0.12258(3) 0.0614 Uani
O12C O 0.37959(4) 0.63511(5) 0.08690(3) 0.0674 Uani
O13C O 0.35781(4) 0.66890(5) 0.11665(3) 0.0701 Uani
O14L O 0.40480(4) 0.59075(4) 0.12199(3) 0.0649 Uani
O14M O 0.40925(4) 1.40480(4) 0.12199(3) 0.0649 Uani
O15L O 0.33486(4) 1.44798(4) 0.15062(3) 0.0633 Uani
O15O O 0.44798(4) 0.66514(4) 0.15062(3) 0.0633 Uani
O16L O 0.38616(5) 0.62643(5) 0.15141(3) 0.0720 Uani
O16M O 0.37357(5) 1.38616(5) 0.15141(3) 0.0720 Uani
H32? H 0.2969 1.1349 0.1069 0.2270 Uiso
loop_
_atom_site_aniso_label
_atom_site_aniso_U_11
_atom_site_aniso_U_22
_atom_site_aniso_U_33
_atom_site_aniso_U_23
_atom_site_aniso_U_13
_atom_site_aniso_U_12
C1 0.106(2) 0.0411(14) 0.0858(18) 0.0013(13) 0.0320(17) -0.0016(13)
C2 0.111(2) 0.0476(15) 0.0872(19) 0.0083(14) 0.0425(18) 0.0146(14)
C3 0.299(7) 0.050(2) 0.217(5) 0.019(3) 0.180(5) 0.014(3)
C4 0.351(8) 0.078(3) 0.337(8) 0.055(4) 0.270(7) 0.037(4)
C5 0.477(11) 0.086(3) 0.448(10) 0.098(5) 0.395(9) 0.068(5)
C6 0.483(11) 0.067(3) 0.332(7) 0.066(4) 0.328(8) 0.080(4)
C7 0.532(12) 0.076(3) 0.462(11) 0.071(5) 0.430(10) 0.073(5)
C8 0.408(9) 0.049(2) 0.250(6) 0.034(3) 0.257(6) 0.035(3)
C9 0.371(8) 0.0436(19) 0.244(5) 0.019(3) 0.245(6) 0.024(3)
C10 0.337(7) 0.056(2) 0.215(5) 0.016(3) 0.210(5) 0.022(3)
C11 0.396(8) 0.055(2) 0.254(5) 0.023(3) 0.259(6) 0.029(3)
Zn1 0.0708(3) 0.0416(2) 0.0524(2) 0.000 0.000 -0.0041(2)
Zn2 0.05515(18) 0.05575(19) 0.05758(17) -0.01260(15) 0.01215(15) -0.00452(14)
Zn3 0.0697(3) 0.0422(2) 0.0570(2) 0.000 0.000 -0.0049(2)
Zn4 0.05801(19) 0.05870(19) 0.05887(17) -0.01348(15) 0.01202(15) -0.00303(14)
O1 0.123(2) 0.1084(19) 0.0963(15) -0.0504(14) 0.0254(14) 0.0203(14)
O2 0.113(3) 0.0476(17) 0.210(4) 0.000 0.000 -0.0141(16)
O3 0.159(3) 0.114(2) 0.0871(14) -0.0365(14) 0.0407(16) 0.0352(17)
O4 0.127(3) 0.0451(16) 0.141(3) 0.000 0.000 -0.0260(17)
O5 0.0728(11) 0.0511(10) 0.0714(10) -0.0037(8) 0.0234(9) -0.0030(8)
O6 0.0938(14) 0.0465(10) 0.0664(10) -0.0077(8) 0.0207(9) -0.0057(8)
O7 0.0695(11) 0.0534(10) 0.0689(10) -0.0054(8) 0.0219(9) -0.0062(8)
O8 0.1000(14) 0.0486(10) 0.0697(10) -0.0052(8) 0.0241(10) -0.0061(9)
C12 0.0596(15) 0.0514(14) 0.0643(14) -0.0068(11) 0.0078(12) -0.0017(11)
C13 0.0617(15) 0.0517(14) 0.0688(15) -0.0075(12) 0.0207(12) -0.0097(11)
N1 0.229(4) 0.0501(16) 0.195(3) 0.0086(19) 0.154(3) 0.017(2)
C14 0.0681(16) 0.0470(13) 0.0676(14) -0.0015(11) 0.0158(13) -0.0006(11)
C15 0.0823(18) 0.0470(14) 0.0430(11) -0.0017(10) 0.0128(11) -0.0064(12)
C16 0.114(3) 0.0508(16) 0.103(2) 0.0075(15) 0.059(2) 0.0080(15)
C17 0.0659(16) 0.0456(13) 0.0679(14) 0.0018(11) 0.0149(12) -0.0088(11)
C18 0.395(9) 0.054(2) 0.283(6) 0.020(3) 0.247(7) 0.051(4)
N2 0.467(9) 0.061(2) 0.491(9) -0.009(4) 0.402(8) 0.006(4)
C19 0.408(9) 0.069(3) 0.185(4) -0.008(3) 0.226(5) -0.021(4)
C20 0.100(2) 0.0579(17) 0.106(2) 0.0037(16) 0.0540(19) 0.0084(15)
C21 0.121(3) 0.0389(14) 0.124(3) 0.0028(16) 0.060(2) 0.0041(15)
C22 0.395(8) 0.054(2) 0.228(5) 0.006(3) 0.248(6) 0.010(3)
C23 0.361(7) 0.0464(19) 0.213(5) 0.016(3) 0.219(5) 0.033(3)
C24 0.367(8) 0.052(2) 0.221(5) 0.014(3) 0.225(5) 0.025(3)
C25 0.439(9) 0.066(3) 0.237(5) 0.000(3) 0.273(6) 0.014(4)
C26 0.189(4) 0.058(2) 0.166(4) -0.001(2) 0.120(3) 0.009(2)
C27 0.344(7) 0.062(2) 0.205(5) 0.025(3) 0.211(5) 0.021(3)
C28 0.329(7) 0.064(2) 0.278(6) 0.009(3) 0.249(6) 0.023(3)
C29 0.420(10) 0.063(3) 0.368(8) -0.015(4) 0.318(8) 0.000(4)
C30 0.373(8) 0.048(2) 0.252(5) 0.021(3) 0.248(6) 0.036(3)
C31 0.615(13) 0.065(3) 0.276(6) 0.012(4) 0.354(8) 0.007(5)
C32 0.289(7) 0.0465(19) 0.218(5) 0.005(3) 0.175(5) 0.029(3)
C33 0.452(10) 0.074(3) 0.280(6) 0.013(4) 0.290(7) 0.003(4)
C34 0.750(16) 0.072(3) 0.274(6) -0.035(4) 0.393(9) -0.072(6)
C35 0.443(10) 0.074(3) 0.333(7) 0.032(4) 0.324(7) 0.049(4)
C36 0.504(12) 0.069(3) 0.433(10) 0.022(5) 0.387(9) 0.043(5)
N3 0.473(9) 0.051(2) 0.531(9) -0.013(4) 0.430(8) -0.007(3)
C37 0.0673(16) 0.0525(14) 0.0570(13) 0.0035(11) 0.0138(12) 0.0033(11)
C38 0.0652(15) 0.0434(12) 0.0620(13) 0.0048(11) 0.0068(12) 0.0010(10)
C39 0.0735(17) 0.0553(15) 0.0586(13) 0.0109(11) 0.0159(12) 0.0045(12)
C40 0.0897(19) 0.0351(12) 0.0437(11) -0.0003(9) 0.0047(11) -0.0089(11)
N4 0.186(3) 0.0412(13) 0.149(3) 0.0032(15) 0.104(2) -0.0013(16)
C41 0.127(3) 0.0535(17) 0.100(2) 0.0124(15) 0.057(2) -0.0023(16)
C42 0.174(4) 0.0550(19) 0.146(3) 0.009(2) 0.095(3) 0.007(2)
C43 0.236(6) 0.053(2) 0.201(4) 0.013(3) 0.142(4) -0.014(3)
N5 0.305(6) 0.072(2) 0.374(7) 0.054(3) 0.259(5) 0.037(3)
N6 0.290(5) 0.080(2) 0.126(2) -0.0161(18) 0.146(3) -0.043(3)
C44 0.210(5) 0.057(2) 0.125(3) 0.006(2) 0.102(3) -0.015(2)
C45 0.347(7) 0.074(3) 0.155(4) -0.015(2) 0.184(4) -0.026(3)
N7 0.855(14) 0.085(3) 0.306(6) -0.073(3) 0.458(8) -0.128(5)
N8 0.893(16) 0.133(4) 0.284(6) -0.076(4) 0.435(8) -0.175(7)
O9 0.0682(11) 0.0524(10) 0.0575(8) 0.0002(7) 0.0197(8) 0.0023(8)
O10 0.0756(12) 0.0507(10) 0.0621(9) -0.0023(8) 0.0146(8) 0.0010(8)
C46 0.108(2) 0.0602(17) 0.0800(18) 0.0101(14) 0.0503(17) -0.0122(15)
C47 0.113(3) 0.0637(18) 0.0798(18) -0.0088(15) 0.0479(18) -0.0162(16)
C48 0.158(3) 0.0646(19) 0.083(2) -0.0023(16) 0.066(2) -0.0049(19)
C49 0.0594(15) 0.0621(15) 0.0538(12) 0.0025(11) 0.0135(11) -0.0096(11)
C50 0.0774(18) 0.0559(15) 0.0600(14) -0.0036(12) 0.0149(13) -0.0006(12)
C51 0.0715(17) 0.0518(14) 0.0642(14) 0.0015(12) 0.0172(13) -0.0032(12)
C52 0.0636(15) 0.0380(12) 0.0710(15) 0.0084(11) 0.0169(12) 0.0121(10)
C53 0.0600(15) 0.0518(14) 0.0637(14) 0.0154(11) 0.0210(12) 0.0040(11)
C54 0.0506(14) 0.0675(16) 0.0640(14) -0.0055(13) 0.0167(12) -0.0137(11)
N9 0.334(6) 0.067(2) 0.357(6) 0.034(3) 0.289(5) 0.023(3)
O11 0.0686(11) 0.0514(10) 0.0643(9) -0.0037(8) 0.0197(9) -0.0014(8)
O12 0.0814(13) 0.0561(10) 0.0646(10) 0.0058(8) 0.0142(9) -0.0055(9)
O13 0.0875(13) 0.0597(11) 0.0630(10) 0.0030(8) 0.0261(10) -0.0032(9)
O14 0.0694(11) 0.0622(11) 0.0631(10) -0.0069(8) 0.0173(9) -0.0090(8)
O15 0.0665(11) 0.0561(10) 0.0674(10) -0.0008(8) 0.0190(9) -0.0046(8)
O16 0.0860(13) 0.0596(11) 0.0705(11) -0.0109(9) 0.0180(10) -0.0116(9)
C1A 0.0411 0.106 0.0858 0.032 -0.0013 0.0016
C2A 0.0476 0.111 0.0872 0.0425 -0.0083 -0.0146
C3A 0.05 0.299 0.217 0.18 -0.019 -0.014
C4A 0.078 0.351 0.337 0.27 -0.055 -0.037
C5A 0.086 0.477 0.448 0.395 -0.098 -0.068
C6A 0.067 0.483 0.332 0.328 -0.066 -0.08
C7A 0.076 0.532 0.462 0.43 -0.071 -0.073
C8A 0.049 0.408 0.25 0.257 -0.034 -0.035
C9A 0.0436 0.371 0.244 0.245 -0.019 -0.024
C10A 0.056 0.337 0.215 0.21 -0.016 -0.022
C11A 0.055 0.396 0.254 0.259 -0.023 -0.029
Zn2A 0.05575 0.05515 0.05758 0.01215 0.0126 0.00452
Zn4A 0.0587 0.05801 0.05887 0.01202 0.01348 0.00303
O1A 0.1084 0.123 0.0963 0.0254 0.0504 -0.0203
O3A 0.114 0.159 0.0871 0.0407 0.0365 -0.0352
O5A 0.0511 0.0728 0.0714 0.0234 0.0037 0.003
O6A 0.0465 0.0938 0.0664 0.0207 0.0077 0.0057
O7A 0.0534 0.0695 0.0689 0.0219 0.0054 0.0062
O8A 0.0486 0.1 0.0697 0.0241 0.0052 0.0061
C12A 0.0514 0.0596 0.0643 0.0078 0.0068 0.0017
C13A 0.0517 0.0617 0.0688 0.0207 0.0075 0.0097
N1A 0.0501 0.229 0.195 0.154 -0.0086 -0.017
C14A 0.047 0.0681 0.0676 0.0158 0.0015 0.0006
C15A 0.047 0.0823 0.043 0.0128 0.0017 0.0064
C16A 0.0508 0.114 0.103 0.059 -0.0075 -0.008
C17A 0.0456 0.0659 0.0679 0.0149 -0.0018 0.0088
C18A 0.054 0.395 0.283 0.247 -0.02 -0.051
N2A 0.061 0.467 0.491 0.402 0.009 -0.006
C19A 0.069 0.408 0.185 0.226 0.008 0.021
C20A 0.0579 0.1 0.106 0.054 -0.0037 -0.0084
C21A 0.0389 0.121 0.124 0.06 -0.0028 -0.0041
C22A 0.054 0.395 0.228 0.248 -0.006 -0.01
C23A 0.0464 0.361 0.213 0.219 -0.016 -0.033
C24A 0.052 0.367 0.221 0.225 -0.014 -0.025
C25A 0.066 0.439 0.237 0.273 0 -0.014
C26A 0.058 0.189 0.166 0.12 0.001 -0.009
C27A 0.062 0.344 0.205 0.211 -0.025 -0.021
C28A 0.064 0.329 0.278 0.249 -0.009 -0.023
C29A 0.063 0.42 0.368 0.318 0.015 0
C30A 0.048 0.373 0.252 0.248 -0.021 -0.036
C31A 0.065 0.615 0.276 0.354 -0.012 -0.007
C32A 0.0465 0.289 0.218 0.175 -0.005 -0.029
C33A 0.074 0.452 0.28 0.29 -0.013 -0.003
C34A 0.072 0.75 0.274 0.393 0.035 0.072
C35A 0.074 0.443 0.333 0.324 -0.032 -0.049
C36A 0.069 0.504 0.433 0.387 -0.022 -0.043
N3A 0.051 0.473 0.531 0.43 0.013 0.007
C37A 0.0525 0.0673 0.057 0.0138 -0.0035 -0.0033
C38A 0.0434 0.0652 0.062 0.0068 -0.0048 -0.001
C39A 0.0553 0.0735 0.0586 0.0159 -0.0109 -0.0045
C40A 0.0351 0.0897 0.0437 0.0047 0.0003 0.0089
N4A 0.0412 0.186 0.149 0.104 -0.0032 0.0013
C41A 0.0535 0.127 0.1 0.057 -0.0124 0.0023
C42A 0.055 0.174 0.146 0.095 -0.009 -0.007
C43A 0.053 0.236 0.201 0.142 -0.013 0.014
N5A 0.072 0.305 0.374 0.259 -0.054 -0.037
N6A 0.08 0.29 0.126 0.146 0.0161 0.043
C44A 0.057 0.21 0.125 0.102 -0.006 0.015
C45A 0.074 0.347 0.155 0.184 0.015 0.026
N7A 0.085 0.855 0.306 0.458 0.073 0.128
N8A 0.133 0.893 0.284 0.435 0.076 0.175
O9A 0.0524 0.0682 0.0575 0.0197 -0.0002 -0.0023
O10A 0.0507 0.0756 0.0621 0.0146 0.0023 -0.001
C46A 0.0602 0.108 0.08 0.0503 -0.0101 0.0122
C47A 0.0637 0.113 0.0798 0.0479 0.0088 0.0162
C48A 0.0646 0.158 0.083 0.066 0.0023 0.0049
C49A 0.0621 0.0594 0.0538 0.0135 -0.0025 0.0096
C50A 0.0559 0.0774 0.06 0.0149 0.0036 0.0006
C51A 0.0518 0.0715 0.0642 0.0172 -0.0015 0.0032
C52A 0.038 0.0636 0.071 0.0169 -0.0084 -0.0121
C53A 0.0518 0.06 0.0637 0.021 -0.0154 -0.004
C54A 0.0675 0.0506 0.064 0.0167 0.0055 0.0137
N9A 0.067 0.334 0.357 0.289 -0.034 -0.023
O11A 0.0514 0.0686 0.0643 0.0197 0.0037 0.0014
O12A 0.0561 0.0814 0.0646 0.0142 -0.0058 0.0055
O13A 0.0597 0.0875 0.063 0.0261 -0.003 0.0032
O14A 0.0622 0.0694 0.0631 0.0173 0.0069 0.009
O15A 0.0561 0.0665 0.0674 0.019 0.0008 0.0046
O16A 0.0596 0.086 0.0705 0.018 0.0109 0.0116
Zn1A 0.0416 0.0708 0.0524 0 0 0.0041
Zn1B 0.0708 0.0416 0.0524 0 0 -0.0041
Zn1C 0.0416 0.0708 0.0524 0 0 0.0041
Zn2B 0.05515 0.05575 0.05758 0.0126 -0.01215 -0.00452
Zn2L 0.05515 0.05575 0.05758 -0.0126 0.01215 -0.00452
Zn2M 0.05575 0.05515 0.05758 0.01215 0.0126 0.00452
Zn2N 0.05515 0.05575 0.05758 0.0126 -0.01215 -0.00452
Zn3A 0.0422 0.0697 0.057 0 0 0.0049
Zn3B 0.0697 0.0422 0.057 0 0 -0.0049
Zn3C 0.0422 0.0697 0.057 0 0 0.0049
Zn4B 0.05801 0.0587 0.05887 0.01348 -0.01202 -0.00303
Zn4L 0.05801 0.0587 0.05887 -0.01348 0.01202 -0.00303
Zn4M 0.0587 0.05801 0.05887 0.01202 0.01348 0.00303
Zn4N 0.05801 0.0587 0.05887 0.01348 -0.01202 -0.00303
O6J 0.0938 0.0465 0.0664 0.0077 -0.0207 -0.0057
O8J 0.1 0.0486 0.0697 0.0052 -0.0241 -0.0061
O9B 0.0682 0.0524 0.0575 -0.0002 -0.0197 0.0023
O9H 0.0682 0.0524 0.0575 0.0002 0.0197 0.0023
O10B 0.0756 0.0507 0.0621 0.0023 -0.0146 0.001
O10H 0.0756 0.0507 0.0621 -0.0023 0.0146 0.001
O11L 0.0686 0.0514 0.0643 -0.0037 0.0197 -0.0014
O11O 0.0514 0.0686 0.0643 -0.0197 -0.0037 0.0014
O12C 0.0561 0.0814 0.0646 -0.0142 0.0058 0.0055
O13C 0.0597 0.0875 0.063 -0.0261 0.003 0.0032
O14L 0.0694 0.0622 0.0631 -0.0069 0.0173 -0.009
O14M 0.0622 0.0694 0.0631 0.0173 0.0069 0.009
O15L 0.0665 0.0561 0.0674 -0.0008 0.019 -0.0046
O15O 0.0561 0.0665 0.0674 -0.019 -0.0008 0.0046
O16L 0.086 0.0596 0.0705 -0.0109 0.018 -0.0116
O16M 0.0596 0.086 0.0705 0.018 0.0109 0.0116
loop_
_geom_bond_atom_site_label_1
_geom_bond_atom_site_label_2
_geom_bond_site_symmetry_1
_geom_bond_site_symmetry_2
C1 H1 1_555 1_555
C2 H2 1_555 1_555
C3 C4 1_555 1_555
C4 H3 1_555 1_555
C5 C3 1_555 1_555
H4 C5 1_555 1_555
C6 C4 1_555 1_555
H5 C6 1_555 1_555
C7 C5 1_555 1_555
H6 C7 1_555 1_555
C8 C6 1_555 1_555
C9 C8 1_555 1_555
C10 C9 1_555 1_555
H7 C10 1_555 1_555
C11 C9 1_555 1_555
H8 C11 1_555 1_555
Zn1 O2 1_555 1_555
Zn2 O3 1_555 1_555
Zn3 O4 1_555 1_555
Zn4 O1 1_555 1_555
O1 H9 1_555 1_555
O2 H10 1_555 1_555
O3 H11 1_555 1_555
O4 H12 1_555 1_555
O5 Zn4 1_555 1_555
O6 Zn1 1_555 1_555
O7 Zn2 1_555 1_555
O8 Zn3 1_555 1_555
C12 H13 1_555 1_555
C13 O5 1_555 1_555
N1 C21 1_555 1_555
C14 C12 1_555 1_555
C15 O6 1_555 1_555
C16 C14 1_555 1_555
H14 C16 1_555 1_555
C17 C12 1_555 1_555
C18 H15 1_555 1_555
N2 C32 1_555 1_555
C19 C25 1_555 1_555
C20 C17 1_555 1_555
H16 C20 1_555 1_555
C21 C16 1_555 1_555
C22 C27 1_555 1_555
C23 C11 1_555 1_555
C24 C23 1_555 1_555
H17 C24 1_555 1_555
C25 H18 1_555 1_555
C26 N1 1_555 1_555
H19 C26 1_555 1_555
C27 C10 1_555 1_555
C28 C18 1_555 1_555
C29 H20 1_555 1_555
C30 C23 1_555 1_555
C31 C22 1_555 1_555
H21 C31 1_555 1_555
C32 C26 1_555 1_555
C33 C22 1_555 1_555
H22 C33 1_555 1_555
C34 C19 1_555 1_555
H23 C34 1_555 1_555
C35 C18 1_555 1_555
H24 C35 1_555 1_555
C36 C28 1_555 1_555
H25 C36 1_555 1_555
N3 N1 1_555 1_555
C37 C1 1_555 1_555
C38 C37 1_555 1_555
H26 C38 1_555 1_555
C39 C2 1_555 1_555
C40 C37 1_555 1_555
N4 C41 1_555 1_555
C41 C1 1_555 1_555
C42 N4 1_555 1_555
H27 C42 1_555 1_555
C43 C3 1_555 1_555
N5 C43 1_555 1_555
N6 C44 1_555 1_555
C44 H28 1_555 1_555
C45 C19 1_555 1_555
N7 N6 1_555 1_555
N8 C45 1_555 1_555
O9 C40 1_555 1_555
O10 C40 1_555 1_555
C46 H29 1_555 1_555
C47 H30 1_555 1_555
C48 N6 1_555 1_555
C49 H31 1_555 1_555
C50 C47 1_555 1_555
C51 C46 1_555 1_555
C52 C39 1_555 1_555
C53 C51 1_555 1_555
C54 C50 1_555 1_555
N9 N4 1_555 1_555
O11 C53 1_555 1_555
O12 C52 1_555 1_555
O13 C52 1_555 1_555
O14 C54 1_555 1_555
O15 C53 1_555 1_555
O16 C54 1_555 1_555
H10J O2 1_555 1_555
H12J O4 1_555 1_555
C1A H1A 1_555 1_555
C2A H2A 1_555 1_555
C3A C4A 1_555 1_555
C4A H3A 1_555 1_555
C5A C3A 1_555 1_555
H4A C5A 1_555 1_555
C6A C4A 1_555 1_555
H5A C6A 1_555 1_555
C7A C5A 1_555 1_555
H6A C7A 1_555 1_555
C8A C6A 1_555 1_555
C9A C8A 1_555 1_555
C10A C9A 1_555 1_555
H7A C10A 1_555 1_555
C11A C9A 1_555 1_555
H8A C11A 1_555 1_555
Zn2A O12 1_555 1_555
Zn4A O13 1_555 1_555
O1A Zn4A 1_555 1_555
H9A O1A 1_555 1_555
O3A Zn2A 1_555 1_555
H11A O3A 1_555 1_555
O5A Zn4A 1_555 1_555
O6A C15A 1_555 1_555
O7A Zn2A 1_555 1_555
O8A C15A 1_555 1_555
C12A H13A 1_555 1_555
C13A O5A 1_555 1_555
N1A C21A 1_555 1_555
C14A C12A 1_555 1_555
C15A C14A 1_555 1_555
C16A C14A 1_555 1_555
H14A C16A 1_555 1_555
C17A C12A 1_555 1_555
C18A H15A 1_555 1_555
N2A C32A 1_555 1_555
C19A C25A 1_555 1_555
C20A C17A 1_555 1_555
H16A C20A 1_555 1_555
C21A C16A 1_555 1_555
C22A C27A 1_555 1_555
C23A C11A 1_555 1_555
C24A C23A 1_555 1_555
H17A C24A 1_555 1_555
C25A H18A 1_555 1_555
C26A N1A 1_555 1_555
H19A C26A 1_555 1_555
C27A C10A 1_555 1_555
C28A C18A 1_555 1_555
C29A H20A 1_555 1_555
C30A C23A 1_555 1_555
C31A C22A 1_555 1_555
H21A C31A 1_555 1_555
C32A C26A 1_555 1_555
C33A C22A 1_555 1_555
H22A C33A 1_555 1_555
C34A C19A 1_555 1_555
H23A C34A 1_555 1_555
C35A C18A 1_555 1_555
H24A C35A 1_555 1_555
C36A C28A 1_555 1_555
H25A C36A 1_555 1_555
N3A N1A 1_555 1_555
C37A C1A 1_555 1_555
C38A C37A 1_555 1_555
H26A C38A 1_555 1_555
C39A C2A 1_555 1_555
C40A C37A 1_555 1_555
N4A C41A 1_555 1_555
C41A C1A 1_555 1_555
C42A N4A 1_555 1_555
H27A C42A 1_555 1_555
C43A C3A 1_555 1_555
N5A C43A 1_555 1_555
N6A C44A 1_555 1_555
C44A H28A 1_555 1_555
C45A C19A 1_555 1_555
N7A N6A 1_555 1_555
N8A C45A 1_555 1_555
O9A C40A 1_555 1_555
O10A C40A 1_555 1_555
C46A H29A 1_555 1_555
C47A H30A 1_555 1_555
C48A N6A 1_555 1_555
C49A H31A 1_555 1_555
C50A C47A 1_555 1_555
C51A C46A 1_555 1_555
C52A C39A 1_555 1_555
C53A C51A 1_555 1_555
C54A C50A 1_555 1_555
N9A N4A 1_555 1_555
O11A C53A 1_555 1_555
O12A C52A 1_555 1_555
O13A C52A 1_555 1_555
O14A C54A 1_555 1_555
O15A C53A 1_555 1_555
O16A C54A 1_555 1_555
Zn1A O6A 1_555 1_555
Zn1B O9 1_555 1_555
Zn1C O9A 1_555 1_555
Zn2B O12A 1_555 1_555
Zn2L O14 1_555 1_555
Zn2M O11 1_555 1_555
Zn2N O11A 1_555 1_555
Zn3A O8A 1_555 1_555
Zn3B O10 1_555 1_555
Zn3C O10A 1_555 1_555
Zn4B O13A 1_555 1_555
Zn4L O16 1_555 1_555
Zn4M O15 1_555 1_555
Zn4N O15A 1_555 1_555
O6J Zn1 1_555 1_555
O8J Zn3 1_555 1_555
O9B Zn1 1_555 1_555
O9H Zn1 1_555 1_555
O10B Zn3 1_555 1_555
O10H Zn3 1_555 1_555
O11L Zn2A 1_555 1_555
O11O Zn2 1_555 1_555
O12C Zn2 1_555 1_555
O13C Zn4 1_555 1_555
O14L Zn2 1_555 1_555
O14M Zn2A 1_555 1_555
O15L Zn4A 1_555 1_555
O15O Zn4 1_555 1_555
O16L Zn4 1_555 1_555
O16M Zn4A 1_555 1_555
C2 C41 1_555 1_555
C7 C8 1_555 1_555
O7 C13 1_555 1_555
O8 C15 1_555 1_555
C13 C17 1_555 1_555
C14 C15 1_555 1_555
N2 N3 1_555 1_555
C20 C21 1_555 1_555
C24 C27 1_555 1_555
C25 C33 1_555 1_555
C28 C32 1_555 1_555
C29 C30 1_555 1_555
C29 C36 1_555 1_555
C30 C35 1_555 1_555
C31 C34 1_555 1_555
C38 C39 1_555 1_555
C42 C43 1_555 1_555
N5 N9 1_555 1_555
C44 C45 1_555 1_555
N7 N8 1_555 1_555
C46 C48 1_555 1_555
C47 C48 1_555 1_555
C49 C50 1_555 1_555
C49 C51 1_555 1_555
C2A C41A 1_555 1_555
C7A C8A 1_555 1_555
O7A C13A 1_555 1_555
C13A C17A 1_555 1_555
N2A N3A 1_555 1_555
C20A C21A 1_555 1_555
C24A C27A 1_555 1_555
C25A C33A 1_555 1_555
C28A C32A 1_555 1_555
C29A C30A 1_555 1_555
C29A C36A 1_555 1_555
C30A C35A 1_555 1_555
C31A C34A 1_555 1_555
C38A C39A 1_555 1_555
C42A C43A 1_555 1_555
N5A N9A 1_555 1_555
C44A C45A 1_555 1_555
N7A N8A 1_555 1_555
C46A C48A 1_555 1_555
C47A C48A 1_555 1_555
C49A C50A 1_555 1_555
C49A C51A 1_555 1_555
O14A Zn2M 1_555 1_555
O16A Zn4M 1_555 1_555

#END
