
#######################################################################
#
#                 Cambridge Crystallographic Data Centre
#                                CCDC 
#
#######################################################################
#
# If this CIF has been generated from an entry in the Cambridge 
# Structural Database, then it will include bibliographic, chemical, 
# crystal, experimental, refinement or atomic coordinate data resulting 
# from the CCDC's data processing and validation procedures.
#
#######################################################################

data_YUZPOA
_chemical_formula_moiety         '(C72 H42 N18 O30 Zn6)n'
_chemical_name_systematic        
'catena-[bis(\m-1,3,5-tris(4-(3,5-dicarboxylatophenyl)-1H-1,2,3-triazol-1-yl)benzene)-hexaaqua-hexa-zinc unknown solvate]'
_symmetry_cell_setting           tetragonal
_symmetry_space_group_name_H-M   'I 4/m'
_symmetry_Int_Tables_number      87
_space_group_name_Hall           '-I 4'
loop_
_symmetry_equiv_pos_site_id
_symmetry_equiv_pos_as_xyz
1 x,y,z
2 -y,x,z
3 -x,-y,z
4 y,-x,z
5 1/2+x,1/2+y,1/2+z
6 1/2-y,1/2+x,1/2+z
7 1/2-x,1/2-y,1/2+z
8 1/2+y,1/2-x,1/2+z
9 -x,-y,-z
10 y,-x,-z
11 x,y,-z
12 -y,x,-z
13 1/2-x,1/2-y,1/2-z
14 1/2+y,1/2-x,1/2-z
15 1/2+x,1/2+y,1/2-z
16 1/2-y,1/2+x,1/2-z
_cell_length_a                   31.4206(3)
_cell_length_b                   31.4206(3)
_cell_length_c                   44.8239(5)
_cell_angle_alpha                90
_cell_angle_beta                 90
_cell_angle_gamma                90
_cell_volume                     44252.6
_exptl_crystal_colour            colorless
_exptl_crystal_description       block
_cell_formula_units_Z            8
loop_
_atom_site_label
_atom_site_type_symbol
_atom_site_fract_x
_atom_site_fract_y
_atom_site_fract_z
_atom_site_U_iso_or_equiv
_atom_site_thermal_displace_type
Zn1 Zn 0.640117(8) 0.694095(8) 0.332380(5) 0.0345 Uani
Zn2 Zn 0.605059(8) 0.645918(8) 0.373913(5) 0.0351 Uani
Zn3 Zn 0.751372(10) 0.538880(12) 0.5000 0.0345 Uani
Zn4 Zn 0.834527(10) 0.551117(11) 0.5000 0.0337 Uani
O1 O 0.69169(4) 0.68691(5) 0.35659(3) 0.0478 Uani
O2 O 0.66146(4) 0.64857(5) 0.39262(3) 0.0487 Uani
O3 O 0.75040(4) 0.58274(5) 0.46913(3) 0.0453 Uani
O4 O 0.82081(4) 0.59269(5) 0.46870(3) 0.0458 Uani
O5 O 0.57581(10) 0.60782(9) 0.40788(5) 0.1064 Uani
H1 H 0.5539 0.5971 0.4013 0.1600 Uiso
O6 O 0.66700(8) 0.73413(7) 0.29861(5) 0.0864 Uani
H2 H 0.6861 0.7213 0.2900 0.1300 Uiso
O7 O 0.68392(8) 0.52717(16) 0.5000 0.1098 Uani
H3 H 0.6752 0.5266 0.5172 0.1650 Uiso
O8 O 0.90122(7) 0.56514(11) 0.5000 0.0810 Uani
H4 H 0.9143 0.5452 0.5074 0.1220 Uiso
C1 C 0.77921(6) 0.62783(7) 0.43242(4) 0.0433 Uani
C2 C 0.78363(6) 0.59873(7) 0.45912(4) 0.0386 Uani
C3 C 0.73899(6) 0.63524(7) 0.42038(4) 0.0415 Uani
H5 H 0.7149 0.6239 0.4294 0.0500 Uiso
C4 C 0.73546(6) 0.65987(7) 0.39467(4) 0.0444 Uani
C5 C 0.69262(6) 0.66594(7) 0.38002(4) 0.0404 Uani
C6 C 0.77134(7) 0.67662(9) 0.38117(5) 0.0595 Uani
H6 H 0.7688 0.6927 0.3638 0.0710 Uiso
C7 C 0.81521(7) 0.64481(9) 0.41927(5) 0.0603 Uani
H7 H 0.8419 0.6398 0.4275 0.0720 Uiso
C8 C 0.81113(7) 0.66936(10) 0.39365(6) 0.0671 Uani
N1 N 0.84733(6) 0.68514(11) 0.37878(7) 0.1027 Uani
N2 N 0.84469(12) 0.7097(2) 0.35576(15) 0.2813 Uani
N3 N 0.88363(13) 0.7194(2) 0.34668(15) 0.2757 Uani
C9 C 0.88851(8) 0.67289(13) 0.38096(7) 0.0967 Uani
H8 H 0.8992 0.6522 0.3938 0.1160 Uiso
C10 C 0.91147(8) 0.69610(15) 0.36124(9) 0.1176 Uani
C11 C 0.97132(8) 0.71597(14) 0.32942(8) 0.1136 Uani
H9 H 0.9530 0.7332 0.3185 0.1360 Uiso
C12 C 0.95624(8) 0.69277(14) 0.35361(8) 0.1094 Uani
C13 C 0.98384(8) 0.66765(15) 0.37022(8) 0.1153 Uani
H10 H 0.9737 0.6525 0.3865 0.1380 Uiso
C14 C 1.01397(8) 0.71323(15) 0.32169(8) 0.1106 Uani
C15 C 1.04179(9) 0.68934(15) 0.33885(8) 0.1160 Uani
H11 H 1.0707 0.6895 0.3345 0.1390 Uiso
C16 C 1.05420(9) 0.63866(17) 0.38012(9) 0.1278 Uani
C17 C 1.02651(8) 0.66518(15) 0.36251(9) 0.1128 Uani
C18 C 1.00969(8) 0.75734(13) 0.27428(7) 0.0912 Uani
H12 H 0.9803 0.7595 0.2722 0.1090 Uiso
C19 C 1.03067(8) 0.73680(15) 0.29655(8) 0.1135 Uani
N4 N 1.03879(7) 0.77382(12) 0.25592(6) 0.1041 Uani
N5 N 1.07002(13) 0.7401(3) 0.29022(14) 0.2850 Uani
N6 N 1.07559(12) 0.7614(3) 0.26462(14) 0.3073 Uani
C20 C 1.09714(8) 0.63338(13) 0.37799(8) 0.0968 Uani
H13 H 1.1151 0.6470 0.3646 0.1160 Uiso
N7 N 1.10877(7) 0.60479(12) 0.39884(7) 0.1120 Uani
N8 N 1.07649(13) 0.5972(3) 0.41507(16) 0.3013 Uani
N9 N 1.04251(14) 0.6146(3) 0.40156(17) 0.3200 Uani
C21 C 0.98970(6) 0.82410(7) 0.18948(5) 0.0432 Uani
C22 C 0.99344(7) 0.80153(9) 0.21617(5) 0.0586 Uani
H14 H 0.9696 0.7895 0.2251 0.0700 Uiso
C23 C 1.06912(7) 0.81517(9) 0.21613(5) 0.0591 Uani
H15 H 1.0956 0.8121 0.2251 0.0710 Uiso
C24 C 1.03336(7) 0.79748(10) 0.22906(6) 0.0687 Uani
C25 C 1.19347(6) 0.54412(7) 0.43627(4) 0.0441 Uani
C26 C 1.15344(7) 0.55880(9) 0.42832(6) 0.0614 Uani
H16 H 1.1292 0.5487 0.4379 0.0740 Uiso
C27 C 1.15011(7) 0.58880(10) 0.40580(6) 0.0711 Uani
C28 C 1.22940(6) 0.55858(7) 0.42165(4) 0.0416 Uani
H17 H 1.2562 0.5490 0.4274 0.0500 Uiso
C29 C 1.02546(6) 0.84244(7) 0.17642(4) 0.0410 Uani
H18 H 1.0228 0.8579 0.1589 0.0490 Uiso
C30 C 0.94743(6) 0.82713(6) 0.17433(4) 0.0385 Uani
C31 C 1.22526(6) 0.58749(7) 0.39841(4) 0.0428 Uani
C32 C 1.06496(6) 0.83762(7) 0.18954(5) 0.0441 Uani
C33 C 1.10427(6) 0.85463(6) 0.17443(4) 0.0405 Uani
C34 C 1.18556(7) 0.60246(9) 0.39017(6) 0.0608 Uani
H19 H 1.1827 0.6214 0.3744 0.0730 Uiso
C35 C 1.19743(6) 0.51089(7) 0.46024(4) 0.0402 Uani
C36 C 1.26429(6) 0.60150(6) 0.38166(4) 0.0390 Uani
O9 O 1.13949(4) 0.84703(5) 0.18676(3) 0.0484 Uani
O10 O 0.91690(4) 0.80669(5) 0.18552(3) 0.0461 Uani
O11 O 0.94541(4) 0.84979(5) 0.15122(3) 0.0469 Uani
O12 O 1.16422(4) 0.49400(5) 0.46958(3) 0.0466 Uani
O13 O 1.09850(4) 0.87430(5) 0.15062(3) 0.0478 Uani
O14 O 1.23481(4) 0.50335(5) 0.46921(3) 0.0475 Uani
O15 O 1.29957(4) 0.59051(5) 0.39209(3) 0.0473 Uani
O16 O 1.25844(4) 0.62279(5) 0.35816(3) 0.0473 Uani
H3J H 0.6752 0.5266 0.4828 0.1650 Uiso
H4J H 0.9143 0.5452 0.4926 0.1220 Uiso
Zn1A Zn 1.305905(8) 0.640117(8) 0.332380(5) 0.0345 Uani
Zn2A Zn 1.354082(8) 0.605059(8) 0.373913(5) 0.0351 Uani
O1A O 1.31309(5) 0.69169(4) 0.35659(3) 0.0478 Uani
O2A O 1.35143(5) 0.66146(4) 0.39262(3) 0.0487 Uani
O3A O 1.41726(5) 0.75040(4) 0.46913(3) 0.0453 Uani
O4A O 1.40731(5) 0.82081(4) 0.46870(3) 0.0458 Uani
O5A O 1.39218(9) 0.57581(10) 0.40788(5) 0.1064 Uani
H1A H 1.4029 0.5539 0.4013 0.1600 Uiso
O6A O 1.26587(7) 0.66700(8) 0.29861(5) 0.0864 Uani
H2A H 1.2787 0.6861 0.2900 0.1300 Uiso
C1A C 1.37217(7) 0.77921(6) 0.43242(4) 0.0433 Uani
C2A C 1.40127(7) 0.78363(6) 0.45912(4) 0.0386 Uani
C3A C 1.36476(7) 0.73899(6) 0.42038(4) 0.0415 Uani
H5A H 1.3761 0.7149 0.4294 0.0500 Uiso
C4A C 1.34013(7) 0.73546(6) 0.39467(4) 0.0444 Uani
C5A C 1.33406(7) 0.69262(6) 0.38002(4) 0.0404 Uani
C6A C 1.32338(9) 0.77134(7) 0.38117(5) 0.0595 Uani
H6A H 1.3073 0.7688 0.3638 0.0710 Uiso
C7A C 1.35519(9) 0.81521(7) 0.41927(5) 0.0603 Uani
H7A H 1.3602 0.8419 0.4275 0.0720 Uiso
C8A C 1.33064(10) 0.81113(7) 0.39365(6) 0.0671 Uani
N1A N 1.31486(11) 0.84733(6) 0.37878(7) 0.1027 Uani
N2A N 1.2903(2) 0.84469(12) 0.35576(15) 0.2813 Uani
N3A N 1.2806(2) 0.88363(13) 0.34668(15) 0.2757 Uani
C9A C 1.32711(13) 0.88851(8) 0.38096(7) 0.0967 Uani
H8A H 1.3478 0.8992 0.3938 0.1160 Uiso
C10A C 1.30390(15) 0.91147(8) 0.36124(9) 0.1176 Uani
C11A C 1.28403(14) 0.97132(8) 0.32942(8) 0.1136 Uani
H9A H 1.2668 0.9530 0.3185 0.1360 Uiso
C12A C 1.30723(14) 0.95624(8) 0.35361(8) 0.1094 Uani
C13A C 1.33235(15) 0.98384(8) 0.37022(8) 0.1153 Uani
H10A H 1.3475 0.9737 0.3865 0.1380 Uiso
C14A C 1.28677(15) 1.01397(8) 0.32169(8) 0.1106 Uani
C15A C 1.31066(15) 1.04179(9) 0.33885(8) 0.1160 Uani
H11A H 1.3105 1.0707 0.3345 0.1390 Uiso
C16A C 1.36134(17) 1.05420(9) 0.38012(9) 0.1278 Uani
C17A C 1.33482(15) 1.02651(8) 0.36251(9) 0.1128 Uani
C18A C 1.24266(13) 1.00969(8) 0.27428(7) 0.0912 Uani
H12A H 1.2405 0.9803 0.2722 0.1090 Uiso
C19A C 1.26320(15) 1.03067(8) 0.29655(8) 0.1135 Uani
N4A N 1.22618(12) 1.03879(7) 0.25592(6) 0.1041 Uani
N5A N 1.2599(3) 1.07002(13) 0.29022(14) 0.2850 Uani
N6A N 1.2386(3) 1.07559(12) 0.26462(14) 0.3073 Uani
C20A C 1.36662(13) 1.09714(8) 0.37799(8) 0.0968 Uani
H13A H 1.3530 1.1151 0.3646 0.1160 Uiso
N7A N 1.39521(12) 1.10877(7) 0.39884(7) 0.1120 Uani
N8A N 1.4028(3) 1.07649(13) 0.41507(16) 0.3013 Uani
N9A N 1.3854(3) 1.04251(14) 0.40156(17) 0.3200 Uani
C21A C 1.17590(7) 0.98970(6) 0.18948(5) 0.0432 Uani
C22A C 1.19847(9) 0.99344(7) 0.21617(5) 0.0586 Uani
H14A H 1.2105 0.9696 0.2251 0.0700 Uiso
C23A C 1.18483(9) 1.06912(7) 0.21613(5) 0.0591 Uani
H15A H 1.1879 1.0956 0.2251 0.0710 Uiso
C24A C 1.20252(10) 1.03336(7) 0.22906(6) 0.0687 Uani
C25A C 1.45588(7) 1.19347(6) 0.43627(4) 0.0441 Uani
C26A C 1.44120(9) 1.15344(7) 0.42832(6) 0.0614 Uani
H16A H 1.4513 1.1292 0.4379 0.0740 Uiso
C27A C 1.41120(10) 1.15011(7) 0.40580(6) 0.0711 Uani
C28A C 1.44142(7) 1.22940(6) 0.42165(4) 0.0416 Uani
H17A H 1.4510 1.2562 0.4274 0.0500 Uiso
C29A C 1.15756(7) 1.02546(6) 0.17642(4) 0.0410 Uani
H18A H 1.1421 1.0228 0.1589 0.0490 Uiso
C30A C 1.17287(6) 0.94743(6) 0.17433(4) 0.0385 Uani
C31A C 1.41251(7) 1.22526(6) 0.39841(4) 0.0428 Uani
C32A C 1.16238(7) 1.06496(6) 0.18954(5) 0.0441 Uani
C33A C 1.14537(6) 1.10427(6) 0.17443(4) 0.0405 Uani
C34A C 1.39754(9) 1.18556(7) 0.39017(6) 0.0608 Uani
H19A H 1.3786 1.1827 0.3744 0.0730 Uiso
C35A C 1.48911(7) 1.19743(6) 0.46024(4) 0.0402 Uani
C36A C 1.39850(6) 1.26429(6) 0.38166(4) 0.0390 Uani
O9A O 1.15297(5) 1.13949(4) 0.18676(3) 0.0484 Uani
O10A O 1.19331(5) 0.91690(4) 0.18552(3) 0.0461 Uani
O11A O 1.15021(5) 0.94541(4) 0.15122(3) 0.0469 Uani
O12A O 1.50600(5) 1.16422(4) 0.46958(3) 0.0466 Uani
O13A O 1.12570(5) 1.09850(4) 0.15062(3) 0.0478 Uani
O14A O 1.49665(5) 1.23481(4) 0.46921(3) 0.0475 Uani
O15A O 1.40949(5) 1.29957(4) 0.39209(3) 0.0473 Uani
O16A O 1.37721(5) 1.25844(4) 0.35816(3) 0.0473 Uani
Zn1B Zn 1.359883(8) 1.305905(8) 0.332380(5) 0.0345 Uani
Zn1L Zn 0.859883(8) 0.805905(8) 0.167620(5) 0.0345 Uani
Zn1M Zn 1.194095(8) 0.859883(8) 0.167620(5) 0.0345 Uani
Zn1N Zn 1.140117(8) 1.194095(8) 0.167620(5) 0.0345 Uani
Zn2B Zn 1.394941(8) 1.354082(8) 0.373913(5) 0.0351 Uani
Zn2L Zn 0.894941(8) 0.854082(8) 0.126087(5) 0.0351 Uani
Zn2M Zn 1.145918(8) 0.894941(8) 0.126087(5) 0.0351 Uani
Zn2N Zn 1.105059(8) 1.145918(8) 0.126087(5) 0.0351 Uani
Zn3A Zn 1.461120(12) 0.751372(10) 0.5000 0.0345 Uani
Zn3B Zn 1.248628(10) 0.461120(12) 0.5000 0.0345 Uani
Zn3C Zn 1.538880(12) 1.248628(10) 0.5000 0.0345 Uani
Zn4A Zn 1.448883(11) 0.834527(10) 0.5000 0.0337 Uani
Zn4B Zn 1.165473(10) 0.448883(11) 0.5000 0.0337 Uani
Zn4C Zn 1.551117(11) 1.165473(10) 0.5000 0.0337 Uani
O3J O 0.75040(4) 0.58274(5) 0.53087(3) 0.0453 Uani
O4J O 0.82081(4) 0.59269(5) 0.53130(3) 0.0458 Uani
O9L O 1.36051(4) 0.65297(5) 0.31324(3) 0.0484 Uani
O9O O 0.65297(5) 0.63949(4) 0.31324(3) 0.0484 Uani
O10L O 0.58310(4) 0.69331(5) 0.31448(3) 0.0461 Uani
O10M O 1.30669(5) 0.58310(4) 0.31448(3) 0.0461 Uani
O11L O 0.55459(4) 0.65021(5) 0.34878(3) 0.0469 Uani
O11M O 1.34979(5) 0.55459(4) 0.34878(3) 0.0469 Uani
O12B O 0.83578(4) 0.50600(5) 0.46958(3) 0.0466 Uani
O12H O 0.83578(4) 0.50600(5) 0.53042(3) 0.0466 Uani
O13L O 1.40150(4) 0.62570(5) 0.34938(3) 0.0478 Uani
O13O O 0.62570(5) 0.59850(4) 0.34938(3) 0.0478 Uani
O14B O 0.76519(4) 0.49665(5) 0.46921(3) 0.0475 Uani
O14H O 0.76519(4) 0.49665(5) 0.53079(3) 0.0475 Uani
O15C O 0.59051(5) 0.70043(4) 0.39209(3) 0.0473 Uani
O16C O 0.62279(5) 0.74156(4) 0.35816(3) 0.0473 Uani
loop_
_atom_site_aniso_label
_atom_site_aniso_U_11
_atom_site_aniso_U_22
_atom_site_aniso_U_33
_atom_site_aniso_U_23
_atom_site_aniso_U_13
_atom_site_aniso_U_12
Zn1 0.03409(13) 0.03433(13) 0.03507(12) 0.00645(9) 0.00745(9) 0.00334(9)
Zn2 0.03466(13) 0.03503(13) 0.03549(12) 0.00666(9) 0.00786(9) 0.00361(9)
Zn3 0.02727(16) 0.04619(19) 0.03006(15) 0.000 0.000 -0.00130(14)
Zn4 0.02743(16) 0.04439(19) 0.02915(15) 0.000 0.000 -0.00159(14)
O1 0.0355(7) 0.0627(9) 0.0452(7) 0.0198(7) -0.0006(6) 0.0028(6)
O2 0.0340(7) 0.0654(9) 0.0468(7) 0.0179(7) 0.0005(6) 0.0015(7)
O3 0.0370(7) 0.0586(9) 0.0402(6) 0.0161(6) 0.0003(5) 0.0001(6)
O4 0.0365(7) 0.0574(9) 0.0434(7) 0.0177(6) -0.0034(5) -0.0021(6)
O5 0.137(2) 0.1085(18) 0.0738(13) 0.0337(13) 0.0311(14) -0.0519(17)
O6 0.0950(16) 0.0896(14) 0.0746(12) 0.0433(11) 0.0321(11) -0.0162(12)
O7 0.0283(13) 0.124(3) 0.177(4) 0.000 0.000 -0.0153(16)
O8 0.0290(11) 0.104(2) 0.110(2) 0.000 0.000 -0.0155(13)
C1 0.0354(9) 0.0569(12) 0.0376(9) 0.0156(8) -0.0001(7) 0.0031(9)
C2 0.0356(9) 0.0510(11) 0.0293(8) 0.0067(7) -0.0006(7) 0.0041(8)
C3 0.0330(9) 0.0535(11) 0.0381(9) 0.0099(8) 0.0031(7) 0.0024(8)
C4 0.0329(9) 0.0577(12) 0.0427(9) 0.0152(9) -0.0009(8) 0.0057(9)
C5 0.0335(9) 0.0450(10) 0.0428(9) 0.0076(8) 0.0033(7) 0.0090(8)
C6 0.0342(10) 0.0874(18) 0.0570(12) 0.0391(12) 0.0043(9) 0.0090(11)
C7 0.0295(10) 0.0918(18) 0.0597(13) 0.0401(13) 0.0001(9) 0.0031(11)
C8 0.0289(10) 0.100(2) 0.0725(15) 0.0531(15) 0.0045(10) 0.0045(11)
N1 0.0282(10) 0.169(3) 0.111(2) 0.102(2) 0.0048(11) 0.0023(13)
N2 0.063(2) 0.442(9) 0.339(8) 0.331(8) 0.027(3) 0.034(4)
N3 0.080(3) 0.439(10) 0.308(7) 0.305(8) 0.059(4) 0.061(4)
C9 0.0360(12) 0.161(3) 0.093(2) 0.084(2) 0.0062(12) 0.0119(16)
C10 0.0309(12) 0.197(4) 0.125(3) 0.120(3) 0.0134(14) 0.0187(18)
C11 0.0357(12) 0.191(4) 0.114(3) 0.117(3) 0.0084(14) 0.0109(18)
C12 0.0312(12) 0.179(4) 0.118(3) 0.113(3) 0.0114(14) 0.0081(17)
C13 0.0339(12) 0.188(4) 0.124(3) 0.119(3) 0.0125(15) 0.0120(18)
C14 0.0357(12) 0.186(4) 0.110(2) 0.112(3) 0.0097(14) 0.0072(18)
C15 0.0369(13) 0.199(4) 0.112(3) 0.112(3) 0.0122(14) 0.0154(19)
C16 0.0413(14) 0.209(5) 0.133(3) 0.137(3) 0.0091(16) 0.019(2)
C17 0.0353(13) 0.183(4) 0.120(3) 0.112(3) 0.0110(14) 0.0197(18)
C18 0.0406(13) 0.144(3) 0.089(2) 0.077(2) 0.0063(13) -0.0001(16)
C19 0.0354(12) 0.192(4) 0.113(3) 0.116(3) 0.0128(14) 0.0071(18)
N4 0.0381(11) 0.185(3) 0.0891(17) 0.099(2) -0.0012(11) -0.0020(15)
N5 0.083(3) 0.509(11) 0.263(6) 0.301(8) 0.019(3) 0.034(5)
N6 0.063(2) 0.589(13) 0.270(6) 0.341(8) 0.016(3) 0.018(4)
C20 0.0425(13) 0.147(3) 0.101(2) 0.086(2) 0.0074(13) 0.0161(17)
N7 0.0331(10) 0.172(3) 0.131(2) 0.116(2) 0.0145(12) 0.0189(14)
N8 0.086(3) 0.486(11) 0.332(8) 0.342(8) 0.064(4) 0.086(5)
N9 0.083(3) 0.515(12) 0.362(9) 0.365(9) 0.070(4) 0.087(5)
C21 0.0332(9) 0.0509(11) 0.0456(10) 0.0133(8) -0.0018(8) -0.0008(8)
C22 0.0295(10) 0.0854(17) 0.0608(13) 0.0378(12) 0.0025(9) -0.0054(10)
C23 0.0320(10) 0.0897(18) 0.0557(12) 0.0341(12) -0.0013(9) -0.0067(11)
C24 0.0356(11) 0.107(2) 0.0636(14) 0.0525(15) 0.0012(10) -0.0031(12)
C25 0.0405(10) 0.0508(11) 0.0411(9) 0.0183(8) 0.0035(8) 0.0021(9)
C26 0.0359(11) 0.0831(17) 0.0652(14) 0.0435(13) 0.0070(9) 0.0053(11)
C27 0.0345(11) 0.102(2) 0.0768(16) 0.0546(16) 0.0052(10) 0.0078(12)
C28 0.0356(9) 0.0472(11) 0.0421(9) 0.0132(8) 0.0003(7) 0.0008(8)
C29 0.0357(9) 0.0454(10) 0.0418(9) 0.0117(8) 0.0006(7) -0.0026(8)
C30 0.0305(9) 0.0403(10) 0.0446(9) 0.0066(8) 0.0031(7) 0.0025(7)
C31 0.0337(9) 0.0498(11) 0.0450(10) 0.0164(8) 0.0042(8) -0.0019(8)
C32 0.0312(9) 0.0558(12) 0.0454(10) 0.0147(9) 0.0000(8) -0.0075(8)
C33 0.0355(9) 0.0443(10) 0.0418(9) 0.0100(8) -0.0012(7) -0.0083(8)
C34 0.0377(11) 0.0798(17) 0.0648(14) 0.0426(13) 0.0054(10) 0.0066(11)
C35 0.0398(10) 0.0493(11) 0.0314(8) 0.0092(8) 0.0002(7) 0.0005(9)
C36 0.0375(10) 0.0373(9) 0.0423(9) 0.0120(7) 0.0002(7) -0.0039(8)
O9 0.0334(7) 0.0662(9) 0.0457(7) 0.0187(7) 0.0001(6) -0.0089(7)
O10 0.0324(7) 0.0559(8) 0.0499(7) 0.0167(6) -0.0005(6) -0.0020(6)
O11 0.0360(7) 0.0551(8) 0.0495(8) 0.0161(6) -0.0016(6) -0.0023(6)
O12 0.0384(7) 0.0558(8) 0.0456(7) 0.0195(6) 0.0002(6) 0.0003(6)
O13 0.0356(7) 0.0612(9) 0.0467(7) 0.0192(7) -0.0014(6) -0.0086(6)
O14 0.0366(7) 0.0567(9) 0.0491(7) 0.0202(7) -0.0001(6) 0.0002(6)
O15 0.0349(7) 0.0570(9) 0.0500(7) 0.0193(6) 0.0013(6) -0.0033(6)
O16 0.0357(7) 0.0574(9) 0.0489(7) 0.0200(7) 0.0015(6) -0.0043(6)
Zn1A 0.03433 0.03409 0.03507 0.00745 -0.00645 -0.00334
Zn2A 0.03503 0.03466 0.03549 0.00786 -0.00666 -0.00361
O1A 0.0627 0.0355 0.0452 -0.0006 -0.0198 -0.0028
O2A 0.0654 0.034 0.0468 0.0005 -0.0179 -0.0015
O3A 0.0586 0.037 0.0402 0.0003 -0.0161 -0.0001
O4A 0.0574 0.0365 0.0434 -0.0034 -0.0177 0.0021
O5A 0.1085 0.137 0.0738 0.0311 -0.0337 0.0519
O6A 0.0896 0.095 0.0746 0.0321 -0.0433 0.0162
C1A 0.0569 0.0354 0.0376 -0.0001 -0.0156 -0.0031
C2A 0.051 0.0356 0.0293 -0.0006 -0.0067 -0.0041
C3A 0.0535 0.033 0.0381 0.0031 -0.0099 -0.0024
C4A 0.0577 0.0329 0.0427 -0.0009 -0.0152 -0.0057
C5A 0.045 0.0335 0.0428 0.0033 -0.0076 -0.009
C6A 0.0874 0.0342 0.057 0.0043 -0.0391 -0.009
C7A 0.0918 0.0295 0.0597 0.0001 -0.0401 -0.0031
C8A 0.1 0.0289 0.0725 0.0045 -0.0531 -0.0045
N1A 0.169 0.0282 0.111 0.0048 -0.102 -0.0023
N2A 0.442 0.063 0.339 0.027 -0.331 -0.034
N3A 0.439 0.08 0.308 0.059 -0.305 -0.061
C9A 0.161 0.036 0.093 0.0062 -0.084 -0.0119
C10A 0.197 0.0309 0.125 0.0134 -0.12 -0.0187
C11A 0.191 0.0357 0.114 0.0084 -0.117 -0.0109
C12A 0.179 0.0312 0.118 0.0114 -0.113 -0.0081
C13A 0.188 0.0339 0.124 0.0125 -0.119 -0.012
C14A 0.186 0.0357 0.11 0.0097 -0.112 -0.0072
C15A 0.199 0.0369 0.112 0.0122 -0.112 -0.0154
C16A 0.209 0.0413 0.133 0.0091 -0.137 -0.019
C17A 0.183 0.0353 0.12 0.011 -0.112 -0.0197
C18A 0.144 0.0406 0.089 0.0063 -0.077 0.0001
C19A 0.192 0.0354 0.113 0.0128 -0.116 -0.0071
N4A 0.185 0.0381 0.0891 -0.0012 -0.099 0.002
N5A 0.509 0.083 0.263 0.019 -0.301 -0.034
N6A 0.589 0.063 0.27 0.016 -0.341 -0.018
C20A 0.147 0.0425 0.101 0.0074 -0.086 -0.0161
N7A 0.172 0.0331 0.131 0.0145 -0.116 -0.0189
N8A 0.486 0.086 0.332 0.064 -0.342 -0.086
N9A 0.515 0.083 0.362 0.07 -0.365 -0.087
C21A 0.0509 0.0332 0.0456 -0.0018 -0.0133 0.0008
C22A 0.0854 0.0295 0.0608 0.0025 -0.0378 0.0054
C23A 0.0897 0.032 0.0557 -0.0013 -0.0341 0.0067
C24A 0.107 0.0356 0.0636 0.0012 -0.0525 0.0031
C25A 0.0508 0.0405 0.0411 0.0035 -0.0183 -0.0021
C26A 0.0831 0.0359 0.0652 0.007 -0.0435 -0.0053
C27A 0.102 0.0345 0.0768 0.0052 -0.0546 -0.0078
C28A 0.0472 0.0356 0.0421 0.0003 -0.0132 -0.0008
C29A 0.0454 0.0357 0.0418 0.0006 -0.0117 0.0026
C30A 0.0403 0.0305 0.0446 0.0031 -0.0066 -0.0025
C31A 0.0498 0.0337 0.045 0.0042 -0.0164 0.0019
C32A 0.0558 0.0312 0.0454 0 -0.0147 0.0075
C33A 0.0443 0.0355 0.0418 -0.0012 -0.01 0.0083
C34A 0.0798 0.0377 0.0648 0.0054 -0.0426 -0.0066
C35A 0.0493 0.0398 0.0314 0.0002 -0.0092 -0.0005
C36A 0.0373 0.0375 0.0423 0.0002 -0.012 0.0039
O9A 0.0662 0.0334 0.0457 0.0001 -0.0187 0.0089
O10A 0.0559 0.0324 0.0499 -0.0005 -0.0167 0.002
O11A 0.0551 0.036 0.0495 -0.0016 -0.0161 0.0023
O12A 0.0558 0.0384 0.0456 0.0002 -0.0195 -0.0003
O13A 0.0612 0.0356 0.0467 -0.0014 -0.0192 0.0086
O14A 0.0567 0.0366 0.0491 -0.0001 -0.0202 -0.0002
O15A 0.057 0.0349 0.05 0.0013 -0.0193 0.0033
O16A 0.0574 0.0357 0.0489 0.0015 -0.02 0.0043
Zn1B 0.03409 0.03433 0.03507 -0.00645 -0.00745 0.00334
Zn1L 0.03409 0.03433 0.03507 0.00645 0.00745 0.00334
Zn1M 0.03433 0.03409 0.03507 0.00745 -0.00645 -0.00334
Zn1N 0.03409 0.03433 0.03507 -0.00645 -0.00745 0.00334
Zn2B 0.03466 0.03503 0.03549 -0.00666 -0.00786 0.00361
Zn2L 0.03466 0.03503 0.03549 0.00666 0.00786 0.00361
Zn2M 0.03503 0.03466 0.03549 0.00786 -0.00666 -0.00361
Zn2N 0.03466 0.03503 0.03549 -0.00666 -0.00786 0.00361
Zn3A 0.04619 0.02727 0.03006 0 0 0.0013
Zn3B 0.02727 0.04619 0.03006 0 0 -0.0013
Zn3C 0.04619 0.02727 0.03006 0 0 0.0013
Zn4A 0.04439 0.02743 0.02915 0 0 0.00159
Zn4B 0.02743 0.04439 0.02915 0 0 -0.00159
Zn4C 0.04439 0.02743 0.02915 0 0 0.00159
O3J 0.037 0.0586 0.0402 -0.0161 -0.0003 0.0001
O4J 0.0365 0.0574 0.0434 -0.0177 0.0034 -0.0021
O9L 0.0334 0.0662 0.0457 0.0187 0.0001 -0.0089
O9O 0.0662 0.0334 0.0457 -0.0001 0.0187 0.0089
O10L 0.0324 0.0559 0.0499 0.0167 -0.0005 -0.002
O10M 0.0559 0.0324 0.0499 -0.0005 -0.0167 0.002
O11L 0.036 0.0551 0.0495 0.0161 -0.0016 -0.0023
O11M 0.0551 0.036 0.0495 -0.0016 -0.0161 0.0023
O12B 0.0384 0.0558 0.0456 -0.0195 -0.0002 0.0003
O12H 0.0384 0.0558 0.0456 0.0195 0.0002 0.0003
O13L 0.0356 0.0612 0.0467 0.0192 -0.0014 -0.0086
O13O 0.0612 0.0356 0.0467 0.0014 0.0192 0.0086
O14B 0.0366 0.0567 0.0491 -0.0202 0.0001 0.0002
O14H 0.0366 0.0567 0.0491 0.0202 -0.0001 0.0002
O15C 0.057 0.0349 0.05 -0.0013 0.0193 0.0033
O16C 0.0574 0.0357 0.0489 -0.0015 0.02 0.0043
loop_
_geom_bond_atom_site_label_1
_geom_bond_atom_site_label_2
_geom_bond_site_symmetry_1
_geom_bond_site_symmetry_2
Zn1 O1 1_555 1_555
Zn2 O2 1_555 1_555
Zn3 O3 1_555 1_555
Zn4 O4 1_555 1_555
O1 C5 1_555 1_555
O2 C5 1_555 1_555
O3 C2 1_555 1_555
O4 C2 1_555 1_555
O5 Zn2 1_555 1_555
H1 O5 1_555 1_555
O6 Zn1 1_555 1_555
H2 O6 1_555 1_555
O7 Zn3 1_555 1_555
H3 O7 1_555 1_555
O8 Zn4 1_555 1_555
H4 O8 1_555 1_555
C1 C2 1_555 1_555
C3 C1 1_555 1_555
H5 C3 1_555 1_555
C4 C3 1_555 1_555
C5 C4 1_555 1_555
C6 C4 1_555 1_555
H6 C6 1_555 1_555
C7 C1 1_555 1_555
H7 C7 1_555 1_555
C8 C6 1_555 1_555
N1 C8 1_555 1_555
N2 N1 1_555 1_555
N3 N2 1_555 1_555
C9 N1 1_555 1_555
H8 C9 1_555 1_555
C10 N3 1_555 1_555
C11 H9 1_555 1_555
C12 C10 1_555 1_555
C13 C12 1_555 1_555
H10 C13 1_555 1_555
C14 C11 1_555 1_555
C15 C14 1_555 1_555
H11 C15 1_555 1_555
C16 C17 1_555 1_555
C17 C13 1_555 1_555
C18 H12 1_555 1_555
C19 C14 1_555 1_555
N4 C18 1_555 1_555
N5 C19 1_555 1_555
N6 N4 1_555 1_555
C20 C16 1_555 1_555
H13 C20 1_555 1_555
N7 C20 1_555 1_555
N8 N7 1_555 1_555
N9 C16 1_555 1_555
C21 C22 1_555 1_555
C22 H14 1_555 1_555
C23 H15 1_555 1_555
C24 N4 1_555 1_555
C25 C26 1_555 1_555
C26 H16 1_555 1_555
C27 N7 1_555 1_555
C28 C25 1_555 1_555
H17 C28 1_555 1_555
C29 C21 1_555 1_555
H18 C29 1_555 1_555
C30 C21 1_555 1_555
C31 C28 1_555 1_555
C32 C23 1_555 1_555
C33 C32 1_555 1_555
C34 C27 1_555 1_555
H19 C34 1_555 1_555
C35 C25 1_555 1_555
C36 C31 1_555 1_555
O9 C33 1_555 1_555
O10 C30 1_555 1_555
O11 C30 1_555 1_555
O12 C35 1_555 1_555
O13 C33 1_555 1_555
O14 C35 1_555 1_555
O15 C36 1_555 1_555
O16 C36 1_555 1_555
H3J O7 1_555 1_555
H4J O8 1_555 1_555
Zn1A O16 1_555 1_555
Zn2A O15 1_555 1_555
O1A Zn1A 1_555 1_555
O2A Zn2A 1_555 1_555
O3A C2A 1_555 1_555
O4A C2A 1_555 1_555
O5A Zn2A 1_555 1_555
H1A O5A 1_555 1_555
O6A Zn1A 1_555 1_555
H2A O6A 1_555 1_555
C1A C2A 1_555 1_555
C3A C1A 1_555 1_555
H5A C3A 1_555 1_555
C4A C3A 1_555 1_555
C5A O1A 1_555 1_555
C6A C4A 1_555 1_555
H6A C6A 1_555 1_555
C7A C1A 1_555 1_555
H7A C7A 1_555 1_555
C8A C6A 1_555 1_555
N1A C8A 1_555 1_555
N2A N1A 1_555 1_555
N3A N2A 1_555 1_555
C9A N1A 1_555 1_555
H8A C9A 1_555 1_555
C10A N3A 1_555 1_555
C11A H9A 1_555 1_555
C12A C10A 1_555 1_555
C13A C12A 1_555 1_555
H10A C13A 1_555 1_555
C14A C11A 1_555 1_555
C15A C14A 1_555 1_555
H11A C15A 1_555 1_555
C16A C17A 1_555 1_555
C17A C13A 1_555 1_555
C18A H12A 1_555 1_555
C19A C14A 1_555 1_555
N4A C18A 1_555 1_555
N5A C19A 1_555 1_555
N6A N4A 1_555 1_555
C20A C16A 1_555 1_555
H13A C20A 1_555 1_555
N7A C20A 1_555 1_555
N8A N7A 1_555 1_555
N9A C16A 1_555 1_555
C21A C22A 1_555 1_555
C22A H14A 1_555 1_555
C23A H15A 1_555 1_555
C24A N4A 1_555 1_555
C25A C26A 1_555 1_555
C26A H16A 1_555 1_555
C27A N7A 1_555 1_555
C28A C25A 1_555 1_555
H17A C28A 1_555 1_555
C29A C21A 1_555 1_555
H18A C29A 1_555 1_555
C30A C21A 1_555 1_555
C31A C28A 1_555 1_555
C32A C23A 1_555 1_555
C33A C32A 1_555 1_555
C34A C27A 1_555 1_555
H19A C34A 1_555 1_555
C35A C25A 1_555 1_555
C36A C31A 1_555 1_555
O9A C33A 1_555 1_555
O10A C30A 1_555 1_555
O11A C30A 1_555 1_555
O12A C35A 1_555 1_555
O13A C33A 1_555 1_555
O14A C35A 1_555 1_555
O15A C36A 1_555 1_555
O16A C36A 1_555 1_555
Zn1B O16A 1_555 1_555
Zn1L O10 1_555 1_555
Zn1M O9 1_555 1_555
Zn1N O9A 1_555 1_555
Zn2B O15A 1_555 1_555
Zn2L O11 1_555 1_555
Zn2M O13 1_555 1_555
Zn2N O13A 1_555 1_555
Zn3A O3A 1_555 1_555
Zn3B O14 1_555 1_555
Zn3C O14A 1_555 1_555
Zn4A O4A 1_555 1_555
Zn4B O12 1_555 1_555
Zn4C O12A 1_555 1_555
O3J Zn3 1_555 1_555
O4J Zn4 1_555 1_555
O9L Zn1A 1_555 1_555
O9O Zn1 1_555 1_555
O10L Zn1 1_555 1_555
O10M Zn1A 1_555 1_555
O11L Zn2 1_555 1_555
O11M Zn2A 1_555 1_555
O12B Zn4 1_555 1_555
O12H Zn4 1_555 1_555
O13L Zn2A 1_555 1_555
O13O Zn2 1_555 1_555
O14B Zn3 1_555 1_555
O14H Zn3 1_555 1_555
O15C Zn2 1_555 1_555
O16C Zn1 1_555 1_555
C7 C8 1_555 1_555
C9 C10 1_555 1_555
C11 C12 1_555 1_555
C15 C17 1_555 1_555
C18 C19 1_555 1_555
N5 N6 1_555 1_555
N8 N9 1_555 1_555
C22 C24 1_555 1_555
C23 C24 1_555 1_555
C26 C27 1_555 1_555
C29 C32 1_555 1_555
C31 C34 1_555 1_555
O2A C5A 1_555 1_555
C4A C5A 1_555 1_555
C7A C8A 1_555 1_555
C9A C10A 1_555 1_555
C11A C12A 1_555 1_555
C15A C17A 1_555 1_555
C18A C19A 1_555 1_555
N5A N6A 1_555 1_555
N8A N9A 1_555 1_555
C22A C24A 1_555 1_555
C23A C24A 1_555 1_555
C26A C27A 1_555 1_555
C29A C32A 1_555 1_555
C31A C34A 1_555 1_555
O10A Zn1M 1_555 1_555
O11A Zn2M 1_555 1_555

#END
