
#######################################################################
#
#                 Cambridge Crystallographic Data Centre
#                                CCDC 
#
#######################################################################
#
# If this CIF has been generated from an entry in the Cambridge 
# Structural Database, then it will include bibliographic, chemical, 
# crystal, experimental, refinement or atomic coordinate data resulting 
# from the CCDC's data processing and validation procedures.
#
#######################################################################

data_ZICJOM
_chemical_formula_moiety         '(C40 H24 F4 N2 O8 Ru2)n'
_chemical_name_systematic        
catena-(tetrakis(\m~2~-4-Fluorobenzoato-O,O')-(\m~2~-phenazine)-di-ruthenium)
_symmetry_cell_setting           triclinic
_symmetry_space_group_name_H-M   'P -1'
_symmetry_Int_Tables_number      2
_space_group_name_Hall           '-P 1'
loop_
_symmetry_equiv_pos_site_id
_symmetry_equiv_pos_as_xyz
1 x,y,z
2 -x,-y,-z
_cell_length_a                   9.9825(8)
_cell_length_b                   10.9906(8)
_cell_length_c                   11.4527(7)
_cell_angle_alpha                65.866(5)
_cell_angle_beta                 66.143(6)
_cell_angle_gamma                65.088(7)
_cell_volume                     998.22
_cell_formula_units_Z            1
loop_
_atom_site_label
_atom_site_type_symbol
_atom_site_fract_x
_atom_site_fract_y
_atom_site_fract_z
_atom_site_U_iso_or_equiv
_atom_site_thermal_displace_type
C1 C 0.346(7) 0.731(6) 0.075(7) 0.0094 Uiso
C2 C 0.252(7) 0.863(6) 0.114(7) 0.0094 Uiso
C3 C 0.096(8) 0.898(7) 0.157(7) 0.0094 Uiso
C4 C 0.005(7) 1.018(7) 0.194(6) 0.0094 Uiso
C5 C 0.077(7) 1.101(6) 0.189(7) 0.0094 Uiso
C6 C 0.231(8) 1.073(7) 0.146(7) 0.0094 Uiso
C7 C 0.325(7) 0.953(7) 0.106(6) 0.0094 Uiso
C8 C 0.491(9) 0.331(8) 0.241(5) 0.0094 Uiso
C9 C 0.477(8) 0.246(6) 0.381(6) 0.0094 Uiso
C10 C 0.595(8) 0.211(8) 0.438(7) 0.0094 Uiso
C11 C 0.580(8) 0.134(7) 0.567(7) 0.0094 Uiso
C12 C 0.446(8) 0.091(5) 0.636(5) 0.0094 Uiso
C13 C 0.332(7) 0.129(7) 0.579(7) 0.0094 Uiso
C14 C 0.349(8) 0.206(7) 0.450(6) 0.0094 Uiso
O1 O 0.274(5) 0.664(4) 0.070(4) 0.0094 Uiso
O2 O 0.488(5) 0.694(5) 0.046(4) 0.0094 Uiso
O3 O 0.371(5) 0.389(4) 0.205(4) 0.0094 Uiso
O4 O 0.607(4) 0.370(5) 0.179(4) 0.0094 Uiso
F1 F -0.011(4) 1.218(3) 0.227(3) 0.0094 Uiso
F2 F 0.429(4) 0.010(3) 0.768(3) 0.0094 Uiso
Ru1 Ru 0.388(1) 0.489(1) 0.006(1) 0.0136 Uiso
H1 H 0.04924 0.83724 0.16065 0.0113 Uiso
H2 H -0.10392 1.04013 0.22458 0.0113 Uiso
H3 H 0.27839 1.13424 0.14169 0.0113 Uiso
H4 H 0.43367 0.93085 0.07603 0.0113 Uiso
H5 H 0.68477 0.23929 0.3901 0.0113 Uiso
H6 H 0.65854 0.10944 0.60673 0.0113 Uiso
H7 H 0.24239 0.1002 0.62682 0.0113 Uiso
H8 H 0.2706 0.23007 0.41015 0.0113 Uiso
C15 C 0.024(9) 0.505(7) 0.111(7) 0.0094 Uiso
C16 C 0.042(7) 0.516(7) 0.224(7) 0.0094 Uiso
C17 C -0.081(8) 0.567(6) 0.316(6) 0.0094 Uiso
C18 C -0.229(7) 0.606(7) 0.304(6) 0.0094 Uiso
C19 C -0.255(7) 0.597(6) 0.199(6) 0.0094 Uiso
C20 C -0.127(8) 0.546(7) 0.096(7) 0.0094 Uiso
N1 N 0.151(6) 0.457(5) 0.013(6) 0.0094 Uiso
H9 H 0.14249 0.48945 0.23249 0.0113 Uiso
H10 H -0.06606 0.57415 0.38959 0.0113 Uiso
H11 H -0.31596 0.64077 0.37062 0.0113 Uiso
H12 H -0.35555 0.62358 0.19087 0.0113 Uiso
C17A C 0.081(8) 0.433(6) -0.316(6) 0.0094 Uiso
C18A C 0.229(7) 0.394(7) -0.304(6) 0.0094 Uiso
C19A C 0.255(7) 0.403(6) -0.199(6) 0.0094 Uiso
C20A C 0.127(8) 0.454(7) -0.096(7) 0.0094 Uiso
H10A H 0.06606 0.42585 -0.38959 0.0113 Uiso
H11A H 0.31596 0.35923 -0.37062 0.0113 Uiso
H12A H 0.35555 0.37642 -0.19087 0.0113 Uiso
C15A C -0.024(9) 0.495(7) -0.111(7) 0.0094 Uiso
C16A C -0.042(7) 0.484(7) -0.224(7) 0.0094 Uiso
N1A N -0.151(6) 0.543(5) -0.013(6) 0.0094 Uiso
H9A H -0.14249 0.51055 -0.23249 0.0113 Uiso
C1A C -0.346(7) 0.269(6) -0.075(7) 0.0094 Uiso
C2A C -0.252(7) 0.137(6) -0.114(7) 0.0094 Uiso
C3A C -0.096(8) 0.102(7) -0.157(7) 0.0094 Uiso
C4A C -0.005(7) -0.018(7) -0.194(6) 0.0094 Uiso
C5A C -0.077(7) -0.101(6) -0.189(7) 0.0094 Uiso
C6A C -0.231(8) -0.073(7) -0.146(7) 0.0094 Uiso
C7A C -0.325(7) 0.047(7) -0.106(6) 0.0094 Uiso
C8A C -0.491(9) 0.669(8) -0.241(5) 0.0094 Uiso
C9A C -0.477(8) 0.754(6) -0.381(6) 0.0094 Uiso
C10A C -0.595(8) 0.789(8) -0.438(7) 0.0094 Uiso
C11A C -0.580(8) 0.866(7) -0.567(7) 0.0094 Uiso
C12A C -0.446(8) 0.909(5) -0.636(5) 0.0094 Uiso
C13A C -0.332(7) 0.871(7) -0.579(7) 0.0094 Uiso
C14A C -0.349(8) 0.794(7) -0.450(6) 0.0094 Uiso
O1A O -0.274(5) 0.336(4) -0.070(4) 0.0094 Uiso
O2A O -0.488(5) 0.306(5) -0.046(4) 0.0094 Uiso
O3A O -0.371(5) 0.611(4) -0.205(4) 0.0094 Uiso
O4A O -0.607(4) 0.630(5) -0.179(4) 0.0094 Uiso
F1A F 0.011(4) -0.218(3) -0.227(3) 0.0094 Uiso
F2A F -0.429(4) 0.990(3) -0.768(3) 0.0094 Uiso
Ru1A Ru -0.388(1) 0.511(1) -0.006(1) 0.0136 Uiso
H1A H -0.04924 0.16276 -0.16065 0.0113 Uiso
H2A H 0.10392 -0.04013 -0.22458 0.0113 Uiso
H3A H -0.27839 -0.13424 -0.14169 0.0113 Uiso
H4A H -0.43367 0.06915 -0.07603 0.0113 Uiso
H5A H -0.68477 0.76071 -0.3901 0.0113 Uiso
H6A H -0.65854 0.89056 -0.60673 0.0113 Uiso
H7A H -0.24239 0.8998 -0.62682 0.0113 Uiso
H8A H -0.2706 0.76993 -0.41015 0.0113 Uiso
O2_2 O -0.512(5) 0.694(5) 0.046(4) 0.0094 Uiso
O2A_2 O 0.512(5) 0.306(5) -0.046(4) 0.0094 Uiso
O4_2 O -0.393(4) 0.370(5) 0.179(4) 0.0094 Uiso
O4A_2 O 0.393(4) 0.630(5) -0.179(4) 0.0094 Uiso
Ru1_2 Ru -0.612(1) 0.489(1) 0.006(1) 0.0136 Uiso
Ru1A_2 Ru 0.612(1) 0.511(1) -0.006(1) 0.0136 Uiso
loop_
_geom_bond_atom_site_label_1
_geom_bond_atom_site_label_2
_geom_bond_site_symmetry_1
_geom_bond_site_symmetry_2
C1 C2 1_555 1_555
C2 C3 1_555 1_555
C3 C4 1_555 1_555
C4 C5 1_555 1_555
C5 C6 1_555 1_555
C6 C7 1_555 1_555
C7 C2 1_555 1_555
C8 C9 1_555 1_555
C9 C10 1_555 1_555
C10 C11 1_555 1_555
C11 C12 1_555 1_555
C12 C13 1_555 1_555
C13 C14 1_555 1_555
C14 C9 1_555 1_555
O1 C1 1_555 1_555
O2 C1 1_555 1_555
O3 C8 1_555 1_555
O4 C8 1_555 1_555
F1 C5 1_555 1_555
F2 C12 1_555 1_555
Ru1 O1 1_555 1_555
H1 C3 1_555 1_555
H2 C4 1_555 1_555
H3 C6 1_555 1_555
H4 C7 1_555 1_555
H5 C10 1_555 1_555
H6 C11 1_555 1_555
H7 C13 1_555 1_555
H8 C14 1_555 1_555
C15 C16 1_555 1_555
C16 C17 1_555 1_555
C17 C18 1_555 1_555
C18 C19 1_555 1_555
C19 C20 1_555 1_555
C20 C15 1_555 1_555
N1 Ru1 1_555 1_555
H9 C16 1_555 1_555
H10 C17 1_555 1_555
H11 C18 1_555 1_555
H12 C19 1_555 1_555
C17A C18A 1_555 1_555
C18A C19A 1_555 1_555
C19A C20A 1_555 1_555
C20A N1 1_555 1_555
H10A C17A 1_555 1_555
H11A C18A 1_555 1_555
H12A C19A 1_555 1_555
C15A C20A 1_555 1_555
C16A C17A 1_555 1_555
N1A C20 1_555 1_555
H9A C16A 1_555 1_555
C1A C2A 1_555 1_555
C2A C3A 1_555 1_555
C3A C4A 1_555 1_555
C4A C5A 1_555 1_555
C5A C6A 1_555 1_555
C6A C7A 1_555 1_555
C7A C2A 1_555 1_555
C8A C9A 1_555 1_555
C9A C10A 1_555 1_555
C10A C11A 1_555 1_555
C11A C12A 1_555 1_555
C12A C13A 1_555 1_555
C13A C14A 1_555 1_555
C14A C9A 1_555 1_555
O1A C1A 1_555 1_555
O2A C1A 1_555 1_555
O3A C8A 1_555 1_555
O4A C8A 1_555 1_555
F1A C5A 1_555 1_555
F2A C12A 1_555 1_555
Ru1A N1A 1_555 1_555
H1A C3A 1_555 1_555
H2A C4A 1_555 1_555
H3A C6A 1_555 1_555
H4A C7A 1_555 1_555
H5A C10A 1_555 1_555
H6A C11A 1_555 1_555
H7A C13A 1_555 1_555
H8A C14A 1_555 1_555
O2_2 Ru1A 1_555 1_555
O2A_2 Ru1 1_555 1_555
O4_2 Ru1A 1_555 1_555
O4A_2 Ru1 1_555 1_555
Ru1_2 O2A 1_555 1_555
Ru1A_2 O2 1_555 1_555
O3 Ru1 1_555 1_555
O4 Ru1A_2 1_555 1_555
Ru1 Ru1A_2 1_555 1_555
C15 N1 1_555 1_555
C15A C16A 1_555 1_555
C15A N1A 1_555 1_555
O1A Ru1A 1_555 1_555
O3A Ru1A 1_555 1_555
O4A Ru1_2 1_555 1_555
Ru1A Ru1_2 1_555 1_555

#END
