
#######################################################################
#
#                 Cambridge Crystallographic Data Centre
#                                CCDC 
#
#######################################################################
#
# If this CIF has been generated from an entry in the Cambridge 
# Structural Database, then it will include bibliographic, chemical, 
# crystal, experimental, refinement or atomic coordinate data resulting 
# from the CCDC's data processing and validation procedures.
#
#######################################################################

data_VEFLUP
_chemical_formula_moiety         '(C30 H34 Co2 N2 O14)n,2n(H2 O1)'
_chemical_name_systematic        
'catena-(bis(\m~2~-Aqua)-bis(\m~2~-naphthalene-2,6-dicarboxylato)-diaqua-bis(dimethylformamide)-di-cobalt dihydrate)'
_symmetry_cell_setting           triclinic
_symmetry_space_group_name_H-M   'P 1'
_symmetry_Int_Tables_number      1
_space_group_name_Hall           'P 1'
loop_
_symmetry_equiv_pos_site_id
_symmetry_equiv_pos_as_xyz
1 x,y,z
_cell_length_a                   8.002(4)
_cell_length_b                   9.091(4)
_cell_length_c                   12.935(6)
_cell_angle_alpha                107.805(7)
_cell_angle_beta                 100.042(7)
_cell_angle_gamma                104.106(7)
_cell_volume                     836.729
_cell_formula_units_Z            1
loop_
_atom_site_label
_atom_site_type_symbol
_atom_site_fract_x
_atom_site_fract_y
_atom_site_fract_z
Co1 Co 0.75027(7) 0.49728(6) 0.50011(5)
Co2 Co 1.25026(7) 0.49750(7) 0.50021(5)
O1 O 0.73998(18) 0.32447(15) 0.34781(12)
O2 O 0.44442(19) 0.20129(19) 0.27599(14)
O3 O 0.75994(18) -0.33154(17) -0.34642(12)
O4 O 1.0492(2) -0.2144(2) -0.27592(14)
O5 O 1.2078(2) 0.49345(17) 0.34259(12)
O6 O 1.0990(2) 0.69975(17) 0.35353(12)
O7 O 1.2865(2) 0.49503(17) -0.34257(12)
O8 O 1.3973(2) 0.29235(18) -0.35301(13)
O9 O 0.6943(2) 0.65115(16) 0.42282(12)
O10 O 0.8043(2) 0.34057(16) 0.57746(14)
O11 O 0.46438(16) 0.38958(14) 0.48047(11)
H1 H 0.4259 0.3184 0.4140
H2 H 0.4619 0.3362 0.5242
O12 O 1.03189(16) 0.60175(15) 0.52089(11)
H3 H 1.0697 0.6711 0.5879
H4 H 1.0351 0.6574 0.4787
O13 O 1.43760(19) 0.72821(16) 0.56046(14)
H5 H 1.4202 0.8146 0.5988
H6 H 1.5311 0.7216 0.5991
O14 O 1.0630(2) 0.26953(16) 0.43715(15)
H7 H 1.0899 0.1829 0.4123
H8 H 0.9836 0.2690 0.3838
N1 N 0.6623(2) 0.7532(2) 0.28463(16)
N2 N 0.8311(3) 0.2363(2) 0.71204(18)
C1 C 0.6021(2) 0.2288(2) 0.27069(14)
C2 C 0.6312(2) 0.12944(19) 0.16018(15)
C3 C 0.4826(3) 0.0197(2) 0.07394(16)
H9 H 0.3691 0.0052 0.0855
C4 C 0.5021(3) -0.0696(2) -0.03045(16)
H10 H 0.4025 -0.1359 -0.0905
C5 C 0.6740(3) -0.05626(19) -0.04170(15)
C6 C 0.8249(2) 0.0542(2) 0.04711(16)
C7 C 0.7996(3) 0.1438(2) 0.14444(17)
H11 H 0.8987 0.2172 0.2024
C8 C 0.6981(2) -0.1560(2) -0.14674(15)
H12 H 0.5988 -0.2299 -0.2043
C9 C 0.8649(3) -0.1412(2) -0.16072(16)
C10 C 1.0157(2) -0.0301(2) -0.06970(17)
H13 H 1.1301 -0.0222 -0.0784
C11 C 0.9980(2) 0.0613(2) 0.02575(18)
H14 H 1.1004 0.1332 0.0817
C12 C 0.8945(3) -0.2320(2) -0.26728(17)
C13 C 1.1622(3) 0.5939(2) 0.30233(16)
C14 C 1.1789(2) 0.5764(2) 0.18836(16)
C15 C 1.1084(3) 0.6628(2) 0.12604(18)
H15 H 1.0496 0.7337 0.1586
C16 C 1.1245(3) 0.6446(2) 0.02116(18)
H16 H 1.0765 0.7027 -0.0171
C17 C 1.2113(3) 0.54080(19) -0.03047(15)
C18 C 1.2843(3) 0.4543(2) 0.02901(16)
C19 C 1.2703(3) 0.4742(2) 0.13860(18)
H17 H 1.3219 0.4192 0.1781
C20 C 1.2368(3) 0.5219(2) -0.13810(15)
H18 H 1.1954 0.5828 -0.1766
C21 C 1.3190(3) 0.4185(2) -0.18651(17)
C22 C 1.3920(3) 0.3319(2) -0.12911(18)
H19 H 1.4516 0.2630 -0.1633
C23 C 1.3767(3) 0.3477(2) -0.02333(18)
H20 H 1.4257 0.2899 0.0148
C24 C 1.3365(3) 0.4010(3) -0.30560(17)
C25 C 0.7042(3) 0.6406(2) 0.3234(2)
C26 C 0.6044(3) 0.8845(3) 0.3533(2)
H21 H 0.5972 0.8712 0.4233
H22 H 0.4890 0.8791 0.3129
H23 H 0.6894 0.9884 0.3680
C27 C 0.6862(3) 0.7476(3) 0.17503(19)
H24 H 0.7247 0.6560 0.1425
H25 H 0.7748 0.8461 0.1834
H26 H 0.5748 0.7369 0.1267
C28 C 0.7955(2) 0.3403(2) 0.67050(18)
C29 C 0.8094(5) 0.2383(3) 0.8213(3)
H27 H 0.7631 0.3246 0.8535
H28 H 0.9232 0.2558 0.8702
H29 H 0.7276 0.1360 0.8127
C30 C 0.8942(4) 0.1106(3) 0.6564(3)
H30 H 0.9102 0.1191 0.5864
H31 H 0.8089 0.0070 0.6418
H32 H 1.0065 0.1200 0.7031
Co1_2 Co 0.75027(7) -0.50272(6) -0.49989(5)
Co2_2 Co 1.25026(7) 0.49750(7) -0.49979(5)
Co2_3 Co 0.25026(7) 0.49750(7) 0.50021(5)
O3_2 O 0.75994(18) 0.66846(17) 0.65358(12)
O7_2 O 1.2865(2) 0.49503(17) 0.65743(12)
O11_2 O 1.46438(16) 0.38958(14) 0.48047(11)
H1_2 H 1.4259 0.3184 0.4140
H2_2 H 1.4619 0.3362 0.5242
O15 O 1.3354(5) -0.0240(3) -0.3626(5)
H33 H 1.3258 0.0664 -0.3642
H34 H 1.2625 -0.0783 -0.3369
O16 O 0.1444(2) 0.00711(19) 0.32701(15)
H35 H 0.1757 -0.0541 0.3594
H36 H 0.1701 -0.0269 0.2648
loop_
_geom_bond_atom_site_label_1
_geom_bond_atom_site_label_2
_geom_bond_site_symmetry_1
_geom_bond_site_symmetry_2
Co1 O1 1_555 1_555
Co2 O5 1_555 1_555
O1 C1 1_555 1_555
O2 C1 1_555 1_555
O3 C12 1_555 1_555
O4 C12 1_555 1_555
O5 C13 1_555 1_555
O6 C13 1_555 1_555
O7 C24 1_555 1_555
O8 C24 1_555 1_555
O9 Co1 1_555 1_555
O10 Co1 1_555 1_555
O11 Co1 1_555 1_555
H1 O11 1_555 1_555
H2 O11 1_555 1_555
O12 Co1 1_555 1_555
H3 O12 1_555 1_555
H4 O12 1_555 1_555
O13 Co2 1_555 1_555
H5 O13 1_555 1_555
H6 O13 1_555 1_555
O14 Co2 1_555 1_555
H7 O14 1_555 1_555
H8 O14 1_555 1_555
N1 C25 1_555 1_555
N2 C28 1_555 1_555
C1 C2 1_555 1_555
C2 C3 1_555 1_555
C3 H9 1_555 1_555
C4 C3 1_555 1_555
H10 C4 1_555 1_555
C5 C4 1_555 1_555
C6 C5 1_555 1_555
C7 C2 1_555 1_555
H11 C7 1_555 1_555
C8 C5 1_555 1_555
H12 C8 1_555 1_555
C9 C8 1_555 1_555
C10 C9 1_555 1_555
H13 C10 1_555 1_555
C11 C6 1_555 1_555
H14 C11 1_555 1_555
C12 C9 1_555 1_555
C13 C14 1_555 1_555
C14 C15 1_555 1_555
C15 H15 1_555 1_555
C16 C15 1_555 1_555
H16 C16 1_555 1_555
C17 C16 1_555 1_555
C18 C17 1_555 1_555
C19 C14 1_555 1_555
H17 C19 1_555 1_555
C20 C17 1_555 1_555
H18 C20 1_555 1_555
C21 C20 1_555 1_555
C22 C21 1_555 1_555
H19 C22 1_555 1_555
C23 C18 1_555 1_555
H20 C23 1_555 1_555
C24 C21 1_555 1_555
C25 O9 1_555 1_555
C26 N1 1_555 1_555
H21 C26 1_555 1_555
H22 C26 1_555 1_555
H23 C26 1_555 1_555
C27 N1 1_555 1_555
H24 C27 1_555 1_555
H25 C27 1_555 1_555
H26 C27 1_555 1_555
C28 O10 1_555 1_555
C29 N2 1_555 1_555
H27 C29 1_555 1_555
H28 C29 1_555 1_555
H29 C29 1_555 1_555
C30 N2 1_555 1_555
H30 C30 1_555 1_555
H31 C30 1_555 1_555
H32 C30 1_555 1_555
O15 H33 1_555 1_555
H34 O15 1_555 1_555
O16 H35 1_555 1_555
H36 O16 1_555 1_555
Co1_2 O3 1_555 1_555
Co2_2 O7 1_555 1_555
Co2_3 O11 1_555 1_555
O3_2 Co1 1_555 1_555
O7_2 Co2 1_555 1_555
O11_2 Co2 1_555 1_555
H1_2 O11_2 1_555 1_555
H2_2 O11_2 1_555 1_555
Co2 O12 1_555 1_555
C6 C7 1_555 1_555
C10 C11 1_555 1_555
C18 C19 1_555 1_555
C22 C23 1_555 1_555

#END
