
#######################################################################
#
#                 Cambridge Crystallographic Data Centre
#                                CCDC 
#
#######################################################################
#
# If this CIF has been generated from an entry in the Cambridge 
# Structural Database, then it will include bibliographic, chemical, 
# crystal, experimental, refinement or atomic coordinate data resulting 
# from the CCDC's data processing and validation procedures.
#
#######################################################################

data_QIHXIQ
_chemical_formula_moiety         '(C76 H52 N6 O18 Zn7)n'
_chemical_name_systematic        
catena-[bis(\m~5~-biphenyl-4,4'-dicarboxylato)-bis(\m~4~-biphenyl-4,4'-dicarboxylato)-bis(\m~4~-oxido)-bis(\m~3~-4-(3,5-dimethyl-pyrazol-4-yl)pyridine)-hepta-zinc]
_symmetry_cell_setting           triclinic
_symmetry_space_group_name_H-M   'P -1'
_symmetry_Int_Tables_number      2
_space_group_name_Hall           '-P 1'
loop_
_symmetry_equiv_pos_site_id
_symmetry_equiv_pos_as_xyz
1 x,y,z
2 -x,-y,-z
_cell_length_a                   12.880(3)
_cell_length_b                   16.861(3)
_cell_length_c                   17.325(4)
_cell_angle_alpha                75.74(3)
_cell_angle_beta                 73.26(3)
_cell_angle_gamma                68.59(3)
_cell_volume                     3312.06
_cell_formula_units_Z            1
loop_
_atom_site_label
_atom_site_type_symbol
_atom_site_fract_x
_atom_site_fract_y
_atom_site_fract_z
Zn1 Zn 0.46949(4) 0.31808(3) 0.04999(3)
Zn2 Zn 0.35095(4) 0.44506(3) 0.17775(3)
Zn3 Zn 0.61571(4) 0.37509(3) 0.13867(3)
Zn4 Zn 0.5000 0.5000 0.0000
N1 N 0.2536(3) 0.3894(3) 0.1545(2)
N2 N 0.2979(3) 0.3443(3) 0.0918(3)
O1 O 0.4861(2) 0.40928(18) 0.09181(17)
O2 O 0.4222(3) 0.4645(2) -0.08254(19)
O3 O 0.5066(3) 0.3201(2) -0.0680(2)
O4 O 0.5650(3) 0.3835(2) -0.7421(2)
O5 O 0.3755(3) 0.4123(2) -0.71100(19)
O6 O 0.5720(3) 0.2035(2) 0.0841(2)
O7 O 0.6592(3) 0.2433(2) 0.1550(2)
O8 O 1.2820(3) -0.4307(2) 0.1739(2)
O9 O 1.3277(2) -0.4039(2) 0.03632(18)
C1 C 0.4618(4) 0.3948(3) -0.1103(2)
C2 C 0.4680(2) 0.3928(2) -0.60509(14)
C3 C 0.5692(2) 0.3755(2) -0.58112(16)
H1 H 0.6399 0.3646 -0.6201
C4 C 0.5671(2) 0.3741(3) -0.50014(18)
H2 H 0.6363 0.3623 -0.4838
C5 C 0.4637(3) 0.3901(3) -0.44312(14)
C6 C 0.3625(2) 0.4073(3) -0.46709(16)
H3 H 0.2919 0.4182 -0.4281
C7 C 0.3646(2) 0.4087(3) -0.54808(18)
H4 H 0.2955 0.4205 -0.5645
C8 C 1.1830(2) -0.29533(16) 0.10763(18)
C9 C 1.1315(3) -0.2662(2) 0.18220(15)
H5 H 1.1554 -0.3001 0.2304
C10 C 1.0451(3) -0.1873(2) 0.18630(15)
H6 H 1.0100 -0.1674 0.2373
C11 C 1.0102(3) -0.13760(17) 0.11583(19)
C12 C 1.0617(3) -0.16677(19) 0.04126(16)
H7 H 1.0378 -0.1328 -0.0069
C13 C 1.1481(3) -0.2456(2) 0.03716(15)
H8 H 1.1833 -0.2656 -0.0138
C14 C -0.00369(18) 0.3680(2) 0.12195(18)
C15 C -0.0662(2) 0.3310(2) 0.19168(16)
H9 H -0.0339 0.3039 0.2381
C16 C -0.1759(2) 0.3336(2) 0.19344(15)
H10 H -0.2186 0.3083 0.2411
N3 N -0.22321(17) 0.37322(19) 0.12547(16)
C17 C -0.1607(2) 0.4102(2) 0.05575(14)
H11 H -0.1930 0.4373 0.0093
C18 C -0.0510(2) 0.4076(2) 0.05398(15)
H12 H -0.0083 0.4330 0.0063
C19 C 0.4608(3) 0.3925(2) -0.19574(14)
C20 C 0.3709(2) 0.44868(19) -0.23093(17)
H13 H 0.3089 0.4880 -0.2003
C21 C 0.3716(2) 0.4472(2) -0.31097(17)
H14 H 0.3101 0.4856 -0.3350
C22 C 0.4623(3) 0.3896(2) -0.35581(14)
C23 C 0.5523(3) 0.3335(2) -0.32061(18)
H15 H 0.6143 0.2941 -0.3513
C24 C 0.5515(2) 0.3349(2) -0.24058(18)
H16 H 0.6130 0.2965 -0.2165
C25 C 0.8201(3) 0.08197(19) 0.1697(2)
H17 H 0.8168 0.1215 0.2018
C26 C 0.9080(3) 0.0038(2) 0.1672(2)
H18 H 0.9648 -0.0102 0.1976
C27 C 0.9128(3) -0.05403(17) 0.1202(2)
C28 C 0.8297(3) -0.0336(2) 0.0758(2)
H19 H 0.8330 -0.0731 0.0437
C29 C 0.7418(3) 0.0446(2) 0.0782(2)
H20 H 0.6851 0.0586 0.0478
C30 C 0.7370(2) 0.10241(16) 0.1252(2)
C31 C 0.4711(4) 0.3954(3) -0.6925(3)
C32 C 0.6481(4) 0.1905(3) 0.1215(3)
C33 C 1.2705(4) -0.3822(3) 0.1039(3)
C34 C 0.0646(6) 0.4534(6) 0.2424(5)
H21 H 0.1119 0.4699 0.2670
H22 H 0.0250 0.4166 0.2838
H23 H 0.0082 0.5054 0.2213
C35 C 0.1406(4) 0.4040(4) 0.1724(4)
C36 C 0.1130(4) 0.3685(3) 0.1209(3)
C37 C 0.2187(4) 0.3311(4) 0.0701(3)
C38 C 0.2373(6) 0.2889(7) -0.0027(6)
H24 H 0.3193 0.2687 -0.0272
H25 H 0.1969 0.3309 -0.0431
H26 H 0.2079 0.2398 0.0153
Zn1A Zn 0.53051(4) 0.68192(3) -0.04999(3)
Zn2A Zn 0.64905(4) 0.55494(3) -0.17775(3)
Zn3A Zn 0.38429(4) 0.62491(3) -0.13867(3)
N1A N 0.7464(3) 0.6106(3) -0.1545(2)
N2A N 0.7021(3) 0.6557(3) -0.0918(3)
O1A O 0.5139(2) 0.59072(18) -0.09181(17)
O2A O 0.5778(3) 0.5355(2) 0.08254(19)
O3A O 0.4934(3) 0.6799(2) 0.0680(2)
O4A O 0.4350(3) 0.6165(2) 0.7421(2)
O5A O 0.6245(3) 0.5877(2) 0.71100(19)
O6A O 0.4280(3) 0.7965(2) -0.0841(2)
O7A O 0.3408(3) 0.7567(2) -0.1550(2)
O8A O -0.2820(3) 1.4307(2) -0.1739(2)
O9A O -0.3277(2) 1.4039(2) -0.03632(18)
C1A C 0.5382(4) 0.6052(3) 0.1103(2)
C2A C 0.5320(2) 0.6072(2) 0.60509(14)
C3A C 0.4308(2) 0.6245(2) 0.58112(16)
H1A H 0.3601 0.6354 0.6201
C4A C 0.4329(2) 0.6259(3) 0.50014(18)
H2A H 0.3637 0.6377 0.4838
C5A C 0.5363(3) 0.6099(3) 0.44312(14)
C6A C 0.6375(2) 0.5927(3) 0.46709(16)
H3A H 0.7081 0.5818 0.4281
C7A C 0.6354(2) 0.5913(3) 0.54808(18)
H4A H 0.7045 0.5795 0.5645
C8A C -0.1830(2) 1.29533(16) -0.10763(18)
C9A C -0.1315(3) 1.2662(2) -0.18220(15)
H5A H -0.1554 1.3001 -0.2304
C10A C -0.0451(3) 1.1873(2) -0.18630(15)
H6A H -0.0100 1.1674 -0.2373
C11A C -0.0102(3) 1.13760(17) -0.11583(19)
C12A C -0.0617(3) 1.16677(19) -0.04126(16)
H7A H -0.0378 1.1328 0.0069
C13A C -0.1481(3) 1.2456(2) -0.03716(15)
H8A H -0.1833 1.2656 0.0138
C14A C 1.00369(18) 0.6320(2) -0.12195(18)
C15A C 1.0662(2) 0.6690(2) -0.19168(16)
H9A H 1.0339 0.6961 -0.2381
C16A C 1.1759(2) 0.6664(2) -0.19344(15)
H10A H 1.2186 0.6917 -0.2411
N3A N 1.22321(17) 0.62678(19) -0.12547(16)
C17A C 1.1607(2) 0.5898(2) -0.05575(14)
H11A H 1.1930 0.5627 -0.0093
C18A C 1.0510(2) 0.5924(2) -0.05398(15)
H12A H 1.0083 0.5670 -0.0063
C19A C 0.5392(3) 0.6075(2) 0.19574(14)
C20A C 0.6291(2) 0.55132(19) 0.23093(17)
H13A H 0.6911 0.5120 0.2003
C21A C 0.6284(2) 0.5528(2) 0.31097(17)
H14A H 0.6899 0.5144 0.3350
C22A C 0.5377(3) 0.6104(2) 0.35581(14)
C23A C 0.4477(3) 0.6665(2) 0.32061(18)
H15A H 0.3857 0.7059 0.3513
C24A C 0.4485(2) 0.6651(2) 0.24058(18)
H16A H 0.3870 0.7035 0.2165
C25A C 0.1799(3) 0.91803(19) -0.1697(2)
H17A H 0.1832 0.8785 -0.2018
C26A C 0.0920(3) 0.9962(2) -0.1672(2)
H18A H 0.0352 1.0102 -0.1976
C27A C 0.0872(3) 1.05403(17) -0.1202(2)
C28A C 0.1703(3) 1.0336(2) -0.0758(2)
H19A H 0.1670 1.0731 -0.0437
C29A C 0.2582(3) 0.9554(2) -0.0782(2)
H20A H 0.3149 0.9414 -0.0478
C30A C 0.2630(2) 0.89759(16) -0.1252(2)
C31A C 0.5289(4) 0.6046(3) 0.6925(3)
C32A C 0.3519(4) 0.8095(3) -0.1215(3)
C33A C -0.2705(4) 1.3822(3) -0.1039(3)
C34A C 0.9354(6) 0.5466(6) -0.2424(5)
H21A H 0.8881 0.5301 -0.2670
H22A H 0.9750 0.5834 -0.2838
H23A H 0.9918 0.4946 -0.2213
C35A C 0.8594(4) 0.5960(4) -0.1724(4)
C36A C 0.8870(4) 0.6315(3) -0.1209(3)
C37A C 0.7813(4) 0.6689(4) -0.0701(3)
C38A C 0.7627(6) 0.7111(7) 0.0027(6)
H24A H 0.6807 0.7313 0.0272
H25A H 0.8031 0.6691 0.0431
H26A H 0.7921 0.7602 -0.0153
Zn2_2 Zn 0.35095(4) 0.44506(3) -0.82225(3)
Zn2_3 Zn 1.35095(4) -0.55494(3) 0.17775(3)
Zn2A_2 Zn -0.35095(4) 1.55494(3) -0.17775(3)
Zn2A_3 Zn 0.64905(4) 0.55494(3) 0.82225(3)
Zn3_2 Zn -0.38429(4) 0.37509(3) 0.13867(3)
Zn3_3 Zn 0.61571(4) 0.37509(3) -0.86133(3)
Zn3A_2 Zn 0.38429(4) 0.62491(3) 0.86133(3)
Zn3A_3 Zn 1.38429(4) 0.62491(3) -0.13867(3)
Zn4_2 Zn -0.5000 1.5000 0.0000
Zn4_3 Zn 1.5000 -0.5000 0.0000
O4_2 O 0.5650(3) 0.3835(2) 0.2579(2)
O4A_2 O 0.4350(3) 0.6165(2) -0.2579(2)
O5_2 O 0.3755(3) 0.4123(2) 0.28900(19)
O5A_2 O 0.6245(3) 0.5877(2) -0.28900(19)
O8_2 O 0.2820(3) 0.5693(2) 0.1739(2)
O8A_2 O 0.7180(3) 0.4307(2) -0.1739(2)
O9_2 O 0.3277(2) 0.5961(2) 0.03632(18)
O9A_2 O 0.6723(2) 0.4039(2) -0.03632(18)
N3_2 N 0.77679(17) 0.37322(19) 0.12547(16)
N3A_2 N 0.22321(17) 0.62678(19) -0.12547(16)
loop_
_geom_bond_atom_site_label_1
_geom_bond_atom_site_label_2
_geom_bond_site_symmetry_1
_geom_bond_site_symmetry_2
Zn1 N2 1_555 1_555
Zn2 N1 1_555 1_555
Zn3 O1 1_555 1_555
Zn4 O1 1_555 1_555
N1 N2 1_555 1_555
N2 C37 1_555 1_555
O1 Zn1 1_555 1_555
O2 Zn4 1_555 1_555
O3 Zn1 1_555 1_555
O4 C31 1_555 1_555
O5 C31 1_555 1_555
O6 Zn1 1_555 1_555
O7 Zn3 1_555 1_555
O8 C33 1_555 1_555
O9 C33 1_555 1_555
C1 O2 1_555 1_555
C2 C3 1_555 1_555
C3 H1 1_555 1_555
C4 C3 1_555 1_555
H2 C4 1_555 1_555
C5 C4 1_555 1_555
C6 C5 1_555 1_555
H3 C6 1_555 1_555
C7 C2 1_555 1_555
H4 C7 1_555 1_555
C8 C9 1_555 1_555
C9 H5 1_555 1_555
C10 C9 1_555 1_555
H6 C10 1_555 1_555
C11 C10 1_555 1_555
C12 C11 1_555 1_555
H7 C12 1_555 1_555
C13 C8 1_555 1_555
H8 C13 1_555 1_555
C14 C15 1_555 1_555
C15 H9 1_555 1_555
C16 C15 1_555 1_555
H10 C16 1_555 1_555
N3 C16 1_555 1_555
C17 N3 1_555 1_555
H11 C17 1_555 1_555
C18 C14 1_555 1_555
H12 C18 1_555 1_555
C19 C1 1_555 1_555
C20 C19 1_555 1_555
H13 C20 1_555 1_555
C21 C20 1_555 1_555
H14 C21 1_555 1_555
C22 C5 1_555 1_555
C23 C22 1_555 1_555
H15 C23 1_555 1_555
C24 C19 1_555 1_555
H16 C24 1_555 1_555
C25 H17 1_555 1_555
C26 C25 1_555 1_555
H18 C26 1_555 1_555
C27 C11 1_555 1_555
C28 C27 1_555 1_555
H19 C28 1_555 1_555
C29 C28 1_555 1_555
H20 C29 1_555 1_555
C30 C25 1_555 1_555
C31 C2 1_555 1_555
C32 O6 1_555 1_555
C33 C8 1_555 1_555
C34 H21 1_555 1_555
H22 C34 1_555 1_555
H23 C34 1_555 1_555
C35 N1 1_555 1_555
C36 C14 1_555 1_555
C37 C36 1_555 1_555
C38 C37 1_555 1_555
H24 C38 1_555 1_555
H25 C38 1_555 1_555
H26 C38 1_555 1_555
Zn1A N2A 1_555 1_555
Zn2A N1A 1_555 1_555
Zn3A O2 1_555 1_555
N1A N2A 1_555 1_555
N2A C37A 1_555 1_555
O1A Zn4 1_555 1_555
O2A Zn3 1_555 1_555
O3A Zn1A 1_555 1_555
O4A C31A 1_555 1_555
O5A C31A 1_555 1_555
O6A Zn1A 1_555 1_555
O7A Zn3A 1_555 1_555
O8A C33A 1_555 1_555
O9A C33A 1_555 1_555
C1A O2A 1_555 1_555
C2A C3A 1_555 1_555
C3A H1A 1_555 1_555
C4A C3A 1_555 1_555
H2A C4A 1_555 1_555
C5A C4A 1_555 1_555
C6A C5A 1_555 1_555
H3A C6A 1_555 1_555
C7A C2A 1_555 1_555
H4A C7A 1_555 1_555
C8A C9A 1_555 1_555
C9A H5A 1_555 1_555
C10A C9A 1_555 1_555
H6A C10A 1_555 1_555
C11A C10A 1_555 1_555
C12A C11A 1_555 1_555
H7A C12A 1_555 1_555
C13A C8A 1_555 1_555
H8A C13A 1_555 1_555
C14A C15A 1_555 1_555
C15A H9A 1_555 1_555
C16A C15A 1_555 1_555
H10A C16A 1_555 1_555
N3A C16A 1_555 1_555
C17A N3A 1_555 1_555
H11A C17A 1_555 1_555
C18A C14A 1_555 1_555
H12A C18A 1_555 1_555
C19A C1A 1_555 1_555
C20A C19A 1_555 1_555
H13A C20A 1_555 1_555
C21A C20A 1_555 1_555
H14A C21A 1_555 1_555
C22A C5A 1_555 1_555
C23A C22A 1_555 1_555
H15A C23A 1_555 1_555
C24A C19A 1_555 1_555
H16A C24A 1_555 1_555
C25A H17A 1_555 1_555
C26A C25A 1_555 1_555
H18A C26A 1_555 1_555
C27A C11A 1_555 1_555
C28A C27A 1_555 1_555
H19A C28A 1_555 1_555
C29A C28A 1_555 1_555
H20A C29A 1_555 1_555
C30A C25A 1_555 1_555
C31A C2A 1_555 1_555
C32A O6A 1_555 1_555
C33A C8A 1_555 1_555
C34A H21A 1_555 1_555
H22A C34A 1_555 1_555
H23A C34A 1_555 1_555
C35A N1A 1_555 1_555
C36A C14A 1_555 1_555
C37A C36A 1_555 1_555
C38A C37A 1_555 1_555
H24A C38A 1_555 1_555
H25A C38A 1_555 1_555
H26A C38A 1_555 1_555
Zn2_2 O5 1_555 1_555
Zn2_3 O8 1_555 1_555
Zn2A_2 O8A 1_555 1_555
Zn2A_3 O5A 1_555 1_555
Zn3_2 N3 1_555 1_555
Zn3_3 O4 1_555 1_555
Zn3A_2 O4A 1_555 1_555
Zn3A_3 N3A 1_555 1_555
Zn4_2 O9A 1_555 1_555
Zn4_3 O9 1_555 1_555
O4_2 Zn3 1_555 1_555
O4A_2 Zn3A 1_555 1_555
O5_2 Zn2 1_555 1_555
O5A_2 Zn2A 1_555 1_555
O8_2 Zn2 1_555 1_555
O8A_2 Zn2A 1_555 1_555
O9_2 Zn4 1_555 1_555
O9A_2 Zn4 1_555 1_555
N3_2 Zn3 1_555 1_555
N3A_2 Zn3A 1_555 1_555
Zn2 O1 1_555 1_555
Zn4 O2A 1_555 1_555
O3 C1 1_555 1_555
O7 C32 1_555 1_555
C6 C7 1_555 1_555
C12 C13 1_555 1_555
C17 C18 1_555 1_555
C21 C22 1_555 1_555
C23 C24 1_555 1_555
C26 C27 1_555 1_555
C29 C30 1_555 1_555
C30 C32 1_555 1_555
C34 C35 1_555 1_555
C35 C36 1_555 1_555
Zn1A O1A 1_555 1_555
Zn2A O1A 1_555 1_555
Zn3A O1A 1_555 1_555
O3A C1A 1_555 1_555
O7A C32A 1_555 1_555
C6A C7A 1_555 1_555
C12A C13A 1_555 1_555
C17A C18A 1_555 1_555
C21A C22A 1_555 1_555
C23A C24A 1_555 1_555
C26A C27A 1_555 1_555
C29A C30A 1_555 1_555
C30A C32A 1_555 1_555
C34A C35A 1_555 1_555
C35A C36A 1_555 1_555

#END
