
#######################################################################
#
#                 Cambridge Crystallographic Data Centre
#                                CCDC 
#
#######################################################################
#
# If this CIF has been generated from an entry in the Cambridge 
# Structural Database, then it will include bibliographic, chemical, 
# crystal, experimental, refinement or atomic coordinate data resulting 
# from the CCDC's data processing and validation procedures.
#
#######################################################################

data_PUSDIR
_chemical_formula_moiety         
'(C40 H24 N2 O10 Zn2)n,2n(C5 H11 N1 O1),2n(C1 H4 O1)'
_chemical_name_systematic        
"catena-((\m~4~-Benzophenone-4,4'-dicarboxylato-O,O,O',O'')-(\m~3~-benzophenone-4,4'-dicarboxylato-O,O',O'',O''')-(\m~2~-4,4'-bipyridine)-di-zinc(ii) N,N-diethylformamide methanol solvate)"
_symmetry_cell_setting           monoclinic
_symmetry_space_group_name_H-M   'C 2/c'
_symmetry_Int_Tables_number      15
_space_group_name_Hall           '-C 2yc'
loop_
_symmetry_equiv_pos_site_id
_symmetry_equiv_pos_as_xyz
1 x,y,z
2 -x,y,1/2-z
3 1/2+x,1/2+y,z
4 1/2-x,1/2+y,1/2-z
5 -x,-y,-z
6 x,-y,1/2+z
7 1/2-x,1/2-y,-z
8 1/2+x,1/2-y,1/2+z
_cell_length_a                   21.687(4)
_cell_length_b                   17.754(4)
_cell_length_c                   26.041(5)
_cell_angle_alpha                90
_cell_angle_beta                 103.95(3)
_cell_angle_gamma                90
_cell_volume                     9730.87
_exptl_crystal_colour            colorless
_exptl_crystal_description       prism
_cell_formula_units_Z            8
loop_
_atom_site_label
_atom_site_type_symbol
_atom_site_fract_x
_atom_site_fract_y
_atom_site_fract_z
Zn1 Zn 0.959070(19) 0.15741(2) 0.087431(15)
Zn2 Zn 0.875386(19) 0.30428(2) 0.068677(15)
O1 O 0.96222(12) 0.10254(15) 0.16005(9)
O2 O 0.91830(12) 0.04214(15) 0.08620(9)
O3 O 0.93550(12) -0.18474(16) 0.50946(10)
O4 O 0.86070(12) 0.20021(15) 0.09201(10)
O5 O 0.85791(14) 0.27423(16) 0.16012(10)
O6 O 0.75462(14) -0.04308(19) 0.27673(11)
O7 O 0.50414(12) -0.25153(15) 0.12488(10)
O8 O 0.86552(13) -0.27985(16) 0.49321(10)
O9 O 0.45475(12) -0.14326(16) 0.09695(11)
N1 N 1.04333(15) 0.10620(19) 0.07845(11)
N2 N 1.30441(14) -0.12291(18) 0.06442(11)
C1 C 0.81744(18) 0.1500(2) 0.16185(14)
C2 C 0.89975(19) -0.0658(2) 0.24925(15)
H1 H 0.8993 -0.0581 0.2845
C3 C 1.20086(18) -0.0761(2) 0.02400(14)
H2 H 1.1653 -0.0772 -0.0043
C4 C 1.25192(18) -0.1221(2) 0.02426(14)
H3 H 1.2502 -0.154 -0.0044
C5 C 0.84828(18) 0.2124(2) 0.13836(14)
C6 C 0.81435(19) 0.1543(2) 0.21445(15)
H4 H 0.8325 0.1952 0.2349
C7 C 0.91913(18) -0.0193(2) 0.16786(14)
C8 C 0.91914(18) -0.0084(2) 0.22047(14)
H5 H 0.9322 0.0376 0.2366
C9 C 0.50165(18) -0.1805(2) 0.12266(15)
C10 C 0.56828(19) -0.0646(2) 0.13798(15)
H6 H 0.5376 -0.0398 0.1125
C11 C 0.75864(18) 0.0340(2) 0.15268(15)
H7 H 0.7391 -0.0057 0.1317
C12 C 0.9346(2) -0.1866(2) 0.39923(15)
H8 H 0.9729 -0.1716 0.4216
C13 C 0.8809(2) -0.1352(3) 0.22524(15)
C14 C 0.89700(18) -0.2281(2) 0.47897(14)
O10 O 0.8171(3) -0.2408(3) 0.22636(14)
C15 C 0.9024(2) -0.0890(3) 0.14448(15)
H9 H 0.904 -0.0972 0.1095
C16 C 0.78987(17) 0.0887(2) 0.13115(14)
H10 H 0.7926 0.0848 0.0962
C17 C 0.75620(17) 0.0379(2) 0.20573(14)
C18 C 0.6687(2) -0.0625(2) 0.20232(15)
C19 C 1.20286(17) -0.0281(2) 0.06630(14)
C20 C 0.78521(18) 0.0996(2) 0.23641(14)
H11 H 0.7844 0.1027 0.2719
C21 C 0.62418(18) -0.0276(2) 0.16324(15)
H12 H 0.6313 0.0214 0.1534
C22 C 1.30663(19) -0.0754(2) 0.10454(15)
H13 H 1.343 -0.0747 0.1322
C23 C 1.1014(2) 0.0403(3) 0.02650(16)
H14 H 1.1043 0.0253 -0.0071
C24 C 0.93475(17) 0.0446(2) 0.13614(14)
C25 C 1.14759(18) 0.0196(2) 0.07008(14)
C26 C 0.8875(2) -0.2166(2) 0.42045(15)
C27 C 1.25779(18) -0.0276(2) 0.10684(14)
H15 H 1.2614 0.005 0.1354
C28 C 0.55878(19) -0.1384(2) 0.15116(15)
C29 C 0.6032(3) -0.1722(3) 0.1919(2)
H16 H 0.5967 -0.2214 0.2016
C30 C 0.72830(19) -0.0237(2) 0.23174(15)
C31 C 1.0510(2) 0.0830(3) 0.03247(15)
H17 H 1.0205 0.0964 0.0022
C32 C 0.8293(2) -0.2368(3) 0.38752(17)
H18 H 0.7972 -0.2562 0.4019
C33 C 1.1393(2) 0.0410(3) 0.11930(16)
H19 H 1.1681 0.0258 0.1501
C34 C 1.0878(2) 0.0849(3) 0.12191(16)
H20 H 1.0835 0.1005 0.1549
C35 C 0.8537(3) -0.1936(3) 0.25256(18)
C36 C 0.8669(3) -0.1988(3) 0.31113(17)
C37 C 0.6568(2) -0.1339(3) 0.2182(2)
H21 H 0.6849 -0.1563 0.2467
C38 C 0.8836(3) -0.1458(3) 0.17282(17)
H22 H 0.8724 -0.1923 0.1568
C39 C 0.9254(2) -0.1784(3) 0.34448(16)
H23 H 0.9578 -0.1597 0.3303
C40 C 0.8193(3) -0.2280(4) 0.33331(19)
H24 H 0.7804 -0.2416 0.3113
Zn1E Zn 0.959070(19) -0.15741(2) 0.587431(15)
Zn1B Zn 0.459070(19) -0.34259(2) 0.087431(15)
Zn2E Zn 0.875386(19) -0.30428(2) 0.568677(15)
Zn2B Zn 0.375386(19) -0.19572(2) 0.068677(15)
Zn2B_2 Zn 1.375386(19) -0.19572(2) 0.068677(15)
O3E O 0.93550(12) 0.18474(16) 0.00946(10)
O7B O 1.00414(12) 0.24847(15) 0.12488(10)
O8E O 0.86552(13) 0.27985(16) -0.00679(10)
O9B O 0.95475(12) 0.35674(16) 0.09695(11)
N2B N 0.80441(14) 0.37709(18) 0.06442(11)
loop_
_geom_bond_atom_site_label_1
_geom_bond_atom_site_label_2
_geom_bond_site_symmetry_1
_geom_bond_site_symmetry_2
Zn1 O1 1_555 1_555
Zn2 O4 1_555 1_555
O1 C24 1_555 1_555
O2 Zn1 1_555 1_555
O3 C14 1_555 1_555
O4 Zn1 1_555 1_555
O5 C5 1_555 1_555
O6 C30 1_555 1_555
O7 C9 1_555 1_555
O8 C14 1_555 1_555
O9 C9 1_555 1_555
N1 Zn1 1_555 1_555
N2 C4 1_555 1_555
C1 C5 1_555 1_555
C2 H1 1_555 1_555
C3 H2 1_555 1_555
C4 C3 1_555 1_555
H3 C4 1_555 1_555
C5 O4 1_555 1_555
C6 C1 1_555 1_555
H4 C6 1_555 1_555
C7 C8 1_555 1_555
C8 C2 1_555 1_555
H5 C8 1_555 1_555
C9 C28 1_555 1_555
C10 H6 1_555 1_555
C11 H7 1_555 1_555
C12 H8 1_555 1_555
C13 C2 1_555 1_555
C14 C26 1_555 1_555
O10 C35 1_555 1_555
C15 C7 1_555 1_555
H9 C15 1_555 1_555
C16 C1 1_555 1_555
H10 C16 1_555 1_555
C17 C11 1_555 1_555
C18 C21 1_555 1_555
C19 C3 1_555 1_555
C20 C6 1_555 1_555
H11 C20 1_555 1_555
C21 C10 1_555 1_555
H12 C21 1_555 1_555
C22 N2 1_555 1_555
H13 C22 1_555 1_555
C23 H14 1_555 1_555
C24 O2 1_555 1_555
C25 C19 1_555 1_555
C26 C12 1_555 1_555
C27 C19 1_555 1_555
H15 C27 1_555 1_555
C28 C10 1_555 1_555
C29 C28 1_555 1_555
H16 C29 1_555 1_555
C30 C17 1_555 1_555
C31 N1 1_555 1_555
H17 C31 1_555 1_555
C32 C26 1_555 1_555
H18 C32 1_555 1_555
C33 C25 1_555 1_555
H19 C33 1_555 1_555
C34 N1 1_555 1_555
H20 C34 1_555 1_555
C35 C13 1_555 1_555
C36 C35 1_555 1_555
C37 C18 1_555 1_555
H21 C37 1_555 1_555
C38 C13 1_555 1_555
H22 C38 1_555 1_555
C39 C12 1_555 1_555
H23 C39 1_555 1_555
C40 C32 1_555 1_555
H24 C40 1_555 1_555
Zn1E O3 1_555 1_555
Zn1B O7 1_555 1_555
Zn2E O8 1_555 1_555
Zn2B O9 1_555 1_555
Zn2B_2 N2 1_555 1_555
O3E Zn1 1_555 1_555
O7B Zn1 1_555 1_555
O8E Zn2 1_555 1_555
O9B Zn2 1_555 1_555
N2B Zn2 1_555 1_555
C7 C24 1_555 1_555
C11 C16 1_555 1_555
C15 C38 1_555 1_555
C17 C20 1_555 1_555
C18 C30 1_555 1_555
C22 C27 1_555 1_555
C23 C25 1_555 1_555
C23 C31 1_555 1_555
C29 C37 1_555 1_555
C33 C34 1_555 1_555
C36 C39 1_555 1_555
C36 C40 1_555 1_555

#END
