
#######################################################################
#
#                 Cambridge Crystallographic Data Centre
#                                CCDC 
#
#######################################################################
#
# If this CIF has been generated from an entry in the Cambridge 
# Structural Database, then it will include bibliographic, chemical, 
# crystal, experimental, refinement or atomic coordinate data resulting 
# from the CCDC's data processing and validation procedures.
#
#######################################################################

data_XUDPUJ
_chemical_name_common            DUT-90
_chemical_formula_moiety         '(C178 H150 Cu8 N22 O32)n'
_chemical_name_systematic        
"catena-[tetrakis(\m-4,4',4'',4'''-(1,3-phenylenedinitrilo)tetrabenzoato)-(\m-1,3-bis(1H-imidazol-1-yl)-benzene)-(\m-,4-diazabicyclo[2.2.2]octane)-tetrakis(,4-diazabicyclo[2.2.2]octane)-tetra-copper unknown solvate]"
_symmetry_cell_setting           tetragonal
_symmetry_space_group_name_H-M   'P 4/m n c'
_symmetry_Int_Tables_number      128
_space_group_name_Hall           '-P 4 2n'
loop_
_symmetry_equiv_pos_site_id
_symmetry_equiv_pos_as_xyz
1 x,y,z
2 -x,-y,z
3 -y,x,z
4 y,-x,z
5 1/2-x,1/2+y,1/2-z
6 1/2+x,1/2-y,1/2-z
7 1/2+y,1/2+x,1/2-z
8 1/2-y,1/2-x,1/2-z
9 -x,-y,-z
10 x,y,-z
11 y,-x,-z
12 -y,x,-z
13 1/2+x,1/2-y,1/2+z
14 1/2-x,1/2+y,1/2+z
15 1/2-y,1/2-x,1/2+z
16 1/2+y,1/2+x,1/2+z
_cell_length_a                   26.810(4)
_cell_length_b                   26.810(4)
_cell_length_c                   25.860(5)
_cell_angle_alpha                90
_cell_angle_beta                 90
_cell_angle_gamma                90
_cell_volume                     18587.5
_exptl_crystal_colour            green
_exptl_crystal_description       block
_cell_formula_units_Z            8
_chemical_properties_physical    Moisture-sensitive
loop_
_atom_site_label
_atom_site_type_symbol
_atom_site_fract_x
_atom_site_fract_y
_atom_site_fract_z
Cu1 Cu 1.0000 1.0000 0.13624(2)
Cu2 Cu 1.0000 1.0000 0.24012(2)
Cu3 Cu 0.52315(2) 1.04378(2) 0.0000
N1 N 0.71501(7) 0.88611(9) 0.19211(8)
O1 O 0.93272(5) 0.97177(6) 0.23120(5)
O2 O 0.93040(4) 0.97752(5) 0.14499(5)
O3 O 0.56522(8) 1.01226(10) 0.05300(8)
O4 O 0.52675(7) 0.93855(10) 0.05271(8)
N2 N 0.9996(14) 1.004(2) 0.05007(15)
C1 C 0.91174(6) 0.96704(6) 0.18832(6)
C2 C 0.85963(7) 0.94688(7) 0.18859(6)
C3 C 0.83331(7) 0.94042(9) 0.14332(8)
H1 H 0.8477 0.9494 0.1120
C4 C 0.78556(8) 0.92059(11) 0.14412(8)
H2 H 0.7683 0.9158 0.1133
C5 C 0.76349(7) 0.90782(10) 0.19076(8)
C6 C 0.78949(8) 0.91420(12) 0.23589(9)
H3 H 0.7750 0.9054 0.2672
C7 C 0.83749(8) 0.93376(10) 0.23500(8)
H4 H 0.8549 0.9381 0.2658
C8 C 0.67639(8) 0.90625(11) 0.16165(9)
C9 C 0.67354(9) 0.95708(11) 0.15298(11)
H5 H 0.6968 0.9782 0.1682
C10 C 0.63678(9) 0.97690(11) 0.12218(11)
H6 H 0.6361 1.0110 0.1157
C11 C 0.60052(8) 0.94611(11) 0.10063(10)
C12 C 0.60251(9) 0.89599(12) 0.10998(11)
H7 H 0.5782 0.8753 0.0959
C13 C 0.63996(9) 0.87526(11) 0.13991(11)
H8 H 0.6409 0.8410 0.1455
C14 C 0.56076(9) 0.96704(13) 0.06565(11)
C15 C 0.70813(8) 0.84162(9) 0.22134(9)
C16 C 0.74425(11) 0.80508(14) 0.22124(17)
H9 H 0.7731 0.8093 0.2017
C17 C 0.66526(9) 0.83474(9) 0.2500
H10 H 0.6407 0.8593 0.2500
C18 C 0.73778(15) 0.76222(15) 0.2500
H11 H 0.7623 0.7377 0.2500
N3 N 0.9971(5) 0.9964(7) 0.32260(15)
C19 C 0.9646(5) 1.0140(9) 0.3619(2)
H12 H 0.9315 1.0236 0.3574
N4 N 0.9914(5) 1.0143(7) 0.4093(2)
C20 C 1.0405(4) 0.9969(8) 0.3992(2)
H13 H 1.0658 0.9934 0.4235
C21 C 1.0440(5) 0.9858(8) 0.3457(2)
H14 H 1.0721 0.9738 0.3287
C22 C 0.9653(5) 1.0065(11) 0.4550(3)
C23 C 0.9999(8) 1.0017(17) 0.5000
H15 H 1.0388 1.0073 0.5000
C24 C 0.9117(6) 1.0139(14) 0.4550(3)
H16 H 0.8970 1.0171 0.4226
C25 C 0.8770(8) 1.017(2) 0.5000
H17 H 0.8411 0.9927 0.5000
N5 N 0.56248(18) 1.11462(19) -0.0038(9)
N6 N 0.6142(6) 1.1983(5) -0.0027(11)
C26 C 0.6144(4) 1.1086(5) -0.0178(7)
H18 H 0.6162 1.0963 -0.0530
H19 H 0.6293 1.0837 0.0046
C27 C 0.6440(6) 1.1554(7) -0.0141(15)
H20 H 0.6690 1.1515 0.0128
H21 H 0.6613 1.1608 -0.0465
C28 C 0.5364(7) 1.1559(6) 0.0185(9)
H22 H 0.5331 1.1502 0.0554
H23 H 0.5031 1.1572 0.0040
C29 C 0.5613(8) 1.2050(6) 0.010(2)
H24 H 0.5448 1.2226 -0.0179
H25 H 0.5584 1.2252 0.0411
C30 C 0.9897(17) 1.0484(4) 0.02909(19)
H26 H 0.9451 1.0483 0.0407
C31 C 1.0267(14) 1.0429(9) 0.0294(2)
H27 H 0.9954 1.0743 0.0419
C32 C 0.5720(5) 1.1296(6) 0.0499(8)
H28 H 0.5922 1.1060 0.0691
H29 H 0.5440 1.1392 0.0691
C33 C 0.6052(7) 1.1779(7) 0.0482(8)
H30 H 0.5920 1.2029 0.0713
H31 H 0.6392 1.1700 0.0618
N1G N 0.61389(9) 0.78499(7) 0.30789(8)
O1G O 0.52823(6) 0.56728(5) 0.26880(5)
O2G O 0.52248(5) 0.56960(4) 0.35501(5)
O3G O 0.48774(10) 0.93478(8) 0.44700(8)
O4G O 0.56145(10) 0.97325(7) 0.44729(8)
C1G C 0.53296(6) 0.58826(6) 0.31168(6)
C2G C 0.55312(7) 0.64037(7) 0.31141(6)
C3G C 0.55958(9) 0.66669(7) 0.35668(8)
H1G H 0.5506 0.6523 0.3880
C4G C 0.57941(11) 0.71444(8) 0.35588(8)
H2G H 0.5842 0.7317 0.3867
C5G C 0.59218(10) 0.73651(7) 0.30924(8)
C6G C 0.58580(12) 0.71051(8) 0.26411(9)
H3G H 0.5946 0.7250 0.2328
C7G C 0.56624(10) 0.66251(8) 0.26500(8)
H4G H 0.5619 0.6451 0.2342
C8G C 0.59375(11) 0.82361(8) 0.33835(9)
C9G C 0.54292(11) 0.82646(9) 0.34702(11)
H5G H 0.5218 0.8032 0.3318
C10G C 0.52310(11) 0.86322(9) 0.37782(11)
H6G H 0.4890 0.8639 0.3843
C11G C 0.55389(11) 0.89948(8) 0.39937(10)
C12G C 0.60401(12) 0.89749(9) 0.39002(11)
H7G H 0.6247 0.9218 0.4041
C13G C 0.62474(11) 0.86004(9) 0.36009(11)
H8G H 0.6590 0.8591 0.3545
C14G C 0.53296(13) 0.93924(9) 0.43435(11)
C15G C 0.65838(9) 0.79187(8) 0.27866(9)
C16G C 0.69492(14) 0.75575(11) 0.27876(17)
H9G H 0.6907 0.7269 0.2983
N2A N 1.0004(14) 0.996(2) 0.05007(15)
C30A C 1.0103(17) 0.9516(4) 0.02909(19)
H26A H 1.0549 0.9517 0.0407
C31A C 0.9733(14) 0.9571(9) 0.0294(2)
H27A H 1.0046 0.9257 0.0419
N2B N 0.996(2) 0.9996(14) 0.05007(15)
C30B C 0.9516(4) 0.9897(17) 0.02909(19)
H26B H 0.9517 0.9451 0.0407
C31B C 0.9571(9) 1.0267(14) 0.0294(2)
H27B H 0.9257 0.9954 0.0419
N2C N 1.004(2) 1.0004(14) 0.05007(15)
C30C C 1.0484(4) 1.0103(17) 0.02909(19)
H26C H 1.0483 1.0549 0.0407
C31C C 1.0429(9) 0.9733(14) 0.0294(2)
H27C H 1.0743 1.0046 0.0419
N2H N 1.0004(14) 0.996(2) -0.05007(15)
C30H C 1.0103(17) 0.9516(4) -0.02909(19)
H26H H 1.0549 0.9517 -0.0407
C31H C 0.9733(14) 0.9571(9) -0.0294(2)
H27H H 1.0046 0.9257 -0.0419
N2I N 0.9996(14) 1.004(2) -0.05007(15)
C30I C 0.9897(17) 1.0484(4) -0.02909(19)
H26I H 0.9451 1.0483 -0.0407
C31I C 1.0267(14) 1.0429(9) -0.0294(2)
H27I H 0.9954 1.0743 -0.0419
N2J N 1.004(2) 1.0004(14) -0.05007(15)
C30J C 1.0484(4) 1.0103(17) -0.02909(19)
H26J H 1.0483 1.0549 -0.0407
C31J C 1.0429(9) 0.9733(14) -0.0294(2)
H27J H 1.0743 1.0046 -0.0419
N2K N 0.996(2) 0.9996(14) -0.05007(15)
C30K C 0.9516(4) 0.9897(17) -0.02909(19)
H26K H 0.9517 0.9451 -0.0407
C31K C 0.9571(9) 1.0267(14) -0.0294(2)
H27K H 0.9257 0.9954 -0.0419
N3A N 1.0029(5) 1.0036(7) 0.32260(15)
C19A C 1.0354(5) 0.9860(9) 0.3619(2)
H12A H 1.0685 0.9764 0.3574
N4A N 1.0086(5) 0.9857(7) 0.4093(2)
C20A C 0.9595(4) 1.0031(8) 0.3992(2)
H13A H 0.9342 1.0066 0.4235
C21A C 0.9560(5) 1.0142(8) 0.3457(2)
H14A H 0.9279 1.0262 0.3287
C22A C 1.0347(5) 0.9935(11) 0.4550(3)
C23A C 1.0001(8) 0.9983(17) 0.5000
H15A H 0.9612 0.9927 0.5000
C24A C 1.0883(6) 0.9861(14) 0.4550(3)
H16A H 1.1030 0.9829 0.4226
C25A C 1.1230(8) 0.983(2) 0.5000
H17A H 1.1589 1.0073 0.5000
N3B N 1.0036(7) 0.9971(5) 0.32260(15)
C19B C 0.9860(9) 0.9646(5) 0.3619(2)
H12B H 0.9764 0.9315 0.3574
N4B N 0.9857(7) 0.9914(5) 0.4093(2)
C20B C 1.0031(8) 1.0405(4) 0.3992(2)
H13B H 1.0066 1.0658 0.4235
C21B C 1.0142(8) 1.0440(5) 0.3457(2)
H14B H 1.0262 1.0721 0.3287
C22B C 0.9935(11) 0.9653(5) 0.4550(3)
H15B H 0.9927 1.0388 0.5000
C24B C 0.9861(14) 0.9117(6) 0.4550(3)
H16B H 0.9829 0.8970 0.4226
C25B C 0.983(2) 0.8770(8) 0.5000
H17B H 1.0073 0.8411 0.5000
N3C N 0.9964(7) 1.0029(5) 0.32260(15)
C19C C 1.0140(9) 1.0354(5) 0.3619(2)
H12C H 1.0236 1.0685 0.3574
N4C N 1.0143(7) 1.0086(5) 0.4093(2)
C20C C 0.9969(8) 0.9595(4) 0.3992(2)
H13C H 0.9934 0.9342 0.4235
C21C C 0.9858(8) 0.9560(5) 0.3457(2)
H14C H 0.9738 0.9279 0.3287
C22C C 1.0065(11) 1.0347(5) 0.4550(3)
H15C H 1.0073 0.9612 0.5000
C24C C 1.0139(14) 1.0883(6) 0.4550(3)
H16C H 1.0171 1.1030 0.4226
C25C C 1.017(2) 1.1230(8) 0.5000
H17C H 0.9927 1.1589 0.5000
N3H N 1.0029(5) 1.0036(7) 0.67740(15)
C19H C 1.0354(5) 0.9860(9) 0.6381(2)
H12H H 1.0685 0.9764 0.6426
N4H N 1.0086(5) 0.9857(7) 0.5907(2)
C20H C 0.9595(4) 1.0031(8) 0.6008(2)
H13H H 0.9342 1.0066 0.5765
C21H C 0.9560(5) 1.0142(8) 0.6543(2)
H14H H 0.9279 1.0262 0.6713
C22H C 1.0347(5) 0.9935(11) 0.5450(3)
C24H C 1.0883(6) 0.9861(14) 0.5450(3)
H16H H 1.1030 0.9829 0.5774
N3I N 0.9971(5) 0.9964(7) 0.67740(15)
C19I C 0.9646(5) 1.0140(9) 0.6381(2)
H12I H 0.9315 1.0236 0.6426
N4I N 0.9914(5) 1.0143(7) 0.5907(2)
C20I C 1.0405(4) 0.9969(8) 0.6008(2)
H13I H 1.0658 0.9934 0.5765
C21I C 1.0440(5) 0.9858(8) 0.6543(2)
H14I H 1.0721 0.9738 0.6713
C22I C 0.9653(5) 1.0065(11) 0.5450(3)
C24I C 0.9117(6) 1.0139(14) 0.5450(3)
H16I H 0.8970 1.0171 0.5774
N3J N 0.9964(7) 1.0029(5) 0.67740(15)
C19J C 1.0140(9) 1.0354(5) 0.6381(2)
H12J H 1.0236 1.0685 0.6426
N4J N 1.0143(7) 1.0086(5) 0.5907(2)
C20J C 0.9969(8) 0.9595(4) 0.6008(2)
H13J H 0.9934 0.9342 0.5765
C21J C 0.9858(8) 0.9560(5) 0.6543(2)
H14J H 0.9738 0.9279 0.6713
C22J C 1.0065(11) 1.0347(5) 0.5450(3)
C24J C 1.0139(14) 1.0883(6) 0.5450(3)
H16J H 1.0171 1.1030 0.5774
N3K N 1.0036(7) 0.9971(5) 0.67740(15)
C19K C 0.9860(9) 0.9646(5) 0.6381(2)
H12K H 0.9764 0.9315 0.6426
N4K N 0.9857(7) 0.9914(5) 0.5907(2)
C20K C 1.0031(8) 1.0405(4) 0.6008(2)
H13K H 1.0066 1.0658 0.5765
C21K C 1.0142(8) 1.0440(5) 0.6543(2)
H14K H 1.0262 1.0721 0.6713
C22K C 0.9935(11) 0.9653(5) 0.5450(3)
C24K C 0.9861(14) 0.9117(6) 0.5450(3)
H16K H 0.9829 0.8970 0.5774
N5I N 0.56248(18) 1.11462(19) 0.0038(9)
N6I N 0.6142(6) 1.1983(5) 0.0027(11)
C26I C 0.6144(4) 1.1086(5) 0.0178(7)
H18I H 0.6162 1.0963 0.0530
H19I H 0.6293 1.0837 -0.0046
C27I C 0.6440(6) 1.1554(7) 0.0141(15)
H20I H 0.6690 1.1515 -0.0128
H21I H 0.6613 1.1608 0.0465
C28I C 0.5364(7) 1.1559(6) -0.0185(9)
H22I H 0.5331 1.1502 -0.0554
H23I H 0.5031 1.1572 -0.0040
C29I C 0.5613(8) 1.2050(6) -0.010(2)
H24I H 0.5448 1.2226 0.0179
H25I H 0.5584 1.2252 -0.0411
C32I C 0.5720(5) 1.1296(6) -0.0499(8)
H28I H 0.5922 1.1060 -0.0691
H29I H 0.5440 1.1392 -0.0691
C33I C 0.6052(7) 1.1779(7) -0.0482(8)
H30I H 0.5920 1.2029 -0.0713
H31I H 0.6392 1.1700 -0.0618
Cu3A Cu 0.47685(2) 0.95622(2) 0.0000
N1A N 0.28499(7) 1.11389(9) 0.19211(8)
O1A O 0.06728(5) 1.02823(6) 0.23120(5)
O2A O 0.06960(4) 1.02248(5) 0.14499(5)
O3A O 0.43478(8) 0.98774(10) 0.05300(8)
O4A O 0.47325(7) 1.06145(10) 0.05271(8)
C1A C 0.08826(6) 1.03296(6) 0.18832(6)
C2A C 0.14037(7) 1.05312(7) 0.18859(6)
C3A C 0.16669(7) 1.05958(9) 0.14332(8)
H1A H 0.1523 1.0506 0.1120
C4A C 0.21444(8) 1.07941(11) 0.14412(8)
H2A H 0.2317 1.0842 0.1133
C5A C 0.23651(7) 1.09218(10) 0.19076(8)
C6A C 0.21051(8) 1.08580(12) 0.23589(9)
H3A H 0.2250 1.0946 0.2672
C7A C 0.16251(8) 1.06624(10) 0.23500(8)
H4A H 0.1451 1.0619 0.2658
C8A C 0.32361(8) 1.09375(11) 0.16165(9)
C9A C 0.32646(9) 1.04292(11) 0.15298(11)
H5A H 0.3032 1.0218 0.1682
C10A C 0.36322(9) 1.02310(11) 0.12218(11)
H6A H 0.3639 0.9890 0.1157
C11A C 0.39948(8) 1.05389(11) 0.10063(10)
C12A C 0.39749(9) 1.10401(12) 0.10998(11)
H7A H 0.4218 1.1247 0.0959
C13A C 0.36004(9) 1.12474(11) 0.13991(11)
H8A H 0.3591 1.1590 0.1455
C14A C 0.43924(9) 1.03296(13) 0.06565(11)
C15A C 0.29187(8) 1.15838(9) 0.22134(9)
C16A C 0.25575(11) 1.19492(14) 0.22124(17)
H9A H 0.2269 1.1907 0.2017
C17A C 0.33474(9) 1.16526(9) 0.2500
H10A H 0.3593 1.1407 0.2500
C18A C 0.26222(15) 1.23778(15) 0.2500
H11A H 0.2377 1.2623 0.2500
N5A N 0.43752(18) 0.88538(19) -0.0038(9)
N6A N 0.3858(6) 0.8017(5) -0.0027(11)
C26A C 0.3856(4) 0.8914(5) -0.0178(7)
H18A H 0.3838 0.9037 -0.0530
H19A H 0.3707 0.9163 0.0046
C27A C 0.3560(6) 0.8446(7) -0.0141(15)
H20A H 0.3310 0.8485 0.0128
H21A H 0.3387 0.8392 -0.0465
C28A C 0.4636(7) 0.8441(6) 0.0185(9)
H22A H 0.4669 0.8498 0.0554
H23A H 0.4969 0.8428 0.0040
C29A C 0.4387(8) 0.7950(6) 0.010(2)
H24A H 0.4552 0.7774 -0.0179
H25A H 0.4416 0.7748 0.0411
C32A C 0.4280(5) 0.8704(6) 0.0499(8)
H28A H 0.4078 0.8940 0.0691
H29A H 0.4560 0.8608 0.0691
C33A C 0.3948(7) 0.8221(7) 0.0482(8)
H30A H 0.4080 0.7971 0.0713
H31A H 0.3608 0.8300 0.0618
N1F N 0.38611(9) 1.21501(7) 0.30789(8)
O1F O 0.47177(6) 1.43272(5) 0.26880(5)
O2F O 0.47752(5) 1.43040(4) 0.35501(5)
O3F O 0.51226(10) 1.06522(8) 0.44700(8)
O4F O 0.43855(10) 1.02675(7) 0.44729(8)
C1F C 0.46704(6) 1.41174(6) 0.31168(6)
C2F C 0.44688(7) 1.35963(7) 0.31141(6)
C3F C 0.44042(9) 1.33331(7) 0.35668(8)
H1F H 0.4494 1.3477 0.3880
C4F C 0.42059(11) 1.28556(8) 0.35588(8)
H2F H 0.4158 1.2683 0.3867
C5F C 0.40782(10) 1.26349(7) 0.30924(8)
C6F C 0.41420(12) 1.28949(8) 0.26411(9)
H3F H 0.4054 1.2750 0.2328
C7F C 0.43376(10) 1.33749(8) 0.26500(8)
H4F H 0.4381 1.3549 0.2342
C8F C 0.40625(11) 1.17639(8) 0.33835(9)
C9F C 0.45708(11) 1.17354(9) 0.34702(11)
H5F H 0.4782 1.1968 0.3318
C10F C 0.47690(11) 1.13678(9) 0.37782(11)
H6F H 0.5110 1.1361 0.3843
C11F C 0.44611(11) 1.10052(8) 0.39937(10)
C12F C 0.39599(12) 1.10251(9) 0.39002(11)
H7F H 0.3753 1.0782 0.4041
C13F C 0.37526(11) 1.13996(9) 0.36009(11)
H8F H 0.3410 1.1409 0.3545
C14F C 0.46704(13) 1.06076(9) 0.43435(11)
C15F C 0.34162(9) 1.20813(8) 0.27866(9)
C16F C 0.30508(14) 1.24425(11) 0.27876(17)
H9F H 0.3093 1.2731 0.2983
N5H N 0.43752(18) 0.88538(19) 0.0038(9)
N6H N 0.3858(6) 0.8017(5) 0.0027(11)
C26H C 0.3856(4) 0.8914(5) 0.0178(7)
H18H H 0.3838 0.9037 0.0530
H19H H 0.3707 0.9163 -0.0046
C27H C 0.3560(6) 0.8446(7) 0.0141(15)
H20H H 0.3310 0.8485 -0.0128
H21H H 0.3387 0.8392 0.0465
C28H C 0.4636(7) 0.8441(6) -0.0185(9)
H22H H 0.4669 0.8498 -0.0554
H23H H 0.4969 0.8428 -0.0040
C29H C 0.4387(8) 0.7950(6) -0.010(2)
H24H H 0.4552 0.7774 0.0179
H25H H 0.4416 0.7748 -0.0411
C32H C 0.4280(5) 0.8704(6) -0.0499(8)
H28H H 0.4078 0.8940 -0.0691
H29H H 0.4560 0.8608 -0.0691
C33H C 0.3948(7) 0.8221(7) -0.0482(8)
H30H H 0.4080 0.7971 -0.0713
H31H H 0.3608 0.8300 -0.0618
Cu3C Cu 1.04378(2) 1.47685(2) 0.0000
N1C N 0.88611(9) 1.28499(7) 0.19211(8)
O1C O 0.97177(6) 1.06728(5) 0.23120(5)
O2C O 0.97752(5) 1.06960(4) 0.14499(5)
O3C O 1.01226(10) 1.43478(8) 0.05300(8)
O4C O 0.93855(10) 1.47325(7) 0.05271(8)
C1C C 0.96704(6) 1.08826(6) 0.18832(6)
C2C C 0.94688(7) 1.14037(7) 0.18859(6)
C3C C 0.94042(9) 1.16669(7) 0.14332(8)
H1C H 0.9494 1.1523 0.1120
C4C C 0.92059(11) 1.21444(8) 0.14412(8)
H2C H 0.9158 1.2317 0.1133
C5C C 0.90782(10) 1.23651(7) 0.19076(8)
C6C C 0.91420(12) 1.21051(8) 0.23589(9)
H3C H 0.9054 1.2250 0.2672
C7C C 0.93376(10) 1.16251(8) 0.23500(8)
H4C H 0.9381 1.1451 0.2658
C8C C 0.90625(11) 1.32361(8) 0.16165(9)
C9C C 0.95708(11) 1.32646(9) 0.15298(11)
H5C H 0.9782 1.3032 0.1682
C10C C 0.97690(11) 1.36322(9) 0.12218(11)
H6C H 1.0110 1.3639 0.1157
C11C C 0.94611(11) 1.39948(8) 0.10063(10)
C12C C 0.89599(12) 1.39749(9) 0.10998(11)
H7C H 0.8753 1.4218 0.0959
C13C C 0.87526(11) 1.36004(9) 0.13991(11)
H8C H 0.8410 1.3591 0.1455
C14C C 0.96704(13) 1.43924(9) 0.06565(11)
C15C C 0.84162(9) 1.29187(8) 0.22134(9)
C16C C 0.80508(14) 1.25575(11) 0.22124(17)
H9C H 0.8093 1.2269 0.2017
C17C C 0.83474(9) 1.33474(9) 0.2500
H10C H 0.8593 1.3593 0.2500
C18C C 0.76222(15) 1.26222(15) 0.2500
H11C H 0.7377 1.2377 0.2500
N5C N 1.11462(19) 1.43752(18) -0.0038(9)
N6C N 1.1983(5) 1.3858(6) -0.0027(11)
C26C C 1.1086(5) 1.3856(4) -0.0178(7)
H18C H 1.0963 1.3838 -0.0530
H19C H 1.0837 1.3707 0.0046
C27C C 1.1554(7) 1.3560(6) -0.0141(15)
H20C H 1.1515 1.3310 0.0128
H21C H 1.1608 1.3387 -0.0465
C28C C 1.1559(6) 1.4636(7) 0.0185(9)
H22C H 1.1502 1.4669 0.0554
H23C H 1.1572 1.4969 0.0040
C29C C 1.2050(6) 1.4387(8) 0.010(2)
H24C H 1.2226 1.4552 -0.0179
H25C H 1.2252 1.4416 0.0411
C32C C 1.1296(6) 1.4280(5) 0.0499(8)
H28C H 1.1060 1.4078 0.0691
H29C H 1.1392 1.4560 0.0691
C33C C 1.1779(7) 1.3948(7) 0.0482(8)
H30C H 1.2029 1.4080 0.0713
H31C H 1.1700 1.3608 0.0618
N1D N 0.78499(7) 1.38611(9) 0.30789(8)
O1D O 0.56728(5) 1.47177(6) 0.26880(5)
O2D O 0.56960(4) 1.47752(5) 0.35501(5)
O3D O 0.93478(8) 1.51226(10) 0.44700(8)
O4D O 0.97325(7) 1.43855(10) 0.44729(8)
C1D C 0.58826(6) 1.46704(6) 0.31168(6)
C2D C 0.64037(7) 1.44688(7) 0.31141(6)
C3D C 0.66669(7) 1.44042(9) 0.35668(8)
H1D H 0.6523 1.4494 0.3880
C4D C 0.71444(8) 1.42059(11) 0.35588(8)
H2D H 0.7317 1.4158 0.3867
C5D C 0.73651(7) 1.40782(10) 0.30924(8)
C6D C 0.71051(8) 1.41420(12) 0.26411(9)
H3D H 0.7250 1.4054 0.2328
C7D C 0.66251(8) 1.43376(10) 0.26500(8)
H4D H 0.6451 1.4381 0.2342
C8D C 0.82361(8) 1.40625(11) 0.33835(9)
C9D C 0.82646(9) 1.45708(11) 0.34702(11)
H5D H 0.8032 1.4782 0.3318
C10D C 0.86322(9) 1.47690(11) 0.37782(11)
H6D H 0.8639 1.5110 0.3843
C11D C 0.89948(8) 1.44611(11) 0.39937(10)
C12D C 0.89749(9) 1.39599(12) 0.39002(11)
H7D H 0.9218 1.3753 0.4041
C13D C 0.86004(9) 1.37526(11) 0.36009(11)
H8D H 0.8591 1.3410 0.3545
C14D C 0.93924(9) 1.46704(13) 0.43435(11)
C15D C 0.79187(8) 1.34162(9) 0.27866(9)
C16D C 0.75575(11) 1.30508(14) 0.27876(17)
H9D H 0.7269 1.3093 0.2983
N5J N 1.11462(19) 1.43752(18) 0.0038(9)
N6J N 1.1983(5) 1.3858(6) 0.0027(11)
C26J C 1.1086(5) 1.3856(4) 0.0178(7)
H18J H 1.0963 1.3838 0.0530
H19J H 1.0837 1.3707 -0.0046
C27J C 1.1554(7) 1.3560(6) 0.0141(15)
H20J H 1.1515 1.3310 -0.0128
H21J H 1.1608 1.3387 0.0465
C28J C 1.1559(6) 1.4636(7) -0.0185(9)
H22J H 1.1502 1.4669 -0.0554
H23J H 1.1572 1.4969 -0.0040
C29J C 1.2050(6) 1.4387(8) -0.010(2)
H24J H 1.2226 1.4552 0.0179
H25J H 1.2252 1.4416 -0.0411
C32J C 1.1296(6) 1.4280(5) -0.0499(8)
H28J H 1.1060 1.4078 -0.0691
H29J H 1.1392 1.4560 -0.0691
C33J C 1.1779(7) 1.3948(7) -0.0482(8)
H30J H 1.2029 1.4080 -0.0713
H31J H 1.1700 1.3608 -0.0618
Cu1H Cu 1.0000 1.0000 -0.13624(2)
Cu3B Cu 0.95622(2) 0.52315(2) 0.0000
N1B N 1.11389(9) 0.71501(7) 0.19211(8)
O1B O 1.02823(6) 0.93272(5) 0.23120(5)
O2B O 1.02248(5) 0.93040(4) 0.14499(5)
O3B O 0.98774(10) 0.56522(8) 0.05300(8)
O4B O 1.06145(10) 0.52675(7) 0.05271(8)
C1B C 1.03296(6) 0.91174(6) 0.18832(6)
C2B C 1.05312(7) 0.85963(7) 0.18859(6)
C3B C 1.05958(9) 0.83331(7) 0.14332(8)
H1B H 1.0506 0.8477 0.1120
C4B C 1.07941(11) 0.78556(8) 0.14412(8)
H2B H 1.0842 0.7683 0.1133
C5B C 1.09218(10) 0.76349(7) 0.19076(8)
C6B C 1.08580(12) 0.78949(8) 0.23589(9)
H3B H 1.0946 0.7750 0.2672
C7B C 1.06624(10) 0.83749(8) 0.23500(8)
H4B H 1.0619 0.8549 0.2658
C8B C 1.09375(11) 0.67639(8) 0.16165(9)
C9B C 1.04292(11) 0.67354(9) 0.15298(11)
H5B H 1.0218 0.6968 0.1682
C10B C 1.02310(11) 0.63678(9) 0.12218(11)
H6B H 0.9890 0.6361 0.1157
C11B C 1.05389(11) 0.60052(8) 0.10063(10)
C12B C 1.10401(12) 0.60251(9) 0.10998(11)
H7B H 1.1247 0.5782 0.0959
C13B C 1.12474(11) 0.63996(9) 0.13991(11)
H8B H 1.1590 0.6409 0.1455
C14B C 1.03296(13) 0.56076(9) 0.06565(11)
C15B C 1.15838(9) 0.70813(8) 0.22134(9)
C16B C 1.19492(14) 0.74425(11) 0.22124(17)
H9B H 1.1907 0.7731 0.2017
C17B C 1.16526(9) 0.66526(9) 0.2500
H10B H 1.1407 0.6407 0.2500
C18B C 1.23778(15) 0.73778(15) 0.2500
H11B H 1.2623 0.7623 0.2500
N5B N 0.88538(19) 0.56248(18) -0.0038(9)
N6B N 0.8017(5) 0.6142(6) -0.0027(11)
C26B C 0.8914(5) 0.6144(4) -0.0178(7)
H18B H 0.9037 0.6162 -0.0530
H19B H 0.9163 0.6293 0.0046
C27B C 0.8446(7) 0.6440(6) -0.0141(15)
H20B H 0.8485 0.6690 0.0128
H21B H 0.8392 0.6613 -0.0465
C28B C 0.8441(6) 0.5364(7) 0.0185(9)
H22B H 0.8498 0.5331 0.0554
H23B H 0.8428 0.5031 0.0040
C29B C 0.7950(6) 0.5613(8) 0.010(2)
H24B H 0.7774 0.5448 -0.0179
H25B H 0.7748 0.5584 0.0411
C32B C 0.8704(6) 0.5720(5) 0.0499(8)
H28B H 0.8940 0.5922 0.0691
H29B H 0.8608 0.5440 0.0691
C33B C 0.8221(7) 0.6052(7) 0.0482(8)
H30B H 0.7971 0.5920 0.0713
H31B H 0.8300 0.6392 0.0618
N1E N 1.21501(7) 0.61389(9) 0.30789(8)
O1E O 1.43272(5) 0.52823(6) 0.26880(5)
O2E O 1.43040(4) 0.52248(5) 0.35501(5)
O3E O 1.06522(8) 0.48774(10) 0.44700(8)
O4E O 1.02675(7) 0.56145(10) 0.44729(8)
C1E C 1.41174(6) 0.53296(6) 0.31168(6)
C2E C 1.35963(7) 0.55312(7) 0.31141(6)
C3E C 1.33331(7) 0.55958(9) 0.35668(8)
H1E H 1.3477 0.5506 0.3880
C4E C 1.28556(8) 0.57941(11) 0.35588(8)
H2E H 1.2683 0.5842 0.3867
C5E C 1.26349(7) 0.59218(10) 0.30924(8)
C6E C 1.28949(8) 0.58580(12) 0.26411(9)
H3E H 1.2750 0.5946 0.2328
C7E C 1.33749(8) 0.56624(10) 0.26500(8)
H4E H 1.3549 0.5619 0.2342
C8E C 1.17639(8) 0.59375(11) 0.33835(9)
C9E C 1.17354(9) 0.54292(11) 0.34702(11)
H5E H 1.1968 0.5218 0.3318
C10E C 1.13678(9) 0.52310(11) 0.37782(11)
H6E H 1.1361 0.4890 0.3843
C11E C 1.10052(8) 0.55389(11) 0.39937(10)
C12E C 1.10251(9) 0.60401(12) 0.39002(11)
H7E H 1.0782 0.6247 0.4041
C13E C 1.13996(9) 0.62474(11) 0.36009(11)
H8E H 1.1409 0.6590 0.3545
C14E C 1.06076(9) 0.53296(13) 0.43435(11)
C15E C 1.20813(8) 0.65838(9) 0.27866(9)
C16E C 1.24425(11) 0.69492(14) 0.27876(17)
H9E H 1.2731 0.6907 0.2983
N5K N 0.88538(19) 0.56248(18) 0.0038(9)
N6K N 0.8017(5) 0.6142(6) 0.0027(11)
C26K C 0.8914(5) 0.6144(4) 0.0178(7)
H18K H 0.9037 0.6162 0.0530
H19K H 0.9163 0.6293 -0.0046
C27K C 0.8446(7) 0.6440(6) 0.0141(15)
H20K H 0.8485 0.6690 -0.0128
H21K H 0.8392 0.6613 0.0465
C28K C 0.8441(6) 0.5364(7) -0.0185(9)
H22K H 0.8498 0.5331 -0.0554
H23K H 0.8428 0.5031 -0.0040
C29K C 0.7950(6) 0.5613(8) -0.010(2)
H24K H 0.7774 0.5448 0.0179
H25K H 0.7748 0.5584 -0.0411
C32K C 0.8704(6) 0.5720(5) -0.0499(8)
H28K H 0.8940 0.5922 -0.0691
H29K H 0.8608 0.5440 -0.0691
C33K C 0.8221(7) 0.6052(7) -0.0482(8)
H30K H 0.7971 0.5920 -0.0713
H31K H 0.8300 0.6392 -0.0618
Cu2D Cu 0.5000 0.5000 0.25988(2)
Cu1_2 Cu 0.0000 1.0000 0.13624(2)
Cu1D Cu 0.5000 0.5000 0.36376(2)
Cu1D_2 Cu 0.5000 1.5000 0.36376(2)
Cu1D_3 Cu 1.5000 0.5000 0.36376(2)
Cu2_2 Cu 0.0000 1.0000 0.24012(2)
Cu2D_2 Cu 0.5000 1.5000 0.25988(2)
Cu2D_3 Cu 1.5000 0.5000 0.25988(2)
Cu2H Cu 1.0000 1.0000 0.75988(2)
Cu3B_2 Cu 0.95622(2) 1.52315(2) 0.0000
Cu3C_2 Cu 1.04378(2) 0.47685(2) 0.0000
Cu3D Cu 0.97685(2) 0.54378(2) 0.5000
Cu3D_2 Cu 0.97685(2) 1.54378(2) 0.5000
Cu3E Cu 1.02315(2) 0.45622(2) 0.5000
Cu3E_2 Cu 1.02315(2) 1.45622(2) 0.5000
Cu3F Cu 0.54378(2) 1.02315(2) 0.5000
Cu3G Cu 0.45622(2) 0.97685(2) 0.5000
O1A_2 O 1.06728(5) 1.02823(6) 0.23120(5)
O1D_2 O 0.56728(5) 0.47177(6) 0.26880(5)
O1E_2 O 0.43272(5) 0.52823(6) 0.26880(5)
O1F_2 O 0.47177(6) 0.43272(5) 0.26880(5)
O2A_2 O 1.06960(4) 1.02248(5) 0.14499(5)
O2H O 1.06960(4) 1.02248(5) -0.14499(5)
O2I O 0.93040(4) 0.97752(5) -0.14499(5)
O2J O 0.97752(5) 1.06960(4) -0.14499(5)
O2K O 1.02248(5) 0.93040(4) -0.14499(5)
O3H O 0.43478(8) 0.98774(10) -0.05300(8)
O3I O 0.56522(8) 1.01226(10) -0.05300(8)
O3J O 1.01226(10) 1.43478(8) -0.05300(8)
O3K O 0.98774(10) 0.56522(8) -0.05300(8)
O4B_2 O 1.06145(10) 1.52675(7) 0.05271(8)
O4C_2 O 0.93855(10) 0.47325(7) 0.05271(8)
O4H O 0.47325(7) 1.06145(10) -0.05271(8)
O4I O 0.52675(7) 0.93855(10) -0.05271(8)
O4J O 0.93855(10) 0.47325(7) -0.05271(8)
O4K O 1.06145(10) 1.52675(7) -0.05271(8)
N3D N 0.5029(5) 0.4964(7) 0.17740(15)
N3E N 0.4971(5) 0.5036(7) 0.17740(15)
N3F N 0.4964(7) 0.4971(5) 0.17740(15)
N3G N 0.5036(7) 0.5029(5) 0.17740(15)
H32? H 0.9965 1.0746 0.0407
loop_
_geom_bond_atom_site_label_1
_geom_bond_atom_site_label_2
_geom_bond_site_symmetry_1
_geom_bond_site_symmetry_2
Cu1 O2 1_555 1_555
Cu2 O1 1_555 1_555
Cu3 O3 1_555 1_555
N1 C5 1_555 1_555
O1 C1 1_555 1_555
O2 C1 1_555 1_555
O3 C14 1_555 1_555
O4 C14 1_555 1_555
N2 Cu1 1_555 1_555
C1 C2 1_555 1_555
C2 C3 1_555 1_555
C3 H1 1_555 1_555
C4 C3 1_555 1_555
H2 C4 1_555 1_555
C5 C4 1_555 1_555
C6 C5 1_555 1_555
H3 C6 1_555 1_555
C7 C2 1_555 1_555
H4 C7 1_555 1_555
C8 N1 1_555 1_555
C9 C8 1_555 1_555
H5 C9 1_555 1_555
C10 C9 1_555 1_555
H6 C10 1_555 1_555
C11 C10 1_555 1_555
C12 C11 1_555 1_555
H7 C12 1_555 1_555
C13 C8 1_555 1_555
H8 C13 1_555 1_555
C14 C11 1_555 1_555
C15 N1 1_555 1_555
C16 C15 1_555 1_555
H9 C16 1_555 1_555
C17 C15 1_555 1_555
H10 C17 1_555 1_555
C18 C16 1_555 1_555
H11 C18 1_555 1_555
N3 Cu2 1_555 1_555
C19 N3 1_555 1_555
H12 C19 1_555 1_555
N4 C19 1_555 1_555
C20 H13 1_555 1_555
H13 C22A 1_555 1_555
C21 N3 1_555 1_555
H14 C21 1_555 1_555
C22 C23 1_555 1_555
C23 H15 1_555 1_555
H15 C22A 1_555 1_555
C24 C22 1_555 1_555
H16 C24 1_555 1_555
C25 C24 1_555 1_555
H17 C25 1_555 1_555
N5 Cu3 1_555 1_555
N6 C27 1_555 1_555
C26 N5 1_555 1_555
H18 C26 1_555 1_555
H19 C26 1_555 1_555
C27 H20 1_555 1_555
H20 C27I 1_555 1_555
H21 C27 1_555 1_555
C28 N5 1_555 1_555
H22 C28 1_555 1_555
H23 C28 1_555 1_555
C29 N6 1_555 1_555
H24 C29 1_555 1_555
H25 C29 1_555 1_555
C30 N2 1_555 1_555
H26 C30 1_555 1_555
C31 N2 1_555 1_555
H27 C30 1_555 1_555
C32 N5 1_555 1_555
H28 C32 1_555 1_555
H29 C32 1_555 1_555
C33 N6 1_555 1_555
H30 C33 1_555 1_555
H31 C33 1_555 1_555
N1G C5G 1_555 1_555
O1G C1G 1_555 1_555
O2G C1G 1_555 1_555
O3G C14G 1_555 1_555
O4G C14G 1_555 1_555
C1G C2G 1_555 1_555
C2G C3G 1_555 1_555
C3G H1G 1_555 1_555
C4G C3G 1_555 1_555
H2G C4G 1_555 1_555
C5G C4G 1_555 1_555
C6G C5G 1_555 1_555
H3G C6G 1_555 1_555
C7G C2G 1_555 1_555
H4G C7G 1_555 1_555
C8G N1G 1_555 1_555
C9G C8G 1_555 1_555
H5G C9G 1_555 1_555
C10G C9G 1_555 1_555
H6G C10G 1_555 1_555
C11G C10G 1_555 1_555
C12G C11G 1_555 1_555
H7G C12G 1_555 1_555
C13G C8G 1_555 1_555
H8G C13G 1_555 1_555
C14G C11G 1_555 1_555
C15G C17 1_555 1_555
C16G C18 1_555 1_555
H9G C16G 1_555 1_555
N2A Cu1 1_555 1_555
C30A N2 1_555 1_555
H26A C30A 1_555 1_555
C31A N2 1_555 1_555
H27A C30A 1_555 1_555
N2B Cu1 1_555 1_555
C30B N2 1_555 1_555
H26B C31A 1_555 1_555
C31B N2 1_555 1_555
H27B C30B 1_555 1_555
N2C Cu1 1_555 1_555
C30C N2 1_555 1_555
H26C C31 1_555 1_555
C31C N2 1_555 1_555
H27C C30C 1_555 1_555
N2H C30H 1_555 1_555
C30H C30A 1_555 1_555
H26H C30H 1_555 1_555
C31H C31A 1_555 1_555
H27H C30H 1_555 1_555
N2I C30H 1_555 1_555
C30I C30 1_555 1_555
H26I C30I 1_555 1_555
C31I C31 1_555 1_555
H27I C30I 1_555 1_555
N2J C30H 1_555 1_555
C30J C30C 1_555 1_555
H26J C31I 1_555 1_555
C31J C31C 1_555 1_555
H27J C30J 1_555 1_555
N2K C30H 1_555 1_555
C30K C30B 1_555 1_555
H26K C31H 1_555 1_555
C31K C31B 1_555 1_555
H27K C30K 1_555 1_555
N3A Cu2 1_555 1_555
C19A N3 1_555 1_555
H12A C21 1_555 1_555
N4A C19A 1_555 1_555
C20A C19 1_555 1_555
H13A C22 1_555 1_555
C21A N3 1_555 1_555
H14A C19 1_555 1_555
C22A C20 1_555 1_555
C23A C22 1_555 1_555
H15A C22 1_555 1_555
C24A H13 1_555 1_555
H16A C24A 1_555 1_555
C25A C24A 1_555 1_555
H17A C25A 1_555 1_555
N3B Cu2 1_555 1_555
C19B N3 1_555 1_555
H12B C19B 1_555 1_555
N4B C19 1_555 1_555
C20B C19 1_555 1_555
H13B C20B 1_555 1_555
C21B N3 1_555 1_555
H14B C21B 1_555 1_555
C22B C22 1_555 1_555
H15B C23 1_555 1_555
C24B C22B 1_555 1_555
H16B C24B 1_555 1_555
C25B C24B 1_555 1_555
H17B C25B 1_555 1_555
N3C Cu2 1_555 1_555
C19C N3 1_555 1_555
H12C C21B 1_555 1_555
N4C C19A 1_555 1_555
C20C C20 1_555 1_555
H13C C22B 1_555 1_555
C21C N3 1_555 1_555
H14C C19B 1_555 1_555
C22C C22 1_555 1_555
H15C C23 1_555 1_555
C24C H13B 1_555 1_555
H16C C24C 1_555 1_555
C25C C24C 1_555 1_555
H17C C25C 1_555 1_555
N3H C19H 1_555 1_555
C19H H12H 1_555 1_555
H12H C21I 1_555 1_555
N4H C19H 1_555 1_555
C20H H13H 1_555 1_555
H13H C22I 1_555 1_555
C21H N3H 1_555 1_555
H14H C21H 1_555 1_555
C22H C23 1_555 1_555
C24H C25A 1_555 1_555
H16H C24H 1_555 1_555
N3I C19H 1_555 1_555
C19I N3H 1_555 1_555
H12I C21H 1_555 1_555
N4I C19I 1_555 1_555
C20I C19H 1_555 1_555
H13I C22H 1_555 1_555
C21I N3H 1_555 1_555
H14I C19H 1_555 1_555
C22I C23 1_555 1_555
C24I C25 1_555 1_555
H16I C24I 1_555 1_555
N3J C19H 1_555 1_555
C19J N3H 1_555 1_555
H12J C19J 1_555 1_555
N4J C19H 1_555 1_555
C20J C19H 1_555 1_555
H13J C20J 1_555 1_555
C21J N3H 1_555 1_555
H14J C21J 1_555 1_555
C22J C23 1_555 1_555
C24J C25C 1_555 1_555
H16J C24J 1_555 1_555
N3K C19H 1_555 1_555
C19K N3H 1_555 1_555
H12K C21J 1_555 1_555
N4K C19I 1_555 1_555
C20K C20H 1_555 1_555
H13K C22J 1_555 1_555
C21K N3H 1_555 1_555
H14K C19J 1_555 1_555
C22K C23 1_555 1_555
C24K C25B 1_555 1_555
H16K C24K 1_555 1_555
N5I Cu3 1_555 1_555
N6I C27 1_555 1_555
C26I N5 1_555 1_555
H18I C26I 1_555 1_555
H19I C26 1_555 1_555
C27I N6 1_555 1_555
H20I C27 1_555 1_555
H21I C27I 1_555 1_555
C28I N5 1_555 1_555
H22I C28I 1_555 1_555
H23I C28 1_555 1_555
C29I N6 1_555 1_555
H24I C29 1_555 1_555
H25I C29I 1_555 1_555
C32I N5 1_555 1_555
H28I C32I 1_555 1_555
H29I C32I 1_555 1_555
C33I N6 1_555 1_555
H30I C33I 1_555 1_555
H31I C27 1_555 1_555
Cu3A O4 1_555 1_555
N1A C5A 1_555 1_555
O1A C1A 1_555 1_555
O2A C1A 1_555 1_555
O3A Cu3A 1_555 1_555
O4A Cu3 1_555 1_555
C1A C2A 1_555 1_555
C2A C3A 1_555 1_555
C3A H1A 1_555 1_555
C4A C3A 1_555 1_555
H2A C4A 1_555 1_555
C5A C4A 1_555 1_555
C6A C5A 1_555 1_555
H3A C6A 1_555 1_555
C7A C2A 1_555 1_555
H4A C7A 1_555 1_555
C8A N1A 1_555 1_555
C9A C8A 1_555 1_555
H5A C9A 1_555 1_555
C10A C9A 1_555 1_555
H6A C10A 1_555 1_555
C11A C10A 1_555 1_555
C12A C11A 1_555 1_555
H7A C12A 1_555 1_555
C13A C8A 1_555 1_555
H8A C13A 1_555 1_555
C14A O3A 1_555 1_555
C15A N1A 1_555 1_555
C16A C15A 1_555 1_555
H9A C16A 1_555 1_555
C17A C15A 1_555 1_555
H10A C17A 1_555 1_555
C18A C16A 1_555 1_555
H11A C18A 1_555 1_555
N5A Cu3A 1_555 1_555
N6A C27A 1_555 1_555
C26A N5A 1_555 1_555
H18A C26A 1_555 1_555
H19A C26A 1_555 1_555
C27A H20A 1_555 1_555
H20A C27H 1_555 1_555
H21A C27A 1_555 1_555
C28A N5A 1_555 1_555
H22A C28A 1_555 1_555
H23A C28A 1_555 1_555
C29A N6A 1_555 1_555
H24A C29A 1_555 1_555
H25A C29A 1_555 1_555
C32A N5A 1_555 1_555
H28A C32A 1_555 1_555
H29A C32A 1_555 1_555
C33A N6A 1_555 1_555
H30A C33A 1_555 1_555
H31A C33A 1_555 1_555
N1F C5F 1_555 1_555
O1F C1F 1_555 1_555
O2F C1F 1_555 1_555
O3F C14F 1_555 1_555
O4F C14F 1_555 1_555
C1F C2F 1_555 1_555
C2F C3F 1_555 1_555
C3F H1F 1_555 1_555
C4F C3F 1_555 1_555
H2F C4F 1_555 1_555
C5F C4F 1_555 1_555
C6F C5F 1_555 1_555
H3F C6F 1_555 1_555
C7F C2F 1_555 1_555
H4F C7F 1_555 1_555
C8F N1F 1_555 1_555
C9F C8F 1_555 1_555
H5F C9F 1_555 1_555
C10F C9F 1_555 1_555
H6F C10F 1_555 1_555
C11F C10F 1_555 1_555
C12F C11F 1_555 1_555
H7F C12F 1_555 1_555
C13F C8F 1_555 1_555
H8F C13F 1_555 1_555
C14F C11F 1_555 1_555
C15F C17A 1_555 1_555
C16F C18A 1_555 1_555
H9F C16F 1_555 1_555
N5H Cu3A 1_555 1_555
N6H C27A 1_555 1_555
C26H N5A 1_555 1_555
H18H C26H 1_555 1_555
H19H C26A 1_555 1_555
C27H N6A 1_555 1_555
H20H C27A 1_555 1_555
H21H C27H 1_555 1_555
C28H N5A 1_555 1_555
H22H C28H 1_555 1_555
H23H C28A 1_555 1_555
C29H N6A 1_555 1_555
H24H C29A 1_555 1_555
H25H C29H 1_555 1_555
C32H N5A 1_555 1_555
H28H C32H 1_555 1_555
H29H C32H 1_555 1_555
C33H N6A 1_555 1_555
H30H C33H 1_555 1_555
H31H C27A 1_555 1_555
Cu3C O3C 1_555 1_555
N1C C5C 1_555 1_555
O1C Cu2 1_555 1_555
O2C Cu1 1_555 1_555
O3C C14C 1_555 1_555
O4C C14C 1_555 1_555
C1C O1C 1_555 1_555
C2C C1C 1_555 1_555
C3C C2C 1_555 1_555
H1C C3C 1_555 1_555
C4C C3C 1_555 1_555
H2C C4C 1_555 1_555
C5C C4C 1_555 1_555
C6C C5C 1_555 1_555
H3C C6C 1_555 1_555
C7C C2C 1_555 1_555
H4C C7C 1_555 1_555
C8C N1C 1_555 1_555
C9C C8C 1_555 1_555
H5C C9C 1_555 1_555
C10C C9C 1_555 1_555
H6C C10C 1_555 1_555
C11C C10C 1_555 1_555
C12C C11C 1_555 1_555
H7C C12C 1_555 1_555
C13C C8C 1_555 1_555
H8C C13C 1_555 1_555
C14C C11C 1_555 1_555
C15C N1C 1_555 1_555
C16C C15C 1_555 1_555
H9C C16C 1_555 1_555
C17C C15C 1_555 1_555
H10C C17C 1_555 1_555
C18C C16C 1_555 1_555
H11C C18C 1_555 1_555
N5C Cu3C 1_555 1_555
N6C C27C 1_555 1_555
C26C N5C 1_555 1_555
H18C C26C 1_555 1_555
H19C C26C 1_555 1_555
C27C H20C 1_555 1_555
H20C C27J 1_555 1_555
H21C C27C 1_555 1_555
C28C N5C 1_555 1_555
H22C C28C 1_555 1_555
H23C C28C 1_555 1_555
C29C N6C 1_555 1_555
H24C C29C 1_555 1_555
H25C C29C 1_555 1_555
C32C N5C 1_555 1_555
H28C C32C 1_555 1_555
H29C C32C 1_555 1_555
C33C N6C 1_555 1_555
H30C C33C 1_555 1_555
H31C C33C 1_555 1_555
N1D C5D 1_555 1_555
O1D C1D 1_555 1_555
O2D C1D 1_555 1_555
O3D C14D 1_555 1_555
O4D C14D 1_555 1_555
C1D C2D 1_555 1_555
C2D C3D 1_555 1_555
C3D H1D 1_555 1_555
C4D C3D 1_555 1_555
H2D C4D 1_555 1_555
C5D C4D 1_555 1_555
C6D C5D 1_555 1_555
H3D C6D 1_555 1_555
C7D C2D 1_555 1_555
H4D C7D 1_555 1_555
C8D N1D 1_555 1_555
C9D C8D 1_555 1_555
H5D C9D 1_555 1_555
C10D C9D 1_555 1_555
H6D C10D 1_555 1_555
C11D C10D 1_555 1_555
C12D C11D 1_555 1_555
H7D C12D 1_555 1_555
C13D C8D 1_555 1_555
H8D C13D 1_555 1_555
C14D C11D 1_555 1_555
C15D C17C 1_555 1_555
C16D C18C 1_555 1_555
H9D C16D 1_555 1_555
N5J Cu3C 1_555 1_555
N6J C27C 1_555 1_555
C26J N5C 1_555 1_555
H18J C26J 1_555 1_555
H19J C26C 1_555 1_555
C27J N6C 1_555 1_555
H20J C27C 1_555 1_555
H21J C27J 1_555 1_555
C28J N5C 1_555 1_555
H22J C28J 1_555 1_555
H23J C28C 1_555 1_555
C29J N6C 1_555 1_555
H24J C29C 1_555 1_555
H25J C29J 1_555 1_555
C32J N5C 1_555 1_555
H28J C32J 1_555 1_555
H29J C32J 1_555 1_555
C33J N6C 1_555 1_555
H30J C33J 1_555 1_555
H31J C27C 1_555 1_555
Cu1H N2H 1_555 1_555
Cu3B O3B 1_555 1_555
N1B C5B 1_555 1_555
O1B Cu2 1_555 1_555
O2B Cu1 1_555 1_555
O3B C14B 1_555 1_555
O4B C14B 1_555 1_555
C1B O1B 1_555 1_555
C2B C1B 1_555 1_555
C3B C2B 1_555 1_555
H1B C3B 1_555 1_555
C4B C3B 1_555 1_555
H2B C4B 1_555 1_555
C5B C4B 1_555 1_555
C6B C5B 1_555 1_555
H3B C6B 1_555 1_555
C7B C2B 1_555 1_555
H4B C7B 1_555 1_555
C8B N1B 1_555 1_555
C9B C8B 1_555 1_555
H5B C9B 1_555 1_555
C10B C9B 1_555 1_555
H6B C10B 1_555 1_555
C11B C10B 1_555 1_555
C12B C11B 1_555 1_555
H7B C12B 1_555 1_555
C13B C8B 1_555 1_555
H8B C13B 1_555 1_555
C14B C11B 1_555 1_555
C15B N1B 1_555 1_555
C16B C15B 1_555 1_555
H9B C16B 1_555 1_555
C17B C15B 1_555 1_555
H10B C17B 1_555 1_555
C18B C16B 1_555 1_555
H11B C18B 1_555 1_555
N5B Cu3B 1_555 1_555
N6B C27B 1_555 1_555
C26B N5B 1_555 1_555
H18B C26B 1_555 1_555
H19B C26B 1_555 1_555
C27B H20B 1_555 1_555
H20B C27K 1_555 1_555
H21B C27B 1_555 1_555
C28B N5B 1_555 1_555
H22B C28B 1_555 1_555
H23B C28B 1_555 1_555
C29B N6B 1_555 1_555
H24B C29B 1_555 1_555
H25B C29B 1_555 1_555
C32B N5B 1_555 1_555
H28B C32B 1_555 1_555
H29B C32B 1_555 1_555
C33B N6B 1_555 1_555
H30B C33B 1_555 1_555
H31B C33B 1_555 1_555
N1E C5E 1_555 1_555
O1E C1E 1_555 1_555
O2E C1E 1_555 1_555
O3E C14E 1_555 1_555
O4E C14E 1_555 1_555
C1E C2E 1_555 1_555
C2E C3E 1_555 1_555
C3E H1E 1_555 1_555
C4E C3E 1_555 1_555
H2E C4E 1_555 1_555
C5E C4E 1_555 1_555
C6E C5E 1_555 1_555
H3E C6E 1_555 1_555
C7E C2E 1_555 1_555
H4E C7E 1_555 1_555
C8E N1E 1_555 1_555
C9E C8E 1_555 1_555
H5E C9E 1_555 1_555
C10E C9E 1_555 1_555
H6E C10E 1_555 1_555
C11E C10E 1_555 1_555
C12E C11E 1_555 1_555
H7E C12E 1_555 1_555
C13E C8E 1_555 1_555
H8E C13E 1_555 1_555
C14E C11E 1_555 1_555
C15E C17B 1_555 1_555
C16E C18B 1_555 1_555
H9E C16E 1_555 1_555
N5K Cu3B 1_555 1_555
N6K C27B 1_555 1_555
C26K N5B 1_555 1_555
H18K C26K 1_555 1_555
H19K C26B 1_555 1_555
C27K N6B 1_555 1_555
H20K C27B 1_555 1_555
H21K C27K 1_555 1_555
C28K N5B 1_555 1_555
H22K C28K 1_555 1_555
H23K C28B 1_555 1_555
C29K N6B 1_555 1_555
H24K C29B 1_555 1_555
H25K C29K 1_555 1_555
C32K N5B 1_555 1_555
H28K C32K 1_555 1_555
H29K C32K 1_555 1_555
C33K N6B 1_555 1_555
H30K C33K 1_555 1_555
H31K C27B 1_555 1_555
Cu2D O1G 1_555 1_555
Cu1_2 O2A 1_555 1_555
Cu1D O2G 1_555 1_555
Cu1D_2 O2F 1_555 1_555
Cu1D_3 O2E 1_555 1_555
Cu2_2 O1A 1_555 1_555
Cu2D_2 O1F 1_555 1_555
Cu2D_3 O1E 1_555 1_555
Cu2H N3H 1_555 1_555
Cu3B_2 O4C 1_555 1_555
Cu3C_2 O4B 1_555 1_555
Cu3D O4E 1_555 1_555
Cu3D_2 O3D 1_555 1_555
Cu3E O3E 1_555 1_555
Cu3E_2 O4D 1_555 1_555
Cu3F O4G 1_555 1_555
Cu3G O3G 1_555 1_555
O1A_2 Cu2 1_555 1_555
O1D_2 Cu2D 1_555 1_555
O1E_2 Cu2D 1_555 1_555
O1F_2 Cu2D 1_555 1_555
O2A_2 Cu1 1_555 1_555
O2H Cu1H 1_555 1_555
O2I Cu1H 1_555 1_555
O2J Cu1H 1_555 1_555
O2K Cu1H 1_555 1_555
O3H Cu3A 1_555 1_555
O3I Cu3 1_555 1_555
O3J Cu3C 1_555 1_555
O3K Cu3B 1_555 1_555
O4B_2 Cu3C 1_555 1_555
O4C_2 Cu3B 1_555 1_555
O4H Cu3 1_555 1_555
O4I Cu3A 1_555 1_555
O4J Cu3B 1_555 1_555
O4K Cu3C 1_555 1_555
N3D Cu2D 1_555 1_555
N3E Cu2D 1_555 1_555
N3F Cu2D 1_555 1_555
N3G Cu2D 1_555 1_555
C6 C7 1_555 1_555
C12 C13 1_555 1_555
C19 N3A 1_555 1_555
C19 N3B 1_555 1_555
C19 C19B 1_555 1_555
C19 C21B 1_555 1_555
C19 N3C 1_555 1_555
C19 C19C 1_555 1_555
C19 C21C 1_555 1_555
H12 C21A 1_555 1_555
N4 C19C 1_555 1_555
C20 C21 1_555 1_555
C20 C19A 1_555 1_555
C20 C20B 1_555 1_555
C20 C19C 1_555 1_555
C21 N3A 1_555 1_555
C21 N3B 1_555 1_555
C21 C19B 1_555 1_555
C21 C21B 1_555 1_555
C21 N3C 1_555 1_555
C21 C19C 1_555 1_555
C21 C21C 1_555 1_555
H14 C19A 1_555 1_555
C22 C20A 1_555 1_555
C23 C22A 1_555 1_555
C23 H15A 1_555 1_555
C23 C22B 1_555 1_555
C23 C22C 1_555 1_555
H15 C23A 1_555 1_555
H15 C22H 1_555 1_555
C24 H13A 1_555 1_555
C26 N5I 1_555 1_555
C26 C26I 1_555 1_555
C26 C32I 1_555 1_555
H19 C26I 1_555 1_555
C27 C27I 1_555 1_555
C27 C33I 1_555 1_555
C28 C29 1_555 1_555
C28 C32 1_555 1_555
C28 N5I 1_555 1_555
C28 C28I 1_555 1_555
C28 C29I 1_555 1_555
H22 C32 1_555 1_555
H23 C28I 1_555 1_555
C29 C33 1_555 1_555
C29 N6I 1_555 1_555
C29 C28I 1_555 1_555
H24 C29I 1_555 1_555
C30 C31 1_555 1_555
C30 N2A 1_555 1_555
C30 N2B 1_555 1_555
C30 C31B 1_555 1_555
C30 N2C 1_555 1_555
H26 C31B 1_555 1_555
C31 H27 1_555 1_555
C31 N2A 1_555 1_555
C31 N2B 1_555 1_555
C31 N2C 1_555 1_555
C31 C30C 1_555 1_555
C32 C33 1_555 1_555
C32 N5I 1_555 1_555
C32 C26I 1_555 1_555
C33 N6I 1_555 1_555
C33 C27I 1_555 1_555
H31 C27I 1_555 1_555
N1G C15G 1_555 1_555
C6G C7G 1_555 1_555
C12G C13G 1_555 1_555
C15G C16G 1_555 1_555
N2A C30A 1_555 1_555
N2A C31A 1_555 1_555
N2A C30B 1_555 1_555
N2A C31B 1_555 1_555
N2A C30C 1_555 1_555
N2A C31C 1_555 1_555
C30A C31A 1_555 1_555
C30A N2B 1_555 1_555
C30A N2C 1_555 1_555
C30A C31C 1_555 1_555
H26A C31C 1_555 1_555
C31A H27A 1_555 1_555
C31A N2B 1_555 1_555
C31A C30B 1_555 1_555
C31A N2C 1_555 1_555
N2B C30B 1_555 1_555
N2B C31B 1_555 1_555
N2B C30C 1_555 1_555
N2B C31C 1_555 1_555
C30B H26B 1_555 1_555
C30B C31B 1_555 1_555
C30B N2C 1_555 1_555
C31B H27B 1_555 1_555
C31B N2C 1_555 1_555
N2C C30C 1_555 1_555
N2C C31C 1_555 1_555
C30C H26C 1_555 1_555
C30C C31C 1_555 1_555
C31C H27C 1_555 1_555
N2H C31H 1_555 1_555
N2H C30I 1_555 1_555
N2H C31I 1_555 1_555
N2H C30J 1_555 1_555
N2H C31J 1_555 1_555
N2H C30K 1_555 1_555
N2H C31K 1_555 1_555
C30H C31H 1_555 1_555
C30H C31J 1_555 1_555
H26H C31J 1_555 1_555
C31H H27H 1_555 1_555
C31H N2I 1_555 1_555
C31H N2J 1_555 1_555
C31H N2K 1_555 1_555
C31H C30K 1_555 1_555
N2I C30I 1_555 1_555
N2I C31I 1_555 1_555
N2I C30J 1_555 1_555
N2I C31J 1_555 1_555
N2I C30K 1_555 1_555
N2I C31K 1_555 1_555
N2I Cu1H 1_555 1_555
C30I C31I 1_555 1_555
C30I N2J 1_555 1_555
C30I N2K 1_555 1_555
C30I C31K 1_555 1_555
H26I C31K 1_555 1_555
C31I H27I 1_555 1_555
C31I N2J 1_555 1_555
C31I C30J 1_555 1_555
C31I N2K 1_555 1_555
N2J C30J 1_555 1_555
N2J C31J 1_555 1_555
N2J C30K 1_555 1_555
N2J C31K 1_555 1_555
N2J Cu1H 1_555 1_555
C30J H26J 1_555 1_555
C30J C31J 1_555 1_555
C30J N2K 1_555 1_555
C31J H27J 1_555 1_555
C31J N2K 1_555 1_555
N2K C30K 1_555 1_555
N2K C31K 1_555 1_555
N2K Cu1H 1_555 1_555
C30K H26K 1_555 1_555
C30K C31K 1_555 1_555
C31K H27K 1_555 1_555
N3A C19A 1_555 1_555
N3A C21A 1_555 1_555
N3A C19B 1_555 1_555
N3A C21B 1_555 1_555
N3A C19C 1_555 1_555
N3A C21C 1_555 1_555
C19A H12A 1_555 1_555
C19A N3B 1_555 1_555
C19A C19B 1_555 1_555
C19A C21B 1_555 1_555
C19A N3C 1_555 1_555
C19A C19C 1_555 1_555
C19A C20C 1_555 1_555
C19A C21C 1_555 1_555
N4A C19B 1_555 1_555
C20A H13A 1_555 1_555
C20A C21A 1_555 1_555
C20A C19B 1_555 1_555
C20A C20B 1_555 1_555
C20A C20C 1_555 1_555
C21A H14A 1_555 1_555
C21A N3B 1_555 1_555
C21A C19B 1_555 1_555
C21A C21B 1_555 1_555
C21A N3C 1_555 1_555
C21A C19C 1_555 1_555
C21A C21C 1_555 1_555
C22A C23A 1_555 1_555
C22A C24A 1_555 1_555
C22A C22B 1_555 1_555
C22A C22C 1_555 1_555
C23A H15A 1_555 1_555
C23A C22B 1_555 1_555
C23A H15B 1_555 1_555
C23A C22C 1_555 1_555
C23A H15C 1_555 1_555
C23A C22H 1_555 1_555
C23A C22I 1_555 1_555
C23A C22J 1_555 1_555
C23A C22K 1_555 1_555
H15A C22I 1_555 1_555
N3B C19B 1_555 1_555
N3B C21B 1_555 1_555
N3B C19C 1_555 1_555
N3B C21C 1_555 1_555
C19B N4B 1_555 1_555
C19B N3C 1_555 1_555
C19B C20C 1_555 1_555
H12B C21C 1_555 1_555
C20B C21B 1_555 1_555
C20B C19C 1_555 1_555
C20B C22C 1_555 1_555
H13B C22C 1_555 1_555
C21B N3C 1_555 1_555
H14B C19C 1_555 1_555
C22B C20C 1_555 1_555
C22B H15C 1_555 1_555
H15B C22C 1_555 1_555
H15B C22J 1_555 1_555
C24B H13C 1_555 1_555
N3C C19C 1_555 1_555
N3C C21C 1_555 1_555
C19C H12C 1_555 1_555
C19C N4C 1_555 1_555
C20C H13C 1_555 1_555
C20C C21C 1_555 1_555
C21C H14C 1_555 1_555
C22C C24C 1_555 1_555
H15C C22K 1_555 1_555
C19H C19J 1_555 1_555
C19H C21J 1_555 1_555
C19H C19K 1_555 1_555
C19H C21K 1_555 1_555
N4H C19K 1_555 1_555
C20H C21H 1_555 1_555
C20H C19I 1_555 1_555
C20H C22I 1_555 1_555
C20H C20J 1_555 1_555
C20H C19K 1_555 1_555
H13H C24I 1_555 1_555
C21H N3I 1_555 1_555
C21H N3J 1_555 1_555
C21H C19J 1_555 1_555
C21H C21J 1_555 1_555
C21H N3K 1_555 1_555
C21H C19K 1_555 1_555
C21H C21K 1_555 1_555
H14H C19I 1_555 1_555
C22H C24H 1_555 1_555
C22H C20I 1_555 1_555
C22H C22J 1_555 1_555
C22H C22K 1_555 1_555
C24H H13I 1_555 1_555
N3I C19I 1_555 1_555
N3I C21I 1_555 1_555
N3I C19J 1_555 1_555
N3I C21J 1_555 1_555
N3I C19K 1_555 1_555
N3I C21K 1_555 1_555
N3I Cu2H 1_555 1_555
C19I H12I 1_555 1_555
C19I N3J 1_555 1_555
C19I C19J 1_555 1_555
C19I C21J 1_555 1_555
C19I N3K 1_555 1_555
C19I C19K 1_555 1_555
C19I C20K 1_555 1_555
C19I C21K 1_555 1_555
N4I C19J 1_555 1_555
C20I H13I 1_555 1_555
C20I C21I 1_555 1_555
C20I C19J 1_555 1_555
C20I C20J 1_555 1_555
C20I C20K 1_555 1_555
C21I H14I 1_555 1_555
C21I N3J 1_555 1_555
C21I C19J 1_555 1_555
C21I C21J 1_555 1_555
C21I N3K 1_555 1_555
C21I C19K 1_555 1_555
C21I C21K 1_555 1_555
C22I C24I 1_555 1_555
C22I C22J 1_555 1_555
C22I C22K 1_555 1_555
N3J C19J 1_555 1_555
N3J C21J 1_555 1_555
N3J C19K 1_555 1_555
N3J C21K 1_555 1_555
N3J Cu2H 1_555 1_555
C19J N4J 1_555 1_555
C19J N3K 1_555 1_555
C19J C20K 1_555 1_555
H12J C21K 1_555 1_555
C20J C21J 1_555 1_555
C20J C19K 1_555 1_555
C20J C22K 1_555 1_555
H13J C22K 1_555 1_555
H13J C24K 1_555 1_555
C21J N3K 1_555 1_555
H14J C19K 1_555 1_555
C22J C24J 1_555 1_555
C22J C20K 1_555 1_555
C24J H13K 1_555 1_555
N3K C19K 1_555 1_555
N3K C21K 1_555 1_555
N3K Cu2H 1_555 1_555
C19K H12K 1_555 1_555
C19K N4K 1_555 1_555
C20K H13K 1_555 1_555
C20K C21K 1_555 1_555
C21K H14K 1_555 1_555
C22K C24K 1_555 1_555
N5I C26I 1_555 1_555
N5I C28I 1_555 1_555
N5I C32I 1_555 1_555
N6I C27I 1_555 1_555
N6I C29I 1_555 1_555
N6I C33I 1_555 1_555
C26I H19I 1_555 1_555
C27I H20I 1_555 1_555
C28I H23I 1_555 1_555
C28I C29I 1_555 1_555
C28I C32I 1_555 1_555
H22I C32I 1_555 1_555
C29I H24I 1_555 1_555
C29I C33I 1_555 1_555
C32I C33I 1_555 1_555
C33I H31I 1_555 1_555
O4A C14A 1_555 1_555
C6A C7A 1_555 1_555
C11A C14A 1_555 1_555
C12A C13A 1_555 1_555
C26A N5H 1_555 1_555
C26A C26H 1_555 1_555
C26A C32H 1_555 1_555
H19A C26H 1_555 1_555
C27A C27H 1_555 1_555
C27A C33H 1_555 1_555
C28A C29A 1_555 1_555
C28A C32A 1_555 1_555
C28A N5H 1_555 1_555
C28A C28H 1_555 1_555
C28A C29H 1_555 1_555
H22A C32A 1_555 1_555
H23A C28H 1_555 1_555
C29A C33A 1_555 1_555
C29A N6H 1_555 1_555
C29A C28H 1_555 1_555
H24A C29H 1_555 1_555
C32A C33A 1_555 1_555
C32A N5H 1_555 1_555
C32A C26H 1_555 1_555
C33A N6H 1_555 1_555
C33A C27H 1_555 1_555
H31A C27H 1_555 1_555
N1F C15F 1_555 1_555
O3F Cu3F 1_555 1_555
O4F Cu3G 1_555 1_555
C6F C7F 1_555 1_555
C12F C13F 1_555 1_555
C15F C16F 1_555 1_555
N5H C26H 1_555 1_555
N5H C28H 1_555 1_555
N5H C32H 1_555 1_555
N6H C27H 1_555 1_555
N6H C29H 1_555 1_555
N6H C33H 1_555 1_555
C26H H19H 1_555 1_555
C27H H20H 1_555 1_555
C28H H23H 1_555 1_555
C28H C29H 1_555 1_555
C28H C32H 1_555 1_555
H22H C32H 1_555 1_555
C29H H24H 1_555 1_555
C29H C33H 1_555 1_555
C32H C33H 1_555 1_555
C33H H31H 1_555 1_555
O2C C1C 1_555 1_555
C6C C7C 1_555 1_555
C12C C13C 1_555 1_555
C26C N5J 1_555 1_555
C26C C26J 1_555 1_555
C26C C32J 1_555 1_555
H19C C26J 1_555 1_555
C27C C27J 1_555 1_555
C27C C33J 1_555 1_555
C28C C29C 1_555 1_555
C28C C32C 1_555 1_555
C28C N5J 1_555 1_555
C28C C28J 1_555 1_555
C28C C29J 1_555 1_555
H22C C32C 1_555 1_555
H23C C28J 1_555 1_555
C29C C33C 1_555 1_555
C29C N6J 1_555 1_555
C29C C28J 1_555 1_555
H24C C29J 1_555 1_555
C32C C33C 1_555 1_555
C32C N5J 1_555 1_555
C32C C26J 1_555 1_555
C33C N6J 1_555 1_555
C33C C27J 1_555 1_555
H31C C27J 1_555 1_555
N1D C15D 1_555 1_555
O1D Cu2D_2 1_555 1_555
O2D Cu1D_2 1_555 1_555
C6D C7D 1_555 1_555
C12D C13D 1_555 1_555
C15D C16D 1_555 1_555
N5J C26J 1_555 1_555
N5J C28J 1_555 1_555
N5J C32J 1_555 1_555
N6J C27J 1_555 1_555
N6J C29J 1_555 1_555
N6J C33J 1_555 1_555
C26J H19J 1_555 1_555
C27J H20J 1_555 1_555
C28J H23J 1_555 1_555
C28J C29J 1_555 1_555
C28J C32J 1_555 1_555
H22J C32J 1_555 1_555
C29J H24J 1_555 1_555
C29J C33J 1_555 1_555
C32J C33J 1_555 1_555
C33J H31J 1_555 1_555
O2B C1B 1_555 1_555
C6B C7B 1_555 1_555
C12B C13B 1_555 1_555
C26B N5K 1_555 1_555
C26B C26K 1_555 1_555
C26B C32K 1_555 1_555
H19B C26K 1_555 1_555
C27B C27K 1_555 1_555
C27B C33K 1_555 1_555
C28B C29B 1_555 1_555
C28B C32B 1_555 1_555
C28B N5K 1_555 1_555
C28B C28K 1_555 1_555
C28B C29K 1_555 1_555
H22B C32B 1_555 1_555
H23B C28K 1_555 1_555
C29B C33B 1_555 1_555
C29B N6K 1_555 1_555
C29B C28K 1_555 1_555
H24B C29K 1_555 1_555
C32B C33B 1_555 1_555
C32B N5K 1_555 1_555
C32B C26K 1_555 1_555
C33B N6K 1_555 1_555
C33B C27K 1_555 1_555
H31B C27K 1_555 1_555
N1E C15E 1_555 1_555
C6E C7E 1_555 1_555
C12E C13E 1_555 1_555
C15E C16E 1_555 1_555
N5K C26K 1_555 1_555
N5K C28K 1_555 1_555
N5K C32K 1_555 1_555
N6K C27K 1_555 1_555
N6K C29K 1_555 1_555
N6K C33K 1_555 1_555
C26K H19K 1_555 1_555
C27K H20K 1_555 1_555
C28K H23K 1_555 1_555
C28K C29K 1_555 1_555
C28K C32K 1_555 1_555
H22K C32K 1_555 1_555
C29K H24K 1_555 1_555
C29K C33K 1_555 1_555
C32K C33K 1_555 1_555
C33K H31K 1_555 1_555

#END
