
#######################################################################
#
#                 Cambridge Crystallographic Data Centre
#                                CCDC 
#
#######################################################################
#
# If this CIF has been generated from an entry in the Cambridge 
# Structural Database, then it will include bibliographic, chemical, 
# crystal, experimental, refinement or atomic coordinate data resulting 
# from the CCDC's data processing and validation procedures.
#
#######################################################################

data_XUDQEU
_chemical_name_common            DUT-95
_chemical_formula_moiety         '(C178 H148 Cu8 N24 O32)n'
_chemical_name_systematic        
"catena-[tetrakis(\m-4,4',4'',4'''-(1,3-phenylenedinitrilo)tetrabenzoato)-(\m-1,4-bis(1H-imidazol-1-yl)benzene)-(\m-1,4-diazabicyclo[2.2.2]octane)-tetrakis(1,4-diazabicyclo[2.2.2]octane)-octa-copper unknown solvate]"
_symmetry_cell_setting           tetragonal
_symmetry_space_group_name_H-M   'P 4/m n c'
_symmetry_Int_Tables_number      128
_space_group_name_Hall           '-P 4 2n'
loop_
_symmetry_equiv_pos_site_id
_symmetry_equiv_pos_as_xyz
1 x,y,z
2 -x,-y,z
3 -y,x,z
4 y,-x,z
5 1/2-x,1/2+y,1/2-z
6 1/2+x,1/2-y,1/2-z
7 1/2+y,1/2+x,1/2-z
8 1/2-y,1/2-x,1/2-z
9 -x,-y,-z
10 x,y,-z
11 y,-x,-z
12 -y,x,-z
13 1/2+x,1/2-y,1/2+z
14 1/2-x,1/2+y,1/2+z
15 1/2-y,1/2-x,1/2+z
16 1/2+y,1/2+x,1/2+z
_cell_length_a                   26.610(4)
_cell_length_b                   26.610(4)
_cell_length_c                   26.810(5)
_cell_angle_alpha                90
_cell_angle_beta                 90
_cell_angle_gamma                90
_cell_volume                     18983.9
_exptl_crystal_colour            green
_exptl_crystal_description       block
_cell_formula_units_Z            2
_chemical_properties_physical    Moisture-sensitive
loop_
_atom_site_label
_atom_site_type_symbol
_atom_site_fract_x
_atom_site_fract_y
_atom_site_fract_z
Cu1 Cu 0.47640(2) -0.04371(3) 0.5000
Cu2 Cu 0.0000 0.0000 0.36901(3)
Cu3 Cu 0.0000 0.0000 0.26983(3)
O1 O 0.43508(12) -0.01169(13) 0.44875(13)
O2 O 0.47451(10) 0.06286(13) 0.44881(12)
O3 O 0.07023(7) 0.02388(8) 0.36015(9)
N1 N 0.0000 0.0000 0.45124(18)
O4 O 0.06813(9) 0.02690(11) 0.27694(10)
N2 N 0.4345(2) -0.1138(2) 0.5000
N3 N 0.28785(11) 0.11273(14) 0.30887(13)
N4 N 0.0000 0.0000 0.1884(3)
C1 C 0.44054(14) 0.03370(19) 0.43548(17)
C2 C 0.40149(13) 0.05467(17) 0.39977(17)
C3 C 0.36537(15) 0.02280(18) 0.37897(17)
H1 H 0.3657 -0.0114 0.3860
C4 C 0.32931(14) 0.04263(17) 0.34804(17)
H2 H 0.3057 0.0211 0.3338
C5 C 0.32679(13) 0.09315(16) 0.33729(16)
C6 C 0.36334(14) 0.12462(18) 0.35765(18)
H3 H 0.3631 0.1588 0.3502
C7 C 0.40019(15) 0.10520(18) 0.38902(18)
H4 H 0.4241 0.1265 0.4028
C8 C 0.23888(12) 0.09162(15) 0.31175(16)
C9 C 0.21720(13) 0.08042(17) 0.35679(16)
H5 H 0.2351 0.0858 0.3861
C10 C 0.16886(13) 0.06106(16) 0.35903(16)
H6 H 0.1549 0.0533 0.3899
C11 C 0.14170(11) 0.05323(13) 0.31699(14)
C12 C 0.08892(11) 0.03288(11) 0.31839(14)
C13 C 0.16327(14) 0.06469(18) 0.27117(16)
H7 H 0.1450 0.0597 0.2420
C14 C 0.21188(15) 0.08348(19) 0.26840(17)
H8 H 0.2262 0.0906 0.2375
C15 C 0.29432(13) 0.15711(15) 0.27869(17)
C16 C 0.33672(14) 0.16328(14) 0.2500
H9 H 0.3614 0.1386 0.2500
C17 C 0.25813(18) 0.1937(2) 0.2788(2)
H10 H 0.2296 0.1897 0.2984
C18 C 0.2635(2) 0.2365(2) 0.2500
H11 H 0.2388 0.2612 0.2500
C19 C 0.0104(11) 0.0443(4) 0.1629(5)
H12 H 0.0176 0.0736 0.1805
C20 C 0.0100(12) 0.0448(4) 0.1115(6)
H13 H 0.0164 0.0745 0.0943
N5 N 0.007(2) 0.0524(8) 0.0243(4)
C21 C 0.0000 0.0000 0.0850(6)
C22 C 0.0000 0.0000 0.0343(7)
C23 C 0.3804(4) -0.1078(6) 0.5000
C24 C 0.3538(6) -0.1561(7) 0.5000
C25 C 0.4596(7) -0.1590(5) 0.5000
C26 C 0.4421(9) -0.2139(6) 0.5000
N6 N 0.3870(8) -0.2001(7) 0.5000
C27 C -0.0259(17) -0.0420(14) 0.4702(6)
H14 H -0.0602 -0.0415 0.4582
C28 C 0.012(3) -0.0483(6) 0.4724(8)
H15 H 0.0448 -0.0587 0.4606
H16 H -0.0123 -0.0728 0.4606
H17 H 0.3705 -0.0887 0.4708
H18 H 0.3323 -0.1577 0.5292
H19 H 0.4816 -0.1569 0.5288
H20 H 0.4522 -0.2321 0.4703
C29 C 0.4238(8) -0.1311(7) 0.4494(6)
H21 H 0.4550 -0.1358 0.4314
H22 H 0.4042 -0.1059 0.4320
C30 C 0.3948(8) -0.1803(7) 0.4508(10)
H23 H 0.3623 -0.1751 0.4352
H24 H 0.4128 -0.2050 0.4312
O1G O 0.51169(13) 0.06492(12) 0.05125(13)
O2G O 0.43714(13) 0.02549(10) 0.05119(12)
O3G O 0.47612(8) 0.42977(7) 0.13985(9)
O4G O 0.47310(11) 0.43187(9) 0.22306(10)
N3G N 0.38727(14) 0.21215(11) 0.19113(13)
C1G C 0.46630(19) 0.05946(14) 0.06452(17)
C2G C 0.44533(17) 0.09851(13) 0.10023(17)
C3G C 0.47720(18) 0.13463(15) 0.12103(17)
H1G H 0.5114 0.1343 0.1140
C4G C 0.45737(17) 0.17069(14) 0.15196(17)
H2G H 0.4789 0.1943 0.1662
C5G C 0.40685(16) 0.17321(13) 0.16271(16)
C6G C 0.37538(18) 0.13666(14) 0.14235(18)
H3G H 0.3412 0.1369 0.1498
C7G C 0.39480(18) 0.09981(15) 0.11098(18)
H4G H 0.3735 0.0759 0.0972
C8G C 0.40838(15) 0.26112(12) 0.18825(16)
C9G C 0.41958(17) 0.28280(13) 0.14321(16)
H5G H 0.4142 0.2649 0.1139
C10G C 0.43894(16) 0.33114(13) 0.14097(16)
H6G H 0.4467 0.3451 0.1101
C11G C 0.44677(13) 0.35830(11) 0.18301(14)
C12G C 0.46712(11) 0.41108(11) 0.18161(14)
C13G C 0.43531(18) 0.33673(14) 0.22883(16)
H7G H 0.4403 0.3550 0.2580
C14G C 0.41652(19) 0.28812(15) 0.23160(17)
H8G H 0.4094 0.2738 0.2625
C15G C 0.34289(15) 0.20568(13) 0.22131(17)
C17G C 0.3063(2) 0.24187(18) 0.2212(2)
H10G H 0.3103 0.2704 0.2016
C27A C 0.0259(17) 0.0420(14) 0.4702(6)
H14A H 0.0602 0.0415 0.4582
C28A C -0.012(3) 0.0483(6) 0.4724(8)
H15A H -0.0448 0.0587 0.4606
H16A H 0.0123 0.0728 0.4606
C27B C 0.0420(14) -0.0259(17) 0.4702(6)
H14B H 0.0415 -0.0602 0.4582
C28B C 0.0483(6) 0.012(3) 0.4724(8)
H15B H 0.0587 0.0448 0.4606
H16B H 0.0728 -0.0123 0.4606
C27C C -0.0420(14) 0.0259(17) 0.4702(6)
H14C H -0.0415 0.0602 0.4582
C28C C -0.0483(6) -0.012(3) 0.4724(8)
H15C H -0.0587 -0.0448 0.4606
H16C H -0.0728 0.0123 0.4606
N1H N 0.0000 0.0000 0.54876(18)
C27H C 0.0259(17) 0.0420(14) 0.5298(6)
H14H H 0.0602 0.0415 0.5418
C28H C -0.012(3) 0.0483(6) 0.5276(8)
H15H H -0.0448 0.0587 0.5394
H16H H 0.0123 0.0728 0.5394
C27I C -0.0259(17) -0.0420(14) 0.5298(6)
H14I H -0.0602 -0.0415 0.5418
C28I C 0.012(3) -0.0483(6) 0.5276(8)
H15I H 0.0448 -0.0587 0.5394
H16I H -0.0123 -0.0728 0.5394
C27J C -0.0420(14) 0.0259(17) 0.5298(6)
H14J H -0.0415 0.0602 0.5418
C28J C -0.0483(6) -0.012(3) 0.5276(8)
H15J H -0.0587 -0.0448 0.5394
H16J H -0.0728 0.0123 0.5394
C27K C 0.0420(14) -0.0259(17) 0.5298(6)
H14K H 0.0415 -0.0602 0.5418
C28K C 0.0483(6) 0.012(3) 0.5276(8)
H15K H 0.0587 0.0448 0.5394
H16K H 0.0728 -0.0123 0.5394
H17I H 0.3705 -0.0887 0.5292
H18I H 0.3323 -0.1577 0.4708
H19I H 0.4816 -0.1569 0.4712
H20I H 0.4522 -0.2321 0.5297
C29I C 0.4238(8) -0.1311(7) 0.5506(6)
H21I H 0.4550 -0.1358 0.5686
H22I H 0.4042 -0.1059 0.5680
C30I C 0.3948(8) -0.1803(7) 0.5492(10)
H23I H 0.3623 -0.1751 0.5648
H24I H 0.4128 -0.2050 0.5688
C19A C -0.0104(11) -0.0443(4) 0.1629(5)
H12A H -0.0176 -0.0736 0.1805
C20A C -0.0100(12) -0.0448(4) 0.1115(6)
H13A H -0.0164 -0.0745 0.0943
N5A N -0.007(2) -0.0524(8) 0.0243(4)
C19B C -0.0443(4) 0.0104(11) 0.1629(5)
H12B H -0.0736 0.0176 0.1805
C20B C -0.0448(4) 0.0100(12) 0.1115(6)
H13B H -0.0745 0.0164 0.0943
N5B N -0.0524(8) 0.007(2) 0.0243(4)
C19C C 0.0443(4) -0.0104(11) 0.1629(5)
H12C H 0.0736 -0.0176 0.1805
C20C C 0.0448(4) -0.0100(12) 0.1115(6)
H13C H 0.0745 -0.0164 0.0943
N5C N 0.0524(8) -0.007(2) 0.0243(4)
N4H N 0.0000 0.0000 -0.1884(3)
C19H C -0.0104(11) -0.0443(4) -0.1629(5)
H12H H -0.0176 -0.0736 -0.1805
C20H C -0.0100(12) -0.0448(4) -0.1115(6)
H13H H -0.0164 -0.0745 -0.0943
N5H N -0.007(2) -0.0524(8) -0.0243(4)
C21H C 0.0000 0.0000 -0.0850(6)
C22H C 0.0000 0.0000 -0.0343(7)
C19I C 0.0104(11) 0.0443(4) -0.1629(5)
H12I H 0.0176 0.0736 -0.1805
C20I C 0.0100(12) 0.0448(4) -0.1115(6)
H13I H 0.0164 0.0745 -0.0943
N5I N 0.007(2) 0.0524(8) -0.0243(4)
C19J C 0.0443(4) -0.0104(11) -0.1629(5)
H12J H 0.0736 -0.0176 -0.1805
C20J C 0.0448(4) -0.0100(12) -0.1115(6)
H13J H 0.0745 -0.0164 -0.0943
N5J N 0.0524(8) -0.007(2) -0.0243(4)
C19K C -0.0443(4) 0.0104(11) -0.1629(5)
H12K H -0.0736 0.0176 -0.1805
C20K C -0.0448(4) 0.0100(12) -0.1115(6)
H13K H -0.0745 0.0164 -0.0943
N5K N -0.0524(8) 0.007(2) -0.0243(4)
Cu1A Cu -0.47640(2) 0.04371(3) 0.5000
O1A O -0.43508(12) 0.01169(13) 0.44875(13)
O2A O -0.47451(10) -0.06286(13) 0.44881(12)
O3A O -0.07023(7) -0.02388(8) 0.36015(9)
O4A O -0.06813(9) -0.02690(11) 0.27694(10)
N2A N -0.4345(2) 0.1138(2) 0.5000
N3A N -0.28785(11) -0.11273(14) 0.30887(13)
C1A C -0.44054(14) -0.03370(19) 0.43548(17)
C2A C -0.40149(13) -0.05467(17) 0.39977(17)
C3A C -0.36537(15) -0.02280(18) 0.37897(17)
H1A H -0.3657 0.0114 0.3860
C4A C -0.32931(14) -0.04263(17) 0.34804(17)
H2A H -0.3057 -0.0211 0.3338
C5A C -0.32679(13) -0.09315(16) 0.33729(16)
C6A C -0.36334(14) -0.12462(18) 0.35765(18)
H3A H -0.3631 -0.1588 0.3502
C7A C -0.40019(15) -0.10520(18) 0.38902(18)
H4A H -0.4241 -0.1265 0.4028
C8A C -0.23888(12) -0.09162(15) 0.31175(16)
C9A C -0.21720(13) -0.08042(17) 0.35679(16)
H5A H -0.2351 -0.0858 0.3861
C10A C -0.16886(13) -0.06106(16) 0.35903(16)
H6A H -0.1549 -0.0533 0.3899
C11A C -0.14170(11) -0.05323(13) 0.31699(14)
C12A C -0.08892(11) -0.03288(11) 0.31839(14)
C13A C -0.16327(14) -0.06469(18) 0.27117(16)
H7A H -0.1450 -0.0597 0.2420
C14A C -0.21188(15) -0.08348(19) 0.26840(17)
H8A H -0.2262 -0.0906 0.2375
C15A C -0.29432(13) -0.15711(15) 0.27869(17)
C16A C -0.33672(14) -0.16328(14) 0.2500
H9A H -0.3614 -0.1386 0.2500
C17A C -0.25813(18) -0.1937(2) 0.2788(2)
H10A H -0.2296 -0.1897 0.2984
C18A C -0.2635(2) -0.2365(2) 0.2500
H11A H -0.2388 -0.2612 0.2500
C23A C -0.3804(4) 0.1078(6) 0.5000
C24A C -0.3538(6) 0.1561(7) 0.5000
C25A C -0.4596(7) 0.1590(5) 0.5000
C26A C -0.4421(9) 0.2139(6) 0.5000
N6A N -0.3870(8) 0.2001(7) 0.5000
H17A H -0.3705 0.0887 0.4708
H18A H -0.3323 0.1577 0.5292
H19A H -0.4816 0.1569 0.5288
H20A H -0.4522 0.2321 0.4703
C29A C -0.4238(8) 0.1311(7) 0.4494(6)
H21A H -0.4550 0.1358 0.4314
H22A H -0.4042 0.1059 0.4320
C30A C -0.3948(8) 0.1803(7) 0.4508(10)
H23A H -0.3623 0.1751 0.4352
H24A H -0.4128 0.2050 0.4312
O1F O -0.51169(13) -0.06492(12) 0.05125(13)
O2F O -0.43714(13) -0.02549(10) 0.05119(12)
O3F O -0.47612(8) -0.42977(7) 0.13985(9)
O4F O -0.47310(11) -0.43187(9) 0.22306(10)
N3F N -0.38727(14) -0.21215(11) 0.19113(13)
C1F C -0.46630(19) -0.05946(14) 0.06452(17)
C2F C -0.44533(17) -0.09851(13) 0.10023(17)
C3F C -0.47720(18) -0.13463(15) 0.12103(17)
H1F H -0.5114 -0.1343 0.1140
C4F C -0.45737(17) -0.17069(14) 0.15196(17)
H2F H -0.4789 -0.1943 0.1662
C5F C -0.40685(16) -0.17321(13) 0.16271(16)
C6F C -0.37538(18) -0.13666(14) 0.14235(18)
H3F H -0.3412 -0.1369 0.1498
C7F C -0.39480(18) -0.09981(15) 0.11098(18)
H4F H -0.3735 -0.0759 0.0972
C8F C -0.40838(15) -0.26112(12) 0.18825(16)
C9F C -0.41958(17) -0.28280(13) 0.14321(16)
H5F H -0.4142 -0.2649 0.1139
C10F C -0.43894(16) -0.33114(13) 0.14097(16)
H6F H -0.4467 -0.3451 0.1101
C11F C -0.44677(13) -0.35830(11) 0.18301(14)
C12F C -0.46712(11) -0.41108(11) 0.18161(14)
C13F C -0.43531(18) -0.33673(14) 0.22883(16)
H7F H -0.4403 -0.3550 0.2580
C14F C -0.41652(19) -0.28812(15) 0.23160(17)
H8F H -0.4094 -0.2738 0.2625
C15F C -0.34289(15) -0.20568(13) 0.22131(17)
C17F C -0.3063(2) -0.24187(18) 0.2212(2)
H10F H -0.3103 -0.2704 0.2016
H17H H -0.3705 0.0887 0.5292
H18H H -0.3323 0.1577 0.4708
H19H H -0.4816 0.1569 0.4712
H20H H -0.4522 0.2321 0.5297
C29H C -0.4238(8) 0.1311(7) 0.5506(6)
H21H H -0.4550 0.1358 0.5686
H22H H -0.4042 0.1059 0.5680
C30H C -0.3948(8) 0.1803(7) 0.5492(10)
H23H H -0.3623 0.1751 0.5648
H24H H -0.4128 0.2050 0.5688
Cu1B Cu 0.04371(3) 0.47640(2) 0.5000
O1B O 0.01169(13) 0.43508(12) 0.44875(13)
O2B O -0.06286(13) 0.47451(10) 0.44881(12)
O3B O -0.02388(8) 0.07023(7) 0.36015(9)
O4B O -0.02690(11) 0.06813(9) 0.27694(10)
N2B N 0.1138(2) 0.4345(2) 0.5000
N3B N -0.11273(14) 0.28785(11) 0.30887(13)
C1B C -0.03370(19) 0.44054(14) 0.43548(17)
C2B C -0.05467(17) 0.40149(13) 0.39977(17)
C3B C -0.02280(18) 0.36537(15) 0.37897(17)
H1B H 0.0114 0.3657 0.3860
C4B C -0.04263(17) 0.32931(14) 0.34804(17)
H2B H -0.0211 0.3057 0.3338
C5B C -0.09315(16) 0.32679(13) 0.33729(16)
C6B C -0.12462(18) 0.36334(14) 0.35765(18)
H3B H -0.1588 0.3631 0.3502
C7B C -0.10520(18) 0.40019(15) 0.38902(18)
H4B H -0.1265 0.4241 0.4028
C8B C -0.09162(15) 0.23888(12) 0.31175(16)
C9B C -0.08042(17) 0.21720(13) 0.35679(16)
H5B H -0.0858 0.2351 0.3861
C10B C -0.06106(16) 0.16886(13) 0.35903(16)
H6B H -0.0533 0.1549 0.3899
C11B C -0.05323(13) 0.14170(11) 0.31699(14)
C12B C -0.03288(11) 0.08892(11) 0.31839(14)
C13B C -0.06469(18) 0.16327(14) 0.27117(16)
H7B H -0.0597 0.1450 0.2420
C14B C -0.08348(19) 0.21188(15) 0.26840(17)
H8B H -0.0906 0.2262 0.2375
C15B C -0.15711(15) 0.29432(13) 0.27869(17)
C16B C -0.16328(14) 0.33672(14) 0.2500
H9B H -0.1386 0.3614 0.2500
C17B C -0.1937(2) 0.25813(18) 0.2788(2)
H10B H -0.1897 0.2296 0.2984
C18B C -0.2365(2) 0.2635(2) 0.2500
H11B H -0.2612 0.2388 0.2500
C23B C 0.1078(6) 0.3804(4) 0.5000
C24B C 0.1561(7) 0.3538(6) 0.5000
C25B C 0.1590(5) 0.4596(7) 0.5000
C26B C 0.2139(6) 0.4421(9) 0.5000
N6B N 0.2001(7) 0.3870(8) 0.5000
H17B H 0.0887 0.3705 0.4708
H18B H 0.1577 0.3323 0.5292
H19B H 0.1569 0.4816 0.5288
H20B H 0.2321 0.4522 0.4703
C29B C 0.1311(7) 0.4238(8) 0.4494(6)
H21B H 0.1358 0.4550 0.4314
H22B H 0.1059 0.4042 0.4320
C30B C 0.1803(7) 0.3948(8) 0.4508(10)
H23B H 0.1751 0.3623 0.4352
H24B H 0.2050 0.4128 0.4312
O1E O -0.06492(12) 0.51169(13) 0.05125(13)
O2E O -0.02549(10) 0.43714(13) 0.05119(12)
O3E O -0.42977(7) 0.47612(8) 0.13985(9)
O4E O -0.43187(9) 0.47310(11) 0.22306(10)
N3E N -0.21215(11) 0.38727(14) 0.19113(13)
C1E C -0.05946(14) 0.46630(19) 0.06452(17)
C2E C -0.09851(13) 0.44533(17) 0.10023(17)
C3E C -0.13463(15) 0.47720(18) 0.12103(17)
H1E H -0.1343 0.5114 0.1140
C4E C -0.17069(14) 0.45737(17) 0.15196(17)
H2E H -0.1943 0.4789 0.1662
C5E C -0.17321(13) 0.40685(16) 0.16271(16)
C6E C -0.13666(14) 0.37538(18) 0.14235(18)
H3E H -0.1369 0.3412 0.1498
C7E C -0.09981(15) 0.39480(18) 0.11098(18)
H4E H -0.0759 0.3735 0.0972
C8E C -0.26112(12) 0.40838(15) 0.18825(16)
C9E C -0.28280(13) 0.41958(17) 0.14321(16)
H5E H -0.2649 0.4142 0.1139
C10E C -0.33114(13) 0.43894(16) 0.14097(16)
H6E H -0.3451 0.4467 0.1101
C11E C -0.35830(11) 0.44677(13) 0.18301(14)
C12E C -0.41108(11) 0.46712(11) 0.18161(14)
C13E C -0.33673(14) 0.43531(18) 0.22883(16)
H7E H -0.3550 0.4403 0.2580
C14E C -0.28812(15) 0.41652(19) 0.23160(17)
H8E H -0.2738 0.4094 0.2625
C15E C -0.20568(13) 0.34289(15) 0.22131(17)
C17E C -0.24187(18) 0.3063(2) 0.2212(2)
H10E H -0.2704 0.3103 0.2016
H17K H 0.0887 0.3705 0.5292
H18K H 0.1577 0.3323 0.4708
H19K H 0.1569 0.4816 0.4712
H20K H 0.2321 0.4522 0.5297
C29K C 0.1311(7) 0.4238(8) 0.5506(6)
H21K H 0.1358 0.4550 0.5686
H22K H 0.1059 0.4042 0.5680
C30K C 0.1803(7) 0.3948(8) 0.5492(10)
H23K H 0.1751 0.3623 0.5648
H24K H 0.2050 0.4128 0.5688
Cu1C Cu -0.04371(3) -0.47640(2) 0.5000
O1C O -0.01169(13) -0.43508(12) 0.44875(13)
O2C O 0.06286(13) -0.47451(10) 0.44881(12)
O3C O 0.02388(8) -0.07023(7) 0.36015(9)
O4C O 0.02690(11) -0.06813(9) 0.27694(10)
N2C N -0.1138(2) -0.4345(2) 0.5000
N3C N 0.11273(14) -0.28785(11) 0.30887(13)
C1C C 0.03370(19) -0.44054(14) 0.43548(17)
C2C C 0.05467(17) -0.40149(13) 0.39977(17)
C3C C 0.02280(18) -0.36537(15) 0.37897(17)
H1C H -0.0114 -0.3657 0.3860
C4C C 0.04263(17) -0.32931(14) 0.34804(17)
H2C H 0.0211 -0.3057 0.3338
C5C C 0.09315(16) -0.32679(13) 0.33729(16)
C6C C 0.12462(18) -0.36334(14) 0.35765(18)
H3C H 0.1588 -0.3631 0.3502
C7C C 0.10520(18) -0.40019(15) 0.38902(18)
H4C H 0.1265 -0.4241 0.4028
C8C C 0.09162(15) -0.23888(12) 0.31175(16)
C9C C 0.08042(17) -0.21720(13) 0.35679(16)
H5C H 0.0858 -0.2351 0.3861
C10C C 0.06106(16) -0.16886(13) 0.35903(16)
H6C H 0.0533 -0.1549 0.3899
C11C C 0.05323(13) -0.14170(11) 0.31699(14)
C12C C 0.03288(11) -0.08892(11) 0.31839(14)
C13C C 0.06469(18) -0.16327(14) 0.27117(16)
H7C H 0.0597 -0.1450 0.2420
C14C C 0.08348(19) -0.21188(15) 0.26840(17)
H8C H 0.0906 -0.2262 0.2375
C15C C 0.15711(15) -0.29432(13) 0.27869(17)
C16C C 0.16328(14) -0.33672(14) 0.2500
H9C H 0.1386 -0.3614 0.2500
C17C C 0.1937(2) -0.25813(18) 0.2788(2)
H10C H 0.1897 -0.2296 0.2984
C18C C 0.2365(2) -0.2635(2) 0.2500
H11C H 0.2612 -0.2388 0.2500
C23C C -0.1078(6) -0.3804(4) 0.5000
C24C C -0.1561(7) -0.3538(6) 0.5000
C25C C -0.1590(5) -0.4596(7) 0.5000
C26C C -0.2139(6) -0.4421(9) 0.5000
N6C N -0.2001(7) -0.3870(8) 0.5000
H17C H -0.0887 -0.3705 0.4708
H18C H -0.1577 -0.3323 0.5292
H19C H -0.1569 -0.4816 0.5288
H20C H -0.2321 -0.4522 0.4703
C29C C -0.1311(7) -0.4238(8) 0.4494(6)
H21C H -0.1358 -0.4550 0.4314
H22C H -0.1059 -0.4042 0.4320
C30C C -0.1803(7) -0.3948(8) 0.4508(10)
H23C H -0.1751 -0.3623 0.4352
H24C H -0.2050 -0.4128 0.4312
O1D O 0.06492(12) -0.51169(13) 0.05125(13)
O2D O 0.02549(10) -0.43714(13) 0.05119(12)
O3D O 0.42977(7) -0.47612(8) 0.13985(9)
O4D O 0.43187(9) -0.47310(11) 0.22306(10)
N3D N 0.21215(11) -0.38727(14) 0.19113(13)
C1D C 0.05946(14) -0.46630(19) 0.06452(17)
C2D C 0.09851(13) -0.44533(17) 0.10023(17)
C3D C 0.13463(15) -0.47720(18) 0.12103(17)
H1D H 0.1343 -0.5114 0.1140
C4D C 0.17069(14) -0.45737(17) 0.15196(17)
H2D H 0.1943 -0.4789 0.1662
C5D C 0.17321(13) -0.40685(16) 0.16271(16)
C6D C 0.13666(14) -0.37538(18) 0.14235(18)
H3D H 0.1369 -0.3412 0.1498
C7D C 0.09981(15) -0.39480(18) 0.11098(18)
H4D H 0.0759 -0.3735 0.0972
C8D C 0.26112(12) -0.40838(15) 0.18825(16)
C9D C 0.28280(13) -0.41958(17) 0.14321(16)
H5D H 0.2649 -0.4142 0.1139
C10D C 0.33114(13) -0.43894(16) 0.14097(16)
H6D H 0.3451 -0.4467 0.1101
C11D C 0.35830(11) -0.44677(13) 0.18301(14)
C12D C 0.41108(11) -0.46712(11) 0.18161(14)
C13D C 0.33673(14) -0.43531(18) 0.22883(16)
H7D H 0.3550 -0.4403 0.2580
C14D C 0.28812(15) -0.41652(19) 0.23160(17)
H8D H 0.2738 -0.4094 0.2625
C15D C 0.20568(13) -0.34289(15) 0.22131(17)
C17D C 0.24187(18) -0.3063(2) 0.2212(2)
H10D H 0.2704 -0.3103 0.2016
H17J H -0.0887 -0.3705 0.5292
H18J H -0.1577 -0.3323 0.4708
H19J H -0.1569 -0.4816 0.4712
H20J H -0.2321 -0.4522 0.5297
C29J C -0.1311(7) -0.4238(8) 0.5506(6)
H21J H -0.1358 -0.4550 0.5686
H22J H -0.1059 -0.4042 0.5680
C30J C -0.1803(7) -0.3948(8) 0.5492(10)
H23J H -0.1751 -0.3623 0.5648
H24J H -0.2050 -0.4128 0.5688
Cu3H Cu 0.0000 0.0000 -0.26983(3)
Cu2D Cu 0.5000 0.5000 0.13099(3)
Cu1_2 Cu -0.52360(2) -0.04371(3) 0.5000
Cu1A_2 Cu 0.52360(2) 0.04371(3) 0.5000
Cu1B_2 Cu 0.04371(3) -0.52360(2) 0.5000
Cu1C_2 Cu -0.04371(3) 0.52360(2) 0.5000
Cu1D Cu 0.02360(2) -0.54371(3) 0.0000
Cu1D_2 Cu 0.02360(2) 0.45629(3) 0.0000
Cu1E Cu -0.02360(2) -0.45629(3) 0.0000
Cu1E_2 Cu -0.02360(2) 0.54371(3) 0.0000
Cu1F Cu -0.54371(3) -0.02360(2) 0.0000
Cu1F_2 Cu 0.45629(3) -0.02360(2) 0.0000
Cu1G Cu -0.45629(3) 0.02360(2) 0.0000
Cu1G_2 Cu 0.54371(3) 0.02360(2) 0.0000
Cu2D_2 Cu -0.5000 -0.5000 0.13099(3)
Cu2D_3 Cu -0.5000 0.5000 0.13099(3)
Cu2D_4 Cu 0.5000 -0.5000 0.13099(3)
Cu2H Cu 0.0000 0.0000 0.63099(3)
Cu3D Cu -0.5000 -0.5000 0.23017(3)
Cu3D_2 Cu -0.5000 0.5000 0.23017(3)
Cu3D_3 Cu 0.5000 -0.5000 0.23017(3)
Cu3D_4 Cu 0.5000 0.5000 0.23017(3)
O1H O -0.43508(12) 0.01169(13) 0.55125(13)
O1I O 0.43508(12) -0.01169(13) 0.55125(13)
O1J O -0.01169(13) -0.43508(12) 0.55125(13)
O1K O 0.01169(13) 0.43508(12) 0.55125(13)
O2_2 O -0.52549(10) 0.06286(13) 0.44881(12)
O2A_2 O 0.52549(10) -0.06286(13) 0.44881(12)
O2B_2 O -0.06286(13) -0.52549(10) 0.44881(12)
O2C_2 O 0.06286(13) 0.52549(10) 0.44881(12)
O2H O 0.52549(10) -0.06286(13) 0.55119(12)
O2I O -0.52549(10) 0.06286(13) 0.55119(12)
O2J O 0.06286(13) 0.52549(10) 0.55119(12)
O2K O -0.06286(13) -0.52549(10) 0.55119(12)
O3D_2 O 0.42977(7) 0.52388(8) 0.13985(9)
O3E_2 O 0.57023(7) 0.47612(8) 0.13985(9)
O3F_2 O 0.52388(8) 0.57023(7) 0.13985(9)
N1D N 0.5000 0.5000 0.04876(18)
O4H O -0.06813(9) -0.02690(11) -0.27694(10)
O4I O 0.06813(9) 0.02690(11) -0.27694(10)
O4J O 0.02690(11) -0.06813(9) -0.27694(10)
O4K O -0.02690(11) 0.06813(9) -0.27694(10)
H25? H -0.0100 -0.0725 0.4582
loop_
_geom_bond_atom_site_label_1
_geom_bond_atom_site_label_2
_geom_bond_site_symmetry_1
_geom_bond_site_symmetry_2
Cu1 O1 1_555 1_555
Cu2 O3 1_555 1_555
Cu3 O4 1_555 1_555
O1 C1 1_555 1_555
O2 C1 1_555 1_555
O3 C12 1_555 1_555
N1 Cu2 1_555 1_555
O4 C12 1_555 1_555
N2 Cu1 1_555 1_555
N3 C5 1_555 1_555
N4 Cu3 1_555 1_555
C1 C2 1_555 1_555
C2 C3 1_555 1_555
C3 H1 1_555 1_555
C4 C3 1_555 1_555
H2 C4 1_555 1_555
C5 C4 1_555 1_555
C6 C5 1_555 1_555
H3 C6 1_555 1_555
C7 C2 1_555 1_555
H4 C7 1_555 1_555
C8 N3 1_555 1_555
C9 C8 1_555 1_555
H5 C9 1_555 1_555
C10 C9 1_555 1_555
H6 C10 1_555 1_555
C11 C10 1_555 1_555
C12 C11 1_555 1_555
C13 C11 1_555 1_555
H7 C13 1_555 1_555
C14 C8 1_555 1_555
H8 C14 1_555 1_555
C15 N3 1_555 1_555
C16 C15 1_555 1_555
H9 C16 1_555 1_555
C17 C15 1_555 1_555
H10 C17 1_555 1_555
C18 C17 1_555 1_555
H11 C18 1_555 1_555
C19 N4 1_555 1_555
H12 C19 1_555 1_555
C20 C19 1_555 1_555
H13 C20 1_555 1_555
N5 C22 1_555 1_555
C21 C20 1_555 1_555
C22 C21 1_555 1_555
C23 N2 1_555 1_555
C24 C23 1_555 1_555
C25 N2 1_555 1_555
C26 C25 1_555 1_555
N6 C24 1_555 1_555
C27 N1 1_555 1_555
H14 C27 1_555 1_555
C28 N1 1_555 1_555
H15 C28 1_555 1_555
H16 C27 1_555 1_555
H17 C23 1_555 1_555
H18 C24 1_555 1_555
H19 C25 1_555 1_555
H20 C26 1_555 1_555
C29 N2 1_555 1_555
H21 C29 1_555 1_555
H22 C29 1_555 1_555
C30 N6 1_555 1_555
H23 C30 1_555 1_555
H24 C30 1_555 1_555
O1G C1G 1_555 1_555
O2G C1G 1_555 1_555
O3G C12G 1_555 1_555
O4G C12G 1_555 1_555
N3G C5G 1_555 1_555
C1G C2G 1_555 1_555
C2G C3G 1_555 1_555
C3G H1G 1_555 1_555
C4G C3G 1_555 1_555
H2G C4G 1_555 1_555
C5G C4G 1_555 1_555
C6G C5G 1_555 1_555
H3G C6G 1_555 1_555
C7G C2G 1_555 1_555
H4G C7G 1_555 1_555
C8G N3G 1_555 1_555
C9G C8G 1_555 1_555
H5G C9G 1_555 1_555
C10G C9G 1_555 1_555
H6G C10G 1_555 1_555
C11G C10G 1_555 1_555
C12G C11G 1_555 1_555
C13G C11G 1_555 1_555
H7G C13G 1_555 1_555
C14G C8G 1_555 1_555
H8G C14G 1_555 1_555
C15G C16 1_555 1_555
C17G C18 1_555 1_555
H10G C17G 1_555 1_555
C27A N1 1_555 1_555
H14A C27A 1_555 1_555
C28A N1 1_555 1_555
H15A C28A 1_555 1_555
H16A C27A 1_555 1_555
C27B N1 1_555 1_555
H14B C28 1_555 1_555
C28B N1 1_555 1_555
H15B C27A 1_555 1_555
H16B C27B 1_555 1_555
C27C N1 1_555 1_555
H14C C28A 1_555 1_555
C28C N1 1_555 1_555
H15C C27 1_555 1_555
H16C C27C 1_555 1_555
N1H C27H 1_555 1_555
C27H C27A 1_555 1_555
H14H C27H 1_555 1_555
C28H C28A 1_555 1_555
H15H C28H 1_555 1_555
H16H C27H 1_555 1_555
C27I C27 1_555 1_555
H14I C27I 1_555 1_555
C28I C28 1_555 1_555
H15I C28I 1_555 1_555
H16I C27I 1_555 1_555
C27J C27C 1_555 1_555
H14J C28H 1_555 1_555
C28J C28C 1_555 1_555
H15J C27I 1_555 1_555
H16J C27J 1_555 1_555
C27K C27B 1_555 1_555
H14K C28I 1_555 1_555
C28K C28B 1_555 1_555
H15K C27H 1_555 1_555
H16K C27K 1_555 1_555
H17I C23 1_555 1_555
H18I C24 1_555 1_555
H19I C25 1_555 1_555
H20I C26 1_555 1_555
C29I N2 1_555 1_555
H21I C29I 1_555 1_555
H22I C29I 1_555 1_555
C30I N6 1_555 1_555
H23I C30I 1_555 1_555
H24I C30I 1_555 1_555
C19A N4 1_555 1_555
H12A C19A 1_555 1_555
C20A C21 1_555 1_555
H13A C20A 1_555 1_555
N5A C22 1_555 1_555
C19B N4 1_555 1_555
H12B C19B 1_555 1_555
C20B C20 1_555 1_555
H13B C20B 1_555 1_555
N5B C22 1_555 1_555
C19C N4 1_555 1_555
H12C C19C 1_555 1_555
C20C C20 1_555 1_555
H13C C20C 1_555 1_555
N5C C22 1_555 1_555
N4H C19H 1_555 1_555
C19H H12H 1_555 1_555
C20H C19H 1_555 1_555
H13H C20H 1_555 1_555
N5H N5A 1_555 1_555
C21H C20H 1_555 1_555
C22H N5H 1_555 1_555
C19I N4H 1_555 1_555
H12I C19I 1_555 1_555
C20I C21H 1_555 1_555
H13I C20I 1_555 1_555
N5I N5 1_555 1_555
C19J N4H 1_555 1_555
H12J C19J 1_555 1_555
C20J C20H 1_555 1_555
H13J C20J 1_555 1_555
N5J N5C 1_555 1_555
C19K N4H 1_555 1_555
H12K C19K 1_555 1_555
C20K C20H 1_555 1_555
H13K C20K 1_555 1_555
N5K N5B 1_555 1_555
Cu1A O1A 1_555 1_555
O1A C1A 1_555 1_555
O2A C1A 1_555 1_555
O3A Cu2 1_555 1_555
O4A Cu3 1_555 1_555
N2A Cu1A 1_555 1_555
N3A C5A 1_555 1_555
C1A C2A 1_555 1_555
C2A C3A 1_555 1_555
C3A H1A 1_555 1_555
C4A C3A 1_555 1_555
H2A C4A 1_555 1_555
C5A C4A 1_555 1_555
C6A C5A 1_555 1_555
H3A C6A 1_555 1_555
C7A C2A 1_555 1_555
H4A C7A 1_555 1_555
C8A N3A 1_555 1_555
C9A C8A 1_555 1_555
H5A C9A 1_555 1_555
C10A C9A 1_555 1_555
H6A C10A 1_555 1_555
C11A C10A 1_555 1_555
C12A O3A 1_555 1_555
C13A C11A 1_555 1_555
H7A C13A 1_555 1_555
C14A C8A 1_555 1_555
H8A C14A 1_555 1_555
C15A N3A 1_555 1_555
C16A C15A 1_555 1_555
H9A C16A 1_555 1_555
C17A C15A 1_555 1_555
H10A C17A 1_555 1_555
C18A C17A 1_555 1_555
H11A C18A 1_555 1_555
C23A N2A 1_555 1_555
C24A C23A 1_555 1_555
C25A N2A 1_555 1_555
C26A C25A 1_555 1_555
N6A C24A 1_555 1_555
H17A C23A 1_555 1_555
H18A C24A 1_555 1_555
H19A C25A 1_555 1_555
H20A C26A 1_555 1_555
C29A N2A 1_555 1_555
H21A C29A 1_555 1_555
H22A C29A 1_555 1_555
C30A N6A 1_555 1_555
H23A C30A 1_555 1_555
H24A C30A 1_555 1_555
O1F C1F 1_555 1_555
O2F C1F 1_555 1_555
O3F C12F 1_555 1_555
O4F C12F 1_555 1_555
N3F C5F 1_555 1_555
C1F C2F 1_555 1_555
C2F C3F 1_555 1_555
C3F H1F 1_555 1_555
C4F C3F 1_555 1_555
H2F C4F 1_555 1_555
C5F C4F 1_555 1_555
C6F C5F 1_555 1_555
H3F C6F 1_555 1_555
C7F C2F 1_555 1_555
H4F C7F 1_555 1_555
C8F N3F 1_555 1_555
C9F C8F 1_555 1_555
H5F C9F 1_555 1_555
C10F C9F 1_555 1_555
H6F C10F 1_555 1_555
C11F C10F 1_555 1_555
C12F C11F 1_555 1_555
C13F C11F 1_555 1_555
H7F C13F 1_555 1_555
C14F C8F 1_555 1_555
H8F C14F 1_555 1_555
C15F C16A 1_555 1_555
C17F C18A 1_555 1_555
H10F C17F 1_555 1_555
H17H C23A 1_555 1_555
H18H C24A 1_555 1_555
H19H C25A 1_555 1_555
H20H C26A 1_555 1_555
C29H N2A 1_555 1_555
H21H C29H 1_555 1_555
H22H C29H 1_555 1_555
C30H N6A 1_555 1_555
H23H C30H 1_555 1_555
H24H C30H 1_555 1_555
Cu1B O1B 1_555 1_555
O1B C1B 1_555 1_555
O2B C1B 1_555 1_555
O3B Cu2 1_555 1_555
O4B Cu3 1_555 1_555
N2B Cu1B 1_555 1_555
N3B C5B 1_555 1_555
C1B C2B 1_555 1_555
C2B C3B 1_555 1_555
C3B H1B 1_555 1_555
C4B C3B 1_555 1_555
H2B C4B 1_555 1_555
C5B C4B 1_555 1_555
C6B C5B 1_555 1_555
H3B C6B 1_555 1_555
C7B C2B 1_555 1_555
H4B C7B 1_555 1_555
C8B N3B 1_555 1_555
C9B C8B 1_555 1_555
H5B C9B 1_555 1_555
C10B C9B 1_555 1_555
H6B C10B 1_555 1_555
C11B C10B 1_555 1_555
C12B O3B 1_555 1_555
C13B C11B 1_555 1_555
H7B C13B 1_555 1_555
C14B C8B 1_555 1_555
H8B C14B 1_555 1_555
C15B N3B 1_555 1_555
C16B C15B 1_555 1_555
H9B C16B 1_555 1_555
C17B C15B 1_555 1_555
H10B C17B 1_555 1_555
C18B C17B 1_555 1_555
H11B C18B 1_555 1_555
C23B N2B 1_555 1_555
C24B C23B 1_555 1_555
C25B N2B 1_555 1_555
C26B C25B 1_555 1_555
N6B C24B 1_555 1_555
H17B C23B 1_555 1_555
H18B C24B 1_555 1_555
H19B C25B 1_555 1_555
H20B C26B 1_555 1_555
C29B N2B 1_555 1_555
H21B C29B 1_555 1_555
H22B C29B 1_555 1_555
C30B N6B 1_555 1_555
H23B C30B 1_555 1_555
H24B C30B 1_555 1_555
O1E C1E 1_555 1_555
O2E C1E 1_555 1_555
O3E C12E 1_555 1_555
O4E C12E 1_555 1_555
N3E C5E 1_555 1_555
C1E C2E 1_555 1_555
C2E C3E 1_555 1_555
C3E H1E 1_555 1_555
C4E C3E 1_555 1_555
H2E C4E 1_555 1_555
C5E C4E 1_555 1_555
C6E C5E 1_555 1_555
H3E C6E 1_555 1_555
C7E C2E 1_555 1_555
H4E C7E 1_555 1_555
C8E N3E 1_555 1_555
C9E C8E 1_555 1_555
H5E C9E 1_555 1_555
C10E C9E 1_555 1_555
H6E C10E 1_555 1_555
C11E C10E 1_555 1_555
C12E C11E 1_555 1_555
C13E C11E 1_555 1_555
H7E C13E 1_555 1_555
C14E C8E 1_555 1_555
H8E C14E 1_555 1_555
C15E C16B 1_555 1_555
C17E C18B 1_555 1_555
H10E C17E 1_555 1_555
H17K C23B 1_555 1_555
H18K C24B 1_555 1_555
H19K C25B 1_555 1_555
H20K C26B 1_555 1_555
C29K N2B 1_555 1_555
H21K C29K 1_555 1_555
H22K C29K 1_555 1_555
C30K N6B 1_555 1_555
H23K C30K 1_555 1_555
H24K C30K 1_555 1_555
Cu1C O1C 1_555 1_555
O1C C1C 1_555 1_555
O2C C1C 1_555 1_555
O3C Cu2 1_555 1_555
O4C Cu3 1_555 1_555
N2C Cu1C 1_555 1_555
N3C C5C 1_555 1_555
C1C C2C 1_555 1_555
C2C C3C 1_555 1_555
C3C H1C 1_555 1_555
C4C C3C 1_555 1_555
H2C C4C 1_555 1_555
C5C C4C 1_555 1_555
C6C C5C 1_555 1_555
H3C C6C 1_555 1_555
C7C C2C 1_555 1_555
H4C C7C 1_555 1_555
C8C N3C 1_555 1_555
C9C C8C 1_555 1_555
H5C C9C 1_555 1_555
C10C C9C 1_555 1_555
H6C C10C 1_555 1_555
C11C C10C 1_555 1_555
C12C O3C 1_555 1_555
C13C C11C 1_555 1_555
H7C C13C 1_555 1_555
C14C C8C 1_555 1_555
H8C C14C 1_555 1_555
C15C N3C 1_555 1_555
C16C C15C 1_555 1_555
H9C C16C 1_555 1_555
C17C C15C 1_555 1_555
H10C C17C 1_555 1_555
C18C C17C 1_555 1_555
H11C C18C 1_555 1_555
C23C N2C 1_555 1_555
C24C C23C 1_555 1_555
C25C N2C 1_555 1_555
C26C C25C 1_555 1_555
N6C C24C 1_555 1_555
H17C C23C 1_555 1_555
H18C C24C 1_555 1_555
H19C C25C 1_555 1_555
H20C C26C 1_555 1_555
C29C N2C 1_555 1_555
H21C C29C 1_555 1_555
H22C C29C 1_555 1_555
C30C N6C 1_555 1_555
H23C C30C 1_555 1_555
H24C C30C 1_555 1_555
O1D C1D 1_555 1_555
O2D C1D 1_555 1_555
O3D C12D 1_555 1_555
O4D C12D 1_555 1_555
N3D C5D 1_555 1_555
C1D C2D 1_555 1_555
C2D C3D 1_555 1_555
C3D H1D 1_555 1_555
C4D C3D 1_555 1_555
H2D C4D 1_555 1_555
C5D C4D 1_555 1_555
C6D C5D 1_555 1_555
H3D C6D 1_555 1_555
C7D C2D 1_555 1_555
H4D C7D 1_555 1_555
C8D N3D 1_555 1_555
C9D C8D 1_555 1_555
H5D C9D 1_555 1_555
C10D C9D 1_555 1_555
H6D C10D 1_555 1_555
C11D C10D 1_555 1_555
C12D C11D 1_555 1_555
C13D C11D 1_555 1_555
H7D C13D 1_555 1_555
C14D C8D 1_555 1_555
H8D C14D 1_555 1_555
C15D C16C 1_555 1_555
C17D C18C 1_555 1_555
H10D C17D 1_555 1_555
H17J C23C 1_555 1_555
H18J C24C 1_555 1_555
H19J C25C 1_555 1_555
H20J C26C 1_555 1_555
C29J N2C 1_555 1_555
H21J C29J 1_555 1_555
H22J C29J 1_555 1_555
C30J N6C 1_555 1_555
H23J C30J 1_555 1_555
H24J C30J 1_555 1_555
Cu3H N4H 1_555 1_555
Cu2D O3G 1_555 1_555
Cu1_2 O2A 1_555 1_555
Cu1A_2 O2 1_555 1_555
Cu1B_2 O2C 1_555 1_555
Cu1C_2 O2B 1_555 1_555
Cu1D O1D 1_555 1_555
Cu1D_2 O2E 1_555 1_555
Cu1E O2D 1_555 1_555
Cu1E_2 O1E 1_555 1_555
Cu1F O1F 1_555 1_555
Cu1F_2 O2G 1_555 1_555
Cu1G O2F 1_555 1_555
Cu1G_2 O1G 1_555 1_555
Cu2D_2 O3F 1_555 1_555
Cu2D_3 O3E 1_555 1_555
Cu2D_4 O3D 1_555 1_555
Cu2H N1H 1_555 1_555
Cu3D O4F 1_555 1_555
Cu3D_2 O4E 1_555 1_555
Cu3D_3 O4D 1_555 1_555
Cu3D_4 O4G 1_555 1_555
O1H Cu1A 1_555 1_555
O1I Cu1 1_555 1_555
O1J Cu1C 1_555 1_555
O1K Cu1B 1_555 1_555
O2_2 Cu1A 1_555 1_555
O2A_2 Cu1 1_555 1_555
O2B_2 Cu1C 1_555 1_555
O2C_2 Cu1B 1_555 1_555
O2H Cu1 1_555 1_555
O2I Cu1A 1_555 1_555
O2J Cu1B 1_555 1_555
O2K Cu1C 1_555 1_555
O3D_2 Cu2D 1_555 1_555
O3E_2 Cu2D 1_555 1_555
O3F_2 Cu2D 1_555 1_555
N1D Cu2D 1_555 1_555
O4H Cu3H 1_555 1_555
O4I Cu3H 1_555 1_555
O4J Cu3H 1_555 1_555
O4K Cu3H 1_555 1_555
C6 C7 1_555 1_555
C13 C14 1_555 1_555
C19 C19B 1_555 1_555
C19 C19C 1_555 1_555
C21 C20B 1_555 1_555
C21 C20C 1_555 1_555
C26 N6 1_555 1_555
C27 C28 1_555 1_555
C27 C28C 1_555 1_555
H14 C28C 1_555 1_555
C28 H16 1_555 1_555
C28 C27B 1_555 1_555
H15 C27B 1_555 1_555
C29 C30 1_555 1_555
N3G C15G 1_555 1_555
C6G C7G 1_555 1_555
C13G C14G 1_555 1_555
C15G C17G 1_555 1_555
C27A C28A 1_555 1_555
C27A C28B 1_555 1_555
H14A C28B 1_555 1_555
C28A H16A 1_555 1_555
C28A C27C 1_555 1_555
H15A C27C 1_555 1_555
C27B H14B 1_555 1_555
C27B C28B 1_555 1_555
C28B H15B 1_555 1_555
C28B H16B 1_555 1_555
C27C H14C 1_555 1_555
C27C C28C 1_555 1_555
C28C H15C 1_555 1_555
C28C H16C 1_555 1_555
N1H C28H 1_555 1_555
N1H C27I 1_555 1_555
N1H C28I 1_555 1_555
N1H C27J 1_555 1_555
N1H C28J 1_555 1_555
N1H C27K 1_555 1_555
N1H C28K 1_555 1_555
C27H C28H 1_555 1_555
C27H C28K 1_555 1_555
H14H C28K 1_555 1_555
C28H H16H 1_555 1_555
C28H C27J 1_555 1_555
H15H C27J 1_555 1_555
C27I C28I 1_555 1_555
C27I C28J 1_555 1_555
H14I C28J 1_555 1_555
C28I H16I 1_555 1_555
C28I C27K 1_555 1_555
H15I C27K 1_555 1_555
C27J H14J 1_555 1_555
C27J C28J 1_555 1_555
C28J H15J 1_555 1_555
C28J H16J 1_555 1_555
C27K H14K 1_555 1_555
C27K C28K 1_555 1_555
C28K H15K 1_555 1_555
C28K H16K 1_555 1_555
C29I C30I 1_555 1_555
C19A C20A 1_555 1_555
C19A C19B 1_555 1_555
C19A C19C 1_555 1_555
C20A C20B 1_555 1_555
C20A C20C 1_555 1_555
C19B C20B 1_555 1_555
C19C C20C 1_555 1_555
C19H C19J 1_555 1_555
C19H C19K 1_555 1_555
C21H C22H 1_555 1_555
C21H C20J 1_555 1_555
C21H C20K 1_555 1_555
C22H N5I 1_555 1_555
C22H N5J 1_555 1_555
C22H N5K 1_555 1_555
C19I C20I 1_555 1_555
C19I C19J 1_555 1_555
C19I C19K 1_555 1_555
C20I C20J 1_555 1_555
C20I C20K 1_555 1_555
C19J C20J 1_555 1_555
C19K C20K 1_555 1_555
O4A C12A 1_555 1_555
C6A C7A 1_555 1_555
C11A C12A 1_555 1_555
C13A C14A 1_555 1_555
C26A N6A 1_555 1_555
C29A C30A 1_555 1_555
N3F C15F 1_555 1_555
C6F C7F 1_555 1_555
C13F C14F 1_555 1_555
C15F C17F 1_555 1_555
C29H C30H 1_555 1_555
O4B C12B 1_555 1_555
C6B C7B 1_555 1_555
C11B C12B 1_555 1_555
C13B C14B 1_555 1_555
C26B N6B 1_555 1_555
C29B C30B 1_555 1_555
N3E C15E 1_555 1_555
C6E C7E 1_555 1_555
C13E C14E 1_555 1_555
C15E C17E 1_555 1_555
C29K C30K 1_555 1_555
O4C C12C 1_555 1_555
C6C C7C 1_555 1_555
C11C C12C 1_555 1_555
C13C C14C 1_555 1_555
C26C N6C 1_555 1_555
C29C C30C 1_555 1_555
N3D C15D 1_555 1_555
C6D C7D 1_555 1_555
C13D C14D 1_555 1_555
C15D C17D 1_555 1_555
C29J C30J 1_555 1_555

#END
