
#######################################################################
#
#                 Cambridge Crystallographic Data Centre
#                                CCDC 
#
#######################################################################
#
# If this CIF has been generated from an entry in the Cambridge 
# Structural Database, then it will include bibliographic, chemical, 
# crystal, experimental, refinement or atomic coordinate data resulting 
# from the CCDC's data processing and validation procedures.
#
#######################################################################

data_RUVKAV
_chemical_name_common            
"catena-[(mu!8$-5,5'-Buta-1,3-diyne-1,4-diyldibenzene-1,3-dicarboxylato)-diaqua-di-copper(ii) dimethylformamide solvate trihydrate]"
_chemical_formula_moiety         '(C20 H10 Cu2 O10)n,n(C3 H7 N1 O1),3n(H2 O1)'
_chemical_name_systematic        
"catena-[(\m~8~-5,5'-(Butadiyne-1,4-diyl)diisophthalato)-diaqua-di-copper(ii) dimethylformamide solvate trihydrate]"
_symmetry_cell_setting           rhombohedral
_symmetry_space_group_name_H-M   'R -3 m'
_symmetry_Int_Tables_number      166
_space_group_name_Hall           '-R 3 2"'
loop_
_symmetry_equiv_pos_site_id
_symmetry_equiv_pos_as_xyz
1 x,y,z
2 -y,x-y,z
3 -x+y,-x,z
4 y,x,-z
5 x-y,-y,-z
6 -x,-x+y,-z
7 2/3+x,1/3+y,1/3+z
8 2/3-y,1/3+x-y,1/3+z
9 2/3-x+y,1/3-x,1/3+z
10 2/3+y,1/3+x,1/3-z
11 2/3+x-y,1/3-y,1/3-z
12 2/3-x,1/3-x+y,1/3-z
13 1/3+x,2/3+y,2/3+z
14 1/3-y,2/3+x-y,2/3+z
15 1/3-x+y,2/3-x,2/3+z
16 1/3+y,2/3+x,2/3-z
17 1/3+x-y,2/3-y,2/3-z
18 1/3-x,2/3-x+y,2/3-z
19 -x,-y,-z
20 y,-x+y,-z
21 x-y,x,-z
22 -y,-x,z
23 -x+y,y,z
24 x,x-y,z
25 1/3-x,2/3-y,2/3-z
26 1/3+y,2/3-x+y,2/3-z
27 1/3+x-y,2/3+x,2/3-z
28 1/3-y,2/3-x,2/3+z
29 1/3-x+y,2/3+y,2/3+z
30 1/3+x,2/3+x-y,2/3+z
31 2/3-x,1/3-y,1/3-z
32 2/3+y,1/3-x+y,1/3-z
33 2/3+x-y,1/3+x,1/3-z
34 2/3-y,1/3-x,1/3+z
35 2/3-x+y,1/3+y,1/3+z
36 2/3+x,1/3+x-y,1/3+z
_cell_length_a                   18.7762(5)
_cell_length_b                   18.7762(5)
_cell_length_c                   40.787(2)
_cell_angle_alpha                90
_cell_angle_beta                 90
_cell_angle_gamma                120
_cell_volume                     12452.8
_exptl_crystal_colour            green
_exptl_crystal_description       block
_cell_formula_units_Z            9
loop_
_atom_site_label
_atom_site_type_symbol
_atom_site_fract_x
_atom_site_fract_y
_atom_site_fract_z
_atom_site_U_iso_or_equiv
_atom_site_thermal_displace_type
Cu1 Cu 0.28724(4) 0.143619(18) 0.139744(14) 0.0398 Uani
O1 O 0.22262(17) 0.1839(2) 0.16256(7) 0.0568 Uani
O2 O 0.30063(18) 0.2233(2) 0.20772(7) 0.0594 Uani
O3 O 0.2207(4) 0.11037(19) 0.09478(13) 0.0974 Uani
C1 C 0.1513(3) 0.3026(6) 0.2885(2) 0.0890 Uani
C2 C 0.1607(3) 0.3214(7) 0.3167(2) 0.1039 Uani
C3 C 0.1806(3) 0.2324(3) 0.20765(10) 0.0540 Uani
C4 C 0.1089(2) 0.2179(4) 0.19183(13) 0.0500 Uani
H1 H 0.0991 0.1982 0.1704 0.0800 Uiso
C5 C 0.1377(3) 0.2755(6) 0.25585(17) 0.0853 Uani
C6 C 0.1952(3) 0.2613(4) 0.23997(11) 0.0702 Uani
H2 H 0.2428 0.2710 0.2508 0.0800 Uiso
C7 C 0.2398(2) 0.2122(3) 0.19118(10) 0.0493 Uani
Cu1P Cu 0.476954(44) 0.523048(18) 0.526923(14) 0.0398 Uani
Cu1K Cu 0.37943(4) 0.189712(44) 0.193589(14) 0.0398 Uani
Cu1G Cu 0.523048(18) 0.476954(44) 0.473077(14) 0.0398 Uani
Cu1X Cu 0.04609(4) 0.523048(18) 0.526923(14) 0.0398 Uani
Cu1IA Cu -0.04609(4) 0.476954(44) 0.473077(14) 0.0398 Uani
Cu1V Cu -0.143621(44) 0.143619(18) 0.139744(14) 0.0398 Uani
Cu1EA Cu -0.189714(18) 0.189712(44) 0.193589(14) 0.0398 Uani
O1P O 0.37205(26) 0.4828(2) 0.50411(7) 0.0568 Uani
O1X O 0.11071(17) 0.4828(2) 0.50411(7) 0.0568 Uani
O1V O -0.03872(26) 0.1839(2) 0.16256(7) 0.0568 Uani
O1W O 0.22262(17) 0.03872(26) 0.16256(7) 0.0568 Uani
O1Y O 0.5172(2) 0.62795(26) 0.50411(7) 0.0568 Uani
O2P O 0.41066(27) 0.4434(2) 0.45895(7) 0.0594 Uani
O2X O 0.03270(18) 0.4434(2) 0.45895(7) 0.0594 Uani
O2V O -0.07733(27) 0.2233(2) 0.20772(7) 0.0594 Uani
O2K O 0.36604(18) 0.25600(27) 0.12561(7) 0.0594 Uani
O2DA O 0.36604(18) 0.1100(2) 0.12561(7) 0.0594 Uani
O2G O 0.4434(2) 0.41066(27) 0.54105(7) 0.0594 Uani
O2HA O 0.58934(27) 0.5566(2) 0.54105(7) 0.0594 Uani
O3P O 0.44366(44) 0.55630(19) 0.57189(13) 0.0974 Uani
C1P C 0.1820(7) 0.3641(6) 0.3782(2) 0.0890 Uani
C2P C 0.1726(8) 0.3453(7) 0.3500(2) 0.1039 Uani
C3V C 0.0518(4) 0.2324(3) 0.20765(10) 0.0540 Uani
C3X C 0.1527(3) 0.4343(3) 0.45902(10) 0.0540 Uani
C3P C 0.2815(4) 0.4343(3) 0.45902(10) 0.0540 Uani
C4X C 0.2244(2) 0.4488(4) 0.47484(13) 0.0500 Uani
H1P H 0.2342 0.4685 0.4963 0.0800 Uiso
C5P C 0.1955(7) 0.3912(6) 0.41082(17) 0.0853 Uani
C6V C 0.0661(5) 0.2613(4) 0.23997(11) 0.0702 Uani
C6X C 0.1381(3) 0.4054(4) 0.42670(11) 0.0702 Uani
C6P C 0.2672(5) 0.4054(4) 0.42670(11) 0.0702 Uani
H2P H 0.3051 0.3957 0.4159 0.0800 Uiso
H2X H 0.0905 0.3957 0.4159 0.0800 Uiso
H2V H 0.0282 0.2710 0.2508 0.0800 Uiso
C7P C 0.3609(4) 0.4545(3) 0.47549(10) 0.0493 Uani
C7X C 0.0935(2) 0.4545(3) 0.47549(10) 0.0493 Uani
C7V C -0.0276(4) 0.2122(3) 0.19118(10) 0.0493 Uani
loop_
_atom_site_aniso_label
_atom_site_aniso_U_11
_atom_site_aniso_U_22
_atom_site_aniso_U_33
_atom_site_aniso_U_23
_atom_site_aniso_U_13
_atom_site_aniso_U_12
Cu1 0.0293(4) 0.0502(4) 0.0329(4) -0.00247(12) -0.0049(2) 0.01466(19)
O1 0.0470(16) 0.082(2) 0.0484(16) -0.0119(15) -0.0058(12) 0.0375(16)
O2 0.0469(17) 0.088(2) 0.0490(15) -0.0156(15) -0.0058(13) 0.0379(16)
O3 0.100(4) 0.116(3) 0.071(3) -0.0243(16) -0.049(3) 0.050(2)
C1 0.0891(19) 0.0905(17) 0.0878(19) -0.0016(9) -0.0008(4) 0.0452(8)
C2 0.104(2) 0.1053(18) 0.103(2) -0.0015(9) -0.0007(4) 0.0527(9)
C3 0.049(2) 0.070(3) 0.046(2) -0.009(2) -0.0049(18) 0.032(2)
C4 0.047(2) 0.062(4) 0.046(3) -0.007(3) -0.0037(13) 0.0310(18)
C5 0.081(3) 0.150(8) 0.048(4) -0.036(4) -0.018(2) 0.075(4)
C6 0.060(3) 0.108(4) 0.056(3) -0.024(3) -0.015(2) 0.052(3)
C7 0.035(2) 0.061(3) 0.047(2) -0.0017(18) 0.0007(16) 0.0203(19)
Cu1P 0.05018 0.0502 0.0329 -0.00247 0.00243 0.03554
Cu1K 0.0293 0.05018 0.0329 -0.00243 -0.0049 0.01464
Cu1G 0.0502 0.05018 0.0329 -0.00243 0.00247 0.03554
Cu1X 0.0293 0.05018 0.0329 -0.00243 -0.0049 0.01464
Cu1IA 0.0293 0.0502 0.0329 -0.00247 -0.0049 0.01466
Cu1V 0.0502 0.05018 0.0329 -0.00243 0.00247 0.03554
Cu1EA 0.05018 0.0502 0.0329 -0.00247 0.00243 0.03554
O1P 0.054 0.082 0.0484 -0.0119 -0.0061 0.0445
O1X 0.047 0.082 0.0484 -0.0119 -0.0058 0.0375
O1V 0.054 0.082 0.0484 -0.0119 -0.0061 0.0445
O1W 0.047 0.054 0.0484 0.0061 -0.0058 0.0095
O1Y 0.082 0.054 0.0484 0.0061 0.0119 0.0445
O2P 0.0591 0.088 0.049 -0.0156 -0.0098 0.0501
O2X 0.0469 0.088 0.049 -0.0156 -0.0058 0.0379
O2V 0.0591 0.088 0.049 -0.0156 -0.0098 0.0501
O2K 0.0469 0.0591 0.049 0.0098 -0.0058 0.009
O2DA 0.0469 0.088 0.049 -0.0156 -0.0058 0.0379
O2G 0.088 0.0591 0.049 0.0098 0.0156 0.0501
O2HA 0.0591 0.088 0.049 -0.0156 -0.0098 0.0501
O3P 0.116 0.116 0.071 -0.0243 0.0247 0.066
C1P 0.0892 0.0905 0.0878 -0.0016 -0.0008 0.0453
C2P 0.1039 0.1053 0.103 -0.0015 -0.0008 0.0526
C3V 0.055 0.07 0.046 -0.009 -0.0041 0.038
C3X 0.049 0.07 0.046 -0.009 -0.0049 0.032
C3P 0.055 0.07 0.046 -0.009 -0.0041 0.038
C4X 0.047 0.062 0.046 -0.007 -0.0033 0.031
C5P 0.081 0.15 0.048 -0.036 -0.018 0.075
C6V 0.064 0.108 0.056 -0.024 -0.009 0.056
C6X 0.06 0.108 0.056 -0.024 -0.015 0.052
C6P 0.064 0.108 0.056 -0.024 -0.009 0.056
C7P 0.0554 0.061 0.047 -0.0017 -0.0024 0.0407
C7X 0.035 0.061 0.047 -0.0017 0.0007 0.0203
C7V 0.0554 0.061 0.047 -0.0017 -0.0024 0.0407
loop_
_geom_bond_atom_site_label_1
_geom_bond_atom_site_label_2
_geom_bond_site_symmetry_1
_geom_bond_site_symmetry_2
Cu1 O1 1_555 1_555
O1 C7 1_555 1_555
O2 C7 1_555 1_555
O3 Cu1 1_555 1_555
C1 C2 1_555 1_555
C2 C2P 1_555 1_555
C3 C4 1_555 1_555
C4 H1 1_555 1_555
C5 C1 1_555 1_555
C6 C3 1_555 1_555
H2 C6 1_555 1_555
C7 C3 1_555 1_555
Cu1P O1P 1_555 1_555
Cu1K O2 1_555 1_555
Cu1G O2P 1_555 1_555
Cu1X O1X 1_555 1_555
Cu1IA O2X 1_555 1_555
Cu1V O1V 1_555 1_555
Cu1EA O2V 1_555 1_555
O1P C7P 1_555 1_555
O1X C7X 1_555 1_555
O1V C7V 1_555 1_555
O1W Cu1 1_555 1_555
O1Y Cu1P 1_555 1_555
O2P C7P 1_555 1_555
O2X C7X 1_555 1_555
O2V C7V 1_555 1_555
O2K Cu1 1_555 1_555
O2DA Cu1 1_555 1_555
O2G Cu1P 1_555 1_555
O2HA Cu1P 1_555 1_555
O3P Cu1P 1_555 1_555
C1P C2P 1_555 1_555
C3V C4 1_555 1_555
C3X C4X 1_555 1_555
C3P C4X 1_555 1_555
C4X H1P 1_555 1_555
C5P C1P 1_555 1_555
C6V C5 1_555 1_555
C6X C3X 1_555 1_555
C6P C3P 1_555 1_555
H2P C6P 1_555 1_555
H2X C6X 1_555 1_555
H2V C6V 1_555 1_555
C7P C3P 1_555 1_555
C7X C3X 1_555 1_555
C7V C3V 1_555 1_555
C5 C6 1_555 1_555
C3V C6V 1_555 1_555
C5P C6X 1_555 1_555
C5P C6P 1_555 1_555

#END
