
#######################################################################
#
#                 Cambridge Crystallographic Data Centre
#                                CCDC 
#
#######################################################################
#
# If this CIF has been generated from an entry in the Cambridge 
# Structural Database, then it will include bibliographic, chemical, 
# crystal, experimental, refinement or atomic coordinate data resulting 
# from the CCDC's data processing and validation procedures.
#
#######################################################################

data_GUVZII
_chemical_formula_moiety         '(C8 H2 Fe2 O10)n'
_chemical_name_systematic        
catena-[(\m~8~-2,5-Dioxidoterephthalato)-dioxygen-di-iron(ii)]
_symmetry_cell_setting           rhombohedral
_symmetry_space_group_name_H-M   'R -3'
_symmetry_Int_Tables_number      148
_space_group_name_Hall           '-R 3'
loop_
_symmetry_equiv_pos_site_id
_symmetry_equiv_pos_as_xyz
1 x,y,z
2 -y,x-y,z
3 -x+y,-x,z
4 1/3+x,2/3+y,2/3+z
5 1/3-y,2/3+x-y,2/3+z
6 1/3-x+y,2/3-x,2/3+z
7 2/3+x,1/3+y,1/3+z
8 2/3-y,1/3+x-y,1/3+z
9 2/3-x+y,1/3-x,1/3+z
10 -x,-y,-z
11 y,-x+y,-z
12 x-y,x,-z
13 2/3-x,1/3-y,1/3-z
14 2/3+y,1/3-x+y,1/3-z
15 2/3+x-y,1/3+x,1/3-z
16 1/3-x,2/3-y,2/3-z
17 1/3+y,2/3-x+y,2/3-z
18 1/3+x-y,2/3+x,2/3-z
_cell_length_a                   26.0087(13)
_cell_length_b                   26.0087
_cell_length_c                   6.8131(7)
_cell_angle_alpha                90
_cell_angle_beta                 90
_cell_angle_gamma                120
_cell_volume                     3991.28
_cell_formula_units_Z            9
loop_
_atom_site_label
_atom_site_type_symbol
_atom_site_fract_x
_atom_site_fract_y
_atom_site_fract_z
_atom_site_U_iso_or_equiv
_atom_site_thermal_displace_type
Fe1 Fe 0.3804(5) 0.3479(6) 0.1410(16) 0.0344 Uiso
O1 O 0.3266(7) 0.2968(8) 0.3491(26) 0.0177 Uiso
O2 O 0.2997(9) 0.2206(8) 0.6080(26) 0.0308 Uiso
O3 O 0.3568(7) 0.2730(6) 0.0073(24) 0.0045 Uiso
C1 C 0.3175(8) 0.2465(7) 0.4145(25) 0.0289 Uiso
C2 C 0.3336(9) 0.2091(8) 0.3005(29) 0.0506 Uiso
C3 C 0.3460(7) 0.2259(7) 0.0971(23) 0.0006 Uiso
C4 C 0.3537(9) 0.1823(8) -0.0161(25) 0.0233 Uiso
H1 H 0.3701(11) 0.1922(11) -0.180(4) 0.0081 Uiso
O4 O 0.4694(14) 0.3893(15) 0.270(5) 0.0066 Uiso
O5 O 0.4865(29) 0.366(4) 0.076(16) 0.3408 Uani
O1L O 0.3401(7) 0.0365(8) -0.0158(26) 0.0177 Uiso
O2L O 0.3670(9) 0.1127(8) -0.2747(26) 0.0308 Uiso
O3L O 0.3099(7) 0.0603(6) 0.3260(24) 0.0045 Uiso
C1L C 0.3492(8) 0.0868(7) -0.0812(25) 0.0289 Uiso
C2L C 0.3331(9) 0.1242(8) 0.0328(29) 0.0506 Uiso
C3L C 0.3207(7) 0.1074(7) 0.2362(23) 0.0006 Uiso
C4L C 0.3130(9) 0.1510(8) 0.3494(25) 0.0233 Uiso
H1L H 0.2966(11) 0.1411(11) 0.513(4) 0.0081 Uiso
Fe1J Fe 0.3479(6) -0.0325(8) -0.1410(16) 0.0344 Uiso
O4J O 0.3893(15) -0.0801(21) -0.270(5) 0.0066 Uiso
O5J O 0.366(4) -0.1205(49) -0.076(16) 0.3408 Uani
Fe1E Fe 0.3008(8) 0.2863(5) -0.1923(16) 0.0344 Uiso
Fe1E_2 Fe 0.3008(8) 0.2863(5) 0.8077(16) 0.0344 Uiso
Fe1L Fe 0.2863(5) -0.0146(6) 0.1923(16) 0.0344 Uiso
Fe1G Fe 0.3188(6) 0.3658(8) 0.4743(16) 0.0344 Uiso
Fe1Q Fe 0.3658(8) 0.0471(5) -0.4743(16) 0.0344 Uiso
Fe1Q_2 Fe 0.3658(8) 0.0471(5) 0.5257(16) 0.0344 Uiso
O1J O 0.2968(8) -0.0298(11) -0.3491(26) 0.0177 Uiso
O1E O 0.3035(11) 0.3401(7) 0.0158(26) 0.0177 Uiso
O2G O 0.4461(8) 0.4124(12) -0.0587(26) 0.0308 Uiso
O2Q O 0.4124(12) -0.0336(9) 0.0587(26) 0.0308 Uiso
O3J O 0.2730(6) -0.0838(9) -0.0073(24) 0.0045 Uiso
O3G O 0.3937(6) 0.4171(9) 0.3406(24) 0.0045 Uiso
O3Q O 0.4171(9) 0.0235(7) -0.3406(24) 0.0045 Uiso
loop_
_atom_site_aniso_label
_atom_site_aniso_U_11
_atom_site_aniso_U_22
_atom_site_aniso_U_33
_atom_site_aniso_U_23
_atom_site_aniso_U_13
_atom_site_aniso_U_12
O5 0.2063 0.29585 0.56759 0.09292 0.18063 0.16102
O5J 0.29585 0.18011 0.56759 0.08771 -0.09292 0.13483
loop_
_geom_bond_atom_site_label_1
_geom_bond_atom_site_label_2
_geom_bond_site_symmetry_1
_geom_bond_site_symmetry_2
Fe1 O1 1_555 1_555
O1 C1 1_555 1_555
O2 C1 1_555 1_555
O3 Fe1 1_555 1_555
C1 C2 1_555 1_555
C2 C3 1_555 1_555
C3 O3 1_555 1_555
C4 C3 1_555 1_555
H1 C4 1_555 1_555
O4 Fe1 1_555 1_555
O5 Fe1 1_555 1_555
O1L C1L 1_555 1_555
O2L C1L 1_555 1_555
O3L C3L 1_555 1_555
C1L C2L 1_555 1_555
C2L C4 1_555 1_555
C3L C2L 1_555 1_555
C4L C2 1_555 1_555
H1L C4L 1_555 1_555
Fe1J O1L 1_555 1_555
O4J Fe1J 1_555 1_555
O5J Fe1J 1_555 1_555
Fe1E O3 1_555 1_555
Fe1E_2 O2 1_555 1_555
Fe1L O1L 1_555 1_555
Fe1G O1 1_555 1_555
Fe1Q O2L 1_555 1_555
Fe1Q_2 O3L 1_555 1_555
O1J Fe1J 1_555 1_555
O1E Fe1 1_555 1_555
O2G Fe1 1_555 1_555
O2Q Fe1J 1_555 1_555
O3J Fe1J 1_555 1_555
O3G Fe1 1_555 1_555
O3Q Fe1J 1_555 1_555
O4 O5 1_555 1_555
O3L Fe1L 1_555 1_555
C3L C4L 1_555 1_555
O4J O5J 1_555 1_555
Fe1E O1E 1_555 1_555
Fe1L O3J 1_555 1_555
Fe1G O3G 1_555 1_555
Fe1Q O1J 1_555 1_555
Fe1Q O3Q 1_555 1_555

#END
