
#######################################################################
#
#                 Cambridge Crystallographic Data Centre
#                                CCDC 
#
#######################################################################
#
# If this CIF has been generated from an entry in the Cambridge 
# Structural Database, then it will include bibliographic, chemical, 
# crystal, experimental, refinement or atomic coordinate data resulting 
# from the CCDC's data processing and validation procedures.
#
#######################################################################

data_YINTOG
_chemical_formula_moiety         '(C28 H36 O8 Zn2)n'
_chemical_name_systematic        
catena-[bis(\m~4~-2,2'-tricyclo[3.3.1.1^3,7^]decane-1,3-diyldiacetato)-di-zinc]
_symmetry_cell_setting           monoclinic
_symmetry_space_group_name_H-M   'P 21/c'
_symmetry_Int_Tables_number      14
_space_group_name_Hall           '-P 2ybc'
loop_
_symmetry_equiv_pos_site_id
_symmetry_equiv_pos_as_xyz
1 x,y,z
2 -x,1/2+y,1/2-z
3 -x,-y,-z
4 x,1/2-y,1/2+z
_cell_length_a                   14.3611(5)
_cell_length_b                   12.8622(4)
_cell_length_c                   15.1403(5)
_cell_angle_alpha                90
_cell_angle_beta                 96.862(3)
_cell_angle_gamma                90
_cell_volume                     2776.61
_exptl_crystal_colour            colorless
_exptl_crystal_description       Plate
_cell_formula_units_Z            4
loop_
_atom_site_label
_atom_site_type_symbol
_atom_site_fract_x
_atom_site_fract_y
_atom_site_fract_z
_atom_site_U_iso_or_equiv
_atom_site_thermal_displace_type
Zn1 Zn 0.77133(2) 0.35111(3) 0.11101(2) 0.0277 Uani
Zn2 Zn 0.75139(3) 0.25803(3) 0.41537(2) 0.0328 Uani
O1 O 0.77411(15) 0.45226(17) 0.20676(13) 0.0327 Uani
O2 O 0.78903(19) 0.1185(2) 0.39006(15) 0.0433 Uani
O3 O 0.74927(17) 0.3287(2) 0.30169(14) 0.0369 Uani
C1 C 0.6376(2) 0.5562(2) 0.32671(19) 0.0273 Uani
O4 O 0.83270(18) 0.0640(2) 0.52792(15) 0.0465 Uani
O5 O 0.36256(16) 0.8286(2) 0.42258(17) 0.0454 Uani
C2 C 0.5202(2) 0.6747(3) 0.3916(2) 0.0300 Uani
C3 C 0.9124(2) -0.0052(3) 0.1612(2) 0.0291 Uani
C4 C 0.7365(2) 0.5086(3) 0.34658(19) 0.0282 Uani
H1 H 0.7829 0.5631 0.3443 0.0340 Uiso
H2 H 0.7439 0.4804 0.4064 0.0340 Uiso
O6 O 0.84383(18) 0.22388(19) 0.13205(16) 0.0391 Uani
O7 O 0.36992(18) 0.7287(2) 0.54287(17) 0.0488 Uani
C5 C 0.7549(2) 0.4241(3) 0.28254(19) 0.0281 Uani
C6 C 0.6190(2) 0.6258(3) 0.4054(2) 0.0300 Uani
H3 H 0.6656 0.6808 0.4126 0.0360 Uiso
H4 H 0.6255 0.5848 0.4595 0.0360 Uiso
C7 C 0.8307(2) 0.0568(3) 0.4448(2) 0.0335 Uani
C8 C 0.8815(2) -0.0612(3) 0.3155(2) 0.0307 Uani
C9 C 0.9116(2) 0.0280(2) 0.2587(2) 0.0292 Uani
H5 H 0.9738 0.0512 0.2825 0.0350 Uiso
H6 H 0.8688 0.0860 0.2613 0.0350 Uiso
O8 O 0.8477(2) 0.1693(2) -0.00730(16) 0.0502 Uani
C10 C 0.9508(3) -0.1518(3) 0.3100(2) 0.0438 Uani
H7 H 1.0133 -0.1299 0.3341 0.0530 Uiso
H8 H 0.9328 -0.2097 0.3454 0.0530 Uiso
C11 C 0.7834(2) -0.0985(3) 0.2765(2) 0.0390 Uani
H9 H 0.7640 -0.1556 0.3120 0.0470 Uiso
H10 H 0.7386 -0.0423 0.2786 0.0470 Uiso
C12 C 0.9515(3) -0.1868(3) 0.2137(2) 0.0426 Uani
H11 H 0.9961 -0.2441 0.2117 0.0510 Uiso
C13 C 0.8862(3) -0.0340(3) 0.4143(2) 0.0442 Uani
H12 H 0.8673 -0.0954 0.4447 0.0530 Uiso
H13 H 0.9516 -0.0216 0.4359 0.0530 Uiso
C14 C 0.8734(2) 0.1655(3) 0.0752(2) 0.0336 Uani
C15 C 0.7842(3) -0.1342(3) 0.1800(3) 0.0437 Uani
H14 H 0.7213 -0.1576 0.1561 0.0530 Uiso
C16 C 0.9812(2) -0.0966(3) 0.1589(2) 0.0384 Uani
H15 H 0.9829 -0.1188 0.0979 0.0460 Uiso
H16 H 1.0438 -0.0742 0.1825 0.0460 Uiso
C17 C 0.9455(2) 0.0839(3) 0.1047(2) 0.0377 Uani
H17 H 0.9985 0.1178 0.1388 0.0450 Uiso
H18 H 0.9677 0.0541 0.0523 0.0450 Uiso
C18 C 0.5286(3) 0.6702(4) 0.2268(2) 0.0528 Uani
H19 H 0.5228 0.7125 0.1726 0.0630 Uiso
C19 C 0.5631(2) 0.4709(3) 0.3166(3) 0.0411 Uani
H20 H 0.5688 0.4282 0.3697 0.0490 Uiso
H21 H 0.5728 0.4268 0.2665 0.0490 Uiso
C20 C 0.4056(2) 0.7695(3) 0.4803(2) 0.0381 Uani
C21 C 0.8134(2) -0.0439(3) 0.1249(2) 0.0371 Uani
H22 H 0.7687 0.0125 0.1263 0.0450 Uiso
H23 H 0.8130 -0.0658 0.0635 0.0450 Uiso
C22 C 0.4482(2) 0.5873(3) 0.3802(2) 0.0380 Uani
H24 H 0.3856 0.6166 0.3703 0.0450 Uiso
H25 H 0.4527 0.5457 0.4340 0.0450 Uiso
C23 C 0.6275(3) 0.6228(3) 0.2424(2) 0.0435 Uani
H26 H 0.6385 0.5804 0.1918 0.0520 Uiso
H27 H 0.6738 0.6780 0.2485 0.0520 Uiso
C24 C 0.4651(2) 0.5188(3) 0.3016(3) 0.0512 Uani
H28 H 0.4184 0.4628 0.2956 0.0620 Uiso
C25 C 0.5070(2) 0.7431(3) 0.4725(3) 0.0447 Uani
H29 H 0.5332 0.7073 0.5261 0.0530 Uiso
H30 H 0.5418 0.8072 0.4684 0.0530 Uiso
C26 C 0.8538(3) -0.2238(3) 0.1764(3) 0.0534 Uani
H31 H 0.8353 -0.2820 0.2112 0.0640 Uiso
H32 H 0.8540 -0.2468 0.1154 0.0640 Uiso
C27 C 0.5111(3) 0.7380(3) 0.3060(3) 0.0410 Uani
H33 H 0.5560 0.7947 0.3121 0.0490 Uiso
H34 H 0.4487 0.7678 0.2956 0.0490 Uiso
C28 C 0.4552(3) 0.5830(4) 0.2167(3) 0.0662 Uani
H35 H 0.3927 0.6125 0.2062 0.0800 Uiso
H36 H 0.4649 0.5392 0.1664 0.0800 Uiso
Zn1A Zn 0.22867(2) 0.85111(3) 0.38899(2) 0.0277 Uani
Zn1C Zn 0.77133(2) 0.14889(3) 0.61101(2) 0.0277 Uani
Zn2B Zn 0.24861(3) 0.74197(3) 0.58463(2) 0.0328 Uani
Zn2C Zn 0.75139(3) 0.24197(3) -0.08463(2) 0.0328 Uani
O4C O 0.83270(18) 0.4360(2) 0.02792(15) 0.0465 Uani
O5A O 0.63744(16) 0.3286(2) 0.07742(17) 0.0454 Uani
O7B O 0.63008(18) 0.2713(2) 0.45713(17) 0.0488 Uani
O8C O 0.8477(2) 0.3307(2) 0.49270(16) 0.0502 Uani
loop_
_atom_site_aniso_label
_atom_site_aniso_U_11
_atom_site_aniso_U_22
_atom_site_aniso_U_33
_atom_site_aniso_U_23
_atom_site_aniso_U_13
_atom_site_aniso_U_12
Zn1 0.0330(2) 0.0263(2) 0.0253(2) -0.00158(14) 0.00969(15) -0.00188(14)
Zn2 0.0425(2) 0.0309(2) 0.0261(2) 0.00249(15) 0.00894(16) 0.01141(16)
O1 0.0431(12) 0.0296(12) 0.0273(11) -0.0016(10) 0.0126(9) 0.0024(10)
O2 0.0619(16) 0.0381(14) 0.0305(12) 0.0002(11) 0.0082(11) 0.0229(13)
O3 0.0499(14) 0.0350(13) 0.0265(12) 0.0008(11) 0.0074(10) 0.0082(11)
C1 0.0285(14) 0.0299(16) 0.0230(14) -0.0027(13) 0.0016(11) 0.0075(13)
O4 0.062 0.053 0.0268 -0.0012 0.0145 0.0201
O5 0.0327 0.056 0.049 0.0106 0.0106 0.01
C2 0.0277(15) 0.0323(17) 0.0303(16) 0.0013(14) 0.0051(12) 0.0056(13)
C3 0.0323(15) 0.0282(16) 0.0276(15) -0.0032(13) 0.0068(12) 0.0039(13)
C4 0.0286(14) 0.0333(17) 0.0224(14) -0.0053(13) 0.0019(11) 0.0056(13)
O6 0.0545(15) 0.0291(12) 0.0354(13) -0.0018(11) 0.0121(10) 0.0098(12)
O7 0.0484 0.06 0.0411 0.0075 0.0184 0.0226
C5 0.0265(14) 0.0325(18) 0.0245(15) -0.0007(13) -0.0006(11) 0.0074(13)
C6 0.0262(14) 0.0377(18) 0.0265(15) -0.0033(14) 0.0051(11) 0.0030(13)
C7 0.0364(17) 0.0332(18) 0.0322(17) -0.0019(15) 0.0097(13) 0.0057(14)
C8 0.0415(17) 0.0245(16) 0.0263(15) 0.0010(13) 0.0052(12) 0.0155(14)
C9 0.0286(14) 0.0283(16) 0.0304(15) -0.0057(14) 0.0028(11) 0.0072(13)
O8 0.0687 0.053 0.0281 -0.005 0.0025 0.0125
C10 0.060(2) 0.035(2) 0.038(2) 0.0043(16) 0.0127(17) 0.0235(18)
C11 0.0441(19) 0.0289(18) 0.047(2) 0.0027(16) 0.0174(15) -0.0007(16)
C12 0.059(2) 0.0312(19) 0.040(2) -0.0013(16) 0.0160(16) 0.0183(17)
C13 0.063(2) 0.043(2) 0.0265(17) 0.0023(16) 0.0048(15) 0.0254(19)
C14 0.0405(18) 0.0286(17) 0.0336(18) -0.0010(14) 0.0119(14) -0.0032(14)
C15 0.044(2) 0.040(2) 0.047(2) -0.0071(17) 0.0055(16) -0.0105(17)
C16 0.0405(18) 0.038(2) 0.0387(18) -0.0040(17) 0.0125(14) 0.0091(16)
C17 0.0435(19) 0.0346(19) 0.0387(18) 0.0016(16) 0.0201(14) 0.0066(16)
C18 0.064(3) 0.067(3) 0.0281(18) 0.0174(19) 0.0085(16) 0.035(2)
C19 0.0333(17) 0.0259(17) 0.062(2) -0.0079(17) -0.0025(15) 0.0006(14)
C20 0.0339 0.046 0.0346 -0.0057 0.0053 0.012
C21 0.0388(18) 0.039(2) 0.0320(17) -0.0094(15) -0.0018(13) 0.0022(15)
C22 0.0237(15) 0.037(2) 0.053(2) 0.0071(17) 0.0038(13) 0.0008(14)
C23 0.053(2) 0.051(2) 0.0291(17) 0.0126(17) 0.0153(15) 0.0239(18)
C24 0.0297(17) 0.039(2) 0.082(3) -0.017(2) -0.0055(17) -0.0027(16)
C25 0.0310(18) 0.060(3) 0.043(2) -0.0137(18) 0.0034(14) 0.0147(16)
C26 0.084(3) 0.032(2) 0.047(2) -0.0114(18) 0.019(2) -0.002(2)
C27 0.0411(19) 0.0345(19) 0.049(2) 0.0098(16) 0.0115(16) 0.0124(15)
C28 0.050(2) 0.091(4) 0.051(2) -0.022(3) -0.0216(19) 0.033(2)
Zn1A 0.033 0.0263 0.0253 0.00158 0.00969 0.00188
Zn1C 0.033 0.0263 0.0253 0.00158 0.00969 0.00188
Zn2B 0.0425 0.0309 0.0261 0.00249 0.00894 0.01141
Zn2C 0.0425 0.0309 0.0261 -0.00249 0.00894 -0.01141
O4C 0.062 0.053 0.0268 0.0012 0.0145 -0.0201
O5A 0.0327 0.056 0.049 -0.0106 0.0106 -0.01
O7B 0.0484 0.06 0.0411 0.0075 0.0184 0.0226
O8C 0.0687 0.053 0.0281 0.005 0.0025 -0.0125
loop_
_geom_bond_atom_site_label_1
_geom_bond_atom_site_label_2
_geom_bond_site_symmetry_1
_geom_bond_site_symmetry_2
Zn1 O1 1_555 1_555
Zn2 O2 1_555 1_555
O1 C5 1_555 1_555
O2 C7 1_555 1_555
O3 Zn2 1_555 1_555
C1 C4 1_555 1_555
O4 C7 1_555 1_555
O5 C20 1_555 1_555
C2 C6 1_555 1_555
C3 C9 1_555 1_555
C4 H1 1_555 1_555
H2 C4 1_555 1_555
O6 Zn1 1_555 1_555
O7 C20 1_555 1_555
C5 O3 1_555 1_555
C6 C1 1_555 1_555
H3 C6 1_555 1_555
H4 C6 1_555 1_555
C7 C13 1_555 1_555
C8 C9 1_555 1_555
C9 H5 1_555 1_555
H6 C9 1_555 1_555
O8 C14 1_555 1_555
C10 C8 1_555 1_555
H7 C10 1_555 1_555
H8 C10 1_555 1_555
C11 C8 1_555 1_555
H9 C11 1_555 1_555
H10 C11 1_555 1_555
C12 C10 1_555 1_555
H11 C12 1_555 1_555
C13 C8 1_555 1_555
H12 C13 1_555 1_555
H13 C13 1_555 1_555
C14 O6 1_555 1_555
C15 C11 1_555 1_555
H14 C15 1_555 1_555
C16 C3 1_555 1_555
H15 C16 1_555 1_555
H16 C16 1_555 1_555
C17 C3 1_555 1_555
H17 C17 1_555 1_555
H18 C17 1_555 1_555
C18 H19 1_555 1_555
C19 C1 1_555 1_555
H20 C19 1_555 1_555
H21 C19 1_555 1_555
C20 C25 1_555 1_555
C21 C3 1_555 1_555
H22 C21 1_555 1_555
H23 C21 1_555 1_555
C22 C2 1_555 1_555
H24 C22 1_555 1_555
H25 C22 1_555 1_555
C23 C1 1_555 1_555
H26 C23 1_555 1_555
H27 C23 1_555 1_555
C24 C19 1_555 1_555
H28 C24 1_555 1_555
C25 C2 1_555 1_555
H29 C25 1_555 1_555
H30 C25 1_555 1_555
C26 C12 1_555 1_555
H31 C26 1_555 1_555
H32 C26 1_555 1_555
C27 C2 1_555 1_555
H33 C27 1_555 1_555
H34 C27 1_555 1_555
C28 C18 1_555 1_555
H35 C28 1_555 1_555
H36 C28 1_555 1_555
Zn1A O5 1_555 1_555
Zn1C O4 1_555 1_555
Zn2B O7 1_555 1_555
Zn2C O8 1_555 1_555
O4C Zn1 1_555 1_555
O5A Zn1 1_555 1_555
O7B Zn2 1_555 1_555
O8C Zn2 1_555 1_555
C4 C5 1_555 1_555
C12 C16 1_555 1_555
C14 C17 1_555 1_555
C15 C21 1_555 1_555
C15 C26 1_555 1_555
C18 C23 1_555 1_555
C18 C27 1_555 1_555
C22 C24 1_555 1_555
C24 C28 1_555 1_555

#END
