
#######################################################################
#
#                 Cambridge Crystallographic Data Centre
#                                CCDC 
#
#######################################################################
#
# If this CIF has been generated from an entry in the Cambridge 
# Structural Database, then it will include bibliographic, chemical, 
# crystal, experimental, refinement or atomic coordinate data resulting 
# from the CCDC's data processing and validation procedures.
#
#######################################################################

data_IJASAO
_chemical_formula_moiety         '(C60 H52 Er2 N4 O12)n'
_chemical_name_systematic        
catena-((\m~4~-2,3,5,6-Tetramethylterephthalato)-bis(\m~2~-2,3,5,6-tetramethylterephthalato)-bis(1,10-phenanthroline)-di-erbium)
_symmetry_cell_setting           triclinic
_symmetry_space_group_name_H-M   'P -1'
_symmetry_Int_Tables_number      2
_space_group_name_Hall           '-P 1'
loop_
_symmetry_equiv_pos_site_id
_symmetry_equiv_pos_as_xyz
1 x,y,z
2 -x,-y,-z
_cell_length_a                   9.493(7)
_cell_length_b                   13.225(10)
_cell_length_c                   16.232(12)
_cell_angle_alpha                111.729(13)
_cell_angle_beta                 100.554(12)
_cell_angle_gamma                91.879(12)
_cell_volume                     1849.7
_exptl_crystal_colour            red
_exptl_crystal_description       prism
_cell_formula_units_Z            1
loop_
_atom_site_label
_atom_site_type_symbol
_atom_site_fract_x
_atom_site_fract_y
_atom_site_fract_z
Er1 Er 0.08229(5) 0.45609(4) 0.15517(3)
O1 O 0.1327(6) 0.4491(6) 0.0244(4)
O2 O 0.1235(6) 0.4851(5) -0.0986(4)
O3 O 0.1727(7) 0.2842(6) 0.1051(4)
O4 O -0.0573(7) 0.2878(6) 0.1032(5)
O5 O -0.0523(6) 0.5016(6) 0.2722(4)
O6 O 0.1524(7) 0.4387(6) 0.2969(4)
N1 N 0.3464(8) 0.5149(8) 0.2024(5)
N2 N 0.1456(8) 0.6532(7) 0.2396(5)
C1 C 0.1903(9) 0.4733(8) -0.0312(6)
C2 C 0.3525(9) 0.4867(9) -0.0143(6)
C3 C 0.4240(10) 0.3947(9) -0.0418(6)
C4 C 0.4240(10) 0.5924(9) 0.0277(6)
C5 C 0.0439(13) 0.2308(9) 0.0843(7)
C6 C 0.0223(10) 0.1117(9) 0.0410(7)
C7 C -0.0238(10) 0.0629(9) -0.0522(6)
C8 C 0.0454(10) 0.0481(9) 0.0944(6)
C9 C 0.0399(10) 0.4733(9) 0.3224(6)
C10 C 0.0202(10) 0.4889(9) 0.4159(6)
C11 C 0.0919(10) 0.5780(9) 0.4897(7)
C12 C -0.0704(10) 0.4076(9) 0.4247(6)
C13 C -0.1458(13) 0.3121(10) 0.3413(7)
H1 H -0.1152 0.3159 0.2880
H2 H -0.2503 0.3144 0.3339
H3 H -0.1211 0.2436 0.3478
C14 C 0.1858(13) 0.6611(10) 0.4769(7)
H4 H 0.1901 0.6373 0.4127
H5 H 0.2831 0.6690 0.5133
H6 H 0.1461 0.7316 0.4964
C15 C 0.0943(12) 0.1029(9) 0.1960(7)
H7 H 0.1021 0.1826 0.2140
H8 H 0.1886 0.0810 0.2149
H9 H 0.0241 0.0807 0.2252
C16 C -0.0421(13) 0.1345(9) -0.1093(7)
H10 H -0.0243 0.2120 -0.0689
H11 H -0.1404 0.1189 -0.1459
H12 H 0.0269 0.1179 -0.1494
C17 C 0.3413(11) 0.2838(9) -0.0858(7)
H13 H 0.4083 0.2282 -0.1013
H14 H 0.2742 0.2788 -0.1411
H15 H 0.2871 0.2713 -0.0439
C18 C 0.3444(10) 0.6901(8) 0.0557(7)
H16 H 0.2407 0.6668 0.0408
H17 H 0.3644 0.7371 0.0236
H18 H 0.3755 0.7311 0.1213
C19 C 0.0495(13) 0.7244(10) 0.2608(7)
H19 H -0.0496 0.6981 0.2363
C20 C 0.0839(15) 0.8338(10) 0.3162(8)
H20 H 0.0102 0.8799 0.3312
C21 C 0.4813(14) 0.8450(12) 0.3511(10)
H21 H 0.5111 0.9213 0.3810
C22 C 0.5798(14) 0.7739(13) 0.3317(10)
H22 H 0.6790 0.8010 0.3533
C23 C 0.5426(11) 0.6622(11) 0.2813(7)
C24 C 0.3932(10) 0.6228(10) 0.2518(6)
C25 C 0.6416(11) 0.5868(12) 0.2591(9)
H23 H 0.7420 0.6103 0.2787
C26 C 0.5949(10) 0.4803(12) 0.2097(8)
H24 H 0.6620 0.4285 0.1934
C27 C 0.4445(9) 0.4463(9) 0.1822(6)
H25 H 0.4131 0.3709 0.1477
C28 C 0.2861(11) 0.6961(10) 0.2736(7)
C29 C 0.3313(12) 0.8056(10) 0.3267(8)
C30 C 0.2249(14) 0.8742(12) 0.3486(9)
H26 H 0.2507 0.9494 0.3864
Er1A Er -0.08229(5) -0.45609(4) -0.15517(3)
Er1_2 Er 1.08229(5) 0.45609(4) 0.15517(3)
Er1A_2 Er -0.08229(5) 0.54391(4) -0.15517(3)
Er1A_3 Er -0.08229(5) 0.54391(4) 0.84483(3)
Er1A_4 Er 0.91771(5) 0.54391(4) -0.15517(3)
O1A O 0.8673(6) 0.5509(6) -0.0244(4)
O1A_2 O -0.1327(6) -0.4491(6) -0.0244(4)
O2A O 0.8765(6) 0.5149(5) 0.0986(4)
O2_2 O 0.1235(6) -0.5149(5) -0.0986(4)
O2A_2 O -0.1235(6) 0.5149(5) 0.0986(4)
O3A O -0.1727(7) -0.2842(6) -0.1051(4)
O4A O 0.0573(7) -0.2878(6) -0.1032(5)
O5A O 0.0523(6) 0.4984(6) 0.7278(4)
O5A_2 O 0.0523(6) -0.5016(6) -0.2722(4)
O6A O -0.1524(7) 0.5613(6) 0.7031(4)
O6A_2 O -0.1524(7) -0.4387(6) -0.2969(4)
N1A N -0.3464(8) -0.5149(8) -0.2024(5)
N2A N -0.1456(8) -0.6532(7) -0.2396(5)
C1A C 0.8097(9) 0.5267(8) 0.0312(6)
C2A C 0.6475(9) 0.5133(9) 0.0143(6)
C3A C 0.5760(10) 0.6053(9) 0.0418(6)
C4A C 0.5760(10) 0.4076(9) -0.0277(6)
C5A C -0.0439(13) -0.2308(9) -0.0843(7)
C6A C -0.0223(10) -0.1117(9) -0.0410(7)
C7A C 0.0238(10) -0.0629(9) 0.0522(6)
C8A C -0.0454(10) -0.0481(9) -0.0944(6)
C9A C -0.0399(10) 0.5267(9) 0.6776(6)
C9A_2 C -0.0399(10) -0.4733(9) -0.3224(6)
C10A C -0.0202(10) 0.5111(9) 0.5841(6)
C11A C -0.0919(10) 0.4220(9) 0.5103(7)
C12A C 0.0704(10) 0.5924(9) 0.5753(6)
C13A C 0.1458(13) 0.6879(10) 0.6587(7)
H1A H 0.1152 0.6841 0.7120
H2A H 0.2503 0.6856 0.6661
H3A H 0.1211 0.7564 0.6522
C14A C -0.1858(13) 0.3389(10) 0.5231(7)
H4A H -0.1901 0.3627 0.5873
H5A H -0.2831 0.3310 0.4867
H6A H -0.1461 0.2684 0.5036
C15A C -0.0943(12) -0.1029(9) -0.1960(7)
H7A H -0.1021 -0.1826 -0.2140
H8A H -0.1886 -0.0810 -0.2149
H9A H -0.0241 -0.0807 -0.2252
C16A C 0.0421(13) -0.1345(9) 0.1093(7)
H10A H 0.0243 -0.2120 0.0689
H11A H 0.1404 -0.1189 0.1459
H12A H -0.0269 -0.1179 0.1494
C17A C 0.6587(11) 0.7162(9) 0.0858(7)
H13A H 0.5917 0.7718 0.1013
H14A H 0.7258 0.7212 0.1411
H15A H 0.7129 0.7287 0.0439
C18A C 0.6556(10) 0.3099(8) -0.0557(7)
H16A H 0.7593 0.3332 -0.0408
H17A H 0.6356 0.2629 -0.0236
H18A H 0.6245 0.2689 -0.1213
C19A C -0.0495(13) -0.7244(10) -0.2608(7)
H19A H 0.0496 -0.6981 -0.2363
C20A C -0.0839(15) -0.8338(10) -0.3162(8)
H20A H -0.0102 -0.8799 -0.3312
C21A C -0.4813(14) -0.8450(12) -0.3511(10)
H21A H -0.5111 -0.9213 -0.3810
C22A C -0.5798(14) -0.7739(13) -0.3317(10)
H22A H -0.6790 -0.8010 -0.3533
C23A C -0.5426(11) -0.6622(11) -0.2813(7)
C24A C -0.3932(10) -0.6228(10) -0.2518(6)
C25A C -0.6416(11) -0.5868(12) -0.2591(9)
H23A H -0.7420 -0.6103 -0.2787
C26A C -0.5949(10) -0.4803(12) -0.2097(8)
H24A H -0.6620 -0.4285 -0.1934
C27A C -0.4445(9) -0.4463(9) -0.1822(6)
H25A H -0.4131 -0.3709 -0.1477
C28A C -0.2861(11) -0.6961(10) -0.2736(7)
C29A C -0.3313(12) -0.8056(10) -0.3267(8)
C30A C -0.2249(14) -0.8742(12) -0.3486(9)
H26A H -0.2507 -0.9494 -0.3864
loop_
_geom_bond_atom_site_label_1
_geom_bond_atom_site_label_2
_geom_bond_site_symmetry_1
_geom_bond_site_symmetry_2
Er1 O1 1_555 1_555
O1 C1 1_555 1_555
O2 C1 1_555 1_555
O3 Er1 1_555 1_555
O4 Er1 1_555 1_555
O5 Er1 1_555 1_555
O6 Er1 1_555 1_555
N1 Er1 1_555 1_555
N2 Er1 1_555 1_555
C1 C2 1_555 1_555
C2 C3 1_555 1_555
C3 C17 1_555 1_555
C4 C2 1_555 1_555
C5 O3 1_555 1_555
C6 C5 1_555 1_555
C7 C6 1_555 1_555
C8 C6 1_555 1_555
C9 O5 1_555 1_555
C10 C9 1_555 1_555
C11 C10 1_555 1_555
C12 C10 1_555 1_555
C13 C12 1_555 1_555
H1 C13 1_555 1_555
H2 C13 1_555 1_555
H3 C13 1_555 1_555
C14 C11 1_555 1_555
H4 C14 1_555 1_555
H5 C14 1_555 1_555
H6 C14 1_555 1_555
C15 C8 1_555 1_555
H7 C15 1_555 1_555
H8 C15 1_555 1_555
H9 C15 1_555 1_555
C16 C7 1_555 1_555
H10 C16 1_555 1_555
H11 C16 1_555 1_555
H12 C16 1_555 1_555
C17 H13 1_555 1_555
H14 C17 1_555 1_555
H15 C17 1_555 1_555
C18 C4 1_555 1_555
H16 C18 1_555 1_555
H17 C18 1_555 1_555
H18 C18 1_555 1_555
C19 N2 1_555 1_555
H19 C19 1_555 1_555
C20 C19 1_555 1_555
H20 C20 1_555 1_555
C21 H21 1_555 1_555
C22 C21 1_555 1_555
H22 C22 1_555 1_555
C23 C22 1_555 1_555
C24 N1 1_555 1_555
C25 C23 1_555 1_555
H23 C25 1_555 1_555
C26 C25 1_555 1_555
H24 C26 1_555 1_555
C27 N1 1_555 1_555
H25 C27 1_555 1_555
C28 N2 1_555 1_555
C29 C21 1_555 1_555
C30 C20 1_555 1_555
H26 C30 1_555 1_555
Er1A O1A_2 1_555 1_555
Er1_2 O2A 1_555 1_555
Er1A_2 O2 1_555 1_555
Er1A_3 O5A 1_555 1_555
Er1A_4 O1A 1_555 1_555
O1A C1A 1_555 1_555
O2A C1A 1_555 1_555
O2_2 Er1A 1_555 1_555
O2A_2 Er1 1_555 1_555
O3A Er1A 1_555 1_555
O4A Er1A 1_555 1_555
O5A C9A 1_555 1_555
O5A_2 Er1A 1_555 1_555
O6A Er1A_3 1_555 1_555
O6A_2 Er1A 1_555 1_555
N1A Er1A 1_555 1_555
N2A Er1A 1_555 1_555
C1A C2A 1_555 1_555
C2A C3A 1_555 1_555
C3A C4 1_555 1_555
C4A C3 1_555 1_555
C5A O3A 1_555 1_555
C6A C5A 1_555 1_555
C7A C8 1_555 1_555
C8A C7 1_555 1_555
C9A O6A 1_555 1_555
C9A_2 O5A_2 1_555 1_555
C10A C9A 1_555 1_555
C11A C12 1_555 1_555
C12A C11 1_555 1_555
C13A C12A 1_555 1_555
H1A C13A 1_555 1_555
H2A C13A 1_555 1_555
H3A C13A 1_555 1_555
C14A C11A 1_555 1_555
H4A C14A 1_555 1_555
H5A C14A 1_555 1_555
H6A C14A 1_555 1_555
C15A C8A 1_555 1_555
H7A C15A 1_555 1_555
H8A C15A 1_555 1_555
H9A C15A 1_555 1_555
C16A C7A 1_555 1_555
H10A C16A 1_555 1_555
H11A C16A 1_555 1_555
H12A C16A 1_555 1_555
C17A C3A 1_555 1_555
H13A C17A 1_555 1_555
H14A C17A 1_555 1_555
H15A C17A 1_555 1_555
C18A C4A 1_555 1_555
H16A C18A 1_555 1_555
H17A C18A 1_555 1_555
H18A C18A 1_555 1_555
C19A N2A 1_555 1_555
H19A C19A 1_555 1_555
C20A C19A 1_555 1_555
H20A C20A 1_555 1_555
C21A H21A 1_555 1_555
C22A C21A 1_555 1_555
H22A C22A 1_555 1_555
C23A C22A 1_555 1_555
C24A N1A 1_555 1_555
C25A C23A 1_555 1_555
H23A C25A 1_555 1_555
C26A C25A 1_555 1_555
H24A C26A 1_555 1_555
C27A N1A 1_555 1_555
H25A C27A 1_555 1_555
C28A N2A 1_555 1_555
C29A C21A 1_555 1_555
C30A C20A 1_555 1_555
H26A C30A 1_555 1_555
O4 C5 1_555 1_555
O6 C9 1_555 1_555
C23 C24 1_555 1_555
C24 C28 1_555 1_555
C26 C27 1_555 1_555
C28 C29 1_555 1_555
C29 C30 1_555 1_555
O4A C5A 1_555 1_555
O6A_2 C9A_2 1_555 1_555
C2A C4A 1_555 1_555
C6A C7A 1_555 1_555
C6A C8A 1_555 1_555
C10A C11A 1_555 1_555
C10A C12A 1_555 1_555
C23A C24A 1_555 1_555
C24A C28A 1_555 1_555
C26A C27A 1_555 1_555
C28A C29A 1_555 1_555
C29A C30A 1_555 1_555

#END
