
#######################################################################
#
#                 Cambridge Crystallographic Data Centre
#                                CCDC 
#
#######################################################################
#
# If this CIF has been generated from an entry in the Cambridge 
# Structural Database, then it will include bibliographic, chemical, 
# crystal, experimental, refinement or atomic coordinate data resulting 
# from the CCDC's data processing and validation procedures.
#
#######################################################################

data_SARGID
_chemical_formula_moiety         '(C12 H2 D4 Fe2 O6)n'
_chemical_name_systematic        
catena-(bis(\h^2^-dideuteroacetylene)-(\m~8~-2,5-dioxido-1,4-benzenedicarboxylate)-di-iron(ii))
_symmetry_cell_setting           rhombohedral
_symmetry_space_group_name_H-M   'R -3'
_symmetry_Int_Tables_number      148
_space_group_name_Hall           '-R 3'
loop_
_symmetry_equiv_pos_site_id
_symmetry_equiv_pos_as_xyz
1 x,y,z
2 -y,x-y,z
3 -x+y,-x,z
4 1/3+x,2/3+y,2/3+z
5 1/3-y,2/3+x-y,2/3+z
6 1/3-x+y,2/3-x,2/3+z
7 2/3+x,1/3+y,1/3+z
8 2/3-y,1/3+x-y,1/3+z
9 2/3-x+y,1/3-x,1/3+z
10 -x,-y,-z
11 y,-x+y,-z
12 x-y,x,-z
13 2/3-x,1/3-y,1/3-z
14 2/3+y,1/3-x+y,1/3-z
15 2/3+x-y,1/3+x,1/3-z
16 1/3-x,2/3-y,2/3-z
17 1/3+y,2/3-x+y,2/3-z
18 1/3+x-y,2/3+x,2/3-z
_cell_length_a                   25.9202(5)
_cell_length_b                   25.9202(5)
_cell_length_c                   6.95046(21)
_cell_angle_alpha                90
_cell_angle_beta                 90
_cell_angle_gamma                120
_cell_volume                     4044.09
_cell_formula_units_Z            9
loop_
_atom_site_label
_atom_site_type_symbol
_atom_site_fract_x
_atom_site_fract_y
_atom_site_fract_z
Fe1 Fe 0.38617(19) 0.35147(19) 0.1485(6)
O1 O 0.31842(30) 0.29222(31) 0.3475(11)
O2 O 0.30258(29) 0.22647(31) 0.5915(11)
O3 O 0.35286(33) 0.27109(30) 0.0094(11)
C1 C 0.31409(29) 0.24580(25) 0.4233(10)
C2 C 0.32761(30) 0.20593(28) 0.2822(10)
C3 C 0.34350(26) 0.22139(26) 0.0912(9)
C4 C 0.31563(26) 0.15232(30) 0.3605(9)
H1 H 0.3063(5) 0.1420(5) 0.5084(19)
C5 C 0.47990(18) 0.35389(28) 0.1968(10)
C6 C 0.45585(18) 0.33728(31) 0.3447(10)
D1 D 0.50299(34) 0.3659(5) 0.0656(14)
D2 D 0.43824(28) 0.3207(4) 0.4831(13)
Fe1L Fe 0.28050(19) -0.01814(19) 0.1848(6)
Fe1G Fe 0.31520(19) 0.36803(27) 0.4818(6)
Fe1E Fe 0.29863(27) 0.28050(19) 0.8152(6)
Fe1E_2 Fe 0.29863(27) 0.28050(19) -0.1848(6)
Fe1J Fe 0.35147(19) -0.03470(27) -0.1485(6)
Fe1Q Fe 0.36803(27) 0.05284(19) -0.4818(6)
Fe1Q_2 Fe 0.36803(27) 0.05284(19) 0.5182(6)
O1L O 0.34825(30) 0.04111(31) -0.0142(11)
O1E O 0.30713(43) 0.34825(30) 0.0142(11)
O1Q O 0.35953(43) -0.01491(30) 0.3192(11)
O2L O 0.36409(29) 0.10686(31) -0.2582(11)
O2G O 0.44020(31) 0.40944(42) -0.0752(11)
O2J O 0.22647(31) -0.07611(42) 0.4085(11)
O3L O 0.31381(33) 0.06224(30) 0.3239(11)
O3G O 0.39558(30) 0.41510(45) 0.3427(11)
O3J O 0.27109(30) -0.08177(45) -0.0094(11)
C1L C 0.35258(29) 0.08753(25) -0.0900(10)
C2L C 0.33906(30) 0.12740(28) 0.0511(10)
C3L C 0.32317(26) 0.11194(26) 0.2421(9)
C4L C 0.35104(26) 0.18101(30) -0.0272(9)
H1L H 0.3604(5) 0.1913(5) -0.1751(19)
C5L C 0.18677(18) -0.02056(28) 0.1365(10)
C6L C 0.21082(18) -0.00395(31) -0.0114(10)
D1L D 0.16368(34) -0.0326(5) 0.2677(14)
D2L D 0.22843(28) 0.0126(4) -0.1498(13)
loop_
_geom_bond_atom_site_label_1
_geom_bond_atom_site_label_2
_geom_bond_site_symmetry_1
_geom_bond_site_symmetry_2
Fe1 O1 1_555 1_555
O1 C1 1_555 1_555
O2 C1 1_555 1_555
O3 Fe1 1_555 1_555
C1 C2 1_555 1_555
C2 C3 1_555 1_555
C3 O3 1_555 1_555
C4 C2 1_555 1_555
H1 C4 1_555 1_555
C5 Fe1 1_555 1_555
C6 Fe1 1_555 1_555
D1 C5 1_555 1_555
D2 C6 1_555 1_555
Fe1L O1L 1_555 1_555
Fe1G O1 1_555 1_555
Fe1E O2 1_555 1_555
Fe1E_2 O3 1_555 1_555
Fe1J O1L 1_555 1_555
Fe1Q O2L 1_555 1_555
Fe1Q_2 O1Q 1_555 1_555
O1L C1L 1_555 1_555
O1E Fe1 1_555 1_555
O1Q Fe1L 1_555 1_555
O2L C1L 1_555 1_555
O2G Fe1 1_555 1_555
O2J Fe1L 1_555 1_555
O3L Fe1L 1_555 1_555
O3G Fe1 1_555 1_555
O3J Fe1L 1_555 1_555
C1L C2L 1_555 1_555
C2L C3L 1_555 1_555
C3L C4 1_555 1_555
C4L C3 1_555 1_555
H1L C4L 1_555 1_555
C5L Fe1L 1_555 1_555
C6L Fe1L 1_555 1_555
D1L C5L 1_555 1_555
D2L C6L 1_555 1_555
C5 C6 1_555 1_555
Fe1G O3G 1_555 1_555
Fe1E_2 O1E 1_555 1_555
Fe1J O3J 1_555 1_555
Fe1Q_2 O3L 1_555 1_555
O3L C3L 1_555 1_555
C2L C4L 1_555 1_555
C5L C6L 1_555 1_555

#END
