
#######################################################################
#
#                 Cambridge Crystallographic Data Centre
#                                CCDC 
#
#######################################################################
#
# If this CIF has been generated from an entry in the Cambridge 
# Structural Database, then it will include bibliographic, chemical, 
# crystal, experimental, refinement or atomic coordinate data resulting 
# from the CCDC's data processing and validation procedures.
#
#######################################################################

data_SARGOJ
_chemical_formula_moiety         '(C12 H2 D8 Fe2 O6)n'
_chemical_name_systematic        
catena-(bis(\h^2^-tetradeuteroethene)-(\m~8~-2,5-dioxido-1,4-benzenedicarboxylate)-di-iron(ii))
_symmetry_cell_setting           rhombohedral
_symmetry_space_group_name_H-M   'R -3'
_symmetry_Int_Tables_number      148
_space_group_name_Hall           '-R 3'
loop_
_symmetry_equiv_pos_site_id
_symmetry_equiv_pos_as_xyz
1 x,y,z
2 -y,x-y,z
3 -x+y,-x,z
4 1/3+x,2/3+y,2/3+z
5 1/3-y,2/3+x-y,2/3+z
6 1/3-x+y,2/3-x,2/3+z
7 2/3+x,1/3+y,1/3+z
8 2/3-y,1/3+x-y,1/3+z
9 2/3-x+y,1/3-x,1/3+z
10 -x,-y,-z
11 y,-x+y,-z
12 x-y,x,-z
13 2/3-x,1/3-y,1/3-z
14 2/3+y,1/3-x+y,1/3-z
15 2/3+x-y,1/3+x,1/3-z
16 1/3-x,2/3-y,2/3-z
17 1/3+y,2/3-x+y,2/3-z
18 1/3+x-y,2/3+x,2/3-z
_cell_length_a                   25.8784(9)
_cell_length_b                   25.8784(9)
_cell_length_c                   6.96686(35)
_cell_angle_alpha                90
_cell_angle_beta                 90
_cell_angle_gamma                120
_cell_volume                     4040.57
_cell_formula_units_Z            9
loop_
_atom_site_label
_atom_site_type_symbol
_atom_site_fract_x
_atom_site_fract_y
_atom_site_fract_z
Fe1 Fe 0.3877(4) 0.3523(4) 0.1450(12)
O1 O 0.3183(5) 0.2939(5) 0.3488(21)
O2 O 0.3044(5) 0.2275(6) 0.5952(22)
O3 O 0.3558(6) 0.2748(6) 0.0063(20)
C1 C 0.3167(6) 0.2471(6) 0.4193(16)
C2 C 0.3254(6) 0.2055(6) 0.2836(15)
C3 C 0.3431(7) 0.2248(7) 0.0954(20)
C4 C 0.3171(5) 0.1520(6) 0.3493(18)
H1 H 0.3021(10) 0.1386(10) 0.5020(33)
C5 C 0.4850(9) 0.3621(8) 0.1867(33)
C6 C 0.4549(11) 0.3329(10) 0.3340(26)
D1 D 0.5135(10) 0.4117(9) 0.2000(34)
D2 D 0.4367(10) 0.2852(11) 0.3344(34)
D3 D 0.4632(8) 0.3546(10) 0.4738(29)
D4 D 0.4911(9) 0.3435(8) 0.0626(25)
Fe1L Fe 0.2790(4) -0.0190(4) 0.1883(12)
Fe1G Fe 0.3144(4) 0.3687(6) 0.4783(12)
Fe1E Fe 0.2979(6) 0.2790(4) 0.8117(12)
Fe1E_2 Fe 0.2979(6) 0.2790(4) -0.1883(12)
Fe1J Fe 0.3523(4) -0.0354(6) -0.1450(12)
Fe1Q Fe 0.3687(6) 0.0544(4) -0.4783(12)
Fe1Q_2 Fe 0.3687(6) 0.0544(4) 0.5217(12)
O1L O 0.3484(5) 0.0394(5) -0.0155(21)
O1E O 0.3089(7) 0.3484(5) 0.0155(21)
O1Q O 0.3577(7) -0.0150(5) 0.3179(21)
O2L O 0.3623(5) 0.1058(6) -0.2619(22)
O2G O 0.4392(6) 0.4102(8) -0.0715(22)
O2J O 0.2275(6) -0.0769(8) 0.4048(22)
O3L O 0.3109(6) 0.0585(6) 0.3270(20)
O3G O 0.3919(6) 0.4143(8) 0.3396(20)
O3J O 0.2748(6) -0.0810(8) -0.0063(20)
C1L C 0.3500(6) 0.0862(6) -0.0860(16)
C2L C 0.3413(6) 0.1278(6) 0.0497(15)
C3L C 0.3236(7) 0.1085(7) 0.2379(20)
C4L C 0.3496(5) 0.1813(6) -0.0160(18)
H1L H 0.3646(10) 0.1947(10) -0.1687(33)
C5L C 0.1817(9) -0.0288(8) 0.1466(33)
C6L C 0.2118(11) 0.0004(10) -0.0007(26)
D1L D 0.1532(10) -0.0784(9) 0.1333(34)
D2L D 0.2300(10) 0.0481(11) -0.0011(34)
D3L D 0.2035(8) -0.0213(10) -0.1405(29)
D4L D 0.1756(9) -0.0102(8) 0.2707(25)
loop_
_geom_bond_atom_site_label_1
_geom_bond_atom_site_label_2
_geom_bond_site_symmetry_1
_geom_bond_site_symmetry_2
Fe1 O1 1_555 1_555
O1 C1 1_555 1_555
O2 C1 1_555 1_555
O3 Fe1 1_555 1_555
C1 C2 1_555 1_555
C2 C3 1_555 1_555
C3 O3 1_555 1_555
C4 C2 1_555 1_555
H1 C4 1_555 1_555
C5 Fe1 1_555 1_555
C6 Fe1 1_555 1_555
D1 C5 1_555 1_555
D2 C6 1_555 1_555
D3 C6 1_555 1_555
D4 C5 1_555 1_555
Fe1L O1L 1_555 1_555
Fe1G O1 1_555 1_555
Fe1E O2 1_555 1_555
Fe1E_2 O3 1_555 1_555
Fe1J O1L 1_555 1_555
Fe1Q O2L 1_555 1_555
Fe1Q_2 O1Q 1_555 1_555
O1L C1L 1_555 1_555
O1E Fe1 1_555 1_555
O1Q Fe1L 1_555 1_555
O2L C1L 1_555 1_555
O2G Fe1 1_555 1_555
O2J Fe1L 1_555 1_555
O3L Fe1L 1_555 1_555
O3G Fe1 1_555 1_555
O3J Fe1L 1_555 1_555
C1L C2L 1_555 1_555
C2L C3L 1_555 1_555
C3L C4 1_555 1_555
C4L C3 1_555 1_555
H1L C4L 1_555 1_555
C5L Fe1L 1_555 1_555
C6L Fe1L 1_555 1_555
D1L C5L 1_555 1_555
D2L C6L 1_555 1_555
D3L C6L 1_555 1_555
D4L C5L 1_555 1_555
C5 C6 1_555 1_555
Fe1G O3G 1_555 1_555
Fe1E_2 O1E 1_555 1_555
Fe1J O3J 1_555 1_555
Fe1Q_2 O3L 1_555 1_555
O3L C3L 1_555 1_555
C2L C4L 1_555 1_555
C5L C6L 1_555 1_555

#END
