
#######################################################################
#
#                 Cambridge Crystallographic Data Centre
#                                CCDC 
#
#######################################################################
#
# If this CIF has been generated from an entry in the Cambridge 
# Structural Database, then it will include bibliographic, chemical, 
# crystal, experimental, refinement or atomic coordinate data resulting 
# from the CCDC's data processing and validation procedures.
#
#######################################################################

data_HOHMIB
_chemical_formula_moiety         
'(C36 H28 N2 O10 Zn2)n,13n(C3 H7 N1 O1),3n(H2 O1)'
_chemical_name_systematic        
"catena-(bis(\m~4~-4,4'-carbonyldibenzoato)-(\m~2~-1,4-diazabicyclo[2.2.2]octane)-di-zinc(ii) dimethylformamide solvate trihydrate)"
_symmetry_cell_setting           tetragonal
_symmetry_space_group_name_H-M   'I 41/a m d'
_symmetry_Int_Tables_number      141
_space_group_name_Hall           'I 4bw 2bw -1bw'
loop_
_symmetry_equiv_pos_site_id
_symmetry_equiv_pos_as_xyz
1 x,y,z
2 x,1/2-y,1/4-z
3 -x,1/2-y,1/4-z
4 1/2-x,1/2-y,1/2+z
5 1/2-x,y,3/4-z
6 1/2+x,y,3/4-z
7 -x,y,z
8 1/2+x,1/2-y,1/2+z
9 -y,1/2+x,1/4+z
10 1/2+y,1/2+x,1/2-z
11 -y,-x,-z
12 -y,x,-z
13 1/2+y,1/2-x,1/2-z
14 1/2+y,x,3/4+z
15 1/2+y,-x,3/4+z
16 -y,1/2-x,1/4+z
17 1/2+x,1/2+y,1/2+z
18 1/2+x,-y,3/4-z
19 1/2-x,-y,3/4-z
20 -x,-y,z
21 -x,1/2+y,1/4-z
22 x,1/2+y,1/4-z
23 1/2-x,1/2+y,1/2+z
24 x,-y,z
25 1/2-y,x,3/4+z
26 y,x,-z
27 1/2-y,1/2-x,1/2-z
28 1/2-y,1/2+x,1/2-z
29 y,-x,-z
30 y,1/2+x,1/4+z
31 y,1/2-x,1/4+z
32 1/2-y,-x,3/4+z
_cell_length_a                   19.4226(7)
_cell_length_b                   19.4226(7)
_cell_length_c                   50.9656(11)
_cell_angle_alpha                90
_cell_angle_beta                 90
_cell_angle_gamma                90
_cell_volume                     19226.1
_exptl_crystal_colour            colorless
_exptl_crystal_description       prism
_cell_formula_units_Z            8
loop_
_atom_site_label
_atom_site_type_symbol
_atom_site_fract_x
_atom_site_fract_y
_atom_site_fract_z
_atom_site_U_iso_or_equiv
_atom_site_thermal_displace_type
C1 C 0.0000 0.5389(9) 0.1575(3) 0.3183 Uani
H1 H 0.0404 0.5555 0.1667 0.3860 Uiso
H2 H -0.0404 0.5555 0.1667 0.3860 Uiso
C2 C -0.0697(8) 0.5389(8) 0.1159(3) 0.4607 Uani
H3 H -0.1087 0.5556 0.1259 0.5520 Uiso
H4 H -0.0742 0.5556 0.098 0.5520 Uiso
O1 O -0.0724(2) 0.69000(19) 0.09869(6) 0.0803 Uani
C3 C -0.0889(3) 0.7477(3) 0.08851(9) 0.0727 Uani
C4 C -0.1395(3) 0.7422(3) 0.06575(10) 0.0720 Uani
C5 C -0.1632(4) 0.6796(3) 0.05608(13) 0.1193 Uani
H5 H -0.1479 0.6389 0.0637 0.1430 Uiso
C6 C -0.2091(4) 0.6765(4) 0.03536(12) 0.1210 Uani
H6 H -0.2287 0.6346 0.0306 0.1450 Uiso
C7 C -0.2251(4) 0.7328(4) 0.02243(12) 0.1073 Uani
C8 C -0.2012(4) 0.7928(4) 0.03130(12) 0.1050 Uani
H7 H -0.2147 0.8326 0.0225 0.1260 Uiso
C9 C -0.1592(3) 0.7998(3) 0.05188(10) 0.0810 Uani
H8 H -0.1434 0.8431 0.0568 0.0970 Uiso
C10 C -0.2724(5) 0.7276(5) 0.00000 0.1560 Uani
N1 N 0.0000 0.5679(3) 0.12841(8) 0.0523 Uani
O2 O -0.0717(2) 0.8047(2) 0.09521(6) 0.0790 Uani
O3 O -0.3187(4) 0.6813(4) 0.00000 0.1900 Uani
Zn1 Zn 0.0000 0.67280(4) 0.127177(11) 0.0531 Uani
C1S C 0.0000 0.4611(9) 0.1575(3) 0.3183 Uani
H1S H -0.0404 0.4445 0.1667 0.3860 Uiso
H1W H 0.0404 0.4445 0.1667 0.3860 Uiso
C2S C 0.0697(8) 0.4611(8) 0.1159(3) 0.4607 Uani
C2F C 0.0697(8) 0.5389(8) 0.1159(3) 0.4607 Uani
C2W C -0.0697(8) 0.4611(8) 0.1159(3) 0.4607 Uani
H3F H 0.1087 0.5556 0.1259 0.5520 Uiso
H3W H -0.1087 0.4444 0.1259 0.5520 Uiso
H3S H 0.1087 0.4444 0.1259 0.5520 Uiso
H4F H 0.0742 0.5556 0.098 0.5520 Uiso
H4W H -0.0742 0.4444 0.098 0.5520 Uiso
H4S H 0.0742 0.4444 0.098 0.5520 Uiso
O1Y O -0.31000(19) 0.9276(2) -0.09869(6) 0.0803 Uani
O1F O 0.0724(2) 0.69000(19) 0.09869(6) 0.0803 Uani
O1K O 0.31000(19) 0.9276(2) -0.09869(6) 0.0803 Uani
O1BA O -0.31000(19) 1.0724(2) -0.09869(6) 0.0803 Uani
C3Y C -0.2523(3) 0.9111(3) -0.08851(9) 0.0727 Uani
C3F C 0.0889(3) 0.7477(3) 0.08851(9) 0.0727 Uani
C3K C 0.2523(3) 0.9111(3) -0.08851(9) 0.0727 Uani
C4Y C -0.2578(3) 0.8605(3) -0.06575(10) 0.0720 Uani
C4F C 0.1395(3) 0.7422(3) 0.06575(10) 0.0720 Uani
C4K C 0.2578(3) 0.8605(3) -0.06575(10) 0.0720 Uani
C5Y C -0.3204(3) 0.8368(4) -0.05608(13) 0.1193 Uani
C5F C 0.1632(4) 0.6796(3) 0.05608(13) 0.1193 Uani
C5K C 0.3204(3) 0.8368(4) -0.05608(13) 0.1193 Uani
H5Y H -0.3611 0.8521 -0.0637 0.1430 Uiso
H5F H 0.1479 0.6389 0.0637 0.1430 Uiso
H5K H 0.3611 0.8521 -0.0637 0.1430 Uiso
C6Y C -0.3235(4) 0.7909(4) -0.03536(12) 0.1210 Uani
C6F C 0.2091(4) 0.6765(4) 0.03536(12) 0.1210 Uani
C6K C 0.3235(4) 0.7909(4) -0.03536(12) 0.1210 Uani
H6Y H -0.3654 0.7713 -0.0306 0.1450 Uiso
H6F H 0.2287 0.6346 0.0306 0.1450 Uiso
H6K H 0.3654 0.7713 -0.0306 0.1450 Uiso
C7Y C -0.2672(4) 0.7749(4) -0.02243(12) 0.1073 Uani
C7F C 0.2251(4) 0.7328(4) 0.02243(12) 0.1073 Uani
C7K C 0.2672(4) 0.7749(4) -0.02243(12) 0.1073 Uani
C8Y C -0.2072(4) 0.7988(4) -0.03130(12) 0.1050 Uani
C8F C 0.2012(4) 0.7928(4) 0.03130(12) 0.1050 Uani
C8K C 0.2072(4) 0.7988(4) -0.03130(12) 0.1050 Uani
H7Y H -0.1674 0.7853 -0.0225 0.1260 Uiso
H7F H 0.2147 0.8326 0.0225 0.1260 Uiso
H7K H 0.1674 0.7853 -0.0225 0.1260 Uiso
C9Y C -0.2002(3) 0.8408(3) -0.05188(10) 0.0810 Uani
C9F C 0.1592(3) 0.7998(3) 0.05188(10) 0.0810 Uani
C9K C 0.2002(3) 0.8408(3) -0.05188(10) 0.0810 Uani
H8Y H -0.1569 0.8566 -0.0568 0.0970 Uiso
H8F H 0.1434 0.8431 0.0568 0.0970 Uiso
H8K H 0.1569 0.8566 -0.0568 0.0970 Uiso
C10F C 0.2724(5) 0.7276(5) 0.00000 0.1560 Uani
N1S N 0.0000 0.4321(3) 0.12841(8) 0.0523 Uani
N1Y N -0.4321(3) 1.0000 -0.12841(8) 0.0523 Uani
O2Y O -0.1953(2) 0.9283(2) -0.09521(6) 0.0790 Uani
O2F O 0.0717(2) 0.8047(2) 0.09521(6) 0.0790 Uani
O2K O 0.1953(2) 0.9283(2) -0.09521(6) 0.0790 Uani
O2A O -0.0717(2) 0.6953(2) 0.15479(6) 0.0790 Uani
O2B O 0.0717(2) 0.6953(2) 0.15479(6) 0.0790 Uani
O2X O -0.3047(2) 0.9283(2) -0.15479(6) 0.0790 Uani
O2EA O -0.3047(2) 1.0717(2) -0.15479(6) 0.0790 Uani
O3F O 0.3187(4) 0.6813(4) 0.00000 0.1900 Uani
Zn1Y Zn -0.32720(4) 1.0000 -0.127177(11) 0.0531 Uani
Zn1A Zn 0.0000 0.82720(4) 0.122823(11) 0.0531 Uani
Zn1S Zn 0.0000 0.32720(4) 0.127177(11) 0.0531 Uani
Zn1X Zn -0.17280(4) 1.0000 -0.122823(11) 0.0531 Uani
Zn1J Zn 0.32720(4) 1.0000 -0.127177(11) 0.0531 Uani
Zn1M Zn 0.17280(4) 1.0000 -0.122823(11) 0.0531 Uani
loop_
_atom_site_aniso_label
_atom_site_aniso_U_11
_atom_site_aniso_U_22
_atom_site_aniso_U_33
_atom_site_aniso_U_23
_atom_site_aniso_U_13
_atom_site_aniso_U_12
C1 0.45(4) 0.19(2) 0.315(17) 0.033(16) 0 0
C2 0.40(3) 0.152(14) 0.83(4) -0.065(19) -0.04(3) -0.039(16)
O1 0.111(3) 0.067(3) 0.0630(19) 0.0026(18) -0.0146(19) -0.001(2)
C3 0.085(4) 0.079(4) 0.054(3) 0.012(3) -0.003(3) -0.003(4)
C4 0.086(4) 0.060(4) 0.070(3) 0.002(3) -0.005(3) -0.002(3)
C5 0.159(7) 0.075(5) 0.124(5) 0.019(4) -0.046(5) -0.013(5)
C6 0.162(7) 0.098(6) 0.103(5) 0.013(4) -0.041(5) -0.030(5)
C7 0.121(6) 0.114(6) 0.087(4) 0.028(4) -0.028(4) -0.027(5)
C8 0.123(6) 0.093(5) 0.099(4) 0.034(4) -0.022(4) 0.001(5)
C9 0.111(5) 0.056(3) 0.076(3) 0.011(3) -0.018(3) -0.007(3)
C10 0.154(8) 0.154(8) 0.160(11) 0.053(7) -0.053(7) -0.058(10)
N1 0.084(4) 0.033(3) 0.040(2) 0.002(2) 0 0
O2 0.111(3) 0.057(2) 0.069(2) 0.0005(18) -0.0158(19) -0.006(2)
O3 0.198(6) 0.198(6) 0.174(8) 0.038(5) -0.038(5) -0.043(9)
Zn1 0.0739(6) 0.0397(5) 0.0457(4) 0.0020(3) 0 0
C1S 0.45 0.19 0.315 -0.033 0 0
C2S 0.4 0.152 0.83 0.065 0.04 -0.039
C2F 0.4 0.152 0.83 -0.065 0.04 0.039
C2W 0.4 0.152 0.83 0.065 -0.04 0.039
O1Y 0.067 0.111 0.063 0.0146 -0.0026 -0.001
O1F 0.111 0.067 0.063 0.0026 0.0146 0.001
O1K 0.067 0.111 0.063 0.0146 0.0026 0.001
O1BA 0.067 0.111 0.063 -0.0146 -0.0026 0.001
C3Y 0.079 0.085 0.054 0.003 -0.012 -0.003
C3F 0.085 0.079 0.054 0.012 0.003 0.003
C3K 0.079 0.085 0.054 0.003 0.012 0.003
C4Y 0.06 0.086 0.07 0.005 -0.002 -0.002
C4F 0.086 0.06 0.07 0.002 0.005 0.002
C4K 0.06 0.086 0.07 0.005 0.002 0.002
C5Y 0.075 0.159 0.124 0.046 -0.019 -0.013
C5F 0.159 0.075 0.124 0.019 0.046 0.013
C5K 0.075 0.159 0.124 0.046 0.019 0.013
C6Y 0.098 0.162 0.103 0.041 -0.013 -0.03
C6F 0.162 0.098 0.103 0.013 0.041 0.03
C6K 0.098 0.162 0.103 0.041 0.013 0.03
C7Y 0.114 0.121 0.087 0.028 -0.028 -0.027
C7F 0.121 0.114 0.087 0.028 0.028 0.027
C7K 0.114 0.121 0.087 0.028 0.028 0.027
C8Y 0.093 0.123 0.099 0.022 -0.034 0.001
C8F 0.123 0.093 0.099 0.034 0.022 -0.001
C8K 0.093 0.123 0.099 0.022 0.034 -0.001
C9Y 0.056 0.111 0.076 0.018 -0.011 -0.007
C9F 0.111 0.056 0.076 0.011 0.018 0.007
C9K 0.056 0.111 0.076 0.018 0.011 0.007
C10F 0.154 0.154 0.16 0.053 0.053 0.058
N1S 0.084 0.033 0.04 -0.002 0 0
N1Y 0.033 0.084 0.04 0 -0.002 0
O2Y 0.057 0.111 0.069 0.0158 -0.0005 -0.006
O2F 0.111 0.057 0.069 0.0005 0.0158 0.006
O2K 0.057 0.111 0.069 0.0158 0.0005 0.006
O2A 0.111 0.057 0.069 0.0005 0.0158 0.006
O2B 0.111 0.057 0.069 0.0005 -0.0158 -0.006
O2X 0.057 0.111 0.069 -0.0158 -0.0005 0.006
O2EA 0.057 0.111 0.069 0.0158 -0.0005 -0.006
O3F 0.198 0.198 0.174 0.038 0.038 0.043
Zn1Y 0.0397 0.0739 0.0457 0 -0.002 0
Zn1A 0.0739 0.0397 0.0457 0.002 0 0
Zn1S 0.0739 0.0397 0.0457 -0.002 0 0
Zn1X 0.0397 0.0739 0.0457 0 -0.002 0
Zn1J 0.0397 0.0739 0.0457 0 0.002 0
Zn1M 0.0397 0.0739 0.0457 0 0.002 0
loop_
_geom_bond_atom_site_label_1
_geom_bond_atom_site_label_2
_geom_bond_site_symmetry_1
_geom_bond_site_symmetry_2
C1 H1 1_555 1_555
H2 C1 1_555 1_555
C2 H3 1_555 1_555
H4 C2 1_555 1_555
O1 C3 1_555 1_555
C3 C4 1_555 1_555
C4 C5 1_555 1_555
C5 H5 1_555 1_555
C6 C5 1_555 1_555
H6 C6 1_555 1_555
C7 C6 1_555 1_555
C8 C7 1_555 1_555
H7 C8 1_555 1_555
C9 C4 1_555 1_555
H8 C9 1_555 1_555
C10 C7 1_555 1_555
N1 C1 1_555 1_555
O2 C3 1_555 1_555
O3 C10 1_555 1_555
Zn1 O1 1_555 1_555
C1S C1 1_555 1_555
H1S C1S 1_555 1_555
H1W C1S 1_555 1_555
C2S C2F 1_555 1_555
C2F N1 1_555 1_555
C2W C2 1_555 1_555
H3F C2F 1_555 1_555
H3W C2W 1_555 1_555
H3S C2S 1_555 1_555
H4F C2F 1_555 1_555
H4W C2W 1_555 1_555
H4S C2S 1_555 1_555
O1Y C3Y 1_555 1_555
O1F Zn1 1_555 1_555
O1K C3K 1_555 1_555
O1BA Zn1Y 1_555 1_555
C3Y C4Y 1_555 1_555
C3F O1F 1_555 1_555
C3K C4K 1_555 1_555
C4Y C5Y 1_555 1_555
C4F C3F 1_555 1_555
C4K C5K 1_555 1_555
C5Y H5Y 1_555 1_555
C5F C4F 1_555 1_555
C5K H5K 1_555 1_555
H5F C5F 1_555 1_555
C6Y C5Y 1_555 1_555
C6F C5F 1_555 1_555
C6K C5K 1_555 1_555
H6Y C6Y 1_555 1_555
H6F C6F 1_555 1_555
H6K C6K 1_555 1_555
C7Y C10 1_555 1_555
C7F C6F 1_555 1_555
C7K C6K 1_555 1_555
C8Y C7Y 1_555 1_555
C8F C7F 1_555 1_555
C8K C7K 1_555 1_555
H7Y C8Y 1_555 1_555
H7F C8F 1_555 1_555
H7K C8K 1_555 1_555
C9Y C4Y 1_555 1_555
C9F C4F 1_555 1_555
C9K C4K 1_555 1_555
H8Y C9Y 1_555 1_555
H8F C9F 1_555 1_555
H8K C9K 1_555 1_555
C10F C7F 1_555 1_555
N1S C1S 1_555 1_555
N1Y Zn1Y 1_555 1_555
O2Y C3Y 1_555 1_555
O2F C3F 1_555 1_555
O2K C3K 1_555 1_555
O2A Zn1 1_555 1_555
O2B Zn1 1_555 1_555
O2X Zn1Y 1_555 1_555
O2EA Zn1Y 1_555 1_555
O3F C10F 1_555 1_555
Zn1Y O1Y 1_555 1_555
Zn1A O2 1_555 1_555
Zn1S N1S 1_555 1_555
Zn1X O2Y 1_555 1_555
Zn1J O1K 1_555 1_555
Zn1M O2K 1_555 1_555
C2 N1 1_555 1_555
C8 C9 1_555 1_555
N1 Zn1 1_555 1_555
C2S N1S 1_555 1_555
C2W N1S 1_555 1_555
C6Y C7Y 1_555 1_555
C7K C10F 1_555 1_555
C8Y C9Y 1_555 1_555
C8F C9F 1_555 1_555
C8K C9K 1_555 1_555
O2F Zn1A 1_555 1_555

#END
