
#######################################################################
#
#                 Cambridge Crystallographic Data Centre
#                                CCDC 
#
#######################################################################
#
# If this CIF has been generated from an entry in the Cambridge 
# Structural Database, then it will include bibliographic, chemical, 
# crystal, experimental, refinement or atomic coordinate data resulting 
# from the CCDC's data processing and validation procedures.
#
#######################################################################

data_XUBGUY
_chemical_formula_moiety         '(C28 H24 O16 Si1 Zr3)n'
_chemical_name_systematic        
'catena-[bis(\m-hydroxo)-bis(\m-oxo)-(\m-tetrakis(4-carboxylatophenyl)silane)-diaqua-bis(hydroxy)-tri-zirconium unknown solvate]'
_symmetry_cell_setting           tetragonal
_symmetry_space_group_name_H-M   'I 4/m'
_symmetry_Int_Tables_number      87
_space_group_name_Hall           '-I 4'
loop_
_symmetry_equiv_pos_site_id
_symmetry_equiv_pos_as_xyz
1 x,y,z
2 -x,-y,z
3 -y,x,z
4 y,-x,z
5 1/2+x,1/2+y,1/2+z
6 1/2-x,1/2-y,1/2+z
7 1/2-y,1/2+x,1/2+z
8 1/2+y,1/2-x,1/2+z
9 -x,-y,-z
10 x,y,-z
11 y,-x,-z
12 -y,x,-z
13 1/2-x,1/2-y,1/2-z
14 1/2+x,1/2+y,1/2-z
15 1/2+y,1/2-x,1/2-z
16 1/2-y,1/2+x,1/2-z
_cell_length_a                   15.228(3)
_cell_length_b                   15.228(3)
_cell_length_c                   28.791(5)
_cell_angle_alpha                90
_cell_angle_beta                 90
_cell_angle_gamma                90
_cell_volume                     6676.4
_exptl_crystal_colour            colorless
_exptl_crystal_description       diamond-like
_cell_formula_units_Z            4
_exptl_crystal_recrystallization_method 'N,N-dimethylformamide/formic acid'
_exptl_crystal_preparation       'Luminescent, semiconductor'
loop_
_atom_site_label
_atom_site_type_symbol
_atom_site_fract_x
_atom_site_fract_y
_atom_site_fract_z
Zr1 Zr 0.84321(2) 0.05007(2) 0.5000
Zr2 Zr 1.0000 0.0000 0.414565(13)
Si1 Si 0.5000 0.0000 0.2500
O1 O 0.78109(13) 0.06858(17) 0.42933(7)
O2 O 0.88158(12) 0.03373(12) 0.37516(6)
O3 O 0.89678(19) -0.05376(15) 0.54138(7)
O4 O 0.7167(2) -0.0214(3) 0.5000
O5 O 0.7817(2) 0.1797(2) 0.5000
C1 C 0.6785(2) -0.0073(3) 0.28007(10)
H1 H 0.6886 -0.0378 0.2526
C2 C 0.7473(2) 0.0048(3) 0.31068(11)
H2 H 0.8030 -0.0159 0.3032
C3 C 0.73345(18) 0.04776(19) 0.35253(9)
C4 C 0.6515(2) 0.0817(2) 0.36121(11)
H3 H 0.6413 0.1124 0.3886
C5 C 0.5844(2) 0.0708(2) 0.32971(11)
H4 H 0.5298 0.0954 0.3360
C6 C 0.59598(16) 0.02413(18) 0.28885(8)
C7 C 0.80363(18) 0.05131(19) 0.38818(9)
O1A O 0.21891(13) -0.06858(17) 0.42933(7)
O2A O 0.11842(12) -0.03373(12) 0.37516(6)
C1A C 0.3215(2) 0.0073(3) 0.28007(10)
H1A H 0.3114 0.0378 0.2526
C2A C 0.2527(2) -0.0048(3) 0.31068(11)
H2A H 0.1970 0.0159 0.3032
C3A C 0.26655(18) -0.04776(19) 0.35253(9)
C4A C 0.3485(2) -0.0817(2) 0.36121(11)
H3A H 0.3587 -0.1124 0.3886
C5A C 0.4156(2) -0.0708(2) 0.32971(11)
H4A H 0.4702 -0.0954 0.3360
C6A C 0.40402(16) -0.02413(18) 0.28885(8)
C7A C 0.19637(18) -0.05131(19) 0.38818(9)
O1N O 0.56858(17) -0.28109(13) 0.07067(7)
O2N O 0.53373(12) -0.38158(12) 0.12484(6)
C1N C 0.4927(3) -0.1785(2) 0.21993(10)
H1N H 0.4622 -0.1886 0.2474
C2N C 0.5048(3) -0.2473(2) 0.18932(11)
H2N H 0.4841 -0.3030 0.1968
C3N C 0.54776(19) -0.23345(18) 0.14747(9)
C4N C 0.5817(2) -0.1515(2) 0.13879(11)
H3N H 0.6124 -0.1413 0.1114
C5N C 0.5708(2) -0.0844(2) 0.17029(11)
H4N H 0.5954 -0.0298 0.1640
C6N C 0.52413(18) -0.09598(16) 0.21115(8)
C7N C 0.55131(19) -0.30363(18) 0.11182(9)
O1O O 0.43142(17) 0.28109(13) 0.07067(7)
O2O O 0.46627(12) 0.38158(12) 0.12484(6)
C1O C 0.5073(3) 0.1785(2) 0.21993(10)
H1O H 0.5378 0.1886 0.2474
C2O C 0.4952(3) 0.2473(2) 0.18932(11)
H2O H 0.5159 0.3030 0.1968
C3O C 0.45224(19) 0.23345(18) 0.14747(9)
C4O C 0.4183(2) 0.1515(2) 0.13879(11)
H3O H 0.3876 0.1413 0.1114
C5O C 0.4292(2) 0.0844(2) 0.17029(11)
H4O H 0.4046 0.0298 0.1640
C6O C 0.47587(18) 0.09598(16) 0.21115(8)
C7O C 0.44869(19) 0.30363(18) 0.11182(9)
Zr1A Zr 0.15679(2) -0.05007(2) 0.5000
O3A O 0.10322(19) 0.05376(15) 0.54138(7)
O4A O 0.2833(2) 0.0214(3) 0.5000
O5A O 0.2183(2) -0.1797(2) 0.5000
O3B O 0.05376(15) -0.10322(19) 0.54138(7)
O3C O 0.94624(15) 0.10322(19) 0.54138(7)
Zr1A_2 Zr 1.15679(2) -0.05007(2) 0.5000
Zr1B Zr -0.05007(2) -0.15679(2) 0.5000
Zr1B_2 Zr 0.94993(2) -0.15679(2) 0.5000
Zr1C Zr 0.05007(2) 0.15679(2) 0.5000
Zr1C_2 Zr 1.05007(2) 0.15679(2) 0.5000
Zr1F Zr 0.44993(2) 0.34321(2) 0.0000
Zr1G Zr 0.55007(2) -0.34321(2) 0.0000
Zr2_2 Zr 0.0000 0.0000 0.414565(13)
Zr2H Zr 0.0000 0.0000 0.585435(13)
Zr2H_2 Zr 1.0000 0.0000 0.585435(13)
Zr2L Zr 0.5000 -0.5000 0.085435(13)
Zr2L_2 Zr 0.5000 0.5000 0.085435(13)
O1H O 0.21891(13) -0.06858(17) 0.57067(7)
O1I O 0.78109(13) 0.06858(17) 0.57067(7)
O2A_2 O 1.11842(12) -0.03373(12) 0.37516(6)
O2B O 0.96627(12) -0.11842(12) 0.37516(6)
O2C O 1.03373(12) 0.11842(12) 0.37516(6)
O3H O 0.10322(19) 0.05376(15) 0.45862(7)
O3H_2 O 1.10322(19) 0.05376(15) 0.45862(7)
O3I O 0.89678(19) -0.05376(15) 0.45862(7)
O3J O 0.94624(15) 0.10322(19) 0.45862(7)
O3K O 0.05376(15) -0.10322(19) 0.45862(7)
O3K_2 O 1.05376(15) -0.10322(19) 0.45862(7)
loop_
_geom_bond_atom_site_label_1
_geom_bond_atom_site_label_2
_geom_bond_site_symmetry_1
_geom_bond_site_symmetry_2
Zr1 Zr2 1_555 1_555
Zr2 O2 1_555 1_555
Si1 C6 1_555 1_555
O1 Zr1 1_555 1_555
O2 C7 1_555 1_555
O3 Zr1 1_555 1_555
O4 Zr1 1_555 1_555
O5 Zr1 1_555 1_555
C1 H1 1_555 1_555
C2 C1 1_555 1_555
H2 C2 1_555 1_555
C3 C2 1_555 1_555
C4 C3 1_555 1_555
H3 C4 1_555 1_555
C5 C4 1_555 1_555
H4 C5 1_555 1_555
C6 C1 1_555 1_555
C7 O1 1_555 1_555
O1A C7A 1_555 1_555
O2A C7A 1_555 1_555
C1A H1A 1_555 1_555
C2A C1A 1_555 1_555
H2A C2A 1_555 1_555
C3A C2A 1_555 1_555
C4A C3A 1_555 1_555
H3A C4A 1_555 1_555
C5A C4A 1_555 1_555
H4A C5A 1_555 1_555
C6A Si1 1_555 1_555
C7A C3A 1_555 1_555
O1N C7N 1_555 1_555
O2N C7N 1_555 1_555
C1N H1N 1_555 1_555
C2N C1N 1_555 1_555
H2N C2N 1_555 1_555
C3N C2N 1_555 1_555
C4N C3N 1_555 1_555
H3N C4N 1_555 1_555
C5N C4N 1_555 1_555
H4N C5N 1_555 1_555
C6N Si1 1_555 1_555
C7N C3N 1_555 1_555
O1O C7O 1_555 1_555
O2O C7O 1_555 1_555
C1O H1O 1_555 1_555
C2O C1O 1_555 1_555
H2O C2O 1_555 1_555
C3O C2O 1_555 1_555
C4O C3O 1_555 1_555
H3O C4O 1_555 1_555
C5O C4O 1_555 1_555
H4O C5O 1_555 1_555
C6O Si1 1_555 1_555
C7O C3O 1_555 1_555
Zr1A O1A 1_555 1_555
O3A Zr1A 1_555 1_555
O4A Zr1A 1_555 1_555
O5A Zr1A 1_555 1_555
O3B Zr1A 1_555 1_555
O3C Zr1 1_555 1_555
Zr1A_2 Zr2 1_555 1_555
Zr1B Zr1A 1_555 1_555
Zr1B_2 Zr1 1_555 1_555
Zr1C Zr1A 1_555 1_555
Zr1C_2 Zr1 1_555 1_555
Zr1F O1O 1_555 1_555
Zr1G O1N 1_555 1_555
Zr2_2 O2A 1_555 1_555
Zr2H Zr1A 1_555 1_555
Zr2H_2 Zr1 1_555 1_555
Zr2L O2N 1_555 1_555
Zr2L_2 O2O 1_555 1_555
O1H Zr1A 1_555 1_555
O1I Zr1 1_555 1_555
O2A_2 Zr2 1_555 1_555
O2B Zr2 1_555 1_555
O2C Zr2 1_555 1_555
O3H Zr1A 1_555 1_555
O3H_2 Zr2 1_555 1_555
O3I Zr1 1_555 1_555
O3J Zr1 1_555 1_555
O3K Zr1A 1_555 1_555
O3K_2 Zr2 1_555 1_555
Zr2 Zr1B_2 1_555 1_555
Zr2 Zr1C_2 1_555 1_555
Zr2 O3I 1_555 1_555
Zr2 O3J 1_555 1_555
O3 Zr1B_2 1_555 1_555
O3 Zr2H_2 1_555 1_555
C3 C7 1_555 1_555
C5 C6 1_555 1_555
C1A C6A 1_555 1_555
C5A C6A 1_555 1_555
C1N C6N 1_555 1_555
C5N C6N 1_555 1_555
C1O C6O 1_555 1_555
C5O C6O 1_555 1_555
Zr1A Zr2_2 1_555 1_555
O3A Zr1C 1_555 1_555
O3A Zr2H 1_555 1_555
O3B Zr1B 1_555 1_555
O3B Zr2H 1_555 1_555
O3C Zr1C_2 1_555 1_555
O3C Zr2H_2 1_555 1_555
Zr1A_2 Zr1B_2 1_555 1_555
Zr1A_2 Zr1C_2 1_555 1_555
Zr1A_2 Zr2H_2 1_555 1_555
Zr1A_2 O3H_2 1_555 1_555
Zr1A_2 O3K_2 1_555 1_555
Zr1B Zr2_2 1_555 1_555
Zr1B Zr2H 1_555 1_555
Zr1B O3K 1_555 1_555
Zr1B_2 Zr2H_2 1_555 1_555
Zr1B_2 O3I 1_555 1_555
Zr1B_2 O3K_2 1_555 1_555
Zr1C Zr2_2 1_555 1_555
Zr1C Zr2H 1_555 1_555
Zr1C O3H 1_555 1_555
Zr1C_2 Zr2H_2 1_555 1_555
Zr1C_2 O3H_2 1_555 1_555
Zr1C_2 O3J 1_555 1_555
Zr1F Zr2L_2 1_555 1_555
Zr1G Zr2L 1_555 1_555
Zr2_2 O3H 1_555 1_555
Zr2_2 O3K 1_555 1_555

#END
