
#######################################################################
#
#                 Cambridge Crystallographic Data Centre
#                                CCDC 
#
#######################################################################
#
# If this CIF has been generated from an entry in the Cambridge 
# Structural Database, then it will include bibliographic, chemical, 
# crystal, experimental, refinement or atomic coordinate data resulting 
# from the CCDC's data processing and validation procedures.
#
#######################################################################

data_FECWOB01
_chemical_formula_moiety         '(C16 H8 N8 O4 Zn2)n,2.3n(H2 O1)'
_chemical_name_systematic        
'catena-(bis(\m~4~-4-(Tetrazol-5-yl)benzoato)-di-zinc hydrate)'
_symmetry_cell_setting           triclinic
_symmetry_space_group_name_H-M   'P -1'
_symmetry_Int_Tables_number      2
_space_group_name_Hall           '-P 1'
loop_
_symmetry_equiv_pos_site_id
_symmetry_equiv_pos_as_xyz
1 x,y,z
2 -x,-y,-z
_cell_length_a                   6.791(3)
_cell_length_b                   9.604(4)
_cell_length_c                   17.722(10)
_cell_angle_alpha                101.826(10)
_cell_angle_beta                 96.500(10)
_cell_angle_gamma                106.425(7)
_cell_volume                     1066.96
_exptl_crystal_colour            colorless
_exptl_crystal_description       plate
_cell_formula_units_Z            2
loop_
_atom_site_label
_atom_site_type_symbol
_atom_site_fract_x
_atom_site_fract_y
_atom_site_fract_z
Zn1 Zn -0.07651(19) -0.53716(14) -0.24926(7)
Zn2 Zn -0.15857(19) -0.19034(14) -0.25068(7)
C1 C 0.061(2) -0.1907(13) 0.1295(6)
C2 C -0.0609(17) -0.3078(13) -0.1193(7)
C3 C -0.0220(18) -0.2679(13) -0.0332(6)
C4 C 0.124(2) -0.1286(14) 0.0086(7)
H1 H 0.1913 -0.0617 -0.0185
C5 C -0.122(2) -0.3659(14) 0.0090(7)
H2 H -0.2182 -0.4580 -0.0179
C6 C -0.0807(19) -0.3276(13) 0.0905(7)
H3 H -0.1477 -0.3935 0.1183
C7 C 0.166(2) -0.0914(13) 0.0899(7)
H4 H 0.2645 -0.0008 0.1174
O1 O -0.0090(12) -0.2026(9) -0.1527(4)
O2 O -0.1478(12) -0.4446(9) -0.1535(4)
N1 N 0.116(2) -0.2450(11) 0.2615(6)
C8 C 0.108(2) -0.1502(14) 0.2170(7)
C9 C -0.1908(17) -0.4326(13) -0.3828(6)
C10 C -0.3634(16) -0.6178(12) -0.7180(6)
C11 C -0.3233(18) -0.6311(15) -0.5083(7)
H5 H -0.3536 -0.7016 -0.4788
C12 C -0.1871(17) -0.3756(14) -0.5133(6)
H6 H -0.1298 -0.2745 -0.4876
C13 C -0.3683(18) -0.6779(14) -0.5904(7)
H7 H -0.4300 -0.7787 -0.6159
C14 C -0.2350(16) -0.4821(13) -0.4712(6)
N2 N -0.2292(15) -0.5717(11) -0.7634(5)
O3 O -0.2285(12) -0.5349(9) -0.3483(5)
O4 O -0.1219(13) -0.2939(9) -0.3512(5)
N3 N -0.5175(15) -0.7224(12) -0.8394(5)
N4 N -0.3296(15) -0.6399(12) -0.8402(5)
C15 C -0.2247(19) -0.4202(13) -0.5936(7)
H8 H -0.1870 -0.3491 -0.6223
C16 C -0.3186(17) -0.5704(12) -0.6326(6)
N5 N 0.165(2) -0.1644(16) 0.3346(9)
N6 N 0.185(3) -0.0283(18) 0.3334(10)
N7 N -0.5462(15) -0.7115(12) -0.7632(5)
N8 N 0.153(2) -0.0127(12) 0.2617(6)
Zn1A Zn 0.07651(19) -0.46284(14) 0.24926(7)
Zn1A_2 Zn 0.07651(19) -0.46284(14) -0.75074(7)
Zn2A Zn 0.15857(19) 0.19034(14) 0.25068(7)
Zn2A_2 Zn -0.84143(19) -0.80966(14) -0.74932(7)
N1A N -0.116(2) -0.7550(11) -0.2615(6)
N2A N 0.2292(15) -0.4283(11) -0.2366(5)
N7A N -0.4538(15) -0.2885(12) -0.2368(5)
N8A N -0.153(2) 0.0127(12) -0.2617(6)
O5 O 0.215(6) -0.064(4) -0.255(2)
O6 O -0.302(6) -0.042(4) -0.559(2)
O7? O -0.057(5) -0.014(3) -0.5221(17)
O8? O -0.181(5) -0.052(3) -0.6203(19)
loop_
_geom_bond_atom_site_label_1
_geom_bond_atom_site_label_2
_geom_bond_site_symmetry_1
_geom_bond_site_symmetry_2
Zn1 O2 1_555 1_555
Zn2 O1 1_555 1_555
C1 C6 1_555 1_555
C2 C3 1_555 1_555
C3 C4 1_555 1_555
C4 H1 1_555 1_555
C5 C3 1_555 1_555
H2 C5 1_555 1_555
C6 C5 1_555 1_555
H3 C6 1_555 1_555
C7 C1 1_555 1_555
H4 C7 1_555 1_555
O1 C2 1_555 1_555
O2 C2 1_555 1_555
N1 C8 1_555 1_555
C8 C1 1_555 1_555
C9 C14 1_555 1_555
C10 N2 1_555 1_555
C11 H5 1_555 1_555
C12 H6 1_555 1_555
C13 C11 1_555 1_555
H7 C13 1_555 1_555
C14 C11 1_555 1_555
N2 N4 1_555 1_555
O3 Zn1 1_555 1_555
O4 Zn2 1_555 1_555
N3 N4 1_555 1_555
C15 C12 1_555 1_555
H8 C15 1_555 1_555
C16 C10 1_555 1_555
N5 N1 1_555 1_555
N6 N5 1_555 1_555
N7 C10 1_555 1_555
N8 C8 1_555 1_555
Zn1A N1 1_555 1_555
Zn1A_2 N2 1_555 1_555
Zn2A N8 1_555 1_555
Zn2A_2 N7 1_555 1_555
N1A Zn1 1_555 1_555
N2A Zn1 1_555 1_555
N7A Zn2 1_555 1_555
N8A Zn2 1_555 1_555
C4 C7 1_555 1_555
C9 O3 1_555 1_555
C9 O4 1_555 1_555
C12 C14 1_555 1_555
C13 C16 1_555 1_555
N3 N7 1_555 1_555
C15 C16 1_555 1_555
N6 N8 1_555 1_555

#END
