
#######################################################################
#
#                 Cambridge Crystallographic Data Centre
#                                CCDC 
#
#######################################################################
#
# If this CIF has been generated from an entry in the Cambridge 
# Structural Database, then it will include bibliographic, chemical, 
# crystal, experimental, refinement or atomic coordinate data resulting 
# from the CCDC's data processing and validation procedures.
#
#######################################################################

data_IYUHIU
_chemical_name_common            CPM-11
_chemical_formula_moiety         
'(C63 H24 In6 O45 6-)n,6n(C1 H6 N1 1+),1.5n(C2 H5 N1 O1),1.5n(H2 O1)'
_chemical_name_systematic        
'catena-(hexakis(methylammonium) tris(\m~4~-benzene-1,3,5-tricarboxylato)-tetrakis(\m~3~-benzene-1,3,5-tricarboxylato)-tris(\m~2~-hydroxo)-hexa-indium N-methylformamide solvate sesquihydrate)'
_symmetry_cell_setting           orthorhombic
_symmetry_space_group_name_H-M   'P n m a'
_symmetry_Int_Tables_number      62
_space_group_name_Hall           '-P 2ac 2n'
loop_
_symmetry_equiv_pos_site_id
_symmetry_equiv_pos_as_xyz
1 x,y,z
2 1/2-x,-y,1/2+z
3 -x,1/2+y,-z
4 1/2+x,1/2-y,1/2-z
5 -x,-y,-z
6 1/2+x,y,1/2-z
7 x,1/2-y,z
8 1/2-x,1/2+y,1/2+z
_cell_length_a                   29.7560(9)
_cell_length_b                   14.5284(4)
_cell_length_c                   29.7388(9)
_cell_angle_alpha                90
_cell_angle_beta                 90
_cell_angle_gamma                90
_cell_volume                     12856.3
_exptl_crystal_colour            colorless
_exptl_crystal_description       block
_cell_formula_units_Z            4
loop_
_atom_site_label
_atom_site_type_symbol
_atom_site_fract_x
_atom_site_fract_y
_atom_site_fract_z
In1 In 0.867443(18) 0.11917(4) 0.687982(18)
In2 In 1.093790(18) 0.11802(4) 0.922200(19)
In3 In 0.675713(19) -0.11798(4) 0.847115(18)
O1 O 0.7128(3) 0.0059(4) 0.8332(3)
O2 O 1.1376(3) -0.0770(5) 0.9360(3)
O3 O 1.0941(3) -0.0688(5) 0.6545(3)
O4 O 1.0740(2) -0.0068(4) 0.9529(2)
O5 O 1.1375(2) -0.0821(5) 0.7129(3)
O6 O 1.0978(2) 0.0487(5) 0.8559(2)
O7 O 0.8389(2) -0.0095(4) 0.7085(2)
O8 O 0.9352(2) 0.0527(4) 0.67888(19)
O9 O 1.0958(3) 0.2500 0.8933(3)
O10 O 0.8397(2) 0.1046(5) 0.4220(2)
O11 O 0.8961(3) 0.2500 0.6768(3)
O12 O 1.0300(2) 0.0951(5) 0.8722(2)
O13 O 0.7717(2) 0.1403(5) 0.4015(2)
O14 O 0.6464(3) -0.2500 0.8505(3)
O15 O 0.7267(2) -0.1735(4) 0.8020(2)
O16 O 0.91648(19) 0.0998(4) 0.7469(2)
O17 O 0.8198(2) 0.1725(4) 0.7365(2)
O18 O 0.9552(2) -0.1721(4) 1.0311(2)
O19 O 0.64668(19) 0.1368(5) 0.5204(2)
O20 O 0.6605(4) 0.0805(7) 0.8676(4)
O21 O 0.6681(2) 0.1135(4) 0.5905(2)
O22 O 0.8197(2) 0.1301(4) 0.6364(2)
O23 O 0.8777(2) 0.1156(5) 0.5903(2)
O24 O 0.8574(3) -0.0747(5) 0.6439(2)
C1 C 1.0569(3) 0.0611(6) 0.8448(3)
C2 C 0.7261(3) 0.1257(6) 0.5354(3)
C3 C 0.8378(4) -0.2500 0.6812(5)
C4 C 0.7516(3) 0.1663(5) 0.8004(3)
H1 H 0.7632 0.1106 0.7903
C5 C 1.0155(4) -0.2500 0.9977(4)
C6 C 1.0989(3) -0.0782(6) 0.9500(3)
C7 C 0.7915(3) -0.1671(5) 0.7352(3)
H2 H 0.7809 -0.1118 0.7468
C8 C 0.7579(3) 0.1237(6) 0.5679(3)
H3 H 0.7484 0.1233 0.5977
C9 C 0.7402(3) 0.1282(6) 0.4916(3)
H4 H 0.7188 0.1335 0.4690
C10 C 0.8042(3) 0.1222(5) 0.5595(3)
C11 C 0.7758(4) -0.2500 0.7530(4)
C12 C 0.7996(3) 0.1232(6) 0.4317(3)
C13 C 0.8231(3) -0.1660(5) 0.7002(3)
C14 C 1.0003(3) 0.0541(6) 0.7825(3)
H5 H 0.9787 0.0782 0.8018
C15 C 0.8058(4) 0.2500 0.7498(4)
C16 C 0.6957(3) 0.0793(7) 0.8461(4)
C17 C 0.8408(3) -0.0774(5) 0.6824(3)
C18 C 0.7846(3) 0.1233(5) 0.4799(3)
C19 C 0.8165(3) 0.1217(5) 0.5149(3)
H6 H 0.8469 0.1201 0.5076
C20 C 0.7703(4) 0.2500 0.7848(4)
C21 C 0.7401(4) -0.2500 0.7882(4)
C22 C 0.8377(3) 0.1222(5) 0.5974(3)
C23 C 0.6780(3) 0.1251(5) 0.5492(3)
C24 C 0.9720(4) -0.2500 1.0216(4)
C25 C 0.9897(3) 0.0366(6) 0.7376(3)
C26 C 1.0773(3) -0.1668(6) 0.9641(3)
C27 C 0.9447(3) 0.0632(6) 0.7199(3)
C28 C 1.0436(3) 0.0353(6) 0.7985(3)
C29 C 0.6993(4) 0.2500 0.8462(5)
H7 H 0.6762 0.2500 0.8673
C30 C 1.1006(3) -0.0607(6) 0.6951(3)
C31 C 1.0356(3) -0.1677(6) 0.9861(3)
H8 H 1.0214 -0.1125 0.9930
C32 C 1.0642(3) -0.0215(6) 0.7248(3)
C33 C 1.0976(5) -0.2500 0.9537(5)
H9 H 1.1254 -0.2500 0.9394
C34 C 0.7165(3) 0.1665(6) 0.8305(3)
C35 C 1.0749(3) -0.0020(6) 0.7693(3)
H10 H 1.1038 -0.0142 0.7797
C36 C 1.0215(3) -0.0006(6) 0.7090(3)
H11 H 1.0142 -0.0117 0.6791
In1F In 0.867443(18) -0.61917(4) 0.687982(18)
In1F_2 In 0.867443(18) 0.38083(4) 0.687982(18)
In1E In 1.367443(18) 0.11917(4) 0.812018(18)
In1E_2 In 0.367443(18) 0.11917(4) 0.812018(18)
In2E In 0.593790(18) 0.11802(4) 0.577800(19)
In2F In 1.093790(18) 0.38198(4) 0.922200(19)
In2D In 0.906210(18) -0.11802(4) 1.077800(19)
In2B In 0.906210(18) -0.38198(4) 1.077800(19)
In2F_2 In 1.093790(18) -0.61802(4) 0.922200(19)
In3F In 0.675713(19) 0.61798(4) 0.847115(18)
In3E In 1.175713(19) -0.11798(4) 0.652885(18)
In3A In 0.824287(19) 0.11798(4) 0.347115(18)
In3F_2 In 0.675713(19) -0.38202(4) 0.847115(18)
In3D In 1.324287(19) 0.11798(4) 1.152885(18)
O1F O 0.7128(3) 0.4941(4) 0.8332(3)
O2F O 1.1376(3) -0.4230(5) 0.9360(3)
O3E O 0.5941(3) -0.0688(5) 0.8455(3)
O4F O 1.0740(2) -0.4932(4) 0.9529(2)
O4E O 0.5740(2) -0.0068(4) 0.5471(2)
O5E O 0.6375(2) -0.0821(5) 0.7871(3)
O5C O 0.6375(2) 0.5821(5) 0.7871(3)
O6E O 0.5978(2) 0.0487(5) 0.6441(2)
O7F O 0.8389(2) -0.4905(4) 0.7085(2)
O8E O 0.4352(2) 0.0527(4) 0.82112(19)
O8F O 0.9352(2) -0.5527(4) 0.67888(19)
O9C O 0.5958(3) 0.2500 0.6067(3)
O10E O 1.3397(2) 0.1046(5) 1.0780(2)
O10A O 0.6603(2) -0.1046(5) 0.9220(2)
O10G O 0.6603(2) 0.6046(5) 0.9220(2)
O11_2 O 0.8961(3) -0.7500 0.6768(3)
O12E O 0.5300(2) 0.0951(5) 0.6278(2)
O13E O 1.2717(2) 0.1403(5) 1.0985(2)
O13A O 0.7283(2) -0.1403(5) 0.9015(2)
O13G O 0.7283(2) 0.6403(5) 0.9015(2)
O14_2 O 0.6464(3) 0.7500 0.8505(3)
O15F O 0.7267(2) -0.3265(4) 0.8020(2)
O15F_2 O 0.7267(2) 0.6735(4) 0.8020(2)
O16E O 0.41648(19) 0.0998(4) 0.7531(2)
O16F O 0.91648(19) -0.5998(4) 0.7469(2)
O17F O 0.8198(2) 0.3275(4) 0.7365(2)
O17F_2 O 0.8198(2) -0.6725(4) 0.7365(2)
O18F O 0.9552(2) -0.3279(4) 1.0311(2)
O18D O 1.0448(2) 0.1721(4) 0.9689(2)
O18A O 0.5448(2) 0.1721(4) 0.5311(2)
O19E O 1.14668(19) 0.1368(5) 0.9796(2)
O20F O 0.6605(4) 0.4195(7) 0.8676(4)
O21E O 1.1681(2) 0.1135(4) 0.9095(2)
O22E O 1.3197(2) 0.1301(4) 0.8636(2)
O22F O 0.8197(2) -0.6301(4) 0.6364(2)
O23E O 1.3777(2) 0.1156(5) 0.9097(2)
O24F O 0.8574(3) -0.4253(5) 0.6439(2)
C1E C 0.5569(3) 0.0611(6) 0.6552(3)
C2E C 1.2261(3) 0.1257(6) 0.9646(3)
C4F C 0.7516(3) 0.3337(5) 0.8004(3)
H1F H 0.7632 0.3894 0.7903
C6F C 1.0989(3) -0.4218(6) 0.9500(3)
C7F C 0.7915(3) -0.3329(5) 0.7352(3)
H2F H 0.7809 -0.3882 0.7468
C8E C 1.2579(3) 0.1237(6) 0.9321(3)
H3E H 1.2484 0.1233 0.9023
C9E C 1.2402(3) 0.1282(6) 1.0084(3)
H4E H 1.2188 0.1335 1.0310
C10E C 1.3042(3) 0.1222(5) 0.9405(3)
C12E C 1.2996(3) 0.1232(6) 1.0683(3)
C13F C 0.8231(3) -0.3340(5) 0.7002(3)
C14E C 0.5003(3) 0.0541(6) 0.7175(3)
H5E H 0.4787 0.0782 0.6982
C16F C 0.6957(3) 0.4207(7) 0.8461(4)
C17F C 0.8408(3) -0.4226(5) 0.6824(3)
C18E C 1.2846(3) 0.1233(5) 1.0201(3)
C19E C 1.3165(3) 0.1217(5) 0.9851(3)
H6E H 1.3469 0.1201 0.9924
C22E C 1.3377(3) 0.1222(5) 0.9026(3)
C23E C 1.1780(3) 0.1251(5) 0.9508(3)
C25E C 0.4897(3) 0.0366(6) 0.7624(3)
C26F C 1.0773(3) -0.3332(6) 0.9641(3)
C27E C 0.4447(3) 0.0632(6) 0.7801(3)
C28E C 0.5436(3) 0.0353(6) 0.7015(3)
C30E C 0.6006(3) -0.0607(6) 0.8049(3)
C31F C 1.0356(3) -0.3323(6) 0.9861(3)
H8F H 1.0214 -0.3875 0.9930
C32E C 0.5642(3) -0.0215(6) 0.7752(3)
C34F C 0.7165(3) 0.3335(6) 0.8305(3)
C35E C 0.5749(3) -0.0020(6) 0.7307(3)
H10E H 0.6038 -0.0142 0.7203
C36E C 0.5215(3) -0.0006(6) 0.7910(3)
H11E H 0.5142 -0.0117 0.8209
O25 O 0.8930(6) -0.2500 1.1992(6)
N1 N 0.8248(13) -0.2500 1.1737(12)
C37 C 0.7802(10) -0.2500 1.1763(10)
C38 C 0.8638(10) -0.2500 1.2028(10)
O26 O 1.0111(5) -0.2500 1.3140(5)
N2 N 0.9449(5) -0.2500 1.2733(5)
C39 C 0.9903(6) -0.2500 1.2778(6)
C40 C 0.9183(9) -0.2500 1.3148(9)
N3 N 0.8128(6) 0.0635(14) 1.1439(6)
C41 C 0.7960(12) 0.013(3) 1.1813(12)
N4 N 0.9359(5) -0.0440(11) 0.5893(5)
C42 C 0.9600(17) -0.121(4) 0.6020(17)
N5 N 0.5458(9) -0.2500 1.0912(9)
C43 C 0.5584(19) -0.2500 1.0441(10)
N6 N 0.8111(7) -0.0467(16) 0.8522(8)
C44 C 0.8460(12) -0.011(3) 0.8205(12)
N7 N 0.9100(10) 0.2500 1.2122(18)
C45 C 0.8613(10) 0.2500 1.212(2)
N8 N 0.5071(7) 0.091(2) 0.9184(10)
C46 C 0.5546(8) 0.072(3) 0.9124(15)
N9 N 0.7921(12) 0.146(6) 0.995(2)
C47 C 0.7449(14) 0.127(6) 1.003(3)
N10 N 1.0463(8) 0.0327(17) 1.0868(10)
C48 C 1.0263(19) 0.109(3) 1.111(2)
O27 O 1.0248(10) -0.2500 1.1374(10)
O28 O 0.8105(6) -0.2500 0.8796(6)
O29 O 0.8800(7) -0.2500 0.9414(7)
C49? C 1.0836(10) 0.051(2) 1.0568(11)
loop_
_geom_bond_atom_site_label_1
_geom_bond_atom_site_label_2
_geom_bond_site_symmetry_1
_geom_bond_site_symmetry_2
In1 O7 1_555 1_555
In2 O4 1_555 1_555
In3 O1 1_555 1_555
O1 C16 1_555 1_555
O2 C6 1_555 1_555
O3 C30 1_555 1_555
O4 C6 1_555 1_555
O5 C30 1_555 1_555
O6 In2 1_555 1_555
O7 C17 1_555 1_555
O8 In1 1_555 1_555
O9 In2 1_555 1_555
O10 C12 1_555 1_555
O11 In1 1_555 1_555
O12 In2 1_555 1_555
O13 C12 1_555 1_555
O14 In3 1_555 1_555
O15 In3 1_555 1_555
O16 In1 1_555 1_555
O17 In1 1_555 1_555
O18 C24 1_555 1_555
O19 C23 1_555 1_555
O20 C16 1_555 1_555
O21 C23 1_555 1_555
O22 In1 1_555 1_555
O23 C22 1_555 1_555
O24 C17 1_555 1_555
C1 O6 1_555 1_555
C2 C8 1_555 1_555
C3 C13 1_555 1_555
C4 H1 1_555 1_555
C5 C24 1_555 1_555
C6 C26 1_555 1_555
C7 H2 1_555 1_555
C8 H3 1_555 1_555
C9 C2 1_555 1_555
H4 C9 1_555 1_555
C10 C8 1_555 1_555
C11 C7 1_555 1_555
C12 C18 1_555 1_555
C13 C7 1_555 1_555
C14 H5 1_555 1_555
C15 O17 1_555 1_555
C16 C34 1_555 1_555
C17 C13 1_555 1_555
C18 C9 1_555 1_555
C19 C10 1_555 1_555
H6 C19 1_555 1_555
C20 C4 1_555 1_555
C21 O15 1_555 1_555
C22 O22 1_555 1_555
C23 C2 1_555 1_555
C24 O18F 1_555 1_555
C25 C14 1_555 1_555
C26 C31 1_555 1_555
C27 O8 1_555 1_555
C28 C1 1_555 1_555
C29 H7 1_555 1_555
C30 C32 1_555 1_555
C31 C5 1_555 1_555
H8 C31 1_555 1_555
C32 C35 1_555 1_555
C33 C26 1_555 1_555
H9 C33 1_555 1_555
C34 C4 1_555 1_555
C35 C28 1_555 1_555
H10 C35 1_555 1_555
C36 C25 1_555 1_555
H11 C36 1_555 1_555
O25 C38 1_555 1_555
N1 C37 1_555 1_555
C38 N1 1_555 1_555
O26 C39 1_555 1_555
N2 C39 1_555 1_555
C40 N2 1_555 1_555
N3 C41 1_555 1_555
N4 C42 1_555 1_555
N5 C43 1_555 1_555
N6 C44 1_555 1_555
N7 C45 1_555 1_555
N8 C46 1_555 1_555
N9 C47 1_555 1_555
N10 C48 1_555 1_555
In1F O7F 1_555 1_555
In1F_2 O11 1_555 1_555
In1E O22E 1_555 1_555
In1E_2 O8E 1_555 1_555
In2E O19 1_555 1_555
In2F O9 1_555 1_555
In2D O18 1_555 1_555
In2B O18F 1_555 1_555
In2F_2 O4F 1_555 1_555
In3F O1F 1_555 1_555
In3E O5 1_555 1_555
In3A O10 1_555 1_555
In3F_2 O14 1_555 1_555
In3D O10E 1_555 1_555
O1F C16F 1_555 1_555
O2F C6F 1_555 1_555
O3E C30E 1_555 1_555
O4F C6F 1_555 1_555
O4E In2E 1_555 1_555
O5E In3 1_555 1_555
O5C In3F 1_555 1_555
O6E In2E 1_555 1_555
O7F C17F 1_555 1_555
O8E C27E 1_555 1_555
O8F In1F 1_555 1_555
O9C In2E 1_555 1_555
O10E C12E 1_555 1_555
O10A In3 1_555 1_555
O10G In3F 1_555 1_555
O11_2 In1F 1_555 1_555
O12E In2E 1_555 1_555
O13E In3D 1_555 1_555
O13A In3 1_555 1_555
O13G In3F 1_555 1_555
O14_2 In3F 1_555 1_555
O15F C21 1_555 1_555
O15F_2 In3F 1_555 1_555
O16E In1E_2 1_555 1_555
O16F In1F 1_555 1_555
O17F C15 1_555 1_555
O17F_2 In1F 1_555 1_555
O18D In2 1_555 1_555
O18A In2E 1_555 1_555
O19E In2 1_555 1_555
O20F C16F 1_555 1_555
O21E In2 1_555 1_555
O22E C22E 1_555 1_555
O22F In1F 1_555 1_555
O23E C22E 1_555 1_555
O24F C17F 1_555 1_555
C1E O6E 1_555 1_555
C2E C8E 1_555 1_555
C4F C20 1_555 1_555
H1F C4F 1_555 1_555
C6F C26F 1_555 1_555
C7F C11 1_555 1_555
H2F C7F 1_555 1_555
C8E H3E 1_555 1_555
C9E C2E 1_555 1_555
H4E C9E 1_555 1_555
C10E C8E 1_555 1_555
C12E O13E 1_555 1_555
C13F C3 1_555 1_555
C14E H5E 1_555 1_555
C16F C34F 1_555 1_555
C17F C13F 1_555 1_555
C18E C9E 1_555 1_555
C19E C10E 1_555 1_555
H6E C19E 1_555 1_555
C22E C10E 1_555 1_555
C23E O19E 1_555 1_555
C25E C14E 1_555 1_555
C26F C33 1_555 1_555
C27E O16E 1_555 1_555
C28E C1E 1_555 1_555
C30E O5E 1_555 1_555
C31F C5 1_555 1_555
H8F C31F 1_555 1_555
C32E C30E 1_555 1_555
C34F C29 1_555 1_555
C35E C28E 1_555 1_555
H10E C35E 1_555 1_555
C36E C25E 1_555 1_555
H11E C36E 1_555 1_555
O12 C1 1_555 1_555
O13 In3A 1_555 1_555
O16 C27 1_555 1_555
O21 In2E 1_555 1_555
C10 C22 1_555 1_555
C11 C21 1_555 1_555
C14 C28 1_555 1_555
C15 C20 1_555 1_555
C18 C19 1_555 1_555
C25 C27 1_555 1_555
C29 C34 1_555 1_555
C32 C36 1_555 1_555
In1F_2 O17F 1_555 1_555
In3F_2 O15F 1_555 1_555
O12E C1E 1_555 1_555
O21E C23E 1_555 1_555
C2E C23E 1_555 1_555
C4F C34F 1_555 1_555
C7F C13F 1_555 1_555
C12E C18E 1_555 1_555
C14E C28E 1_555 1_555
C18E C19E 1_555 1_555
C25E C27E 1_555 1_555
C26F C31F 1_555 1_555
C32E C35E 1_555 1_555
C32E C36E 1_555 1_555

#END
