
#######################################################################
#
#                 Cambridge Crystallographic Data Centre
#                                CCDC 
#
#######################################################################
#
# If this CIF has been generated from an entry in the Cambridge 
# Structural Database, then it will include bibliographic, chemical, 
# crystal, experimental, refinement or atomic coordinate data resulting 
# from the CCDC's data processing and validation procedures.
#
#######################################################################

data_IYUHOA
_chemical_name_common            CPM-12
_chemical_formula_moiety         
'(C99 H48 In6 O45 6-)n,6n(C4 H12 N1 1+),7.5n(H2 O1)'
_chemical_name_systematic        
'catena-(hexakis(diethylammonium) tris(\m~4~-benzene-1,3,5-tricarboxylato)-bis(\m~3~-1,3,5-tris(4-carboxyphenyl)benzene)-bis(\m~3~-benzene-1,3,5-tricarboxylato)-tris(\m~2~-hydroxo)-hexa-indium hydrate)'
_symmetry_cell_setting           trigonal
_symmetry_space_group_name_H-M   'P -3'
_symmetry_Int_Tables_number      147
_space_group_name_Hall           '-P 3'
loop_
_symmetry_equiv_pos_site_id
_symmetry_equiv_pos_as_xyz
1 x,y,z
2 -y,x-y,z
3 -x+y,-x,z
4 -x,-y,-z
5 y,-x+y,-z
6 x-y,x,-z
_cell_length_a                   24.7273(2)
_cell_length_b                   24.7273(2)
_cell_length_c                   14.3812(3)
_cell_angle_alpha                90
_cell_angle_beta                 90
_cell_angle_gamma                120
_cell_volume                     7615.16
_exptl_crystal_colour            colorless
_exptl_crystal_description       block
_cell_formula_units_Z            2
loop_
_atom_site_label
_atom_site_type_symbol
_atom_site_fract_x
_atom_site_fract_y
_atom_site_fract_z
In1 In -0.32978(3) 0.56106(3) 0.38717(6)
In2 In -0.67026(3) 0.44072(3) -0.11459(7)
O1 O -0.6301(3) 0.4552(4) 0.0190(6)
O2 O -0.2945(3) 0.5709(3) 0.2515(6)
O3 O -0.4107(3) 0.5546(4) 0.3120(7)
O4 O -0.5975(3) 0.4622(3) 0.5066(6)
O5 O -0.4201(3) 0.5443(3) 0.1560(6)
O6 O -0.6197(3) 0.5480(3) -0.1289(7)
O7 O -0.2617(4) 0.5031(3) 0.3845(9)
O8 O -0.6857(3) 0.4485(3) 0.4512(6)
O9 O -0.6995(3) 0.3362(3) -0.1199(6)
O10 O -0.2933(3) 0.6625(3) 0.4075(5)
O11 O -0.7200(3) 0.4992(3) -0.0972(5)
O12 O -0.7686(4) 0.3623(4) -0.0784(7)
O13 O -0.3637(3) 0.4627(3) 0.3842(7)
O14 O -0.2211(3) 0.6352(3) 0.4038(6)
O15 O -0.7062(4) 0.4534(4) 0.1014(6)
C1 C -0.6011(4) 0.4802(4) 0.3437(9)
C2 C -0.0847(4) 0.8231(3) 0.3506(6)
H1 H -0.0467 0.8339 0.3223
C3 C -0.5482(4) 0.5023(4) 0.1684(9)
H2 H -0.5308 0.5086 0.1093
C4 C -0.1298(4) 0.7609(4) 0.3586(7)
H3 H -0.1217 0.7301 0.3371
C5 C -0.5363(4) 0.5053(4) 0.3329(8)
H4 H -0.5110 0.5140 0.3851
C6 C -0.4405(4) 0.5414(4) 0.2384(11)
C7 C -0.1981(4) 0.7899(4) 0.4329(6)
H5 H -0.2364 0.7791 0.4601
C8 C -0.8624(5) 0.2351(4) -0.0651(8)
H6 H -0.8691 0.2643 -0.0345
C9 C -0.5104(4) 0.5169(4) 0.2461(10)
C10 C -0.1530(4) 0.8517(4) 0.4272(6)
H7 H -0.1607 0.8819 0.4520
C11 C -0.6125(5) 0.4782(4) 0.1786(9)
C12 C -0.6551(5) 0.4611(5) 0.0926(9)
C13 C -0.6380(4) 0.4680(4) 0.2669(8)
H8 H -0.6806 0.4529 0.2740
C14 C -0.2373(5) 0.6759(4) 0.4045(8)
C15 C -0.7570(6) 0.3208(5) -0.1014(9)
C16 C -0.6304(5) 0.4633(4) 0.4388(9)
C17 C -0.8059(5) 0.2533(4) -0.1030(7)
C18 C -0.0467(3) 0.9365(3) 0.3781(6)
C19 C -0.0952(3) 0.8701(4) 0.3844(6)
C20 C -0.1879(4) 0.7439(4) 0.3993(7)
C21 C 0.0174(4) 0.9544(3) 0.3764(6)
H9 H 0.0288 0.9238 0.3741
C22 C -0.7961(4) 0.2106(4) -0.1534(7)
H10 H -0.7581 0.2231 -0.1826
C23 C -0.6693(5) 0.5489(5) -0.1134(8)
C24 C -0.9108(4) 0.1733(4) -0.0708(6)
H11 H -0.9492 0.1615 -0.0431
C25 C -0.3152(5) 0.4573(5) 0.3829(10)
C26 C -0.8442(4) 0.1494(4) -0.1588(7)
H12 H -0.8375 0.1207 -0.1912
C27 C -0.7237(4) 0.6113(4) -0.1170(7)
C28 C -0.6677(4) 0.6102(4) -0.1162(6)
C29 C -0.3243(4) 0.3935(4) 0.3821(6)
C30 C -0.3839(4) 0.3426(4) 0.3814(7)
C31 C -0.9019(4) 0.1291(4) -0.1179(6)
C32 C -0.9518(4) 0.0636(4) -0.1216(6)
C33 C -1.0154(4) 0.0468(4) -0.1232(7)
H13 H -1.0256 0.0782 -0.1253
In1C In -0.67022(3) 0.43894(3) 0.61283(6)
In1A In 0.43894(3) 1.10916(4) 0.38717(6)
In1A_2 In -0.56106(3) 0.10916(4) 0.38717(6)
In1B In -0.10916(4) 0.32978(3) 0.38717(6)
In1B_2 In -0.10916(4) 1.32978(3) 0.38717(6)
In1C_2 In -0.67022(3) 0.43894(3) -0.38717(6)
In1_2 In -0.32978(3) 0.56106(3) -0.61283(6)
In2C In -0.32974(3) 0.55928(3) 1.11459(7)
In2C_2 In -0.32974(3) 0.55928(3) 0.11459(7)
In2B In -0.88902(4) 0.67026(3) -0.11459(7)
In2A In -0.44072(3) 0.88902(4) -0.11459(7)
In2A_2 In -1.44072(3) -0.11098(4) -0.11459(7)
In2B_2 In -0.88902(4) -0.32974(3) -0.11459(7)
In2_2 In -0.67026(3) 0.44072(3) 0.88541(7)
O1C O -0.3699(3) 0.5448(4) 0.9810(6)
O1C_2 O -0.3699(3) 0.5448(4) -0.0190(6)
O2C O -0.7055(3) 0.4291(3) -0.2515(6)
O2C_2 O -0.7055(3) 0.4291(3) 0.7485(6)
O2A O 0.4291(3) 1.1346(4) 0.2515(6)
O2_2 O -0.2945(3) 0.5709(3) 1.2515(6)
O3C O -0.5893(3) 0.4454(4) 0.6880(7)
O3C_2 O -0.5893(3) 0.4454(4) -0.3120(7)
O3A O 0.4454(4) 1.0347(5) 0.3120(7)
O4C O -0.4025(3) 0.5378(3) 0.4934(6)
O4C_2 O -0.4025(3) 0.5378(3) -0.5066(6)
O4D O 0.4622(3) 1.0597(4) 0.4934(6)
O5C O -0.5799(3) 0.4557(3) 0.8440(6)
O5C_2 O -0.5799(3) 0.4557(3) -0.1560(6)
O5_2 O -0.4201(3) 0.5443(3) 1.1560(6)
O6B O -0.8323(4) 0.6197(3) -0.1289(7)
O6A O -0.5480(3) 0.8323(4) -0.1289(7)
O6C O -0.3803(3) 0.4520(3) 1.1289(7)
O6C_2 O -0.3803(3) 0.4520(3) 0.1289(7)
O7A O -0.5031(3) 0.2352(5) 0.3845(9)
O7B O -0.2352(5) 0.2617(4) 0.3845(9)
O8C O -0.3143(3) 0.5515(3) 0.5488(6)
O8C_2 O -0.3143(3) 0.5515(3) -0.4512(6)
O8D O 0.4485(3) 1.1342(4) 0.5488(6)
O9A O -1.3362(3) -0.0357(4) -0.1199(6)
O9B O -0.9643(4) -0.3005(3) -0.1199(6)
O9C O -0.3005(3) 0.6638(3) 1.1199(6)
O9C_2 O -0.3005(3) 0.6638(3) 0.1199(6)
O10A O 0.3375(3) 1.0442(4) 0.4075(5)
O10B O -0.0442(4) 1.2933(3) 0.4075(5)
O10C O -0.7067(3) 0.3375(3) 0.5925(5)
O11B O -0.7808(4) 0.7200(3) -0.0972(5)
O11A O -0.4992(3) 0.7808(4) -0.0972(5)
O11C O -0.2800(3) 0.5008(3) 1.0972(5)
O11C_2 O -0.2800(3) 0.5008(3) 0.0972(5)
O12A O -1.3623(4) -0.1309(6) -0.0784(7)
O12B O -0.8691(6) -0.2314(4) -0.0784(7)
O12C O -0.2314(4) 0.6377(4) 1.0784(7)
O12C_2 O -0.2314(4) 0.6377(4) 0.0784(7)
O13A O -0.4627(3) 0.1736(4) 0.3842(7)
O13B O -0.1736(4) 0.3637(3) 0.3842(7)
O13C O -0.6363(3) 0.5373(3) 0.6158(7)
O13A_2 O 0.5373(3) 1.1736(4) 0.3842(7)
O14A O 0.3648(3) 1.1437(4) 0.4038(6)
O14B O -0.1437(4) 1.2211(3) 0.4038(6)
O14C O -0.7789(3) 0.3648(3) 0.5962(6)
O15C O -0.2938(4) 0.5466(4) 0.8986(6)
O15C_2 O -0.2938(4) 0.5466(4) -0.1014(6)
C1C C -0.3989(4) 0.5198(4) 0.6563(9)
C1C_2 C -0.3989(4) 0.5198(4) -0.3437(9)
C2A C 0.1769(3) 1.0922(5) 0.3506(6)
C2B C -0.0922(5) 1.0847(4) 0.3506(6)
H1A H 0.1661 1.1194 0.3223
H1B H -0.1194 1.0467 0.3223
C3C C -0.4518(4) 0.4977(4) 0.8316(9)
C3C_2 C -0.4518(4) 0.4977(4) -0.1684(9)
H2C H -0.4692 0.4914 0.8907
H2C_2 H -0.4692 0.4914 -0.1093
C4A C 0.2391(4) 1.1093(6) 0.3586(7)
C4B C -0.1093(6) 1.1298(4) 0.3586(7)
H3A H 0.2699 1.1482 0.3371
H3B H -0.1482 1.1217 0.3371
C5C C -0.4637(4) 0.4947(4) 0.6671(8)
C5C_2 C -0.4637(4) 0.4947(4) -0.3329(8)
H4C H -0.4890 0.4860 0.6149
H4C_2 H -0.4890 0.4860 -0.3851
C6C C -0.5595(4) 0.4586(4) 0.7616(11)
C6C_2 C -0.5595(4) 0.4586(4) -0.2384(11)
C7A C 0.2101(4) 1.0120(6) 0.4329(6)
C7B C -0.0120(6) 1.1981(4) 0.4329(6)
H5A H 0.2209 0.9845 0.4601
H5B H 0.0155 1.2364 0.4601
C8A C -1.2351(4) -0.0975(6) -0.0651(8)
C8B C -0.9025(6) -0.1376(5) -0.0651(8)
H6A H -1.2643 -0.1334 -0.0345
H6B H -0.8666 -0.1309 -0.0345
C9C C -0.4896(4) 0.4831(4) 0.7539(10)
C9C_2 C -0.4896(4) 0.4831(4) -0.2461(10)
C10A C 0.1483(4) 0.9953(6) 0.4272(6)
C10B C 0.0047(6) 1.1530(4) 0.4272(6)
H7A H 0.1181 0.9574 0.4520
H7B H 0.0426 1.1607 0.4520
C11C C -0.3875(5) 0.5218(4) 0.8214(9)
C11C_2 C -0.3875(5) 0.5218(4) -0.1786(9)
C12C C -0.3449(5) 0.5389(5) 0.9074(9)
C12C_2 C -0.3449(5) 0.5389(5) -0.0926(9)
C13C C -0.3620(4) 0.5320(4) 0.7331(8)
C13C_2 C -0.3620(4) 0.5320(4) -0.2669(8)
H8C H -0.3194 0.5471 0.7260
H8C_2 H -0.3194 0.5471 -0.2740
C14A C 0.3241(4) 1.0868(6) 0.4045(8)
C14B C -0.0868(6) 1.2373(5) 0.4045(8)
C15A C -1.3208(5) -0.0778(8) -0.1014(9)
C15B C -0.9222(8) -0.2430(6) -0.1014(9)
C16C C -0.3696(5) 0.5367(4) 0.5612(9)
C16C_2 C -0.3696(5) 0.5367(4) -0.4388(9)
C17A C -1.2533(4) -0.0592(6) -0.1030(7)
C17B C -0.9408(6) -0.1941(5) -0.1030(7)
C18A C 0.0635(3) 1.0168(4) 0.3781(6)
C18B C -0.0168(4) 1.0467(3) 0.3781(6)
C19A C 0.1299(4) 1.0347(5) 0.3844(6)
C19B C -0.0347(5) 1.0952(3) 0.3844(6)
C20A C 0.2561(4) 1.0682(6) 0.3993(7)
C20B C -0.0682(6) 1.1879(4) 0.3993(7)
C21A C 0.0456(3) 1.0630(5) 0.3764(6)
C21B C -0.0630(5) 0.9826(4) 0.3764(6)
H9B H -0.1050 0.9712 0.3741
H9A H 0.0762 1.1050 0.3741
C22A C -1.2106(4) -0.0067(6) -0.1534(7)
C22B C -0.9933(6) -0.2039(4) -0.1534(7)
H10A H -1.2231 0.0188 -0.1826
H10B H -1.0188 -0.2419 -0.1826
C23B C -0.7818(7) 0.6693(5) -0.1134(8)
C23A C -0.5489(5) 0.7818(7) -0.1134(8)
C24A C -1.1733(4) -0.0841(6) -0.0708(6)
C24B C -0.9159(6) -0.0892(4) -0.0708(6)
H11A H -1.1615 -0.1107 -0.0431
H11B H -0.8893 -0.0508 -0.0431
C25A C -0.4573(5) 0.2275(7) 0.3829(10)
C25B C -0.2275(7) 0.3152(5) 0.3829(10)
C26A C -1.1494(4) 0.0064(6) -0.1588(7)
C26B C -1.0064(6) -0.1558(4) -0.1588(7)
H12A H -1.1207 0.0418 -0.1912
H12B H -1.0418 -0.1625 -0.1912
C27B C -0.6650(6) 0.7237(4) -0.1170(7)
C27A C -0.6113(4) 0.6650(6) -0.1170(7)
C28B C -0.7221(6) 0.6677(4) -0.1162(6)
C28A C -0.6102(4) 0.7221(6) -0.1162(6)
C29A C -0.3935(4) 0.2822(6) 0.3821(6)
C29B C -0.2822(6) 0.3243(4) 0.3821(6)
C30A C -0.3426(4) 0.2735(6) 0.3814(7)
C30B C -0.2735(6) 0.3839(4) 0.3814(7)
C31A C -1.1291(4) -0.0310(6) -0.1179(6)
C31B C -0.9690(6) -0.0981(4) -0.1179(6)
C32A C -1.0636(4) -0.0154(6) -0.1216(6)
C32B C -0.9846(6) -0.0482(4) -0.1216(6)
C33A C -1.0468(4) -0.0622(6) -0.1232(7)
C33B C -0.9378(6) 0.0154(4) -0.1232(7)
H13B H -0.8962 0.0256 -0.1253
H13A H -1.0782 -0.1038 -0.1253
N1 N 0.0454(5) 0.7481(5) 0.2881(8)
C34 C -0.0532(3) 0.6710(4) 0.3315(6)
C35 C 0.0133(3) 0.7101(5) 0.3470(8)
C36 C 0.0133(11) 0.7211(11) 0.1182(17)
C37 C 0.0115(9) 0.7650(9) 0.1929(13)
N2 N -0.1328(5) 0.5675(5) 0.4236(8)
C38 C -0.1739(14) 0.5365(14) 0.593(2)
C39 C -0.1317(13) 0.5933(13) 0.5341(18)
C40 C -0.1100(8) 0.5241(8) 0.3954(12)
C41 C -0.1144(8) 0.5141(8) 0.2919(12)
O16 O -0.3508(5) 0.7038(5) 0.2642(7)
O17 O -0.1847(9) 0.5367(9) -0.0413(13)
O19 O -0.2164(14) 0.4343(14) -0.126(2)
O20 O -0.4770(13) 0.5946(14) -0.0496(19)
O18? O -0.1572(13) 0.5745(13) -0.1321(19)
C42? C 0.1309(9) 0.8543(9) 0.3300(13)
C43? C 0.1119(9) 0.7864(9) 0.3107(13)
loop_
_geom_bond_atom_site_label_1
_geom_bond_atom_site_label_2
_geom_bond_site_symmetry_1
_geom_bond_site_symmetry_2
In1 O2 1_555 1_555
In2 O1 1_555 1_555
O1 C12 1_555 1_555
O2 In2C_2 1_555 1_555
O3 In1 1_555 1_555
O4 C16 1_555 1_555
O5 C6 1_555 1_555
O6 In2 1_555 1_555
O7 C25 1_555 1_555
O8 C16 1_555 1_555
O9 In2 1_555 1_555
O10 In1 1_555 1_555
O11 In2 1_555 1_555
O12 In2 1_555 1_555
O13 In1 1_555 1_555
O14 In1 1_555 1_555
O15 C12 1_555 1_555
C1 C5 1_555 1_555
C2 H1 1_555 1_555
C3 H2 1_555 1_555
C4 C2 1_555 1_555
H3 C4 1_555 1_555
C5 H4 1_555 1_555
C6 O3 1_555 1_555
C7 H5 1_555 1_555
C8 H6 1_555 1_555
C9 C3 1_555 1_555
C10 C7 1_555 1_555
H7 C10 1_555 1_555
C11 C3 1_555 1_555
C12 C11 1_555 1_555
C13 C1 1_555 1_555
H8 C13 1_555 1_555
C14 O10 1_555 1_555
C15 O9 1_555 1_555
C16 C1 1_555 1_555
C17 C8 1_555 1_555
C18 C19 1_555 1_555
C19 C2 1_555 1_555
C20 C4 1_555 1_555
C21 C18 1_555 1_555
H9 C21 1_555 1_555
C22 C17 1_555 1_555
H10 C22 1_555 1_555
C23 O6 1_555 1_555
C24 C8 1_555 1_555
H11 C24 1_555 1_555
C25 O13 1_555 1_555
C26 C22 1_555 1_555
H12 C26 1_555 1_555
C27 C28 1_555 1_555
C28 C23 1_555 1_555
C29 C25 1_555 1_555
C30 C29 1_555 1_555
C31 C24 1_555 1_555
C32 C31 1_555 1_555
C33 C32 1_555 1_555
H13 C33 1_555 1_555
N1 C35 1_555 1_555
N2 C39 1_555 1_555
C34 C35 1_555 1_555
C36 C37 1_555 1_555
C37 N1 1_555 1_555
C38 C39 1_555 1_555
C40 N2 1_555 1_555
C41 C40 1_555 1_555
In1C O4 1_555 1_555
In1A O2A 1_555 1_555
In1A_2 O13A 1_555 1_555
In1B O13B 1_555 1_555
In1B_2 O10B 1_555 1_555
In1C_2 O2C 1_555 1_555
In1_2 O4C_2 1_555 1_555
In2C O1C 1_555 1_555
In2C_2 O5 1_555 1_555
In2B O6B 1_555 1_555
In2A O6A 1_555 1_555
In2A_2 O9A 1_555 1_555
In2B_2 O9B 1_555 1_555
In2_2 O2C_2 1_555 1_555
O1C C12C 1_555 1_555
O1C_2 In2C_2 1_555 1_555
O2C In2 1_555 1_555
O2C_2 In1C 1_555 1_555
O2_2 In2C 1_555 1_555
O3C In1C 1_555 1_555
O3C_2 In1C_2 1_555 1_555
O3A In1A 1_555 1_555
O4C In1 1_555 1_555
O4C_2 C16C_2 1_555 1_555
O4D In1A 1_555 1_555
O5C In2_2 1_555 1_555
O5C_2 In2 1_555 1_555
O5_2 In2C 1_555 1_555
O6B C23B 1_555 1_555
O6A C23A 1_555 1_555
O6C In2C 1_555 1_555
O6C_2 In2C_2 1_555 1_555
O7A C25A 1_555 1_555
O7B C25B 1_555 1_555
O8C In1 1_555 1_555
O8C_2 In1_2 1_555 1_555
O8D In1A 1_555 1_555
O9A C15A 1_555 1_555
O9B C15B 1_555 1_555
O9C In2C 1_555 1_555
O9C_2 In2C_2 1_555 1_555
O10A In1A 1_555 1_555
O10B C14B 1_555 1_555
O10C In1C 1_555 1_555
O11B In2B 1_555 1_555
O11A In2A 1_555 1_555
O11C In2C 1_555 1_555
O11C_2 In2C_2 1_555 1_555
O12A In2A_2 1_555 1_555
O12B In2B_2 1_555 1_555
O12C In2C 1_555 1_555
O12C_2 In2C_2 1_555 1_555
O13A C25A 1_555 1_555
O13B C25B 1_555 1_555
O13C In1C 1_555 1_555
O13A_2 In1A 1_555 1_555
O14A In1A 1_555 1_555
O14B In1B_2 1_555 1_555
O14C In1C 1_555 1_555
O15C C12C 1_555 1_555
O15C_2 C12C_2 1_555 1_555
C1C C5C 1_555 1_555
C1C_2 C5C_2 1_555 1_555
C2A H1A 1_555 1_555
C2B H1B 1_555 1_555
C3C H2C 1_555 1_555
C3C_2 H2C_2 1_555 1_555
C4A C2A 1_555 1_555
C4B C2B 1_555 1_555
H3A C4A 1_555 1_555
H3B C4B 1_555 1_555
C5C H4C 1_555 1_555
C5C_2 H4C_2 1_555 1_555
C6C O3C 1_555 1_555
C6C_2 O3C_2 1_555 1_555
C7A H5A 1_555 1_555
C7B H5B 1_555 1_555
C8A H6A 1_555 1_555
C8B H6B 1_555 1_555
C9C C3C 1_555 1_555
C9C_2 C3C_2 1_555 1_555
C10A C7A 1_555 1_555
C10B C7B 1_555 1_555
H7A C10A 1_555 1_555
H7B C10B 1_555 1_555
C11C C3C 1_555 1_555
C11C_2 C3C_2 1_555 1_555
C12C C11C 1_555 1_555
C12C_2 O1C_2 1_555 1_555
C13C C1C 1_555 1_555
C13C_2 C1C_2 1_555 1_555
H8C C13C 1_555 1_555
H8C_2 C13C_2 1_555 1_555
C14A O10A 1_555 1_555
C14B O14B 1_555 1_555
C15A O12A 1_555 1_555
C15B O12B 1_555 1_555
C16C O4C 1_555 1_555
C16C_2 O8C_2 1_555 1_555
C17A C8A 1_555 1_555
C17B C8B 1_555 1_555
C18A C21 1_555 1_555
C18B C19B 1_555 1_555
C19A C2A 1_555 1_555
C19B C2B 1_555 1_555
C20A C4A 1_555 1_555
C20B C4B 1_555 1_555
C21A C18A 1_555 1_555
C21B C18 1_555 1_555
H9B C21B 1_555 1_555
H9A C21A 1_555 1_555
C22A C17A 1_555 1_555
C22B C17B 1_555 1_555
H10A C22A 1_555 1_555
H10B C22B 1_555 1_555
C23B O11B 1_555 1_555
C23A O11A 1_555 1_555
C24A C8A 1_555 1_555
C24B C8B 1_555 1_555
H11A C24A 1_555 1_555
H11B C24B 1_555 1_555
C25A C29A 1_555 1_555
C25B C29B 1_555 1_555
C26A C22A 1_555 1_555
C26B C22B 1_555 1_555
H12A C26A 1_555 1_555
H12B C26B 1_555 1_555
C27B C28B 1_555 1_555
C27A C28 1_555 1_555
C28B C27 1_555 1_555
C28A C23A 1_555 1_555
C29A C30 1_555 1_555
C29B C30A 1_555 1_555
C30A C29A 1_555 1_555
C30B C29 1_555 1_555
C31A C24A 1_555 1_555
C31B C24B 1_555 1_555
C32A C33 1_555 1_555
C32B C31B 1_555 1_555
C33A C32A 1_555 1_555
C33B C32 1_555 1_555
H13B C33B 1_555 1_555
H13A C33A 1_555 1_555
O8 In1C 1_555 1_555
O11 C23 1_555 1_555
O12 C15 1_555 1_555
O14 C14 1_555 1_555
C5 C9 1_555 1_555
C6 C9 1_555 1_555
C7 C20 1_555 1_555
C10 C19 1_555 1_555
C11 C13 1_555 1_555
C14 C20 1_555 1_555
C15 C17 1_555 1_555
C26 C31 1_555 1_555
O5C C6C 1_555 1_555
O5C_2 C6C_2 1_555 1_555
O8C C16C 1_555 1_555
O14A C14A 1_555 1_555
C1C C16C 1_555 1_555
C1C_2 C16C_2 1_555 1_555
C5C C9C 1_555 1_555
C5C_2 C9C_2 1_555 1_555
C6C C9C 1_555 1_555
C6C_2 C9C_2 1_555 1_555
C7A C20A 1_555 1_555
C7B C20B 1_555 1_555
C10A C19A 1_555 1_555
C10B C19B 1_555 1_555
C11C C13C 1_555 1_555
C11C_2 C12C_2 1_555 1_555
C11C_2 C13C_2 1_555 1_555
C14A C20A 1_555 1_555
C14B C20B 1_555 1_555
C15A C17A 1_555 1_555
C15B C17B 1_555 1_555
C18A C19A 1_555 1_555
C18B C21A 1_555 1_555
C18B C21B 1_555 1_555
C23B C28B 1_555 1_555
C26A C31A 1_555 1_555
C26B C31B 1_555 1_555
C27B C28A 1_555 1_555
C27A C28A 1_555 1_555
C29B C30B 1_555 1_555
C31A C32A 1_555 1_555
C32B C33A 1_555 1_555
C32B C33B 1_555 1_555

#END
