
#######################################################################
#
#                 Cambridge Crystallographic Data Centre
#                                CCDC 
#
#######################################################################
#
# If this CIF has been generated from an entry in the Cambridge 
# Structural Database, then it will include bibliographic, chemical, 
# crystal, experimental, refinement or atomic coordinate data resulting 
# from the CCDC's data processing and validation procedures.
#
#######################################################################

data_IYUHEQ
_chemical_name_common            CPM-10
_chemical_formula_moiety         '(C30 H21 In2 N5 O11)n,n(C2 H3 N1)'
_chemical_name_systematic        
"catena-(tetrakis(\m~2~-nicotinato-N,O)-(\m~2~-nicotinato-O,O')-(\m~2~-hydroxo)-di-indium acetonitrile solvate)"
_symmetry_cell_setting           hexagonal
_symmetry_space_group_name_H-M   'P 65 2 2'
_symmetry_Int_Tables_number      179
_space_group_name_Hall           'P 65 2 (0 0 1)'
loop_
_symmetry_equiv_pos_site_id
_symmetry_equiv_pos_as_xyz
1 x,y,z
2 -y,x-y,2/3+z
3 -x+y,-x,1/3+z
4 -x,-y,1/2+z
5 y,-x+y,1/6+z
6 x-y,x,5/6+z
7 y,x,2/3-z
8 x-y,-y,-z
9 -x,-x+y,1/3-z
10 -y,-x,1/6-z
11 -x+y,y,1/2-z
12 x,x-y,5/6-z
_cell_length_a                   12.3651(5)
_cell_length_b                   12.3651(5)
_cell_length_c                   37.4849(5)
_cell_angle_alpha                90
_cell_angle_beta                 90
_cell_angle_gamma                120
_cell_volume                     4963.43
_exptl_crystal_colour            colorless
_exptl_crystal_description       block
_cell_formula_units_Z            6
loop_
_atom_site_label
_atom_site_type_symbol
_atom_site_fract_x
_atom_site_fract_y
_atom_site_fract_z
N4 N 0.1387 1.1029 0.2931
C18 C 0.1018 1.0046 0.2875
C19 C 0.0616 0.8968 0.2814
In1 In 0.55072(5) 0.16662(5) 0.380568(14)
O1 O 0.5963(5) 0.3113(8) 0.34311(15)
O2 O 0.3909(5) 0.0033(5) 0.35981(14)
O3 O 0.4751(3) 0.2376(7) 0.4167
O4 O 0.3973(10) 0.2533(7) 0.33268(18)
O5 O 0.2573(10) 0.0275(7) 0.3941(2)
O6 O 0.7369(7) 0.2867(5) 0.40349(14)
N1 N 0.5158(9) 0.5443(7) 0.25672(17)
N2 N 1.1236(16) 0.4762(9) 0.4020(3)
N3 N 0.1138(8) -0.3361(6) 0.32247(17)
C2 C 0.2032(10) -0.2282(7) 0.3351(2)
H1 H 0.2856 -0.2015 0.3290
C3 C 0.4804(11) 0.4451(9) 0.2782(2)
H2 H 0.3991 0.3785 0.2762
C4 C 0.5576(11) 0.4366(9) 0.3031(2)
C5 C 0.0569(13) -0.1949(10) 0.3678(3)
H3 H 0.0369 -0.1475 0.3828
C6 C 0.5076(13) 0.3224(10) 0.3279(2)
C7 C -0.0049(12) -0.3776(9) 0.3324(2)
H4 H -0.0673 -0.4535 0.3235
C8 C 0.7916(5) 0.3958(10) 0.4167
C9 C 0.6337(11) 0.6417(8) 0.2603(2)
H5 H 0.6601 0.7122 0.2461
C10 C 0.6783(13) 0.5354(10) 0.3061(2)
H6 H 0.7336 0.5324 0.3223
C11 C 0.7151(13) 0.6375(10) 0.2847(3)
H7 H 0.7958 0.7049 0.2867
C12 C 0.2824(11) -0.0302(8) 0.3721(2)
C13 C -0.0377(13) -0.3125(10) 0.3552(3)
H8 H -0.1203 -0.3447 0.3622
C14 C 0.9955(14) 0.4102(9) 0.4017(3)
C15 C 1.1876(9) 0.5938(18) 0.4167
C16 C 0.9302(5) 0.4651(11) 0.4167
C17 C 0.1778(11) -0.1521(8) 0.3577(2)
In1D In 0.16662(5) -0.38410(7) 0.547235(14)
In1K In 0.55072(5) 0.38410(7) 0.452765(14)
In1E In 0.38410(7) 0.55072(5) 0.213901(14)
In1F In 0.16662(5) -0.44928(5) 0.286099(14)
In1F_2 In 1.16662(5) 0.55072(5) 0.286099(14)
In1G In 0.38410(7) -0.16662(5) 0.619432(14)
O1D O 0.3113(8) -0.2850(9) 0.50978(15)
O2F O 1.0033(5) 0.3909(5) 0.30686(14)
O2D O 0.0033(5) -0.3876(7) 0.52648(14)
O3D O 0.2376(7) -0.2375(8) 0.5834
O4D O 0.2533(7) -0.1440(12) 0.49935(18)
O5F O 1.0275(7) 0.2573(10) 0.2726(2)
O6K O 0.7369(7) 0.4502(9) 0.42984(14)
O6D O 0.2867(5) -0.4502(9) 0.57016(14)
N1D N 0.5443(7) 0.0285(11) 0.42339(17)
N1B N 0.0285(11) -0.5158(9) 0.59005(17)
N2K N 1.1236(16) 0.6474(18) 0.4313(3)
N3F N 0.6639(6) 0.1138(8) 0.34420(17)
N3K N 0.1138(8) -0.5501(10) 0.51086(17)
C2F C 0.7718(7) 0.2032(10) 0.3316(2)
H1F H 0.7985 0.2856 0.3377
C3D C 0.4451(9) -0.0353(14) 0.4449(2)
H2D H 0.3785 -0.0206 0.4429
C4D C 0.4366(9) -0.1210(14) 0.4698(2)
C5F C 0.8051(10) 0.0569(13) 0.2989(3)
H3F H 0.8525 0.0369 0.2839
C6D C 0.3224(10) -0.1852(16) 0.4946(2)
C7F C 0.6224(9) -0.0049(12) 0.3343(2)
H4F H 0.5465 -0.0673 0.3432
C9D C 0.6417(8) 0.0080(14) 0.4270(2)
H5D H 0.7122 0.0521 0.4128
C10D C 0.5354(10) -0.1429(16) 0.4728(2)
H6D H 0.5324 -0.2012 0.4890
C11D C 0.6375(10) -0.0776(16) 0.4514(3)
H7D H 0.7049 -0.0909 0.4534
C12F C 0.9698(8) 0.2824(11) 0.2946(2)
C13F C 0.6875(10) -0.0377(13) 0.3115(3)
H8F H 0.6553 -0.1203 0.3045
C14K C 0.9955(14) 0.5853(17) 0.4316(3)
C17F C 0.8479(8) 0.1778(11) 0.3090(2)
C1? C 0.1236(13) 0.6474(9) 0.4314(3)
loop_
_geom_bond_atom_site_label_1
_geom_bond_atom_site_label_2
_geom_bond_site_symmetry_1
_geom_bond_site_symmetry_2
In1 O1 1_555 1_555
O1 C6 1_555 1_555
O2 In1 1_555 1_555
O3 In1 1_555 1_555
O4 C6 1_555 1_555
O5 C12 1_555 1_555
O6 In1 1_555 1_555
N1 C3 1_555 1_555
N2 C14 1_555 1_555
N3 C2 1_555 1_555
C2 H1 1_555 1_555
C3 H2 1_555 1_555
C4 C3 1_555 1_555
C5 H3 1_555 1_555
C6 C4 1_555 1_555
C7 N3 1_555 1_555
H4 C7 1_555 1_555
C8 O6 1_555 1_555
C9 N1 1_555 1_555
H5 C9 1_555 1_555
C10 C4 1_555 1_555
H6 C10 1_555 1_555
C11 C9 1_555 1_555
H7 C11 1_555 1_555
C12 O2 1_555 1_555
C13 C5 1_555 1_555
H8 C13 1_555 1_555
C14 C16 1_555 1_555
C15 N2 1_555 1_555
C16 C8 1_555 1_555
C17 C2 1_555 1_555
N4 C18 1_555 1_555
C18 C19 1_555 1_555
In1D O1D 1_555 1_555
In1K O3 1_555 1_555
In1E N1 1_555 1_555
In1F N3 1_555 1_555
In1F_2 O2F 1_555 1_555
In1G O3D 1_555 1_555
O1D C6D 1_555 1_555
O2F C12F 1_555 1_555
O2D In1D 1_555 1_555
O3D In1D 1_555 1_555
O4D C6D 1_555 1_555
O5F C12F 1_555 1_555
O6K C8 1_555 1_555
O6D In1D 1_555 1_555
N1D In1 1_555 1_555
N1B In1D 1_555 1_555
N2K C15 1_555 1_555
N3F In1 1_555 1_555
N3K In1D 1_555 1_555
C2F N3F 1_555 1_555
H1F C2F 1_555 1_555
C3D N1D 1_555 1_555
H2D C3D 1_555 1_555
C4D C3D 1_555 1_555
C5F H3F 1_555 1_555
C6D C4D 1_555 1_555
C7F N3F 1_555 1_555
H4F C7F 1_555 1_555
C9D N1D 1_555 1_555
H5D C9D 1_555 1_555
C10D C4D 1_555 1_555
H6D C10D 1_555 1_555
C11D C9D 1_555 1_555
H7D C11D 1_555 1_555
C12F C17F 1_555 1_555
C13F C5F 1_555 1_555
H8F C13F 1_555 1_555
C14K C16 1_555 1_555
C17F C2F 1_555 1_555
C5 C17 1_555 1_555
C7 C13 1_555 1_555
C10 C11 1_555 1_555
C12 C17 1_555 1_555
In1K O6K 1_555 1_555
N2K C14K 1_555 1_555
C5F C17F 1_555 1_555
C7F C13F 1_555 1_555
C10D C11D 1_555 1_555

#END
