
#######################################################################
#
#                 Cambridge Crystallographic Data Centre
#                                CCDC 
#
#######################################################################
#
# If this CIF has been generated from an entry in the Cambridge 
# Structural Database, then it will include bibliographic, chemical, 
# crystal, experimental, refinement or atomic coordinate data resulting 
# from the CCDC's data processing and validation procedures.
#
#######################################################################

data_GAFRUD
_chemical_formula_moiety         '(C22 H15 Cu2 N1 O10)n'
_chemical_name_systematic        
"catena-[(\m-2'-amino-1,1':3',1''-terphenyl-3,3'',5,5''-tetracarboxylato)-diaqua-di-copper unknown solvate]"
_symmetry_cell_setting           hexagonal
_symmetry_space_group_name_H-M   'P 63/m m c'
_symmetry_Int_Tables_number      194
_space_group_name_Hall           '-P 6c 2c'
loop_
_symmetry_equiv_pos_site_id
_symmetry_equiv_pos_as_xyz
1 x,y,z
2 x-y,x,1/2+z
3 -y,x-y,z
4 -x,-y,1/2+z
5 -x+y,-x,z
6 y,-x+y,1/2+z
7 x-y,-y,-z
8 -x,-x+y,-z
9 y,x,-z
10 -y,-x,1/2-z
11 -x+y,y,1/2-z
12 x,x-y,1/2-z
13 -x,-y,-z
14 -x+y,-x,1/2-z
15 y,-x+y,-z
16 x,y,1/2-z
17 x-y,x,-z
18 -y,x-y,1/2-z
19 -x+y,y,z
20 x,x-y,z
21 -y,-x,z
22 y,x,1/2+z
23 x-y,-y,1/2+z
24 -x,-x+y,1/2+z
_cell_length_a                   18.448(5)
_cell_length_b                   18.448(5)
_cell_length_c                   23.939(5)
_cell_angle_alpha                90
_cell_angle_beta                 90
_cell_angle_gamma                120
_cell_volume                     7055.62
_exptl_crystal_colour            green
_exptl_crystal_description       Block
_cell_formula_units_Z            6
loop_
_atom_site_label
_atom_site_type_symbol
_atom_site_fract_x
_atom_site_fract_y
_atom_site_fract_z
Cu1 Cu 0.524289(11) 0.04858(2) 0.044939(15)
C1 C 0.22104(11) -0.22104(11) 0.04469(13)
H1 H 0.2358 -0.2358 0.0103
O1 O 0.41079(11) -0.02789(11) 0.07200(7)
C2 C 0.27530(15) -0.14514(14) 0.06984(9)
O2 O 0.37079(11) -0.10994(10) -0.00369(7)
C3 C 0.35850(17) -0.09009(15) 0.04417(10)
C4 C 0.17440(18) -0.17440(18) 0.2500
C5 C 0.25274(16) -0.12418(15) 0.12034(9)
H2 H 0.2906 -0.0728 0.1380
N1 N 0.21692(18) -0.21692(18) 0.2500
H3 H 0.2307 -0.2307 0.2182
O3 O 0.56231(11) 0.1246(2) 0.11885(13)
C6 C 0.17657(12) -0.17657(12) 0.14508(14)
C7 C 0.15287(12) -0.15287(12) 0.19931(14)
C8 C 0.0882(3) -0.0882(3) 0.2500
H4 H 0.0584 -0.0584 0.2500
C9 C 0.10971(18) -0.10971(18) 0.1996(2)
H5 H 0.0947 -0.0947 0.1654
H3I H 0.2307 -0.2307 0.2818
C1I C 0.22104(11) -0.22104(11) 0.45531(13)
H1I H 0.2358 -0.2358 0.4897
O1I O 0.02789(11) -0.41079(11) 0.42800(7)
C2I C 0.14514(14) -0.27530(15) 0.43016(9)
O2I O 0.10994(10) -0.37079(11) 0.50369(7)
C3I C 0.09009(15) -0.35850(17) 0.45583(10)
C5I C 0.12418(15) -0.25274(16) 0.37966(9)
H2I H 0.0728 -0.2906 0.3620
C6I C 0.17657(12) -0.17657(12) 0.35492(14)
C7I C 0.15287(12) -0.15287(12) 0.30069(14)
C9I C 0.10971(18) -0.10971(18) 0.3004(2)
H5I H 0.0947 -0.0947 0.3346
O1O O 0.41079(11) -0.02789(11) 0.42800(7)
C2O C 0.27530(15) -0.14514(14) 0.43016(9)
O2O O 0.37079(11) -0.10994(10) 0.50369(7)
C3O C 0.35850(17) -0.09009(15) 0.45583(10)
C5O C 0.25274(16) -0.12418(15) 0.37966(9)
H2O H 0.2906 -0.0728 0.3620
O1T O 0.02789(11) -0.41079(11) 0.07200(7)
C2T C 0.14514(14) -0.27530(15) 0.06984(9)
O2T O 0.10994(10) -0.37079(11) -0.00369(7)
C3T C 0.09009(15) -0.35850(17) 0.04417(10)
C5T C 0.12418(15) -0.25274(16) 0.12034(9)
H2T H 0.0728 -0.2906 0.1380
Cu1B Cu -0.04858(2) -0.524291(23) 0.044939(15)
O3B O -0.1246(2) -0.56229(23) 0.11885(13)
Cu1C Cu 0.475711(11) -0.04858(2) 0.544939(15)
Cu1E Cu 0.04858(2) -0.475709(23) 0.544939(15)
Cu1F Cu 0.475709(23) -0.04858(2) -0.044939(15)
Cu1H Cu 0.04858(2) -0.475711(11) -0.044939(15)
Cu1I Cu -0.04858(2) -0.524289(11) 0.455061(15)
Cu1J Cu 0.524291(23) 0.04858(2) 0.455061(15)
O1B O 0.02789(11) -0.56132(16) 0.07200(7)
O1R O 0.56132(16) -0.02789(11) 0.07200(7)
O2F O 0.48073(15) 0.10994(10) 0.00369(7)
O2H O -0.10994(10) -0.62921(11) 0.00369(7)
O2L O 0.62921(11) 0.10994(10) 0.00369(7)
O2N O -0.10994(10) -0.48073(15) 0.00369(7)
H6? H 0.2307 -0.2307 0.2182
loop_
_geom_bond_atom_site_label_1
_geom_bond_atom_site_label_2
_geom_bond_site_symmetry_1
_geom_bond_site_symmetry_2
Cu1 O1 1_555 1_555
C1 H1 1_555 1_555
O1 C3 1_555 1_555
C2 C1 1_555 1_555
O2 C3 1_555 1_555
C3 C2 1_555 1_555
C4 N1 1_555 1_555
C5 C2 1_555 1_555
H2 C5 1_555 1_555
N1 H3 1_555 1_555
O3 Cu1 1_555 1_555
C6 C5 1_555 1_555
C7 C4 1_555 1_555
C8 H4 1_555 1_555
C9 C7 1_555 1_555
H5 C9 1_555 1_555
H3I N1 1_555 1_555
C1I H1I 1_555 1_555
O1I C3I 1_555 1_555
C2I C1I 1_555 1_555
O2I C3I 1_555 1_555
C3I C2I 1_555 1_555
C5I C2I 1_555 1_555
H2I C5I 1_555 1_555
C6I C5I 1_555 1_555
C7I C4 1_555 1_555
C9I C8 1_555 1_555
H5I C9I 1_555 1_555
O1O C3O 1_555 1_555
C2O C1I 1_555 1_555
O2O C3O 1_555 1_555
C3O C2O 1_555 1_555
C5O C6I 1_555 1_555
H2O C5O 1_555 1_555
O1T C3T 1_555 1_555
C2T C1 1_555 1_555
O2T C3T 1_555 1_555
C3T C2T 1_555 1_555
C5T C6 1_555 1_555
H2T C5T 1_555 1_555
Cu1B O1T 1_555 1_555
O3B Cu1B 1_555 1_555
Cu1C O2O 1_555 1_555
Cu1E O2I 1_555 1_555
Cu1F Cu1 1_555 1_555
Cu1H O2T 1_555 1_555
Cu1I O1I 1_555 1_555
Cu1J O1O 1_555 1_555
O1B Cu1B 1_555 1_555
O1R Cu1 1_555 1_555
O2F Cu1 1_555 1_555
O2H Cu1B 1_555 1_555
O2L Cu1 1_555 1_555
O2N Cu1B 1_555 1_555
O2 Cu1F 1_555 1_555
C6 C7 1_555 1_555
C8 C9 1_555 1_555
C6I C7I 1_555 1_555
C7I C9I 1_555 1_555
C2O C5O 1_555 1_555
C2T C5T 1_555 1_555
Cu1B Cu1H 1_555 1_555
Cu1C Cu1J 1_555 1_555
Cu1E Cu1I 1_555 1_555

#END
