
#######################################################################
#
#                 Cambridge Crystallographic Data Centre
#                                CCDC 
#
#######################################################################
#
# If this CIF has been generated from an entry in the Cambridge 
# Structural Database, then it will include bibliographic, chemical, 
# crystal, experimental, refinement or atomic coordinate data resulting 
# from the CCDC's data processing and validation procedures.
#
#######################################################################

data_BAKJOO
_chemical_formula_moiety         
'(C42 H30 Co3 N4 O14)n,0.5n(H2 O1),6.25n(C3 H7 N1 O1)'
_chemical_name_systematic        
'catena-(tris(\m~5~-5-(pyridin-4-yl)isophthalato)-aqua-dimethylformamide-tri-cobalt dimethylformamide solvate hemihydrate)'
_symmetry_cell_setting           triclinic
_symmetry_space_group_name_H-M   'P -1'
_symmetry_Int_Tables_number      2
_space_group_name_Hall           '-P 1'
loop_
_symmetry_equiv_pos_site_id
_symmetry_equiv_pos_as_xyz
1 x,y,z
2 -x,-y,-z
_cell_length_a                   10.164(6)
_cell_length_b                   13.363(8)
_cell_length_c                   22.395(13)
_cell_angle_alpha                86.833(9)
_cell_angle_beta                 80.346(8)
_cell_angle_gamma                83.224(9)
_cell_volume                     2975.75
_exptl_crystal_colour            purple
_exptl_crystal_description       lath
_cell_formula_units_Z            2
loop_
_atom_site_label
_atom_site_type_symbol
_atom_site_fract_x
_atom_site_fract_y
_atom_site_fract_z
Co1 Co -0.07110(8) 0.20973(9) 0.27646(4)
Co2 Co 0.32323(9) 0.00179(10) 0.72140(5)
Co3 Co -0.56525(9) 0.95160(9) 0.16438(4)
N1 N -0.0979(5) 0.1999(5) 0.3749(2)
N2 N -0.5603(5) 0.7991(6) 0.1929(3)
N3 N -0.0447(5) 0.2122(5) 0.1781(2)
O1 O 0.1938(4) 0.0539(4) 0.6612(2)
O2 O 0.0878(4) -0.0562(5) 0.7257(2)
O3 O -0.5154(4) 0.0528(4) 0.6680(2)
O4 O -0.4243(4) 0.0013(4) 0.7498(2)
O5 O -0.3889(5) 0.1452(5) 0.2902(2)
O6 O -0.2626(4) 0.2755(4) 0.2792(2)
O7 O -0.9735(5) 0.3586(4) 0.2720(2)
O8 O -0.8655(4) 0.2039(5) 0.2737(2)
O9 O -0.3486(5) 0.0814(5) -0.0815(2)
O10 O -0.2242(4) 0.0451(5) -0.1702(2)
O11 O 0.2572(10) 0.0527(9) -0.2032(4)
O12 O 0.3706(5) 0.0722(4) -0.1252(2)
C1 C -0.2087(7) 0.1697(7) 0.4075(3)
H1 H -0.2829 0.1685 0.3869
O13 O -0.5685(5) 1.1070(5) 0.1332(3)
N4 N -0.5423(13) 1.2316(10) 0.0634(6)
C2 C -0.5423(13) 1.1381(11) 0.0770(6)
C3 C -0.516(3) 1.261(2) 0.0025(13)
C4 C -0.573(2) 1.3097(17) 0.1068(10)
C5 C -0.2281(7) 0.1397(8) 0.4685(3)
H2 H -0.3111 0.1180 0.4877
C6 C -0.1229(6) 0.1424(6) 0.5007(3)
C7 C -0.0073(8) 0.1741(8) 0.4671(3)
H3 H 0.0680 0.1776 0.4866
C8 C 0.0022(7) 0.1999(8) 0.4086(3)
H4 H 0.0855 0.2200 0.3885
C9 C -0.1366(6) 0.1050(7) 0.5656(3)
C10 C -0.0233(7) 0.0786(7) 0.5954(3)
H5 H 0.0635 0.0891 0.5744
C11 C -0.0356(6) 0.0388(6) 0.6531(3)
C12 C -0.1612(6) 0.0213(6) 0.6862(3)
H6 H -0.1692 -0.0085 0.7260
C13 C -0.2743(6) 0.0495(6) 0.6586(3)
C14 C -0.2625(6) 0.0886(6) 0.6000(3)
H7 H -0.3412 0.1051 0.5823
C15 C 0.0884(6) 0.0085(6) 0.6837(3)
C16 C -0.4137(6) 0.0349(6) 0.6947(3)
C17 C -0.6697(9) 0.7643(8) 0.2328(4)
H8 H -0.7410 0.8132 0.2484
C18 C -0.6813(9) 0.6621(9) 0.2512(4)
H9 H -0.7577 0.6450 0.2788
C19 C -0.5799(8) 0.5858(7) 0.2288(4)
C20 C -0.4709(8) 0.6214(8) 0.1902(4)
H10 H -0.3977 0.5742 0.1743
C21 C -0.4655(9) 0.7210(8) 0.1745(4)
H11 H -0.3876 0.7379 0.1479
C22 C -0.5921(7) 0.4804(7) 0.2466(4)
C23 C -0.4860(7) 0.4130(7) 0.2572(4)
H12 H -0.4015 0.4377 0.2554
C24 C -0.4930(6) 0.3099(7) 0.2705(3)
C25 C -0.6221(7) 0.2738(7) 0.2752(3)
H13 H -0.6323 0.2044 0.2836
C26 C -0.7300(6) 0.3415(6) 0.2673(3)
C27 C -0.7214(7) 0.4415(7) 0.2544(4)
H14 H -0.8000 0.4858 0.2505
C28 C -0.3734(7) 0.2375(7) 0.2808(3)
C29 C -0.8655(6) 0.2968(7) 0.2713(3)
C30 C -0.1433(7) 0.2327(8) 0.1464(3)
H15 H -0.2272 0.2623 0.1668
C31 C -0.1335(7) 0.2140(8) 0.0853(3)
H16 H -0.2090 0.2308 0.0653
C32 C -0.0128(6) 0.1708(6) 0.0536(3)
C33 C 0.0935(7) 0.1588(7) 0.0856(3)
H17 H 0.1809 0.1372 0.0650
C34 C 0.0764(7) 0.1772(6) 0.1460(3)
H18 H 0.1519 0.1651 0.1664
C35 C -0.0018(7) 0.1409(6) -0.0114(3)
C36 C -0.1173(6) 0.1268(7) -0.0337(3)
H19 H -0.2026 0.1414 -0.0092
C37 C -0.1094(7) 0.0911(6) -0.0922(3)
C38 C 0.0120(7) 0.0704(7) -0.1283(3)
H20 H 0.0161 0.0471 -0.1679
C39 C 0.1343(7) 0.0839(8) -0.1064(3)
C40 C 0.1209(7) 0.1207(7) -0.0476(3)
H21 H 0.1995 0.1319 -0.0324
C41 C -0.2368(7) 0.0695(7) -0.1153(4)
C42 C 0.2666(7) 0.0553(7) -0.1459(3)
O14 O 0.2638(15) 0.1737(10) 0.7442(6)
Co1A Co 0.07110(8) -0.20973(9) 0.72354(4)
Co1_2 Co -1.07110(8) 0.20973(9) 0.27646(4)
Co2_2 Co -0.67677(9) 0.00179(10) 0.72140(5)
Co2A Co -0.32323(9) -0.00179(10) 0.27860(5)
Co2_3 Co 0.32323(9) 0.00179(10) -0.27860(5)
Co3A Co -0.43475(9) 0.04840(9) 0.83562(4)
Co3A_2 Co -0.43475(9) 0.04840(9) -0.16438(4)
Co3A_3 Co 0.56525(9) 0.04840(9) -0.16438(4)
O2A O -0.0878(4) 0.0562(5) 0.2743(2)
O3_2 O 0.4846(4) 0.0528(4) 0.6680(2)
O4A O -0.5757(4) 0.9987(4) 0.2502(2)
O5A O 0.3889(5) -0.1452(5) 0.7098(2)
O7_2 O 0.0265(5) 0.3586(4) 0.2720(2)
O8_2 O 0.1345(4) 0.2039(5) 0.2737(2)
O9A O -0.6514(5) 0.9186(5) 0.0815(2)
O10A O -0.7758(4) 0.9549(5) 0.1702(2)
O11_2 O 0.2572(10) 0.0527(9) 0.7968(4)
O12A O -0.3706(5) 0.9278(4) 0.1252(2)
O15? O 0.2762(13) -0.0113(9) -0.1867(6)
loop_
_geom_bond_atom_site_label_1
_geom_bond_atom_site_label_2
_geom_bond_site_symmetry_1
_geom_bond_site_symmetry_2
Co1 N1 1_555 1_555
Co2 O1 1_555 1_555
Co3 N2 1_555 1_555
N1 C1 1_555 1_555
N2 C17 1_555 1_555
N3 Co1 1_555 1_555
O1 C15 1_555 1_555
O2 C15 1_555 1_555
O3 C16 1_555 1_555
O4 C16 1_555 1_555
O5 C28 1_555 1_555
O6 Co1 1_555 1_555
O7 C29 1_555 1_555
O8 C29 1_555 1_555
O9 C41 1_555 1_555
O10 C41 1_555 1_555
O11 C42 1_555 1_555
O12 C42 1_555 1_555
C1 H1 1_555 1_555
O13 Co3 1_555 1_555
N4 C2 1_555 1_555
C2 O13 1_555 1_555
C3 N4 1_555 1_555
C4 N4 1_555 1_555
C5 C1 1_555 1_555
H2 C5 1_555 1_555
C6 C5 1_555 1_555
C7 C6 1_555 1_555
H3 C7 1_555 1_555
C8 N1 1_555 1_555
H4 C8 1_555 1_555
C9 C6 1_555 1_555
C10 C9 1_555 1_555
H5 C10 1_555 1_555
C11 C10 1_555 1_555
C12 C11 1_555 1_555
H6 C12 1_555 1_555
C13 C12 1_555 1_555
C14 C9 1_555 1_555
H7 C14 1_555 1_555
C15 C11 1_555 1_555
C16 C13 1_555 1_555
C17 H8 1_555 1_555
C18 C17 1_555 1_555
H9 C18 1_555 1_555
C19 C18 1_555 1_555
C20 C19 1_555 1_555
H10 C20 1_555 1_555
C21 N2 1_555 1_555
H11 C21 1_555 1_555
C22 C19 1_555 1_555
C23 C22 1_555 1_555
H12 C23 1_555 1_555
C24 C23 1_555 1_555
C25 C24 1_555 1_555
H13 C25 1_555 1_555
C26 C25 1_555 1_555
C27 C22 1_555 1_555
H14 C27 1_555 1_555
C28 O6 1_555 1_555
C29 C26 1_555 1_555
C30 N3 1_555 1_555
H15 C30 1_555 1_555
C31 C30 1_555 1_555
H16 C31 1_555 1_555
C32 C31 1_555 1_555
C33 C32 1_555 1_555
H17 C33 1_555 1_555
C34 N3 1_555 1_555
H18 C34 1_555 1_555
C35 C32 1_555 1_555
C36 C35 1_555 1_555
H19 C36 1_555 1_555
C37 C36 1_555 1_555
C38 C37 1_555 1_555
H20 C38 1_555 1_555
C39 C38 1_555 1_555
C40 C35 1_555 1_555
H21 C40 1_555 1_555
C41 C37 1_555 1_555
C42 C39 1_555 1_555
O14 Co2 1_555 1_555
Co1A O2 1_555 1_555
Co1_2 O7 1_555 1_555
Co2_2 O3 1_555 1_555
Co2A O5 1_555 1_555
Co2_3 O11 1_555 1_555
Co3A O4 1_555 1_555
Co3A_2 O9 1_555 1_555
Co3A_3 O12 1_555 1_555
O2A Co1 1_555 1_555
O3_2 Co2 1_555 1_555
O4A Co3 1_555 1_555
O5A Co2 1_555 1_555
O7_2 Co1 1_555 1_555
O8_2 Co1 1_555 1_555
O9A Co3 1_555 1_555
O10A Co3 1_555 1_555
O11_2 Co2 1_555 1_555
O12A Co3 1_555 1_555
O8 Co1_2 1_555 1_555
O10 Co3A_2 1_555 1_555
C7 C8 1_555 1_555
C13 C14 1_555 1_555
C20 C21 1_555 1_555
C24 C28 1_555 1_555
C26 C27 1_555 1_555
C33 C34 1_555 1_555
C39 C40 1_555 1_555

#END
