
#######################################################################
#
#                 Cambridge Crystallographic Data Centre
#                                CCDC 
#
#######################################################################
#
# If this CIF has been generated from an entry in the Cambridge 
# Structural Database, then it will include bibliographic, chemical, 
# crystal, experimental, refinement or atomic coordinate data resulting 
# from the CCDC's data processing and validation procedures.
#
#######################################################################

data_MUVHAN
_chemical_formula_moiety         '(C34 H16 N10 Zn1)n,n(C7 H5 N1)'
_chemical_name_systematic        
"catena-((\m~4~-1,2-bis(4-(Dicyanomethylene)cyclohexa-2,5-dien-1-yl)ethane-1,1,2,2-tetracarbonitrile)-(\m~2~-4,4'-bipyridine)-zinc benzonitrile clathrate)"
_symmetry_cell_setting           orthorhombic
_symmetry_space_group_name_H-M   'P c c m'
_symmetry_Int_Tables_number      49
_space_group_name_Hall           '-P 2 2c'
loop_
_symmetry_equiv_pos_site_id
_symmetry_equiv_pos_as_xyz
1 x,y,z
2 -x,-y,z
3 x,-y,1/2-z
4 -x,y,1/2-z
5 -x,-y,-z
6 x,y,-z
7 -x,y,1/2+z
8 x,-y,1/2+z
_cell_length_a                   11.4341(13)
_cell_length_b                   12.5791(14)
_cell_length_c                   14.7759(14)
_cell_angle_alpha                90
_cell_angle_beta                 90
_cell_angle_gamma                90
_cell_volume                     2125.23
_exptl_crystal_colour            colorless
_exptl_crystal_description       prism
_cell_formula_units_Z            2
loop_
_atom_site_label
_atom_site_type_symbol
_atom_site_fract_x
_atom_site_fract_y
_atom_site_fract_z
N4 N -0.2584(12) 0.6972(11) 0.0000
C12 C 0.0265(8) 0.6071(6) 0.000000(10)
C13 C -0.0909(6) 0.5725(5) 0.0000
C14 C -0.1148(6) 0.4641(6) 0.000000(10)
C15 C -0.1809(9) 0.6394(8) 0.0000
H5 H 0.0423 0.6797 0.0000
H6 H -0.1917 0.4401 0.0000
N4A N 0.2584(12) 0.3028(11) 0.0000
C12A C -0.0265(8) 0.3929(6) 0.000000(10)
C13A C 0.0909(6) 0.4275(5) 0.0000
C14A C 0.1148(6) 0.5359(6) 0.000000(10)
C15A C 0.1809(9) 0.3606(8) 0.0000
H5A H -0.0423 0.3203 0.0000
H6A H 0.1917 0.5599 0.0000
Zn1 Zn 0.5000 0.5000 -0.2500
N1 N 0.3103(2) 0.5000 -0.2500
N2 N 0.49899(13) 0.62019(18) -0.14765(16)
N3 N 0.0892(3) 1.1408(2) -0.1447(2)
C1 C 0.0649(2) 0.5000 -0.2500
C2 C 0.12814(18) 0.59222(17) -0.26813(17)
C3 C 0.24978(19) 0.58832(18) -0.26799(17)
C4 C 0.46158(17) 0.65101(16) -0.08035(14)
C5 C 0.4148(2) 0.6894(2) 0.0000
C6 C 0.3236(2) 0.7700(2) 0.0000
C7 C 0.2793(2) 0.8111(2) -0.08133(16)
C8 C 0.1986(2) 0.8934(2) -0.08143(19)
C9 C 0.1583(3) 0.9352(2) 0.0000
C10 C 0.0660(3) 1.0236(2) 0.0000
C11 C 0.0786(2) 1.0907(2) -0.0810(2)
H1 H 0.3033 0.7821 -0.1361
H2 H 0.1714 0.9209 -0.1359
H3 H 0.0894 0.6556 -0.2804
H4 H 0.2907 0.6504 -0.2808
Zn1_2 Zn -0.5000 0.5000 -0.2500
Zn1D Zn 0.5000 0.5000 0.2500
Zn1_3 Zn -0.5000 1.5000 -0.2500
Zn1D_2 Zn -0.5000 1.5000 0.2500
N1A N -0.3103(2) 0.5000 -0.2500
N1A_2 N 0.6897(2) 0.5000 -0.2500
N2E N 0.49899(13) 0.62019(18) 0.14765(16)
N2A N -0.49899(13) 1.37981(18) -0.14765(16)
N2D N -0.49899(13) 1.37981(18) 0.14765(16)
N2A_2 N 0.50101(13) 0.37981(18) -0.14765(16)
N2B N 0.49899(13) 0.37981(18) -0.35235(16)
N2C N 0.50101(13) 0.62019(18) -0.35235(16)
N3A N -0.0892(3) 0.8592(2) -0.1447(2)
N3D N -0.0892(3) 0.8592(2) 0.1447(2)
N3E N 0.0892(3) 1.1408(2) 0.1447(2)
C1A C -0.0649(2) 0.5000 -0.2500
C2A C -0.12814(18) 0.40778(17) -0.26813(17)
C2C C -0.12814(18) 0.59222(17) -0.23187(17)
C2B C 0.12814(18) 0.40778(17) -0.23187(17)
C3A C -0.24978(19) 0.41168(18) -0.26799(17)
C3C C -0.24978(19) 0.58832(18) -0.23201(17)
C3B C 0.24978(19) 0.41168(18) -0.23201(17)
C4E C 0.46158(17) 0.65101(16) 0.08035(14)
C4A C -0.46158(17) 1.34899(16) -0.08035(14)
C4D C -0.46158(17) 1.34899(16) 0.08035(14)
C5A C -0.4148(2) 1.3106(2) 0.0000
C6A C -0.3236(2) 1.2300(2) 0.0000
C7E C 0.2793(2) 0.8111(2) 0.08133(16)
C7A C -0.2793(2) 1.1889(2) -0.08133(16)
C7D C -0.2793(2) 1.1889(2) 0.08133(16)
C8E C 0.1986(2) 0.8934(2) 0.08143(19)
C8A C -0.1986(2) 1.1066(2) -0.08143(19)
C8D C -0.1986(2) 1.1066(2) 0.08143(19)
C9A C -0.1583(3) 1.0648(2) 0.0000
C10A C -0.0660(3) 0.9764(2) 0.0000
C11A C -0.0786(2) 0.9093(2) -0.0810(2)
C11D C -0.0786(2) 0.9093(2) 0.0810(2)
C11E C 0.0786(2) 1.0907(2) 0.0810(2)
H1E H 0.3033 0.7821 0.1361
H1D H -0.3033 1.2179 0.1361
H1A H -0.3033 1.2179 -0.1361
H2E H 0.1714 0.9209 0.1359
H2D H -0.1714 1.0791 0.1359
H2A H -0.1714 1.0791 -0.1359
H3C H -0.0894 0.6556 -0.2196
H3A H -0.0894 0.3444 -0.2804
H3B H 0.0894 0.3444 -0.2196
H4C H -0.2907 0.6504 -0.2192
H4A H -0.2907 0.3496 -0.2808
H4B H 0.2907 0.3496 -0.2192
loop_
_geom_bond_atom_site_label_1
_geom_bond_atom_site_label_2
_geom_bond_site_symmetry_1
_geom_bond_site_symmetry_2
Zn1 N1 1_555 1_555
N1 C3 1_555 1_555
N2 Zn1 1_555 1_555
N3 C11 1_555 1_555
N4 C15 1_555 1_555
C1 C2 1_555 1_555
C2 C3 1_555 1_555
C3 H4 1_555 1_555
C4 N2 1_555 1_555
C5 C4 1_555 1_555
C6 C5 1_555 1_555
C7 C6 1_555 1_555
C8 C7 1_555 1_555
C9 C8 1_555 1_555
C10 C9 1_555 1_555
C11 C10 1_555 1_555
C12 C13 1_555 1_555
C13 C14 1_555 1_555
C14 H6 1_555 1_555
C15 C13 1_555 1_555
H1 C7 1_555 1_555
H2 C8 1_555 1_555
H3 C2 1_555 1_555
H5 C12 1_555 1_555
Zn1_2 N1A 1_555 1_555
Zn1D N2E 1_555 1_555
Zn1_3 N2A 1_555 1_555
Zn1D_2 N2D 1_555 1_555
N1A C3A 1_555 1_555
N1A_2 Zn1 1_555 1_555
N2E C4E 1_555 1_555
N2A C4A 1_555 1_555
N2D C4D 1_555 1_555
N2A_2 Zn1 1_555 1_555
N2B Zn1 1_555 1_555
N2C Zn1 1_555 1_555
N3A C11A 1_555 1_555
N3D C11D 1_555 1_555
N3E C11E 1_555 1_555
N4A C15A 1_555 1_555
C1A C1 1_555 1_555
C2A C1A 1_555 1_555
C2C C1A 1_555 1_555
C2B C1 1_555 1_555
C3A C2A 1_555 1_555
C3C N1A 1_555 1_555
C3B N1 1_555 1_555
C4E C5 1_555 1_555
C4A C5A 1_555 1_555
C4D C5A 1_555 1_555
C5A C6A 1_555 1_555
C6A C7A 1_555 1_555
C7E C6 1_555 1_555
C7A C8A 1_555 1_555
C7D C6A 1_555 1_555
C8E C9 1_555 1_555
C8A C9A 1_555 1_555
C8D C7D 1_555 1_555
C9A C8D 1_555 1_555
C10A C10 1_555 1_555
C11A C10A 1_555 1_555
C11D C10A 1_555 1_555
C11E C10 1_555 1_555
C12A C14 1_555 1_555
C13A C12A 1_555 1_555
C14A C12 1_555 1_555
C15A C13A 1_555 1_555
H1E C7E 1_555 1_555
H1D C7D 1_555 1_555
H1A C7A 1_555 1_555
H2E C8E 1_555 1_555
H2D C8D 1_555 1_555
H2A C8A 1_555 1_555
H3C C2C 1_555 1_555
H3A C2A 1_555 1_555
H3B C2B 1_555 1_555
H4C C3C 1_555 1_555
H4A C3A 1_555 1_555
H4B C3B 1_555 1_555
H5A C12A 1_555 1_555
H6A C14A 1_555 1_555
C2C C3C 1_555 1_555
C2B C3B 1_555 1_555
C7E C8E 1_555 1_555
C9A C10A 1_555 1_555
C13A C14A 1_555 1_555

#END
