
#######################################################################
#
#                 Cambridge Crystallographic Data Centre
#                                CCDC 
#
#######################################################################
#
# If this CIF has been generated from an entry in the Cambridge 
# Structural Database, then it will include bibliographic, chemical, 
# crystal, experimental, refinement or atomic coordinate data resulting 
# from the CCDC's data processing and validation procedures.
#
#######################################################################

data_QAHDUA
_chemical_name_common            UMCM-1-(OBnNO2)2
_chemical_formula_moiety         '(C174 H102 N6 O57 Zn12)n'
_chemical_name_systematic        
catena-(tetrakis(\m~6~-4,4',4''-(Benzene-1,3,5-triyl)tribenzoato)-tris(\m~4~-2,3-bis(2-nitrobenzyloxy)terephthalato)-tris(\m~4~-oxo)-dodeca-zinc)
_symmetry_cell_setting           hexagonal
_symmetry_space_group_name_H-M   'P 63/m'
_symmetry_Int_Tables_number      176
_space_group_name_Hall           '-P 6c'
loop_
_symmetry_equiv_pos_site_id
_symmetry_equiv_pos_as_xyz
1 x,y,z
2 -y,x-y,z
3 -x+y,-x,z
4 -x,-y,1/2+z
5 y,-x+y,1/2+z
6 x-y,x,1/2+z
7 -x,-y,-z
8 y,-x+y,-z
9 x-y,x,-z
10 x,y,1/2-z
11 -y,x-y,1/2-z
12 -x+y,-x,1/2-z
_cell_length_a                   41.288(2)
_cell_length_b                   41.288(2)
_cell_length_c                   17.5402(9)
_cell_angle_alpha                90
_cell_angle_beta                 90
_cell_angle_gamma                120
_cell_volume                     25894.8
_exptl_crystal_colour            colorless
_exptl_crystal_description       needle
_cell_formula_units_Z            2
loop_
_atom_site_label
_atom_site_type_symbol
_atom_site_fract_x
_atom_site_fract_y
_atom_site_fract_z
Zn1 Zn 0.371922(10) 0.400829(10) 0.339522(19)
Zn2 Zn 0.320636(13) 0.425198(14) 0.2500
Zn3 Zn 0.408339(14) 0.477832(15) 0.2500
O1 O 0.36846(7) 0.42670(7) 0.2500
O2 O 0.29345(6) 0.40343(7) 0.15747(12)
O3 O 0.33008(7) 0.38716(8) 0.09355(12)
O4 O 0.01710(8) 0.37344(7) -0.31352(12)
O5 O 0.41707(8) 0.43327(9) 0.39620(16)
O6 O 0.43983(7) 0.48791(9) 0.33840(18)
O7 O 0.38963(11) 0.51209(10) 0.2500
O8 O 0.32935(10) 0.47526(10) 0.2500
O10 O 0.5063(4) 0.5495(4) 0.3585(7)
C1 C 0.30262(9) 0.39241(10) 0.09961(19)
C2 C 0.28082(9) 0.38738(11) 0.02766(18)
C3 C 0.28678(12) 0.37039(14) -0.0354(2)
C4 C 0.26682(14) 0.36715(17) -0.1033(2)
C5 C 0.24268(10) 0.38030(14) -0.10756(19)
C6 C 0.23655(12) 0.39614(17) -0.0436(2)
C7 C 0.25451(11) 0.39862(15) 0.0238(2)
C8 C 0.22318(11) 0.37755(16) -0.18095(19)
C9 C 0.23994(15) 0.3776(2) -0.2500
C10 C 0.18839(11) 0.37533(15) -0.17980(19)
C11 C 0.17087(15) 0.3747(2) -0.2500
C12 C 0.13424(14) 0.3730(2) -0.2500
C15 C 0.1107(2) 0.3579(2) -0.1879(4)
C16 C 0.0774(2) 0.3601(2) -0.1869(4)
C17 C 0.06619(12) 0.37285(15) -0.2500
C18 C 0.35736(15) 0.50678(15) 0.2500
C19 C 0.35319(13) 0.54008(10) 0.2500
C20 C 0.32251(12) 0.53734(10) 0.28859(19)
C21 C 0.31823(11) 0.56853(14) 0.2956(3)
C22 C 0.34463(14) 0.60246(11) 0.2639(3)
C23 C 0.37531(12) 0.60521(9) 0.2253(3)
C24 C 0.37959(11) 0.57402(12) 0.21836(19)
C25 C 0.33820(15) 0.63564(15) 0.2500
C26 C 0.36833(16) 0.67092(15) 0.2500
C27 C 0.43980(13) 0.46676(17) 0.3894(3)
C28 C 0.47180(13) 0.48443(15) 0.4476(3)
C29 C 0.4741(3) 0.4664(3) 0.4985(6)
C37 C 0.4973(3) 0.5187(3) 0.4387(6)
C38 C 0.4872(6) 0.5720(6) 0.3753(13)
C39 C 0.4834(4) 0.5910(4) 0.3189(10)
C40 C 0.4907(4) 0.5800(4) 0.2500
C41 C 0.4806(6) 0.6232(6) 0.3240(12)
C42 C 0.4874(6) 0.6361(6) 0.2500
C43 C 0.03139(12) 0.37381(13) -0.2500
Zn1I Zn 0.371922(10) 0.400829(10) 0.160478(19)
Zn1H Zn -0.028907(14) 0.371922(10) -0.339522(19)
Zn1E Zn -0.028907(14) 0.371922(10) -0.160478(19)
Zn1E_2 Zn -0.028907(14) 0.371922(10) 0.839522(19)
Zn1H_2 Zn -0.028907(14) 0.371922(10) 0.660478(19)
Zn1D Zn 0.400829(10) 0.028907(14) -0.160478(19)
Zn1G Zn 0.400829(10) 0.028907(14) 0.660478(19)
Zn1_2 Zn 0.371922(10) 0.400829(10) -0.660478(19)
Zn1I_2 Zn 0.371922(10) 0.400829(10) 1.160478(19)
Zn1J Zn -0.400829(10) -0.028907(14) -0.839522(19)
Zn1A Zn -0.400829(10) -0.028907(14) -0.660478(19)
Zn1A_2 Zn -0.400829(10) -0.028907(14) 0.339522(19)
Zn1J_2 Zn -0.400829(10) -0.028907(14) 0.160478(19)
Zn1A_3 Zn -0.400829(10) -0.028907(14) 1.339522(19)
Zn1J_3 Zn -0.400829(10) -0.028907(14) 1.160478(19)
Zn1G_2 Zn 0.400829(10) 0.028907(14) -0.339522(19)
Zn1D_2 Zn 0.400829(10) 0.028907(14) 0.839522(19)
Zn1I_3 Zn 0.371922(10) 0.400829(10) -0.839522(19)
Zn1_3 Zn 0.371922(10) 0.400829(10) 1.339522(19)
Zn1B Zn 0.028907(14) -0.371922(10) -0.660478(19)
Zn1K Zn 0.028907(14) -0.371922(10) 1.160478(19)
Zn1D_3 Zn 0.400829(10) 0.028907(14) -1.160478(19)
Zn1G_3 Zn 0.400829(10) 0.028907(14) 1.660478(19)
Zn1H_3 Zn -0.028907(14) 0.371922(10) -1.339522(19)
Zn1E_3 Zn -0.028907(14) 0.371922(10) -1.160478(19)
Zn1E_4 Zn -0.028907(14) 0.371922(10) 1.839522(19)
Zn1H_4 Zn -0.028907(14) 0.371922(10) 1.660478(19)
Zn1K_2 Zn 0.028907(14) -0.371922(10) -0.839522(19)
Zn1B_2 Zn 0.028907(14) -0.371922(10) 1.339522(19)
Zn1G_4 Zn 0.400829(10) 0.028907(14) -1.339522(19)
Zn1D_4 Zn 0.400829(10) 0.028907(14) 1.839522(19)
Zn2D Zn 0.425198(14) 0.104562(19) -0.2500
Zn2D_2 Zn 0.425198(14) 0.104562(19) 0.7500
Zn2E Zn -0.104562(19) 0.320636(13) -0.2500
Zn2_2 Zn 0.320636(13) 0.425198(14) -0.7500
Zn2E_2 Zn -0.104562(19) 0.320636(13) 0.7500
Zn2_3 Zn 0.320636(13) 0.425198(14) 1.2500
Zn2B Zn 0.104562(19) -0.320636(13) -0.7500
Zn2B_2 Zn 0.104562(19) -0.320636(13) 1.2500
Zn2D_3 Zn 0.425198(14) 0.104562(19) -1.2500
Zn2D_4 Zn 0.425198(14) 0.104562(19) 1.7500
Zn2A Zn -0.425198(14) -0.104562(19) -0.7500
Zn2A_2 Zn -0.425198(14) -0.104562(19) 0.2500
Zn2A_3 Zn -0.425198(14) -0.104562(19) 1.2500
Zn2E_3 Zn -0.104562(19) 0.320636(13) -1.2500
Zn2E_4 Zn -0.104562(19) 0.320636(13) 1.7500
Zn3E Zn -0.069493(21) 0.408339(14) -0.2500
Zn3E_2 Zn -0.069493(21) 0.408339(14) 0.7500
Zn3D Zn 0.477832(15) 0.069493(21) -0.2500
Zn3D_2 Zn 0.477832(15) 0.069493(21) 0.7500
Zn3_2 Zn 0.408339(14) 0.477832(15) -0.7500
Zn3_3 Zn 0.408339(14) 0.477832(15) 1.2500
Zn3A Zn -0.477832(15) -0.069493(21) -0.7500
Zn3A_2 Zn -0.477832(15) -0.069493(21) 0.2500
Zn3A_3 Zn -0.477832(15) -0.069493(21) 1.2500
Zn3B Zn 0.069493(21) -0.408339(14) -0.7500
Zn3B_2 Zn 0.069493(21) -0.408339(14) 1.2500
Zn3D_3 Zn 0.477832(15) 0.069493(21) -1.2500
Zn3D_4 Zn 0.477832(15) 0.069493(21) 1.7500
Zn3E_3 Zn -0.069493(21) 0.408339(14) -1.2500
Zn3E_4 Zn -0.069493(21) 0.408339(14) 1.7500
O1E O -0.05824(10) 0.36846(7) -0.2500
O1E_2 O -0.05824(10) 0.36846(7) 0.7500
O1D O 0.42670(7) 0.05824(10) -0.2500
O1D_2 O 0.42670(7) 0.05824(10) 0.7500
O1_2 O 0.36846(7) 0.42670(7) -0.7500
O1_3 O 0.36846(7) 0.42670(7) 1.2500
O1A O -0.42670(7) -0.05824(10) -0.7500
O1A_2 O -0.42670(7) -0.05824(10) 0.2500
O1A_3 O -0.42670(7) -0.05824(10) 1.2500
O1B O 0.05824(10) -0.36846(7) -0.7500
O1B_2 O 0.05824(10) -0.36846(7) 1.2500
O1D_3 O 0.42670(7) 0.05824(10) -1.2500
O1D_4 O 0.42670(7) 0.05824(10) 1.7500
O1E_3 O -0.05824(10) 0.36846(7) -1.2500
O1E_4 O -0.05824(10) 0.36846(7) 1.7500
O2I O 0.29345(6) 0.40343(7) 0.34253(12)
O2G O 0.40343(7) 0.10998(9) -0.15747(12)
O2D O 0.40343(7) 0.10998(9) 0.65747(12)
O2E O -0.10998(9) 0.29345(6) -0.34253(12)
O2H O -0.10998(9) 0.29345(6) -0.15747(12)
O2I_2 O 0.29345(6) 0.40343(7) -0.65747(12)
O2H_2 O -0.10998(9) 0.29345(6) 0.84253(12)
O2E_2 O -0.10998(9) 0.29345(6) 0.65747(12)
O2_2 O 0.29345(6) 0.40343(7) 1.15747(12)
O2D_2 O 0.40343(7) 0.10998(9) -0.34253(12)
O2G_2 O 0.40343(7) 0.10998(9) 0.84253(12)
O2_3 O 0.29345(6) 0.40343(7) -0.84253(12)
O2I_3 O 0.29345(6) 0.40343(7) 1.34253(12)
O2K O 0.10998(9) -0.29345(6) -0.65747(12)
O2B O 0.10998(9) -0.29345(6) 1.15747(12)
O2G_3 O 0.40343(7) 0.10998(9) -1.15747(12)
O2D_3 O 0.40343(7) 0.10998(9) 1.65747(12)
O2B_2 O 0.10998(9) -0.29345(6) -0.84253(12)
O2K_2 O 0.10998(9) -0.29345(6) 1.34253(12)
O2D_4 O 0.40343(7) 0.10998(9) -1.34253(12)
O2G_4 O 0.40343(7) 0.10998(9) 1.84253(12)
O2J O -0.40343(7) -0.10998(9) -0.65747(12)
O2A O -0.40343(7) -0.10998(9) -0.84253(12)
O2A_2 O -0.40343(7) -0.10998(9) 0.15747(12)
O2J_2 O -0.40343(7) -0.10998(9) 0.34253(12)
O2A_3 O -0.40343(7) -0.10998(9) 1.15747(12)
O2J_3 O -0.40343(7) -0.10998(9) 1.34253(12)
O2H_3 O -0.10998(9) 0.29345(6) -1.15747(12)
O2E_3 O -0.10998(9) 0.29345(6) -1.34253(12)
O2E_4 O -0.10998(9) 0.29345(6) 1.65747(12)
O2H_4 O -0.10998(9) 0.29345(6) 1.84253(12)
O3I O 0.33008(7) 0.38716(8) 0.40645(12)
O3G O 0.38716(8) 0.05708(11) -0.09355(12)
O3D O 0.38716(8) 0.05708(11) 0.59355(12)
O3E O -0.05708(11) 0.33008(7) -0.40645(12)
O3H O -0.05708(11) 0.33008(7) -0.09355(12)
O3I_2 O 0.33008(7) 0.38716(8) -0.59355(12)
O3H_2 O -0.05708(11) 0.33008(7) 0.90645(12)
O3E_2 O -0.05708(11) 0.33008(7) 0.59355(12)
O3_2 O 0.33008(7) 0.38716(8) 1.09355(12)
O3D_2 O 0.38716(8) 0.05708(11) -0.40645(12)
O3G_2 O 0.38716(8) 0.05708(11) 0.90645(12)
O3_3 O 0.33008(7) 0.38716(8) -0.90645(12)
O3I_3 O 0.33008(7) 0.38716(8) 1.40645(12)
O3K O 0.05708(11) -0.33008(7) -0.59355(12)
O3B O 0.05708(11) -0.33008(7) 1.09355(12)
O3G_3 O 0.38716(8) 0.05708(11) -1.09355(12)
O3D_3 O 0.38716(8) 0.05708(11) 1.59355(12)
O3A O -0.38716(8) -0.05708(11) -0.90645(12)
O3J O -0.38716(8) -0.05708(11) -0.59355(12)
O3J_2 O -0.38716(8) -0.05708(11) 0.40645(12)
O3A_2 O -0.38716(8) -0.05708(11) 0.09355(12)
O3J_3 O -0.38716(8) -0.05708(11) 1.40645(12)
O3A_3 O -0.38716(8) -0.05708(11) 1.09355(12)
O3E_3 O -0.05708(11) 0.33008(7) -1.40645(12)
O3H_3 O -0.05708(11) 0.33008(7) -1.09355(12)
O3H_4 O -0.05708(11) 0.33008(7) 1.90645(12)
O3E_4 O -0.05708(11) 0.33008(7) 1.59355(12)
O3B_2 O 0.05708(11) -0.33008(7) -0.90645(12)
O3K_2 O 0.05708(11) -0.33008(7) 1.40645(12)
O3D_4 O 0.38716(8) 0.05708(11) -1.40645(12)
O3G_4 O 0.38716(8) 0.05708(11) 1.90645(12)
O4I O 0.01710(8) 0.37344(7) -0.18648(12)
O4I_2 O 0.01710(8) 0.37344(7) 0.81352(12)
O4_2 O 0.01710(8) 0.37344(7) 0.68648(12)
O4G O 0.37344(7) 0.35634(11) 0.31352(12)
O4D O 0.37344(7) 0.35634(11) 0.18648(12)
O4E O -0.35634(11) 0.01710(8) -0.81352(12)
O4H O -0.35634(11) 0.01710(8) -0.68648(12)
O4H_2 O -0.35634(11) 0.01710(8) 0.31352(12)
O4E_2 O -0.35634(11) 0.01710(8) 0.18648(12)
O4H_3 O -0.35634(11) 0.01710(8) 1.31352(12)
O4E_3 O -0.35634(11) 0.01710(8) 1.18648(12)
O4D_2 O 0.37344(7) 0.35634(11) -0.81352(12)
O4G_2 O 0.37344(7) 0.35634(11) -0.68648(12)
O4G_3 O 0.37344(7) 0.35634(11) 1.31352(12)
O4D_3 O 0.37344(7) 0.35634(11) 1.18648(12)
O4_3 O 0.01710(8) 0.37344(7) -1.31352(12)
O4I_3 O 0.01710(8) 0.37344(7) -1.18648(12)
O4I_4 O 0.01710(8) 0.37344(7) 1.81352(12)
O4_4 O 0.01710(8) 0.37344(7) 1.68648(12)
O4K O 0.35634(11) -0.01710(8) -0.18648(12)
O4B O 0.35634(11) -0.01710(8) -0.31352(12)
O4B_2 O 0.35634(11) -0.01710(8) 0.68648(12)
O4K_2 O 0.35634(11) -0.01710(8) 0.81352(12)
O4F O -0.01710(8) -0.37344(7) -0.68648(12)
O4C O -0.01710(8) -0.37344(7) 1.18648(12)
O4K_3 O 0.35634(11) -0.01710(8) -1.18648(12)
O4B_3 O 0.35634(11) -0.01710(8) 1.68648(12)
O4C_2 O -0.01710(8) -0.37344(7) -0.81352(12)
O4F_2 O -0.01710(8) -0.37344(7) 1.31352(12)
O4B_4 O 0.35634(11) -0.01710(8) -1.31352(12)
O4K_4 O 0.35634(11) -0.01710(8) 1.81352(12)
O5I O 0.41707(8) 0.43327(9) 0.10380(16)
O5H O -0.01620(12) 0.41707(8) -0.39620(16)
O5E O -0.01620(12) 0.41707(8) -0.10380(16)
O5E_2 O -0.01620(12) 0.41707(8) 0.89620(16)
O5H_2 O -0.01620(12) 0.41707(8) 0.60380(16)
O5D O 0.43327(9) 0.01620(12) -0.10380(16)
O5G O 0.43327(9) 0.01620(12) 0.60380(16)
O5_2 O 0.41707(8) 0.43327(9) -0.60380(16)
O5I_2 O 0.41707(8) 0.43327(9) 1.10380(16)
O5J O -0.43327(9) -0.01620(12) -0.89620(16)
O5A O -0.43327(9) -0.01620(12) -0.60380(16)
O5A_2 O -0.43327(9) -0.01620(12) 0.39620(16)
O5J_2 O -0.43327(9) -0.01620(12) 0.10380(16)
O5A_3 O -0.43327(9) -0.01620(12) 1.39620(16)
O5J_3 O -0.43327(9) -0.01620(12) 1.10380(16)
O5G_2 O 0.43327(9) 0.01620(12) -0.39620(16)
O5D_2 O 0.43327(9) 0.01620(12) 0.89620(16)
O5I_3 O 0.41707(8) 0.43327(9) -0.89620(16)
O5_3 O 0.41707(8) 0.43327(9) 1.39620(16)
O5B O 0.01620(12) -0.41707(8) -0.60380(16)
O5K O 0.01620(12) -0.41707(8) 1.10380(16)
O5D_3 O 0.43327(9) 0.01620(12) -1.10380(16)
O5G_3 O 0.43327(9) 0.01620(12) 1.60380(16)
O5H_3 O -0.01620(12) 0.41707(8) -1.39620(16)
O5E_3 O -0.01620(12) 0.41707(8) -1.10380(16)
O5E_4 O -0.01620(12) 0.41707(8) 1.89620(16)
O5H_4 O -0.01620(12) 0.41707(8) 1.60380(16)
O5K_2 O 0.01620(12) -0.41707(8) -0.89620(16)
O5B_2 O 0.01620(12) -0.41707(8) 1.39620(16)
O5G_4 O 0.43327(9) 0.01620(12) -1.39620(16)
O5D_4 O 0.43327(9) 0.01620(12) 1.89620(16)
O6I O 0.43983(7) 0.48791(9) 0.16160(18)
O6H O -0.04808(11) 0.43983(7) -0.33840(18)
O6E O -0.04808(11) 0.43983(7) -0.16160(18)
O6E_2 O -0.04808(11) 0.43983(7) 0.83840(18)
O6H_2 O -0.04808(11) 0.43983(7) 0.66160(18)
O6G O 0.48791(9) 0.04808(11) -0.33840(18)
O6D O 0.48791(9) 0.04808(11) -0.16160(18)
O6D_2 O 0.48791(9) 0.04808(11) 0.83840(18)
O6G_2 O 0.48791(9) 0.04808(11) 0.66160(18)
O6I_2 O 0.43983(7) 0.48791(9) -0.83840(18)
O6_2 O 0.43983(7) 0.48791(9) -0.66160(18)
O6_3 O 0.43983(7) 0.48791(9) 1.33840(18)
O6I_3 O 0.43983(7) 0.48791(9) 1.16160(18)
O6J O -0.48791(9) -0.04808(11) -0.83840(18)
O6A O -0.48791(9) -0.04808(11) -0.66160(18)
O6A_2 O -0.48791(9) -0.04808(11) 0.33840(18)
O6J_2 O -0.48791(9) -0.04808(11) 0.16160(18)
O6A_3 O -0.48791(9) -0.04808(11) 1.33840(18)
O6J_3 O -0.48791(9) -0.04808(11) 1.16160(18)
O6K O 0.04808(11) -0.43983(7) -0.83840(18)
O6B O 0.04808(11) -0.43983(7) -0.66160(18)
O6B_2 O 0.04808(11) -0.43983(7) 1.33840(18)
O6K_2 O 0.04808(11) -0.43983(7) 1.16160(18)
O6G_3 O 0.48791(9) 0.04808(11) -1.33840(18)
O6D_3 O 0.48791(9) 0.04808(11) -1.16160(18)
O6D_4 O 0.48791(9) 0.04808(11) 1.83840(18)
O6G_4 O 0.48791(9) 0.04808(11) 1.66160(18)
O6H_3 O -0.04808(11) 0.43983(7) -1.33840(18)
O6E_3 O -0.04808(11) 0.43983(7) -1.16160(18)
O6E_4 O -0.04808(11) 0.43983(7) 1.83840(18)
O6H_4 O -0.04808(11) 0.43983(7) 1.66160(18)
O7D O 0.51209(10) 0.12246(15) -0.2500
O7D_2 O 0.51209(10) 0.12246(15) 0.7500
O7E O -0.12246(15) 0.38963(11) -0.2500
O7_2 O 0.38963(11) 0.51209(10) -0.7500
O7E_2 O -0.12246(15) 0.38963(11) 0.7500
O7_3 O 0.38963(11) 0.51209(10) 1.2500
O7A O -0.51209(10) -0.12246(15) -0.7500
O7A_2 O -0.51209(10) -0.12246(15) 0.2500
O7A_3 O -0.51209(10) -0.12246(15) 1.2500
O7B O 0.12246(15) -0.38963(11) -0.7500
O7B_2 O 0.12246(15) -0.38963(11) 1.2500
O7D_3 O 0.51209(10) 0.12246(15) -1.2500
O7D_4 O 0.51209(10) 0.12246(15) 1.7500
O7E_3 O -0.12246(15) 0.38963(11) -1.2500
O7E_4 O -0.12246(15) 0.38963(11) 1.7500
O8D O 0.47526(10) 0.14591(14) -0.2500
O8D_2 O 0.47526(10) 0.14591(14) 0.7500
O8E O -0.14591(14) 0.32935(10) -0.2500
O8_2 O 0.32935(10) 0.47526(10) -0.7500
O8E_2 O -0.14591(14) 0.32935(10) 0.7500
O8_3 O 0.32935(10) 0.47526(10) 1.2500
O8B O 0.14591(14) -0.32935(10) -0.7500
O8B_2 O 0.14591(14) -0.32935(10) 1.2500
O8D_3 O 0.47526(10) 0.14591(14) -1.2500
O8D_4 O 0.47526(10) 0.14591(14) 1.7500
O8A O -0.47526(10) -0.14591(14) -0.7500
O8A_2 O -0.47526(10) -0.14591(14) 0.2500
O8A_3 O -0.47526(10) -0.14591(14) 1.2500
O8E_3 O -0.14591(14) 0.32935(10) -1.2500
O8E_4 O -0.14591(14) 0.32935(10) 1.7500
O10F O 0.4937(4) 0.4505(4) 0.6415(7)
C1I C 0.30262(9) 0.39241(10) 0.40039(19)
C1G C 0.39241(10) 0.08979(13) -0.09961(19)
C1D C 0.39241(10) 0.08979(13) 0.59961(19)
C1E C -0.08979(13) 0.30262(9) -0.40039(19)
C1H C -0.08979(13) 0.30262(9) -0.09961(19)
C1I_2 C 0.30262(9) 0.39241(10) -0.59961(19)
C1H_2 C -0.08979(13) 0.30262(9) 0.90039(19)
C1E_2 C -0.08979(13) 0.30262(9) 0.59961(19)
C1_2 C 0.30262(9) 0.39241(10) 1.09961(19)
C1D_2 C 0.39241(10) 0.08979(13) -0.40039(19)
C1G_2 C 0.39241(10) 0.08979(13) 0.90039(19)
C1_3 C 0.30262(9) 0.39241(10) -0.90039(19)
C1I_3 C 0.30262(9) 0.39241(10) 1.40039(19)
C1K C 0.08979(13) -0.30262(9) -0.59961(19)
C1B C 0.08979(13) -0.30262(9) 1.09961(19)
C1G_3 C 0.39241(10) 0.08979(13) -1.09961(19)
C1D_3 C 0.39241(10) 0.08979(13) 1.59961(19)
C2I C 0.28082(9) 0.38738(11) 0.47234(18)
C2G C 0.38738(11) 0.10656(14) -0.02766(18)
C2D C 0.38738(11) 0.10656(14) 0.52766(18)
C2E C -0.10656(14) 0.28082(9) -0.47234(18)
C2H C -0.10656(14) 0.28082(9) -0.02766(18)
C2I_2 C 0.28082(9) 0.38738(11) -0.52766(18)
C2H_2 C -0.10656(14) 0.28082(9) 0.97234(18)
C2E_2 C -0.10656(14) 0.28082(9) 0.52766(18)
C2_2 C 0.28082(9) 0.38738(11) 1.02766(18)
C2D_2 C 0.38738(11) 0.10656(14) -0.47234(18)
C2G_2 C 0.38738(11) 0.10656(14) 0.97234(18)
C2_3 C 0.28082(9) 0.38738(11) -0.97234(18)
C2I_3 C 0.28082(9) 0.38738(11) 1.47234(18)
C2K C 0.10656(14) -0.28082(9) -0.52766(18)
C2B C 0.10656(14) -0.28082(9) 1.02766(18)
C2G_3 C 0.38738(11) 0.10656(14) -1.02766(18)
C2D_3 C 0.38738(11) 0.10656(14) 1.52766(18)
C3I C 0.28678(12) 0.37039(14) 0.5354(2)
C3G C 0.37039(14) 0.08361(18) 0.0354(2)
C3D C 0.37039(14) 0.08361(18) 0.4646(2)
C3E C -0.08361(18) 0.28678(12) -0.5354(2)
C3H C -0.08361(18) 0.28678(12) 0.0354(2)
C3I_2 C 0.28678(12) 0.37039(14) -0.4646(2)
C3H_2 C -0.08361(18) 0.28678(12) 1.0354(2)
C3E_2 C -0.08361(18) 0.28678(12) 0.4646(2)
C3_2 C 0.28678(12) 0.37039(14) 0.9646(2)
C3D_2 C 0.37039(14) 0.08361(18) -0.5354(2)
C3G_2 C 0.37039(14) 0.08361(18) 1.0354(2)
C3_3 C 0.28678(12) 0.37039(14) -1.0354(2)
C3I_3 C 0.28678(12) 0.37039(14) 1.5354(2)
C3K C 0.08361(18) -0.28678(12) -0.4646(2)
C3B C 0.08361(18) -0.28678(12) 0.9646(2)
C3G_3 C 0.37039(14) 0.08361(18) -0.9646(2)
C3D_3 C 0.37039(14) 0.08361(18) 1.4646(2)
C4I C 0.26682(14) 0.36715(17) 0.6033(2)
C4G C 0.36715(17) 0.10033(22) 0.1033(2)
C4D C 0.36715(17) 0.10033(22) 0.3967(2)
C4E C -0.10033(22) 0.26682(14) -0.6033(2)
C4H C -0.10033(22) 0.26682(14) 0.1033(2)
C4I_2 C 0.26682(14) 0.36715(17) -0.3967(2)
C4H_2 C -0.10033(22) 0.26682(14) 1.1033(2)
C4E_2 C -0.10033(22) 0.26682(14) 0.3967(2)
C4_2 C 0.26682(14) 0.36715(17) 0.8967(2)
C4D_2 C 0.36715(17) 0.10033(22) -0.6033(2)
C4G_2 C 0.36715(17) 0.10033(22) 1.1033(2)
C4_3 C 0.26682(14) 0.36715(17) -1.1033(2)
C4I_3 C 0.26682(14) 0.36715(17) 1.6033(2)
C4K C 0.10033(22) -0.26682(14) -0.3967(2)
C4B C 0.10033(22) -0.26682(14) 0.8967(2)
C4G_3 C 0.36715(17) 0.10033(22) -0.8967(2)
C4D_3 C 0.36715(17) 0.10033(22) 1.3967(2)
C5I C 0.24268(10) 0.38030(14) 0.60756(19)
C5G C 0.38030(14) 0.13762(17) 0.10756(19)
C5D C 0.38030(14) 0.13762(17) 0.39244(19)
C5E C -0.13762(17) 0.24268(10) -0.60756(19)
C5H C -0.13762(17) 0.24268(10) 0.10756(19)
C5I_2 C 0.24268(10) 0.38030(14) -0.39244(19)
C5H_2 C -0.13762(17) 0.24268(10) 1.10756(19)
C5E_2 C -0.13762(17) 0.24268(10) 0.39244(19)
C5_2 C 0.24268(10) 0.38030(14) 0.89244(19)
C5D_2 C 0.38030(14) 0.13762(17) -0.60756(19)
C5G_2 C 0.38030(14) 0.13762(17) 1.10756(19)
C5_3 C 0.24268(10) 0.38030(14) -1.10756(19)
C5I_3 C 0.24268(10) 0.38030(14) 1.60756(19)
C5K C 0.13762(17) -0.24268(10) -0.39244(19)
C5B C 0.13762(17) -0.24268(10) 0.89244(19)
C5G_3 C 0.38030(14) 0.13762(17) -0.89244(19)
C5D_3 C 0.38030(14) 0.13762(17) 1.39244(19)
C5H_3 C -0.13762(17) 0.24268(10) -0.89244(19)
C5E_3 C -0.13762(17) 0.24268(10) 1.39244(19)
C5I_4 C 0.24268(10) 0.38030(14) -1.39244(19)
C5_4 C 0.24268(10) 0.38030(14) 1.89244(19)
C5B_2 C 0.13762(17) -0.24268(10) -0.10756(19)
C5K_2 C 0.13762(17) -0.24268(10) 0.60756(19)
C6I C 0.23655(12) 0.39614(17) 0.5436(2)
C6G C 0.39614(17) 0.15959(21) 0.0436(2)
C6D C 0.39614(17) 0.15959(21) 0.4564(2)
C6E C -0.15959(21) 0.23655(12) -0.5436(2)
C6H C -0.15959(21) 0.23655(12) 0.0436(2)
C6I_2 C 0.23655(12) 0.39614(17) -0.4564(2)
C6H_2 C -0.15959(21) 0.23655(12) 1.0436(2)
C6E_2 C -0.15959(21) 0.23655(12) 0.4564(2)
C6_2 C 0.23655(12) 0.39614(17) 0.9564(2)
C6D_2 C 0.39614(17) 0.15959(21) -0.5436(2)
C6G_2 C 0.39614(17) 0.15959(21) 1.0436(2)
C6_3 C 0.23655(12) 0.39614(17) -1.0436(2)
C6I_3 C 0.23655(12) 0.39614(17) 1.5436(2)
C6K C 0.15959(21) -0.23655(12) -0.4564(2)
C6B C 0.15959(21) -0.23655(12) 0.9564(2)
C6G_3 C 0.39614(17) 0.15959(21) -0.9564(2)
C6D_3 C 0.39614(17) 0.15959(21) 1.4564(2)
C7I C 0.25451(11) 0.39862(15) 0.4762(2)
C7G C 0.39862(15) 0.14411(19) -0.0238(2)
C7D C 0.39862(15) 0.14411(19) 0.5238(2)
C7E C -0.14411(19) 0.25451(11) -0.4762(2)
C7H C -0.14411(19) 0.25451(11) -0.0238(2)
C7I_2 C 0.25451(11) 0.39862(15) -0.5238(2)
C7H_2 C -0.14411(19) 0.25451(11) 0.9762(2)
C7E_2 C -0.14411(19) 0.25451(11) 0.5238(2)
C7_2 C 0.25451(11) 0.39862(15) 1.0238(2)
C7D_2 C 0.39862(15) 0.14411(19) -0.4762(2)
C7G_2 C 0.39862(15) 0.14411(19) 0.9762(2)
C7_3 C 0.25451(11) 0.39862(15) -0.9762(2)
C7I_3 C 0.25451(11) 0.39862(15) 1.4762(2)
C7K C 0.14411(19) -0.25451(11) -0.5238(2)
C7B C 0.14411(19) -0.25451(11) 1.0238(2)
C7G_3 C 0.39862(15) 0.14411(19) -1.0238(2)
C7D_3 C 0.39862(15) 0.14411(19) 1.5238(2)
C8I C 0.22318(11) 0.37755(16) -0.31905(19)
C8I_2 C 0.22318(11) 0.37755(16) 0.68095(19)
C8_2 C 0.22318(11) 0.37755(16) 0.81905(19)
C8G C 0.37755(16) 0.15437(19) 0.18095(19)
C8D C 0.37755(16) 0.15437(19) 0.31905(19)
C8E C -0.15437(19) 0.22318(11) -0.68095(19)
C8H C -0.15437(19) 0.22318(11) -0.81905(19)
C8H_2 C -0.15437(19) 0.22318(11) 0.18095(19)
C8E_2 C -0.15437(19) 0.22318(11) 0.31905(19)
C8H_3 C -0.15437(19) 0.22318(11) 1.18095(19)
C8E_3 C -0.15437(19) 0.22318(11) 1.31905(19)
C8D_2 C 0.37755(16) 0.15437(19) -0.68095(19)
C8G_2 C 0.37755(16) 0.15437(19) -0.81905(19)
C8G_3 C 0.37755(16) 0.15437(19) 1.18095(19)
C8D_3 C 0.37755(16) 0.15437(19) 1.31905(19)
C8_3 C 0.22318(11) 0.37755(16) -1.18095(19)
C8I_3 C 0.22318(11) 0.37755(16) -1.31905(19)
C8I_4 C 0.22318(11) 0.37755(16) 1.68095(19)
C8_4 C 0.22318(11) 0.37755(16) 1.81905(19)
C8K C 0.15437(19) -0.22318(11) -0.31905(19)
C8B C 0.15437(19) -0.22318(11) -0.18095(19)
C8B_2 C 0.15437(19) -0.22318(11) 0.81905(19)
C8K_2 C 0.15437(19) -0.22318(11) 0.68095(19)
C9_2 C 0.23994(15) 0.3776(2) 0.7500
C9D C 0.3776(2) 0.13766(25) 0.2500
C9E C -0.13766(25) 0.23994(15) -0.7500
C9E_2 C -0.13766(25) 0.23994(15) 0.2500
C9E_3 C -0.13766(25) 0.23994(15) 1.2500
C9D_2 C 0.3776(2) 0.13766(25) -0.7500
C9D_3 C 0.3776(2) 0.13766(25) 1.2500
C9_3 C 0.23994(15) 0.3776(2) -1.2500
C9_4 C 0.23994(15) 0.3776(2) 1.7500
C9B C 0.13766(25) -0.23994(15) -0.2500
C9B_2 C 0.13766(25) -0.23994(15) 0.7500
C10I C 0.18839(11) 0.37533(15) -0.32020(19)
C10I_2 C 0.18839(11) 0.37533(15) 0.67980(19)
C10_2 C 0.18839(11) 0.37533(15) 0.82020(19)
C10G C 0.37533(15) 0.18694(19) 0.17980(19)
C10D C 0.37533(15) 0.18694(19) 0.32020(19)
C10E C -0.18694(19) 0.18839(11) -0.67980(19)
C10H C -0.18694(19) 0.18839(11) -0.82020(19)
C10H_2 C -0.18694(19) 0.18839(11) 0.17980(19)
C10E_2 C -0.18694(19) 0.18839(11) 0.32020(19)
C10H_3 C -0.18694(19) 0.18839(11) 1.17980(19)
C10E_3 C -0.18694(19) 0.18839(11) 1.32020(19)
C10D_2 C 0.37533(15) 0.18694(19) -0.67980(19)
C10G_2 C 0.37533(15) 0.18694(19) -0.82020(19)
C10G_3 C 0.37533(15) 0.18694(19) 1.17980(19)
C10D_3 C 0.37533(15) 0.18694(19) 1.32020(19)
C10_3 C 0.18839(11) 0.37533(15) -1.17980(19)
C10I_3 C 0.18839(11) 0.37533(15) -1.32020(19)
C10I_4 C 0.18839(11) 0.37533(15) 1.67980(19)
C10_4 C 0.18839(11) 0.37533(15) 1.82020(19)
C10K C 0.18694(19) -0.18839(11) -0.32020(19)
C10B C 0.18694(19) -0.18839(11) -0.17980(19)
C10B_2 C 0.18694(19) -0.18839(11) 0.82020(19)
C10K_2 C 0.18694(19) -0.18839(11) 0.67980(19)
C11_2 C 0.17087(15) 0.3747(2) 0.7500
C11D C 0.3747(2) 0.20383(25) 0.2500
C11E C -0.20383(25) 0.17087(15) -0.7500
C11E_2 C -0.20383(25) 0.17087(15) 0.2500
C11E_3 C -0.20383(25) 0.17087(15) 1.2500
C11D_2 C 0.3747(2) 0.20383(25) -0.7500
C11D_3 C 0.3747(2) 0.20383(25) 1.2500
C11_3 C 0.17087(15) 0.3747(2) -1.2500
C11_4 C 0.17087(15) 0.3747(2) 1.7500
C11B C 0.20383(25) -0.17087(15) -0.2500
C11B_2 C 0.20383(25) -0.17087(15) 0.7500
C12_2 C 0.13424(14) 0.3730(2) 0.7500
C12D C 0.3730(2) 0.23876(24) 0.2500
C12E C -0.23876(24) 0.13424(14) -0.7500
C12E_2 C -0.23876(24) 0.13424(14) 0.2500
C12E_3 C -0.23876(24) 0.13424(14) 1.2500
C12D_2 C 0.3730(2) 0.23876(24) -0.7500
C12D_3 C 0.3730(2) 0.23876(24) 1.2500
C12_3 C 0.13424(14) 0.3730(2) -1.2500
C12_4 C 0.13424(14) 0.3730(2) 1.7500
C12B C 0.23876(24) -0.13424(14) -0.2500
C12B_2 C 0.23876(24) -0.13424(14) 0.7500
C15I C 0.1107(2) 0.3579(2) -0.3121(4)
C15I_2 C 0.1107(2) 0.3579(2) 0.6879(4)
C15_2 C 0.1107(2) 0.3579(2) 0.8121(4)
C15G C 0.3579(2) 0.2472(3) 0.1879(4)
C15D C 0.3579(2) 0.2472(3) 0.3121(4)
C15E C -0.2472(3) 0.1107(2) -0.6879(4)
C15H C -0.2472(3) 0.1107(2) -0.8121(4)
C15H_2 C -0.2472(3) 0.1107(2) 0.1879(4)
C15E_2 C -0.2472(3) 0.1107(2) 0.3121(4)
C15H_3 C -0.2472(3) 0.1107(2) 1.1879(4)
C15E_3 C -0.2472(3) 0.1107(2) 1.3121(4)
C15D_2 C 0.3579(2) 0.2472(3) -0.6879(4)
C15G_2 C 0.3579(2) 0.2472(3) -0.8121(4)
C15G_3 C 0.3579(2) 0.2472(3) 1.1879(4)
C15D_3 C 0.3579(2) 0.2472(3) 1.3121(4)
C15_3 C 0.1107(2) 0.3579(2) -1.1879(4)
C15I_3 C 0.1107(2) 0.3579(2) -1.3121(4)
C15I_4 C 0.1107(2) 0.3579(2) 1.6879(4)
C15_4 C 0.1107(2) 0.3579(2) 1.8121(4)
C15K C 0.2472(3) -0.1107(2) -0.3121(4)
C15B C 0.2472(3) -0.1107(2) -0.1879(4)
C15B_2 C 0.2472(3) -0.1107(2) 0.8121(4)
C15K_2 C 0.2472(3) -0.1107(2) 0.6879(4)
C16I C 0.0774(2) 0.3601(2) -0.3131(4)
C16I_2 C 0.0774(2) 0.3601(2) 0.6869(4)
C16_2 C 0.0774(2) 0.3601(2) 0.8131(4)
C16G C 0.3601(2) 0.2827(3) 0.1869(4)
C16D C 0.3601(2) 0.2827(3) 0.3131(4)
C16E C -0.2827(3) 0.0774(2) -0.6869(4)
C16H C -0.2827(3) 0.0774(2) -0.8131(4)
C16H_2 C -0.2827(3) 0.0774(2) 0.1869(4)
C16E_2 C -0.2827(3) 0.0774(2) 0.3131(4)
C16H_3 C -0.2827(3) 0.0774(2) 1.1869(4)
C16E_3 C -0.2827(3) 0.0774(2) 1.3131(4)
C16D_2 C 0.3601(2) 0.2827(3) -0.6869(4)
C16G_2 C 0.3601(2) 0.2827(3) -0.8131(4)
C16G_3 C 0.3601(2) 0.2827(3) 1.1869(4)
C16D_3 C 0.3601(2) 0.2827(3) 1.3131(4)
C16_3 C 0.0774(2) 0.3601(2) -1.1869(4)
C16I_3 C 0.0774(2) 0.3601(2) -1.3131(4)
C16I_4 C 0.0774(2) 0.3601(2) 1.6869(4)
C16_4 C 0.0774(2) 0.3601(2) 1.8131(4)
C16K C 0.2827(3) -0.0774(2) -0.3131(4)
C16B C 0.2827(3) -0.0774(2) -0.1869(4)
C16B_2 C 0.2827(3) -0.0774(2) 0.8131(4)
C16K_2 C 0.2827(3) -0.0774(2) 0.6869(4)
C17_2 C 0.06619(12) 0.37285(15) 0.7500
C17D C 0.37285(15) 0.30666(19) 0.2500
C17E C -0.30666(19) 0.06619(12) -0.7500
C17E_2 C -0.30666(19) 0.06619(12) 0.2500
C17E_3 C -0.30666(19) 0.06619(12) 1.2500
C17D_2 C 0.37285(15) 0.30666(19) -0.7500
C17D_3 C 0.37285(15) 0.30666(19) 1.2500
C17_3 C 0.06619(12) 0.37285(15) -1.2500
C17_4 C 0.06619(12) 0.37285(15) 1.7500
C17B C 0.30666(19) -0.06619(12) -0.2500
C17B_2 C 0.30666(19) -0.06619(12) 0.7500
C18D C 0.50678(15) 0.14942(21) -0.2500
C18D_2 C 0.50678(15) 0.14942(21) 0.7500
C18E C -0.14942(21) 0.35736(15) -0.2500
C18_2 C 0.35736(15) 0.50678(15) -0.7500
C18E_2 C -0.14942(21) 0.35736(15) 0.7500
C19D C 0.54008(10) 0.18689(16) -0.2500
C19D_2 C 0.54008(10) 0.18689(16) 0.7500
C19E C -0.18689(16) 0.35319(13) -0.2500
C19_2 C 0.35319(13) 0.54008(10) -0.7500
C19E_2 C -0.18689(16) 0.35319(13) 0.7500
C20I C 0.32251(12) 0.53734(10) 0.21141(19)
C20G C 0.53734(10) 0.21483(16) -0.28859(19)
C20D C 0.53734(10) 0.21483(16) -0.21141(19)
C20D_2 C 0.53734(10) 0.21483(16) 0.78859(19)
C20G_2 C 0.53734(10) 0.21483(16) 0.71141(19)
C20E C -0.21483(16) 0.32251(12) -0.21141(19)
C20H C -0.21483(16) 0.32251(12) -0.28859(19)
C20I_2 C 0.32251(12) 0.53734(10) -0.78859(19)
C20_2 C 0.32251(12) 0.53734(10) -0.71141(19)
C20H_2 C -0.21483(16) 0.32251(12) 0.71141(19)
C20E_2 C -0.21483(16) 0.32251(12) 0.78859(19)
C21I C 0.31823(11) 0.56853(14) 0.2044(3)
C21G C 0.56853(14) 0.25030(18) -0.2956(3)
C21D C 0.56853(14) 0.25030(18) -0.2044(3)
C21D_2 C 0.56853(14) 0.25030(18) 0.7956(3)
C21G_2 C 0.56853(14) 0.25030(18) 0.7044(3)
C21E C -0.25030(18) 0.31823(11) -0.2044(3)
C21H C -0.25030(18) 0.31823(11) -0.2956(3)
C21I_2 C 0.31823(11) 0.56853(14) -0.7956(3)
C21_2 C 0.31823(11) 0.56853(14) -0.7044(3)
C21H_2 C -0.25030(18) 0.31823(11) 0.7044(3)
C21E_2 C -0.25030(18) 0.31823(11) 0.7956(3)
C22I C 0.34463(14) 0.60246(11) 0.2361(3)
C22G C 0.60246(11) 0.25783(18) -0.2639(3)
C22D C 0.60246(11) 0.25783(18) -0.2361(3)
C22D_2 C 0.60246(11) 0.25783(18) 0.7639(3)
C22G_2 C 0.60246(11) 0.25783(18) 0.7361(3)
C22E C -0.25783(18) 0.34463(14) -0.2361(3)
C22H C -0.25783(18) 0.34463(14) -0.2639(3)
C22I_2 C 0.34463(14) 0.60246(11) -0.7639(3)
C22_2 C 0.34463(14) 0.60246(11) -0.7361(3)
C22H_2 C -0.25783(18) 0.34463(14) 0.7361(3)
C22E_2 C -0.25783(18) 0.34463(14) 0.7639(3)
C22A C 0.39754(11) 0.74217(18) 0.2639(3)
C22J C 0.39754(11) 0.74217(18) 0.2361(3)
C22H_3 C 0.74217(18) 0.34463(14) -0.2639(3)
C22E_3 C 0.74217(18) 0.34463(14) -0.2361(3)
C22E_4 C 0.74217(18) 0.34463(14) 0.7639(3)
C22H_4 C 0.74217(18) 0.34463(14) 0.7361(3)
C22C C -0.34463(14) 0.39754(11) -0.2361(3)
C22F C -0.34463(14) 0.39754(11) -0.2639(3)
C22J_2 C 0.39754(11) 0.74217(18) -0.7639(3)
C22A_2 C 0.39754(11) 0.74217(18) -0.7361(3)
C22F_2 C -0.34463(14) 0.39754(11) 0.7361(3)
C22C_2 C -0.34463(14) 0.39754(11) 0.7639(3)
C23I C 0.37531(12) 0.60521(9) 0.2747(3)
C23G C 0.60521(9) 0.22990(15) -0.2253(3)
C23D C 0.60521(9) 0.22990(15) -0.2747(3)
C23D_2 C 0.60521(9) 0.22990(15) 0.7253(3)
C23G_2 C 0.60521(9) 0.22990(15) 0.7747(3)
C23E C -0.22990(15) 0.37531(12) -0.2747(3)
C23H C -0.22990(15) 0.37531(12) -0.2253(3)
C23I_2 C 0.37531(12) 0.60521(9) -0.7253(3)
C23_2 C 0.37531(12) 0.60521(9) -0.7747(3)
C23H_2 C -0.22990(15) 0.37531(12) 0.7747(3)
C23E_2 C -0.22990(15) 0.37531(12) 0.7253(3)
C24I C 0.37959(11) 0.57402(12) 0.28164(19)
C24G C 0.57402(12) 0.19443(16) -0.21836(19)
C24D C 0.57402(12) 0.19443(16) -0.28164(19)
C24D_2 C 0.57402(12) 0.19443(16) 0.71836(19)
C24G_2 C 0.57402(12) 0.19443(16) 0.78164(19)
C24E C -0.19443(16) 0.37959(11) -0.28164(19)
C24H C -0.19443(16) 0.37959(11) -0.21836(19)
C24I_2 C 0.37959(11) 0.57402(12) -0.71836(19)
C24_2 C 0.37959(11) 0.57402(12) -0.78164(19)
C24H_2 C -0.19443(16) 0.37959(11) 0.78164(19)
C24E_2 C -0.19443(16) 0.37959(11) 0.71836(19)
C25A C 0.36436(15) 0.70256(21) 0.2500
C25D C 0.63564(15) 0.29744(21) -0.2500
C25E C 0.70256(21) 0.33820(15) -0.2500
C25D_2 C 0.63564(15) 0.29744(21) 0.7500
C25E_2 C 0.70256(21) 0.33820(15) 0.7500
C25E_3 C -0.29744(21) 0.33820(15) -0.2500
C25C C -0.33820(15) 0.36436(15) -0.2500
C25_2 C 0.33820(15) 0.63564(15) -0.7500
C25A_2 C 0.36436(15) 0.70256(21) -0.7500
C25E_4 C -0.29744(21) 0.33820(15) 0.7500
C25C_2 C -0.33820(15) 0.36436(15) 0.7500
C25B C 0.29744(21) 0.66180(15) 0.2500
C25C_3 C 0.66180(15) 0.36436(15) -0.2500
C25C_4 C 0.66180(15) 0.36436(15) 0.7500
C25D_3 C -0.36436(15) 0.29744(21) -0.2500
C25B_2 C 0.29744(21) 0.66180(15) -0.7500
C25D_4 C -0.36436(15) 0.29744(21) 0.7500
C26B C 0.30259(22) 0.63167(16) 0.2500
C26D C 0.67092(15) 0.30259(22) -0.2500
C26C C 0.63167(16) 0.32908(15) -0.2500
C26D_2 C 0.67092(15) 0.30259(22) 0.7500
C26C_2 C 0.63167(16) 0.32908(15) 0.7500
C26E C -0.30259(22) 0.36833(16) -0.2500
C26D_3 C -0.32908(15) 0.30259(22) -0.2500
C26_2 C 0.36833(16) 0.67092(15) -0.7500
C26B_2 C 0.30259(22) 0.63167(16) -0.7500
C26E_2 C -0.30259(22) 0.36833(16) 0.7500
C26D_4 C -0.32908(15) 0.30259(22) 0.7500
C26A C 0.32908(15) 0.69741(22) 0.2500
C26E_3 C 0.69741(22) 0.36833(16) -0.2500
C26E_4 C 0.69741(22) 0.36833(16) 0.7500
C26C_3 C -0.36833(16) 0.32908(15) -0.2500
C26A_2 C 0.32908(15) 0.69741(22) -0.7500
C26C_4 C -0.36833(16) 0.32908(15) 0.7500
C28F C 0.52820(13) 0.51557(15) 0.5524(3)
C29F C 0.5259(3) 0.5336(3) 0.5015(6)
C37F C 0.5027(3) 0.4813(3) 0.5613(6)
C38I C 0.4872(6) 0.5720(6) 0.1247(13)
C39I C 0.4834(4) 0.5910(4) 0.1811(10)
C41I C 0.4806(6) 0.6232(6) 0.1760(12)
C43_2 C 0.03139(12) 0.37381(13) 0.7500
C43D C 0.37381(13) 0.34242(18) 0.2500
C43E C -0.34242(18) 0.03139(12) -0.7500
C43E_2 C -0.34242(18) 0.03139(12) 0.2500
C43E_3 C -0.34242(18) 0.03139(12) 1.2500
C43D_2 C 0.37381(13) 0.34242(18) -0.7500
C43D_3 C 0.37381(13) 0.34242(18) 1.2500
C43_3 C 0.03139(12) 0.37381(13) -1.2500
C43_4 C 0.03139(12) 0.37381(13) 1.7500
C43B C 0.34242(18) -0.03139(12) -0.2500
C43B_2 C 0.34242(18) -0.03139(12) 0.7500
O9 O 0.4377(4) 0.4183(4) 0.5354(8)
C30 C 0.4090(6) 0.4170(6) 0.5887(12)
C31 C 0.3789(3) 0.3722(3) 0.5814(6)
C32 C 0.3773(3) 0.3532(3) 0.5148(5)
C33 C 0.3491(3) 0.3164(3) 0.5049(6)
C34 C 0.3224(3) 0.2985(3) 0.5617(9)
C35 C 0.3240(4) 0.3174(4) 0.6282(7)
C36 C 0.3522(4) 0.3543(4) 0.6381(5)
C13? C 0.1233(2) 0.3866(2) 0.6856(4)
C14? C 0.0892(2) 0.3873(2) 0.6864(4)
loop_
_geom_bond_atom_site_label_1
_geom_bond_atom_site_label_2
_geom_bond_site_symmetry_1
_geom_bond_site_symmetry_2
Zn1 O1 1_555 1_555
Zn2 O1 1_555 1_555
Zn3 O1 1_555 1_555
O1 Zn1I 1_555 1_555
O2 Zn2 1_555 1_555
O3 C1 1_555 1_555
O4 C43 1_555 1_555
O5 Zn1 1_555 1_555
O6 Zn3 1_555 1_555
O7 Zn3 1_555 1_555
O8 Zn2 1_555 1_555
O9 C30 1_555 1_555
O10 C37 1_555 1_555
C1 O2 1_555 1_555
C2 C1 1_555 1_555
C3 C2 1_555 1_555
C4 C3 1_555 1_555
C5 C4 1_555 1_555
C6 C5 1_555 1_555
C7 C2 1_555 1_555
C8 C5 1_555 1_555
C9 C8 1_555 1_555
C10 C8 1_555 1_555
C11 C10 1_555 1_555
C12 C11 1_555 1_555
C15 C12 1_555 1_555
C16 C15 1_555 1_555
C17 C16 1_555 1_555
C18 O7 1_555 1_555
C19 C18 1_555 1_555
C20 C19 1_555 1_555
C21 C20 1_555 1_555
C22 C21 1_555 1_555
C23 C22 1_555 1_555
C24 C19 1_555 1_555
C25 C22 1_555 1_555
C26 C25 1_555 1_555
C27 O5 1_555 1_555
C28 C27 1_555 1_555
C29 C28 1_555 1_555
C30 C31 1_555 1_555
C31 C32 1_555 1_555
C32 C33 1_555 1_555
C33 C34 1_555 1_555
C34 C35 1_555 1_555
C35 C36 1_555 1_555
C36 C31 1_555 1_555
C37 C28 1_555 1_555
C38 O10 1_555 1_555
C39 C38 1_555 1_555
C40 C39 1_555 1_555
C41 C39 1_555 1_555
C42 C41 1_555 1_555
C43 C17 1_555 1_555
Zn1I O3 1_555 1_555
Zn1H O4 1_555 1_555
Zn1E O1E 1_555 1_555
Zn1E_2 O1E_2 1_555 1_555
Zn1H_2 O1E_2 1_555 1_555
Zn1D O1D 1_555 1_555
Zn1G O1D_2 1_555 1_555
Zn1_2 O1_2 1_555 1_555
Zn1I_2 O1_3 1_555 1_555
Zn1J O1A 1_555 1_555
Zn1A O1A 1_555 1_555
Zn1A_2 O1A_2 1_555 1_555
Zn1J_2 O1A_2 1_555 1_555
Zn1A_3 O1A_3 1_555 1_555
Zn1J_3 O1A_3 1_555 1_555
Zn1G_2 O1D 1_555 1_555
Zn1D_2 O1D_2 1_555 1_555
Zn1I_3 O1_2 1_555 1_555
Zn1_3 O1_3 1_555 1_555
Zn1B O1B 1_555 1_555
Zn1K O1B_2 1_555 1_555
Zn1D_3 O1D_3 1_555 1_555
Zn1G_3 O1D_4 1_555 1_555
Zn1H_3 O1E_3 1_555 1_555
Zn1E_3 O1E_3 1_555 1_555
Zn1E_4 O1E_4 1_555 1_555
Zn1H_4 O1E_4 1_555 1_555
Zn1K_2 O1B 1_555 1_555
Zn1B_2 O1B_2 1_555 1_555
Zn1G_4 O1D_3 1_555 1_555
Zn1D_4 O1D_4 1_555 1_555
Zn2D O1D 1_555 1_555
Zn2D_2 O1D_2 1_555 1_555
Zn2E O1E 1_555 1_555
Zn2_2 O1_2 1_555 1_555
Zn2E_2 O1E_2 1_555 1_555
Zn2_3 O1_3 1_555 1_555
Zn2B O1B 1_555 1_555
Zn2B_2 O1B_2 1_555 1_555
Zn2D_3 O1D_3 1_555 1_555
Zn2D_4 O1D_4 1_555 1_555
Zn2A O1A 1_555 1_555
Zn2A_2 O1A_2 1_555 1_555
Zn2A_3 O1A_3 1_555 1_555
Zn2E_3 O1E_3 1_555 1_555
Zn2E_4 O1E_4 1_555 1_555
Zn3E O1E 1_555 1_555
Zn3E_2 O1E_2 1_555 1_555
Zn3D O1D 1_555 1_555
Zn3D_2 O1D_2 1_555 1_555
Zn3_2 O1_2 1_555 1_555
Zn3_3 O1_3 1_555 1_555
Zn3A O1A 1_555 1_555
Zn3A_2 O1A_2 1_555 1_555
Zn3A_3 O1A_3 1_555 1_555
Zn3B O1B 1_555 1_555
Zn3B_2 O1B_2 1_555 1_555
Zn3D_3 O1D_3 1_555 1_555
Zn3D_4 O1D_4 1_555 1_555
Zn3E_3 O1E_3 1_555 1_555
Zn3E_4 O1E_4 1_555 1_555
O1E Zn1H 1_555 1_555
O2I Zn2 1_555 1_555
O2G Zn2D 1_555 1_555
O2D Zn2D_2 1_555 1_555
O2E Zn2E 1_555 1_555
O2H Zn2E 1_555 1_555
O2I_2 Zn2_2 1_555 1_555
O2H_2 Zn2E_2 1_555 1_555
O2E_2 Zn2E_2 1_555 1_555
O2_2 Zn2_3 1_555 1_555
O2D_2 Zn2D 1_555 1_555
O2G_2 Zn2D_2 1_555 1_555
O2_3 Zn2_2 1_555 1_555
O2I_3 Zn2_3 1_555 1_555
O2K Zn2B 1_555 1_555
O2B Zn2B_2 1_555 1_555
O2G_3 Zn2D_3 1_555 1_555
O2D_3 Zn2D_4 1_555 1_555
O2B_2 Zn2B 1_555 1_555
O2K_2 Zn2B_2 1_555 1_555
O2D_4 Zn2D_3 1_555 1_555
O2G_4 Zn2D_4 1_555 1_555
O2J Zn2A 1_555 1_555
O2A Zn2A 1_555 1_555
O2A_2 Zn2A_2 1_555 1_555
O2J_2 Zn2A_2 1_555 1_555
O2A_3 Zn2A_3 1_555 1_555
O2J_3 Zn2A_3 1_555 1_555
O2H_3 Zn2E_3 1_555 1_555
O2E_3 Zn2E_3 1_555 1_555
O2E_4 Zn2E_4 1_555 1_555
O2H_4 Zn2E_4 1_555 1_555
O3I Zn1 1_555 1_555
O3G Zn1D 1_555 1_555
O3D Zn1G 1_555 1_555
O3E Zn1H 1_555 1_555
O3H Zn1E 1_555 1_555
O3I_2 Zn1_2 1_555 1_555
O3H_2 Zn1E_2 1_555 1_555
O3E_2 Zn1H_2 1_555 1_555
O3_2 Zn1I_2 1_555 1_555
O3D_2 Zn1G_2 1_555 1_555
O3G_2 Zn1D_2 1_555 1_555
O3_3 Zn1I_3 1_555 1_555
O3I_3 Zn1_3 1_555 1_555
O3K Zn1B 1_555 1_555
O3B Zn1K 1_555 1_555
O3G_3 Zn1D_3 1_555 1_555
O3D_3 Zn1G_3 1_555 1_555
O3A Zn1J 1_555 1_555
O3J Zn1A 1_555 1_555
O3J_2 Zn1A_2 1_555 1_555
O3A_2 Zn1J_2 1_555 1_555
O3J_3 Zn1A_3 1_555 1_555
O3A_3 Zn1J_3 1_555 1_555
O3E_3 Zn1H_3 1_555 1_555
O3H_3 Zn1E_3 1_555 1_555
O3H_4 Zn1E_4 1_555 1_555
O3E_4 Zn1H_4 1_555 1_555
O3B_2 Zn1K_2 1_555 1_555
O3K_2 Zn1B_2 1_555 1_555
O3D_4 Zn1G_4 1_555 1_555
O3G_4 Zn1D_4 1_555 1_555
O4I C43 1_555 1_555
O4I_2 Zn1E_2 1_555 1_555
O4_2 Zn1H_2 1_555 1_555
O4G Zn1 1_555 1_555
O4D Zn1I 1_555 1_555
O4E Zn1J 1_555 1_555
O4H Zn1A 1_555 1_555
O4H_2 Zn1A_2 1_555 1_555
O4E_2 Zn1J_2 1_555 1_555
O4H_3 Zn1A_3 1_555 1_555
O4E_3 Zn1J_3 1_555 1_555
O4D_2 Zn1I_3 1_555 1_555
O4G_2 Zn1_2 1_555 1_555
O4G_3 Zn1_3 1_555 1_555
O4D_3 Zn1I_2 1_555 1_555
O4_3 Zn1H_3 1_555 1_555
O4I_3 Zn1E_3 1_555 1_555
O4I_4 Zn1E_4 1_555 1_555
O4_4 Zn1H_4 1_555 1_555
O4K Zn1D 1_555 1_555
O4B Zn1G_2 1_555 1_555
O4B_2 Zn1G 1_555 1_555
O4K_2 Zn1D_2 1_555 1_555
O4F Zn1B 1_555 1_555
O4C Zn1K 1_555 1_555
O4K_3 Zn1D_3 1_555 1_555
O4B_3 Zn1G_3 1_555 1_555
O4C_2 Zn1K_2 1_555 1_555
O4F_2 Zn1B_2 1_555 1_555
O4B_4 Zn1G_4 1_555 1_555
O4K_4 Zn1D_4 1_555 1_555
O5I Zn1I 1_555 1_555
O5H Zn1H 1_555 1_555
O5E Zn1E 1_555 1_555
O5E_2 Zn1E_2 1_555 1_555
O5H_2 Zn1H_2 1_555 1_555
O5D Zn1D 1_555 1_555
O5G Zn1G 1_555 1_555
O5_2 Zn1_2 1_555 1_555
O5I_2 Zn1I_2 1_555 1_555
O5J Zn1J 1_555 1_555
O5A Zn1A 1_555 1_555
O5A_2 Zn1A_2 1_555 1_555
O5J_2 Zn1J_2 1_555 1_555
O5A_3 Zn1A_3 1_555 1_555
O5J_3 Zn1J_3 1_555 1_555
O5G_2 Zn1G_2 1_555 1_555
O5D_2 Zn1D_2 1_555 1_555
O5I_3 Zn1I_3 1_555 1_555
O5_3 Zn1_3 1_555 1_555
O5B Zn1B 1_555 1_555
O5K Zn1K 1_555 1_555
O5D_3 Zn1D_3 1_555 1_555
O5G_3 Zn1G_3 1_555 1_555
O5H_3 Zn1H_3 1_555 1_555
O5E_3 Zn1E_3 1_555 1_555
O5E_4 Zn1E_4 1_555 1_555
O5H_4 Zn1H_4 1_555 1_555
O5K_2 Zn1K_2 1_555 1_555
O5B_2 Zn1B_2 1_555 1_555
O5G_4 Zn1G_4 1_555 1_555
O5D_4 Zn1D_4 1_555 1_555
O6I Zn3 1_555 1_555
O6H Zn3E 1_555 1_555
O6E Zn3E 1_555 1_555
O6E_2 Zn3E_2 1_555 1_555
O6H_2 Zn3E_2 1_555 1_555
O6G Zn3D 1_555 1_555
O6D Zn3D 1_555 1_555
O6D_2 Zn3D_2 1_555 1_555
O6G_2 Zn3D_2 1_555 1_555
O6I_2 Zn3_2 1_555 1_555
O6_2 Zn3_2 1_555 1_555
O6_3 Zn3_3 1_555 1_555
O6I_3 Zn3_3 1_555 1_555
O6J Zn3A 1_555 1_555
O6A Zn3A 1_555 1_555
O6A_2 Zn3A_2 1_555 1_555
O6J_2 Zn3A_2 1_555 1_555
O6A_3 Zn3A_3 1_555 1_555
O6J_3 Zn3A_3 1_555 1_555
O6K Zn3B 1_555 1_555
O6B Zn3B 1_555 1_555
O6B_2 Zn3B_2 1_555 1_555
O6K_2 Zn3B_2 1_555 1_555
O6G_3 Zn3D_3 1_555 1_555
O6D_3 Zn3D_3 1_555 1_555
O6D_4 Zn3D_4 1_555 1_555
O6G_4 Zn3D_4 1_555 1_555
O6H_3 Zn3E_3 1_555 1_555
O6E_3 Zn3E_3 1_555 1_555
O6E_4 Zn3E_4 1_555 1_555
O6H_4 Zn3E_4 1_555 1_555
O7D Zn3D 1_555 1_555
O7D_2 Zn3D_2 1_555 1_555
O7E Zn3E 1_555 1_555
O7_2 Zn3_2 1_555 1_555
O7E_2 Zn3E_2 1_555 1_555
O7_3 Zn3_3 1_555 1_555
O7A Zn3A 1_555 1_555
O7A_2 Zn3A_2 1_555 1_555
O7A_3 Zn3A_3 1_555 1_555
O7B Zn3B 1_555 1_555
O7B_2 Zn3B_2 1_555 1_555
O7D_3 Zn3D_3 1_555 1_555
O7D_4 Zn3D_4 1_555 1_555
O7E_3 Zn3E_3 1_555 1_555
O7E_4 Zn3E_4 1_555 1_555
O8D Zn2D 1_555 1_555
O8D_2 Zn2D_2 1_555 1_555
O8E Zn2E 1_555 1_555
O8_2 Zn2_2 1_555 1_555
O8E_2 Zn2E_2 1_555 1_555
O8_3 Zn2_3 1_555 1_555
O8B Zn2B 1_555 1_555
O8B_2 Zn2B_2 1_555 1_555
O8D_3 Zn2D_3 1_555 1_555
O8D_4 Zn2D_4 1_555 1_555
O8A Zn2A 1_555 1_555
O8A_2 Zn2A_2 1_555 1_555
O8A_3 Zn2A_3 1_555 1_555
O8E_3 Zn2E_3 1_555 1_555
O8E_4 Zn2E_4 1_555 1_555
O10F C37F 1_555 1_555
C1I O2I 1_555 1_555
C1G O2G 1_555 1_555
C1D O2D 1_555 1_555
C1E O2E 1_555 1_555
C1H O2H 1_555 1_555
C1I_2 O2I_2 1_555 1_555
C1H_2 O2H_2 1_555 1_555
C1E_2 O2E_2 1_555 1_555
C1_2 O2_2 1_555 1_555
C1D_2 O2D_2 1_555 1_555
C1G_2 O2G_2 1_555 1_555
C1_3 O2_3 1_555 1_555
C1I_3 O2I_3 1_555 1_555
C1K O2K 1_555 1_555
C1B O2B 1_555 1_555
C1G_3 O2G_3 1_555 1_555
C1D_3 O2D_3 1_555 1_555
C2I C1I 1_555 1_555
C2G C1G 1_555 1_555
C2D C1D 1_555 1_555
C2E C1E 1_555 1_555
C2H C1H 1_555 1_555
C2I_2 C1I_2 1_555 1_555
C2H_2 C1H_2 1_555 1_555
C2E_2 C1E_2 1_555 1_555
C2_2 C1_2 1_555 1_555
C2D_2 C1D_2 1_555 1_555
C2G_2 C1G_2 1_555 1_555
C2_3 C1_3 1_555 1_555
C2I_3 C1I_3 1_555 1_555
C2K C1K 1_555 1_555
C2B C1B 1_555 1_555
C2G_3 C1G_3 1_555 1_555
C2D_3 C1D_3 1_555 1_555
C3I C2I 1_555 1_555
C3G C2G 1_555 1_555
C3D C2D 1_555 1_555
C3E C2E 1_555 1_555
C3H C2H 1_555 1_555
C3I_2 C2I_2 1_555 1_555
C3H_2 C2H_2 1_555 1_555
C3E_2 C2E_2 1_555 1_555
C3_2 C2_2 1_555 1_555
C3D_2 C2D_2 1_555 1_555
C3G_2 C2G_2 1_555 1_555
C3_3 C2_3 1_555 1_555
C3I_3 C2I_3 1_555 1_555
C3K C2K 1_555 1_555
C3B C2B 1_555 1_555
C3G_3 C2G_3 1_555 1_555
C3D_3 C2D_3 1_555 1_555
C4I C3I 1_555 1_555
C4G C3G 1_555 1_555
C4D C3D 1_555 1_555
C4E C3E 1_555 1_555
C4H C3H 1_555 1_555
C4I_2 C3I_2 1_555 1_555
C4H_2 C3H_2 1_555 1_555
C4E_2 C3E_2 1_555 1_555
C4_2 C3_2 1_555 1_555
C4D_2 C3D_2 1_555 1_555
C4G_2 C3G_2 1_555 1_555
C4_3 C3_3 1_555 1_555
C4I_3 C3I_3 1_555 1_555
C4K C3K 1_555 1_555
C4B C3B 1_555 1_555
C4G_3 C3G_3 1_555 1_555
C4D_3 C3D_3 1_555 1_555
C5I C4I 1_555 1_555
C5G C4G 1_555 1_555
C5D C4D 1_555 1_555
C5E C4E 1_555 1_555
C5H C4H 1_555 1_555
C5I_2 C4I_2 1_555 1_555
C5H_2 C4H_2 1_555 1_555
C5E_2 C4E_2 1_555 1_555
C5_2 C4_2 1_555 1_555
C5D_2 C4D_2 1_555 1_555
C5G_2 C4G_2 1_555 1_555
C5_3 C4_3 1_555 1_555
C5I_3 C4I_3 1_555 1_555
C5K C4K 1_555 1_555
C5B C4B 1_555 1_555
C5G_3 C4G_3 1_555 1_555
C5D_3 C4D_3 1_555 1_555
C5H_3 C8H 1_555 1_555
C5E_3 C8E_3 1_555 1_555
C5I_4 C8I_3 1_555 1_555
C5_4 C8_4 1_555 1_555
C5B_2 C8B 1_555 1_555
C5K_2 C8K_2 1_555 1_555
C6I C5I 1_555 1_555
C6G C5G 1_555 1_555
C6D C5D 1_555 1_555
C6E C5E 1_555 1_555
C6H C5H 1_555 1_555
C6I_2 C5I_2 1_555 1_555
C6H_2 C5H_2 1_555 1_555
C6E_2 C5E_2 1_555 1_555
C6_2 C5_2 1_555 1_555
C6D_2 C5D_2 1_555 1_555
C6G_2 C5G_2 1_555 1_555
C6_3 C5_3 1_555 1_555
C6I_3 C5I_3 1_555 1_555
C6K C5K 1_555 1_555
C6B C5B 1_555 1_555
C6G_3 C5G_3 1_555 1_555
C6D_3 C5D_3 1_555 1_555
C7I C2I 1_555 1_555
C7G C2G 1_555 1_555
C7D C2D 1_555 1_555
C7E C2E 1_555 1_555
C7H C2H 1_555 1_555
C7I_2 C2I_2 1_555 1_555
C7H_2 C2H_2 1_555 1_555
C7E_2 C2E_2 1_555 1_555
C7_2 C2_2 1_555 1_555
C7D_2 C2D_2 1_555 1_555
C7G_2 C2G_2 1_555 1_555
C7_3 C2_3 1_555 1_555
C7I_3 C2I_3 1_555 1_555
C7K C2K 1_555 1_555
C7B C2B 1_555 1_555
C7G_3 C2G_3 1_555 1_555
C7D_3 C2D_3 1_555 1_555
C8I C9 1_555 1_555
C8I_2 C5I 1_555 1_555
C8_2 C5_2 1_555 1_555
C8G C5G 1_555 1_555
C8D C5D 1_555 1_555
C8E C5E 1_555 1_555
C8H C9E 1_555 1_555
C8H_2 C5H 1_555 1_555
C8E_2 C5E_2 1_555 1_555
C8H_3 C5H_2 1_555 1_555
C8E_3 C9E_3 1_555 1_555
C8D_2 C5D_2 1_555 1_555
C8G_2 C5G_3 1_555 1_555
C8G_3 C5G_2 1_555 1_555
C8D_3 C5D_3 1_555 1_555
C8_3 C5_3 1_555 1_555
C8I_3 C9_3 1_555 1_555
C8I_4 C5I_3 1_555 1_555
C8_4 C9_4 1_555 1_555
C8K C5K 1_555 1_555
C8B C9B 1_555 1_555
C8B_2 C5B 1_555 1_555
C8K_2 C9B_2 1_555 1_555
C9_2 C8I_2 1_555 1_555
C9D C8G 1_555 1_555
C9E C8E 1_555 1_555
C9E_2 C8H_2 1_555 1_555
C9E_3 C8H_3 1_555 1_555
C9D_2 C8D_2 1_555 1_555
C9D_3 C8G_3 1_555 1_555
C9_3 C8_3 1_555 1_555
C9_4 C8I_4 1_555 1_555
C9B C8K 1_555 1_555
C9B_2 C8B_2 1_555 1_555
C10I C11 1_555 1_555
C10I_2 C8I_2 1_555 1_555
C10_2 C8_2 1_555 1_555
C10G C8G 1_555 1_555
C10D C8D 1_555 1_555
C10E C8E 1_555 1_555
C10H C8H 1_555 1_555
C10H_2 C8H_2 1_555 1_555
C10E_2 C8E_2 1_555 1_555
C10H_3 C8H_3 1_555 1_555
C10E_3 C8E_3 1_555 1_555
C10D_2 C8D_2 1_555 1_555
C10G_2 C8G_2 1_555 1_555
C10G_3 C8G_3 1_555 1_555
C10D_3 C8D_3 1_555 1_555
C10_3 C8_3 1_555 1_555
C10I_3 C8I_3 1_555 1_555
C10I_4 C8I_4 1_555 1_555
C10_4 C8_4 1_555 1_555
C10K C8K 1_555 1_555
C10B C8B 1_555 1_555
C10B_2 C8B_2 1_555 1_555
C10K_2 C8K_2 1_555 1_555
C11_2 C10I_2 1_555 1_555
C11D C10G 1_555 1_555
C11E C10E 1_555 1_555
C11E_2 C10H_2 1_555 1_555
C11E_3 C10H_3 1_555 1_555
C11D_2 C10D_2 1_555 1_555
C11D_3 C10G_3 1_555 1_555
C11_3 C10_3 1_555 1_555
C11_4 C10I_4 1_555 1_555
C11B C10K 1_555 1_555
C11B_2 C10B_2 1_555 1_555
C12_2 C11_2 1_555 1_555
C12D C11D 1_555 1_555
C12E C11E 1_555 1_555
C12E_2 C11E_2 1_555 1_555
C12E_3 C11E_3 1_555 1_555
C12D_2 C11D_2 1_555 1_555
C12D_3 C11D_3 1_555 1_555
C12_3 C11_3 1_555 1_555
C12_4 C11_4 1_555 1_555
C12B C11B 1_555 1_555
C12B_2 C11B_2 1_555 1_555
C15I C12 1_555 1_555
C15I_2 C12_2 1_555 1_555
C15_2 C12_2 1_555 1_555
C15G C12D 1_555 1_555
C15D C12D 1_555 1_555
C15E C12E 1_555 1_555
C15H C12E 1_555 1_555
C15H_2 C12E_2 1_555 1_555
C15E_2 C12E_2 1_555 1_555
C15H_3 C12E_3 1_555 1_555
C15E_3 C12E_3 1_555 1_555
C15D_2 C12D_2 1_555 1_555
C15G_2 C12D_2 1_555 1_555
C15G_3 C12D_3 1_555 1_555
C15D_3 C12D_3 1_555 1_555
C15_3 C12_3 1_555 1_555
C15I_3 C12_3 1_555 1_555
C15I_4 C12_4 1_555 1_555
C15_4 C12_4 1_555 1_555
C15K C12B 1_555 1_555
C15B C12B 1_555 1_555
C15B_2 C12B_2 1_555 1_555
C15K_2 C12B_2 1_555 1_555
C16I C17 1_555 1_555
C16I_2 C15I_2 1_555 1_555
C16_2 C15_2 1_555 1_555
C16G C15G 1_555 1_555
C16D C15D 1_555 1_555
C16E C15E 1_555 1_555
C16H C15H 1_555 1_555
C16H_2 C15H_2 1_555 1_555
C16E_2 C15E_2 1_555 1_555
C16H_3 C15H_3 1_555 1_555
C16E_3 C15E_3 1_555 1_555
C16D_2 C15D_2 1_555 1_555
C16G_2 C15G_2 1_555 1_555
C16G_3 C15G_3 1_555 1_555
C16D_3 C15D_3 1_555 1_555
C16_3 C15_3 1_555 1_555
C16I_3 C15I_3 1_555 1_555
C16I_4 C15I_4 1_555 1_555
C16_4 C15_4 1_555 1_555
C16K C15K 1_555 1_555
C16B C15B 1_555 1_555
C16B_2 C15B_2 1_555 1_555
C16K_2 C15K_2 1_555 1_555
C17_2 C16I_2 1_555 1_555
C17D C16G 1_555 1_555
C17E C16E 1_555 1_555
C17E_2 C16H_2 1_555 1_555
C17E_3 C16H_3 1_555 1_555
C17D_2 C16D_2 1_555 1_555
C17D_3 C16G_3 1_555 1_555
C17_3 C16_3 1_555 1_555
C17_4 C16I_4 1_555 1_555
C17B C16K 1_555 1_555
C17B_2 C16B_2 1_555 1_555
C18D O7D 1_555 1_555
C18D_2 O7D_2 1_555 1_555
C18E O7E 1_555 1_555
C18_2 O7_2 1_555 1_555
C18E_2 O7E_2 1_555 1_555
C19D C18D 1_555 1_555
C19D_2 C18D_2 1_555 1_555
C19E C18E 1_555 1_555
C19_2 C18_2 1_555 1_555
C19E_2 C18E_2 1_555 1_555
C20I C19 1_555 1_555
C20G C19D 1_555 1_555
C20D C19D 1_555 1_555
C20D_2 C19D_2 1_555 1_555
C20G_2 C19D_2 1_555 1_555
C20E C19E 1_555 1_555
C20H C19E 1_555 1_555
C20I_2 C19_2 1_555 1_555
C20_2 C19_2 1_555 1_555
C20H_2 C19E_2 1_555 1_555
C20E_2 C19E_2 1_555 1_555
C21I C21 1_555 1_555
C21G C20G 1_555 1_555
C21D C20D 1_555 1_555
C21D_2 C20D_2 1_555 1_555
C21G_2 C20G_2 1_555 1_555
C21E C20E 1_555 1_555
C21H C20H 1_555 1_555
C21I_2 C20I_2 1_555 1_555
C21_2 C20_2 1_555 1_555
C21H_2 C20H_2 1_555 1_555
C21E_2 C20E_2 1_555 1_555
C22I C21 1_555 1_555
C22G C21G 1_555 1_555
C22D C21G 1_555 1_555
C22D_2 C21D_2 1_555 1_555
C22G_2 C21D_2 1_555 1_555
C22E C21E 1_555 1_555
C22H C21E 1_555 1_555
C22I_2 C21I_2 1_555 1_555
C22_2 C21I_2 1_555 1_555
C22H_2 C21H_2 1_555 1_555
C22E_2 C21H_2 1_555 1_555
C22A C22J 1_555 1_555
C22J C25A 1_555 1_555
C22H_3 C22E_3 1_555 1_555
C22E_3 C25E 1_555 1_555
C22E_4 C22H_4 1_555 1_555
C22H_4 C25E_2 1_555 1_555
C22C C22F 1_555 1_555
C22F C25C 1_555 1_555
C22J_2 C22A_2 1_555 1_555
C22A_2 C25A_2 1_555 1_555
C22F_2 C22C_2 1_555 1_555
C22C_2 C25C_2 1_555 1_555
C23I C22 1_555 1_555
C23G C22G 1_555 1_555
C23D C22G 1_555 1_555
C23D_2 C22D_2 1_555 1_555
C23G_2 C22D_2 1_555 1_555
C23E C22E 1_555 1_555
C23H C22E 1_555 1_555
C23I_2 C22I_2 1_555 1_555
C23_2 C22I_2 1_555 1_555
C23H_2 C22H_2 1_555 1_555
C23E_2 C22H_2 1_555 1_555
C24I C19 1_555 1_555
C24G C19D 1_555 1_555
C24D C19D 1_555 1_555
C24D_2 C19D_2 1_555 1_555
C24G_2 C19D_2 1_555 1_555
C24E C19E 1_555 1_555
C24H C19E 1_555 1_555
C24I_2 C19_2 1_555 1_555
C24_2 C19_2 1_555 1_555
C24H_2 C19E_2 1_555 1_555
C24E_2 C19E_2 1_555 1_555
C25A C26 1_555 1_555
C25D C22G 1_555 1_555
C25E C22H_3 1_555 1_555
C25D_2 C22D_2 1_555 1_555
C25E_2 C22E_4 1_555 1_555
C25E_3 C22E 1_555 1_555
C25C C22C 1_555 1_555
C25_2 C22I_2 1_555 1_555
C25A_2 C22J_2 1_555 1_555
C25E_4 C22H_2 1_555 1_555
C25C_2 C22F_2 1_555 1_555
C25B C26B 1_555 1_555
C25C_3 C26C 1_555 1_555
C25C_4 C26C_2 1_555 1_555
C25D_3 C26D_3 1_555 1_555
C25B_2 C26B_2 1_555 1_555
C25D_4 C26D_4 1_555 1_555
C26B C25 1_555 1_555
C26D C25D 1_555 1_555
C26C C25D 1_555 1_555
C26D_2 C25D_2 1_555 1_555
C26C_2 C25D_2 1_555 1_555
C26E C25E_3 1_555 1_555
C26D_3 C25E_3 1_555 1_555
C26_2 C25_2 1_555 1_555
C26B_2 C25_2 1_555 1_555
C26E_2 C25E_4 1_555 1_555
C26D_4 C25E_4 1_555 1_555
C26A C25A 1_555 1_555
C26E_3 C25E 1_555 1_555
C26E_4 C25E_2 1_555 1_555
C26C_3 C25C 1_555 1_555
C26A_2 C25A_2 1_555 1_555
C26C_4 C25C_2 1_555 1_555
C28F C29F 1_555 1_555
C29F C37 1_555 1_555
C37F C29 1_555 1_555
C38I C39I 1_555 1_555
C39I C40 1_555 1_555
C41I C42 1_555 1_555
C43_2 O4I_2 1_555 1_555
C43D O4G 1_555 1_555
C43E O4E 1_555 1_555
C43E_2 O4H_2 1_555 1_555
C43E_3 O4H_3 1_555 1_555
C43D_2 O4D_2 1_555 1_555
C43D_3 O4G_3 1_555 1_555
C43_3 O4_3 1_555 1_555
C43_4 O4I_4 1_555 1_555
C43B O4K 1_555 1_555
C43B_2 O4B_2 1_555 1_555
O6 C27 1_555 1_555
O8 C18 1_555 1_555
C6 C7 1_555 1_555
C20 C20I 1_555 1_555
C22 C21I 1_555 1_555
C22 C22I 1_555 1_555
C23 C24 1_555 1_555
C23 C22I 1_555 1_555
C23 C23I 1_555 1_555
C23 C24I 1_555 1_555
C24 C23I 1_555 1_555
C24 C24I 1_555 1_555
C25 C22I 1_555 1_555
Zn1E O4I 1_555 1_555
O3I C1I 1_555 1_555
O3G C1G 1_555 1_555
O3D C1D 1_555 1_555
O3E C1E 1_555 1_555
O3H C1H 1_555 1_555
O3I_2 C1I_2 1_555 1_555
O3H_2 C1H_2 1_555 1_555
O3E_2 C1E_2 1_555 1_555
O3_2 C1_2 1_555 1_555
O3D_2 C1D_2 1_555 1_555
O3G_2 C1G_2 1_555 1_555
O3_3 C1_3 1_555 1_555
O3I_3 C1I_3 1_555 1_555
O3K C1K 1_555 1_555
O3B C1B 1_555 1_555
O3G_3 C1G_3 1_555 1_555
O3D_3 C1D_3 1_555 1_555
O4_2 C43_2 1_555 1_555
O4D C43D 1_555 1_555
O4H C43E 1_555 1_555
O4E_2 C43E_2 1_555 1_555
O4E_3 C43E_3 1_555 1_555
O4G_2 C43D_2 1_555 1_555
O4D_3 C43D_3 1_555 1_555
O4I_3 C43_3 1_555 1_555
O4_4 C43_4 1_555 1_555
O4B C43B 1_555 1_555
O4K_2 C43B_2 1_555 1_555
O8D C18D 1_555 1_555
O8D_2 C18D_2 1_555 1_555
O8E C18E 1_555 1_555
O8_2 C18_2 1_555 1_555
O8E_2 C18E_2 1_555 1_555
C5I_2 C8I 1_555 1_555
C6I C7I 1_555 1_555
C6G C7G 1_555 1_555
C6D C7D 1_555 1_555
C6E C7E 1_555 1_555
C6H C7H 1_555 1_555
C6I_2 C7I_2 1_555 1_555
C6H_2 C7H_2 1_555 1_555
C6E_2 C7E_2 1_555 1_555
C6_2 C7_2 1_555 1_555
C6D_2 C7D_2 1_555 1_555
C6G_2 C7G_2 1_555 1_555
C6_3 C7_3 1_555 1_555
C6I_3 C7I_3 1_555 1_555
C6K C7K 1_555 1_555
C6B C7B 1_555 1_555
C6G_3 C7G_3 1_555 1_555
C6D_3 C7D_3 1_555 1_555
C8I C10I 1_555 1_555
C8_2 C9_2 1_555 1_555
C8D C9D 1_555 1_555
C8E_2 C9E_2 1_555 1_555
C8G_2 C9D_2 1_555 1_555
C8D_3 C9D_3 1_555 1_555
C10_2 C11_2 1_555 1_555
C10D C11D 1_555 1_555
C10H C11E 1_555 1_555
C10E_2 C11E_2 1_555 1_555
C10E_3 C11E_3 1_555 1_555
C10G_2 C11D_2 1_555 1_555
C10D_3 C11D_3 1_555 1_555
C10I_3 C11_3 1_555 1_555
C10_4 C11_4 1_555 1_555
C10B C11B 1_555 1_555
C10K_2 C11B_2 1_555 1_555
C15I C16I 1_555 1_555
C16_2 C17_2 1_555 1_555
C16D C17D 1_555 1_555
C16H C17E 1_555 1_555
C16E_2 C17E_2 1_555 1_555
C16E_3 C17E_3 1_555 1_555
C16G_2 C17D_2 1_555 1_555
C16D_3 C17D_3 1_555 1_555
C16I_3 C17_3 1_555 1_555
C16_4 C17_4 1_555 1_555
C16B C17B 1_555 1_555
C16K_2 C17B_2 1_555 1_555
C17_2 C43_2 1_555 1_555
C17D C43D 1_555 1_555
C17E C43E 1_555 1_555
C17E_2 C43E_2 1_555 1_555
C17E_3 C43E_3 1_555 1_555
C17D_2 C43D_2 1_555 1_555
C17D_3 C43D_3 1_555 1_555
C17_3 C43_3 1_555 1_555
C17_4 C43_4 1_555 1_555
C17B C43B 1_555 1_555
C17B_2 C43B_2 1_555 1_555
C20I C21I 1_555 1_555
C20G C20D 1_555 1_555
C20D_2 C20G_2 1_555 1_555
C20E C20H 1_555 1_555
C20I_2 C20_2 1_555 1_555
C20H_2 C20E_2 1_555 1_555
C21I C22I 1_555 1_555
C21G C21D 1_555 1_555
C21D C22G 1_555 1_555
C21D C22D 1_555 1_555
C21D_2 C21G_2 1_555 1_555
C21G_2 C22D_2 1_555 1_555
C21G_2 C22G_2 1_555 1_555
C21E C21H 1_555 1_555
C21H C22E 1_555 1_555
C21H C22H 1_555 1_555
C21I_2 C21_2 1_555 1_555
C21_2 C22I_2 1_555 1_555
C21_2 C22_2 1_555 1_555
C21H_2 C21E_2 1_555 1_555
C21E_2 C22H_2 1_555 1_555
C21E_2 C22E_2 1_555 1_555
C22I C23I 1_555 1_555
C22G C22D 1_555 1_555
C22D C23G 1_555 1_555
C22D C23D 1_555 1_555
C22D C25D 1_555 1_555
C22D_2 C22G_2 1_555 1_555
C22G_2 C23D_2 1_555 1_555
C22G_2 C23G_2 1_555 1_555
C22G_2 C25D_2 1_555 1_555
C22E C22H 1_555 1_555
C22H C23E 1_555 1_555
C22H C23H 1_555 1_555
C22H C25E_3 1_555 1_555
C22I_2 C22_2 1_555 1_555
C22_2 C23I_2 1_555 1_555
C22_2 C23_2 1_555 1_555
C22_2 C25_2 1_555 1_555
C22H_2 C22E_2 1_555 1_555
C22E_2 C23H_2 1_555 1_555
C22E_2 C23E_2 1_555 1_555
C22E_2 C25E_4 1_555 1_555
C22A C25A 1_555 1_555
C23I C24I 1_555 1_555
C23G C23D 1_555 1_555
C23G C24G 1_555 1_555
C23G C24D 1_555 1_555
C23D C24G 1_555 1_555
C23D C24D 1_555 1_555
C23D_2 C23G_2 1_555 1_555
C23D_2 C24D_2 1_555 1_555
C23D_2 C24G_2 1_555 1_555
C23G_2 C24D_2 1_555 1_555
C23G_2 C24G_2 1_555 1_555
C23E C23H 1_555 1_555
C23E C24E 1_555 1_555
C23E C24H 1_555 1_555
C23H C24E 1_555 1_555
C23H C24H 1_555 1_555
C23I_2 C23_2 1_555 1_555
C23I_2 C24I_2 1_555 1_555
C23I_2 C24_2 1_555 1_555
C23_2 C24I_2 1_555 1_555
C23_2 C24_2 1_555 1_555
C23H_2 C23E_2 1_555 1_555
C23H_2 C24H_2 1_555 1_555
C23H_2 C24E_2 1_555 1_555
C23E_2 C24H_2 1_555 1_555
C23E_2 C24E_2 1_555 1_555
C24G C24D 1_555 1_555
C24D_2 C24G_2 1_555 1_555
C24E C24H 1_555 1_555
C24I_2 C24_2 1_555 1_555
C24H_2 C24E_2 1_555 1_555
C25E C26D 1_555 1_555
C25E_2 C26D_2 1_555 1_555
C25C C26E 1_555 1_555
C25A_2 C26_2 1_555 1_555
C25C_2 C26E_2 1_555 1_555
C25B C26A 1_555 1_555
C25C_3 C26E_3 1_555 1_555
C25C_4 C26E_4 1_555 1_555
C25D_3 C26C_3 1_555 1_555
C25B_2 C26A_2 1_555 1_555
C25D_4 C26C_4 1_555 1_555
C28F C37F 1_555 1_555
C39I C41I 1_555 1_555

#END
