
#######################################################################
#
#                 Cambridge Crystallographic Data Centre
#                                CCDC 
#
#######################################################################
#
# If this CIF has been generated from an entry in the Cambridge 
# Structural Database, then it will include bibliographic, chemical, 
# crystal, experimental, refinement or atomic coordinate data resulting 
# from the CCDC's data processing and validation procedures.
#
#######################################################################

data_QAHDOU
_chemical_name_common            UMCM-1-OH
_chemical_formula_moiety         '(C132 H72 O42 Zn12)n'
_chemical_name_systematic        
catena-(tris(\m~6~-4,4',4''-(Benzene-1,3,5-triyl)tribenzoato)-tris(\m~4~-2-hydroxyterephthalato)-tris(\m~4~-oxo)-dodeca-zinc)
_symmetry_cell_setting           hexagonal
_symmetry_space_group_name_H-M   'P 63/m'
_symmetry_Int_Tables_number      176
_space_group_name_Hall           '-P 6c'
loop_
_symmetry_equiv_pos_site_id
_symmetry_equiv_pos_as_xyz
1 x,y,z
2 -y,x-y,z
3 -x+y,-x,z
4 -x,-y,1/2+z
5 y,-x+y,1/2+z
6 x-y,x,1/2+z
7 -x,-y,-z
8 y,-x+y,-z
9 x-y,x,-z
10 x,y,1/2-z
11 -y,x-y,1/2-z
12 -x+y,-x,1/2-z
_cell_length_a                   41.381(13)
_cell_length_b                   41.381(13)
_cell_length_c                   17.548(5)
_cell_angle_alpha                90
_cell_angle_beta                 90
_cell_angle_gamma                120
_cell_volume                     26023.2
_exptl_crystal_colour            orange
_exptl_crystal_description       needle
_cell_formula_units_Z            2
loop_
_atom_site_label
_atom_site_type_symbol
_atom_site_fract_x
_atom_site_fract_y
_atom_site_fract_z
Zn1 Zn 0.400821(9) 0.029157(9) 0.660226(17)
Zn2 Zn 0.477792(14) 0.069440(13) 0.7500
Zn3 Zn 0.425431(14) 0.104844(13) 0.7500
O1 O 0.42657(7) 0.05822(7) 0.7500
O2 O 0.40381(7) 0.11058(6) 0.65717(11)
O3 O 0.38717(6) 0.05735(6) 0.59399(11)
O4 O 0.51310(8) 0.12259(9) 0.7500
O5 O 0.47593(9) 0.14609(9) 0.7500
O6 O 0.48827(6) 0.04776(6) 0.66302(12)
O7 O 0.43309(7) 0.01706(6) 0.60144(11)
O8 O 0.37277(6) 0.35649(6) 0.18624(10)
O9 O 0.4293(3) -0.0199(2) 0.4818(4)
O10 O 0.5422(3) 0.0439(3) 0.6075(6)
C1 C 0.39281(10) 0.09031(11) 0.59916(18)
C2 C 0.38673(11) 0.10638(10) 0.52820(17)
C3 C 0.36972(12) 0.08293(11) 0.46532(18)
C4 C 0.36682(14) 0.09951(12) 0.39727(19)
C5 C 0.37898(12) 0.13723(11) 0.39234(17)
C6 C 0.39489(15) 0.16023(12) 0.45728(19)
C7 C 0.39804(13) 0.14452(12) 0.52720(18)
C8 C 0.37701(13) 0.15450(11) 0.31898(16)
C9 C 0.37407(12) 0.18683(11) 0.32073(16)
C10 C 0.37271(17) 0.20276(14) 0.2500
C11 C 0.37844(17) 0.13862(14) 0.2500
C12 C 0.50711(15) 0.14944(13) 0.7500
C13 C 0.54088(10) 0.18695(8) 0.7500
C14 C 0.57481(12) 0.19355(10) 0.7218(3)
C15 C 0.60567(9) 0.22931(12) 0.7238(5)
C16 C 0.60260(10) 0.25848(8) 0.7516(5)
C17 C 0.56864(12) 0.25185(10) 0.7849(4)
C18 C 0.53779(10) 0.21609(12) 0.7829(3)
C19 C 0.63549(14) 0.29761(14) 0.7500
C20 C 0.67165(14) 0.30242(13) 0.7500
C21 C 0.46736(11) 0.02737(10) 0.61021(19)
C22 C 0.48417(10) 0.01274(10) 0.55203(18)
C23 C 0.52011(12) 0.02174(12) 0.5576(2)
C24 C 0.46441(12) -0.00913(12) 0.4940(2)
C25 C 0.37249(13) 0.34243(12) 0.2500
C26 C 0.37156(14) 0.30607(13) 0.2500
C27 C 0.37114(15) 0.28922(15) 0.1860(2)
C28 C 0.3858(9) 0.2637(8) 0.1882(8)
C29 C 0.3588(8) 0.2492(7) 0.1849(7)
C30 C 0.37217(15) 0.23864(14) 0.2500
Zn1I Zn 0.400821(9) 0.029157(9) 0.839774(17)
Zn1F Zn 0.599179(9) -0.029157(9) 0.339774(17)
Zn1C Zn 0.599179(9) -0.029157(9) 1.160226(17)
Zn1A Zn 0.970843(9) 0.371664(13) 0.660226(17)
Zn1B Zn 0.628336(13) 0.599179(9) 0.660226(17)
Zn1E Zn 0.371664(13) 0.400821(9) 0.160226(17)
Zn1I_2 Zn 0.400821(9) 0.029157(9) -0.160226(17)
Zn1H Zn 0.371664(13) 0.400821(9) 0.339774(17)
Zn1D Zn 0.029157(9) -0.371664(13) 1.160226(17)
Zn1G Zn 0.029157(9) -0.371664(13) 0.339774(17)
Zn1H_2 Zn 0.371664(13) 0.400821(9) 1.339774(17)
Zn1_2 Zn 0.400821(9) 0.029157(9) 1.660226(17)
Zn1E_2 Zn 0.371664(13) 0.400821(9) 1.160226(17)
Zn1J Zn 0.970843(9) 0.371664(13) 0.839774(17)
Zn1G_2 Zn 1.029157(9) 0.628336(13) 0.339774(17)
Zn1K Zn 0.628336(13) 0.599179(9) 0.839774(17)
Zn2A Zn 0.930560(13) 0.408352(19) 0.7500
Zn2B Zn 0.591648(19) 0.522208(14) 0.7500
Zn2C Zn 0.522208(14) -0.069440(13) 0.2500
Zn2C_2 Zn 0.522208(14) -0.069440(13) 1.2500
Zn2D Zn 1.069440(13) 0.591648(19) 0.2500
Zn3A Zn 0.895156(13) 0.320587(19) 0.7500
Zn3B Zn 0.679413(19) 0.574569(14) 0.7500
Zn3_2 Zn 0.425431(14) 0.104844(13) -0.2500
Zn3D Zn 0.104844(13) -0.320587(19) 1.2500
Zn3D_2 Zn 0.104844(13) -0.320587(19) 0.2500
Zn3_3 Zn 0.425431(14) 0.104844(13) 1.7500
O1A O 0.94178(7) 0.36835(10) 0.7500
O1B O 0.63165(10) 0.57343(7) 0.7500
O1C O 0.57343(7) -0.05822(7) 0.2500
O1C_2 O 0.57343(7) -0.05822(7) 1.2500
O2I O 0.40381(7) 0.11058(6) -0.15717(11)
O2D O 0.11058(6) -0.29323(9) 1.15717(11)
O2G O 0.11058(6) -0.29323(9) 0.34283(11)
O2I_2 O 0.40381(7) 0.11058(6) 0.84283(11)
O2_2 O 0.40381(7) 0.11058(6) 1.65717(11)
O2A O 0.88942(6) 0.29323(9) 0.65717(11)
O2J O 0.88942(6) 0.29323(9) 0.84283(11)
O2B O 0.70677(9) 0.59619(7) 0.65717(11)
O2K O 0.70677(9) 0.59619(7) 0.84283(11)
O3I O 0.38717(6) 0.05735(6) -0.09399(11)
O3D O 0.05735(6) -0.32982(8) 1.09399(11)
O3G O 0.05735(6) -0.32982(8) 0.40601(11)
O3I_2 O 0.38717(6) 0.05735(6) 0.90601(11)
O3_2 O 0.38717(6) 0.05735(6) 1.59399(11)
O3F O 0.61283(6) -0.05735(6) 0.40601(11)
O3C O 0.61283(6) -0.05735(6) 1.09399(11)
O3A O 0.94265(6) 0.32982(8) 0.59399(11)
O3B O 0.67018(8) 0.61283(6) 0.59399(11)
O4A O 0.87741(9) 0.39051(12) 0.7500
O4B O 0.60949(12) 0.48690(8) 0.7500
O5A O 0.85391(9) 0.32984(13) 0.7500
O5B O 0.67016(13) 0.52407(9) 0.7500
O6F O 0.51173(6) -0.04776(6) 0.33698(12)
O6I O 0.48827(6) 0.04776(6) 0.83698(12)
O6C O 0.51173(6) -0.04776(6) 1.16302(12)
O6A O 0.95224(6) 0.44051(8) 0.66302(12)
O6G O 1.04776(6) 0.55949(8) 0.33698(12)
O6J O 0.95224(6) 0.44051(8) 0.83698(12)
O6B O 0.55949(8) 0.51173(6) 0.66302(12)
O6K O 0.55949(8) 0.51173(6) 0.83698(12)
O7F O 0.56691(7) -0.01706(6) 0.39856(11)
O7I O 0.43309(7) 0.01706(6) 0.89856(11)
O7C O 0.56691(7) -0.01706(6) 1.10144(11)
O7A O 0.98294(6) 0.41603(9) 0.60144(11)
O7G O 1.01706(6) 0.58397(9) 0.39856(11)
O7B O 0.58397(9) 0.56691(7) 0.60144(11)
O8I O 0.37277(6) 0.35649(6) 0.31376(10)
O8D O 0.35649(6) -0.01628(8) 0.68624(10)
O8G O 0.35649(6) -0.01628(8) 0.81376(10)
O8I_2 O 0.37277(6) 0.35649(6) 1.31376(10)
O8_2 O 0.37277(6) 0.35649(6) 1.18624(10)
O8J O 0.64351(6) 0.01628(8) 0.31376(10)
O8A O 0.64351(6) 0.01628(8) 1.18624(10)
O8E O 1.01628(8) 0.37277(6) 0.68624(10)
O8C O 0.62723(6) 0.64351(6) 0.68624(10)
O9F O 0.5707(3) 0.0199(2) 0.5182(4)
O9I O 0.4293(3) -0.0199(2) 1.0182(4)
O9C O 0.5707(3) 0.0199(2) 0.9818(4)
O9A O 1.0199(2) 0.4492(4) 0.4818(4)
O9G O 0.9801(2) 0.5508(4) 0.5182(4)
O10F O 0.4578(3) -0.0439(3) 0.3925(6)
O10I O 0.5422(3) 0.0439(3) 0.8925(6)
O10C O 0.4578(3) -0.0439(3) 1.1075(6)
O10A O 0.9561(3) 0.4983(4) 0.6075(6)
O10G O 1.0439(3) 0.5017(4) 0.3925(6)
C1I C 0.39281(10) 0.09031(11) -0.09916(18)
C1D C 0.09031(11) -0.30250(15) 1.09916(18)
C1G C 0.09031(11) -0.30250(15) 0.40084(18)
C1I_2 C 0.39281(10) 0.09031(11) 0.90084(18)
C1_2 C 0.39281(10) 0.09031(11) 1.59916(18)
C2I C 0.38673(11) 0.10638(10) -0.02820(17)
C2D C 0.10638(10) -0.28035(15) 1.02820(17)
C2G C 0.10638(10) -0.28035(15) 0.47180(17)
C2I_2 C 0.38673(11) 0.10638(10) 0.97180(17)
C2_2 C 0.38673(11) 0.10638(10) 1.52820(17)
C3I C 0.36972(12) 0.08293(11) 0.03468(18)
C3D C 0.08293(11) -0.28679(16) 0.96532(18)
C3G C 0.08293(11) -0.28679(16) 0.53468(18)
C3I_2 C 0.36972(12) 0.08293(11) 1.03468(18)
C3_2 C 0.36972(12) 0.08293(11) 1.46532(18)
C4I C 0.36682(14) 0.09951(12) 0.10273(19)
C4D C 0.09951(12) -0.26731(18) 0.89727(19)
C4G C 0.09951(12) -0.26731(18) 0.60273(19)
C4I_2 C 0.36682(14) 0.09951(12) 1.10273(19)
C4_2 C 0.36682(14) 0.09951(12) 1.39727(19)
C5I C 0.37898(12) 0.13723(11) 0.10766(17)
C5D C 0.13723(11) -0.24175(16) 0.89234(17)
C5G C 0.13723(11) -0.24175(16) 0.60766(17)
C5I_2 C 0.37898(12) 0.13723(11) 1.10766(17)
C5_2 C 0.37898(12) 0.13723(11) 1.39234(17)
C6I C 0.39489(15) 0.16023(12) 0.04272(19)
C6D C 0.16023(12) -0.23466(19) 0.95728(19)
C6G C 0.16023(12) -0.23466(19) 0.54272(19)
C6I_2 C 0.39489(15) 0.16023(12) 1.04272(19)
C6_2 C 0.39489(15) 0.16023(12) 1.45728(19)
C7I C 0.39804(13) 0.14452(12) -0.02720(18)
C7D C 0.14452(12) -0.25352(18) 1.02720(18)
C7G C 0.14452(12) -0.25352(18) 0.47280(18)
C7I_2 C 0.39804(13) 0.14452(12) 0.97280(18)
C7_2 C 0.39804(13) 0.14452(12) 1.52720(18)
C8I C 0.37701(13) 0.15450(11) 0.18102(16)
C8D C 0.15450(11) -0.22251(17) 0.81898(16)
C8G C 0.15450(11) -0.22251(17) 0.68102(16)
C8I_2 C 0.37701(13) 0.15450(11) 1.18102(16)
C8_2 C 0.37701(13) 0.15450(11) 1.31898(16)
C9I C 0.37407(12) 0.18683(11) 0.17927(16)
C9D C 0.18683(11) -0.18724(16) 0.82073(16)
C9G C 0.18683(11) -0.18724(16) 0.67927(16)
C9I_2 C 0.37407(12) 0.18683(11) 1.17927(16)
C9_2 C 0.37407(12) 0.18683(11) 1.32073(16)
C10D C 0.20276(14) -0.16995(22) 0.7500
C10_2 C 0.37271(17) 0.20276(14) 1.2500
C11D C 0.13862(14) -0.23982(22) 0.7500
C11_2 C 0.37844(17) 0.13862(14) 1.2500
C12A C 0.85056(13) 0.35767(20) 0.7500
C12B C 0.64233(20) 0.49289(15) 0.7500
C13A C 0.81305(8) 0.35393(13) 0.7500
C13B C 0.64607(13) 0.45912(10) 0.7500
C14I C 0.57481(12) 0.19355(10) 0.7782(3)
C14A C 0.80645(10) 0.38126(16) 0.7218(3)
C14J C 0.80645(10) 0.38126(16) 0.7782(3)
C14B C 0.61874(16) 0.42519(12) 0.7218(3)
C14K C 0.61874(16) 0.42519(12) 0.7782(3)
C15I C 0.60567(9) 0.22931(12) 0.7762(5)
C15A C 0.77069(12) 0.37636(15) 0.7238(5)
C15J C 0.77069(12) 0.37636(15) 0.7762(5)
C15B C 0.62364(15) 0.39433(9) 0.7238(5)
C15K C 0.62364(15) 0.39433(9) 0.7762(5)
C16A C 0.74152(8) 0.34412(13) 0.7516(5)
C16B C 0.65588(13) 0.39740(10) 0.7516(5)
C17A C 0.74815(10) 0.31679(16) 0.7849(4)
C17J C 0.74815(10) 0.31679(16) 0.7151(4)
C17B C 0.68321(16) 0.43136(12) 0.7849(4)
C17K C 0.68321(16) 0.43136(12) 0.7151(4)
C17I C 0.56864(12) 0.25185(10) 0.7151(4)
C18A C 0.78391(12) 0.32170(16) 0.7829(3)
C18J C 0.78391(12) 0.32170(16) 0.7171(3)
C18B C 0.67830(16) 0.46221(10) 0.7829(3)
C18K C 0.67830(16) 0.46221(10) 0.7171(3)
C18I C 0.53779(10) 0.21609(12) 0.7171(3)
C19A C 0.70239(14) 0.33788(20) 0.7500
C19B C 0.66212(20) 0.36451(14) 0.7500
C20A C 0.69758(13) 0.36923(19) 0.7500
C20B C 0.63077(19) 0.32835(14) 0.7500
C21F C 0.53264(11) -0.02737(10) 0.38979(19)
C21I C 0.46736(11) 0.02737(10) 0.88979(19)
C21C C 0.53264(11) -0.02737(10) 1.11021(19)
C21A C 0.97263(10) 0.43999(15) 0.61021(19)
C21G C 1.02737(10) 0.56001(15) 0.38979(19)
C22F C 0.51583(10) -0.01274(10) 0.44797(18)
C22I C 0.48417(10) 0.01274(10) 0.94797(18)
C22C C 0.51583(10) -0.01274(10) 1.05203(18)
C22A C 0.98726(10) 0.47143(14) 0.55203(18)
C22G C 1.01274(10) 0.52857(14) 0.44797(18)
C23F C 0.47989(12) -0.02174(12) 0.4424(2)
C23I C 0.52011(12) 0.02174(12) 0.9424(2)
C23C C 0.47989(12) -0.02174(12) 1.0576(2)
C23A C 0.97826(12) 0.49837(17) 0.5576(2)
C23G C 1.02174(12) 0.50163(17) 0.4424(2)
C24F C 0.53559(12) 0.00913(12) 0.5060(2)
C24I C 0.46441(12) -0.00913(12) 1.0060(2)
C24C C 0.53559(12) 0.00913(12) 0.9940(2)
C24A C 1.00913(12) 0.47354(17) 0.4940(2)
C24G C 0.99087(12) 0.52646(17) 0.5060(2)
C25D C 0.34243(12) -0.03006(18) 0.7500
C25_2 C 0.37249(13) 0.34243(12) 1.2500
C26D C 0.30607(13) -0.06549(19) 0.7500
C26_2 C 0.37156(14) 0.30607(13) 1.2500
C27I C 0.37114(15) 0.28922(15) 0.3140(2)
C27D C 0.28922(15) -0.08192(21) 0.6860(2)
C27G C 0.28922(15) -0.08192(21) 0.8140(2)
C27I_2 C 0.37114(15) 0.28922(15) 1.3140(2)
C27_2 C 0.37114(15) 0.28922(15) 1.1860(2)
C28I C 0.3858(9) 0.2637(8) 0.3118(8)
C28D C 0.2637(8) -0.1221(12) 0.6882(8)
C28G C 0.2637(8) -0.1221(12) 0.8118(8)
C28I_2 C 0.3858(9) 0.2637(8) 1.3118(8)
C28_2 C 0.3858(9) 0.2637(8) 1.1882(8)
C29I C 0.3588(8) 0.2492(7) 0.3151(7)
C29D C 0.2492(7) -0.1096(11) 0.6849(7)
C29G C 0.2492(7) -0.1096(11) 0.8151(7)
C29I_2 C 0.3588(8) 0.2492(7) 1.3151(7)
C29_2 C 0.3588(8) 0.2492(7) 1.1849(7)
C30D C 0.23864(14) -0.13353(21) 0.7500
C30_2 C 0.37217(15) 0.23864(14) 1.2500
loop_
_geom_bond_atom_site_label_1
_geom_bond_atom_site_label_2
_geom_bond_site_symmetry_1
_geom_bond_site_symmetry_2
Zn1 O1 1_555 1_555
Zn2 O1 1_555 1_555
Zn3 O1 1_555 1_555
O1 Zn1I 1_555 1_555
O2 Zn3 1_555 1_555
O3 Zn1 1_555 1_555
O4 Zn2 1_555 1_555
O5 Zn3 1_555 1_555
O6 Zn2 1_555 1_555
O7 Zn1 1_555 1_555
O8 C25 1_555 1_555
O9 C24 1_555 1_555
O10 C23 1_555 1_555
C1 O2 1_555 1_555
C2 C1 1_555 1_555
C3 C2 1_555 1_555
C4 C3 1_555 1_555
C5 C4 1_555 1_555
C6 C5 1_555 1_555
C7 C2 1_555 1_555
C8 C5 1_555 1_555
C9 C8 1_555 1_555
C10 C9 1_555 1_555
C11 C8 1_555 1_555
C12 O4 1_555 1_555
C13 C12 1_555 1_555
C14 C13 1_555 1_555
C15 C14 1_555 1_555
C16 C15 1_555 1_555
C17 C16 1_555 1_555
C18 C13 1_555 1_555
C19 C16 1_555 1_555
C20 C19 1_555 1_555
C21 O6 1_555 1_555
C22 C21 1_555 1_555
C23 C22 1_555 1_555
C24 C22 1_555 1_555
C25 C26 1_555 1_555
C26 C27 1_555 1_555
C27 C28 1_555 1_555
C28 C29 1_555 1_555
C29 C27 1_555 1_555
C30 C10 1_555 1_555
Zn1I O3I_2 1_555 1_555
Zn1F O1C 1_555 1_555
Zn1C O1C_2 1_555 1_555
Zn1A O1A 1_555 1_555
Zn1B O1B 1_555 1_555
Zn1E O8 1_555 1_555
Zn1I_2 O3I 1_555 1_555
Zn1H O8I 1_555 1_555
Zn1D O3D 1_555 1_555
Zn1G O3G 1_555 1_555
Zn1H_2 O8I_2 1_555 1_555
Zn1_2 O3_2 1_555 1_555
Zn1E_2 O8_2 1_555 1_555
Zn1J O1A 1_555 1_555
Zn1G_2 O7G 1_555 1_555
Zn1K O1B 1_555 1_555
Zn2A O1A 1_555 1_555
Zn2B O1B 1_555 1_555
Zn2C O1C 1_555 1_555
Zn2C_2 O1C_2 1_555 1_555
Zn2D O6G 1_555 1_555
Zn3A O1A 1_555 1_555
Zn3B O1B 1_555 1_555
Zn3_2 O2I 1_555 1_555
Zn3D O2D 1_555 1_555
Zn3D_2 O2G 1_555 1_555
Zn3_3 O2_2 1_555 1_555
O2I C1I 1_555 1_555
O2D C1D 1_555 1_555
O2G C1G 1_555 1_555
O2I_2 Zn3 1_555 1_555
O2_2 C1_2 1_555 1_555
O2A Zn3A 1_555 1_555
O2J Zn3A 1_555 1_555
O2B Zn3B 1_555 1_555
O2K Zn3B 1_555 1_555
O3I C1I 1_555 1_555
O3D C1D 1_555 1_555
O3G C1G 1_555 1_555
O3I_2 C1I_2 1_555 1_555
O3_2 C1_2 1_555 1_555
O3F Zn1F 1_555 1_555
O3C Zn1C 1_555 1_555
O3A Zn1A 1_555 1_555
O3B Zn1B 1_555 1_555
O4A Zn2A 1_555 1_555
O4B Zn2B 1_555 1_555
O5A Zn3A 1_555 1_555
O5B Zn3B 1_555 1_555
O6F Zn2C 1_555 1_555
O6I Zn2 1_555 1_555
O6C Zn2C_2 1_555 1_555
O6A Zn2A 1_555 1_555
O6G C21G 1_555 1_555
O6J Zn2A 1_555 1_555
O6B Zn2B 1_555 1_555
O6K Zn2B 1_555 1_555
O7F Zn1F 1_555 1_555
O7I Zn1I 1_555 1_555
O7C Zn1C 1_555 1_555
O7A Zn1A 1_555 1_555
O7G C21G 1_555 1_555
O7B Zn1B 1_555 1_555
O8I C25 1_555 1_555
O8D Zn1 1_555 1_555
O8G Zn1I 1_555 1_555
O8I_2 C25_2 1_555 1_555
O8_2 C25_2 1_555 1_555
O8J Zn1F 1_555 1_555
O8A Zn1C 1_555 1_555
O8E Zn1A 1_555 1_555
O8C Zn1B 1_555 1_555
O9F C24F 1_555 1_555
O9I C24I 1_555 1_555
O9C C24C 1_555 1_555
O9A C24A 1_555 1_555
O9G C24G 1_555 1_555
O10F C23F 1_555 1_555
O10I C23I 1_555 1_555
O10C C23C 1_555 1_555
O10A C23A 1_555 1_555
O10G C23G 1_555 1_555
C1I C2I 1_555 1_555
C1D C2D 1_555 1_555
C1G C2G 1_555 1_555
C1I_2 O2I_2 1_555 1_555
C1_2 C2_2 1_555 1_555
C2I C3I 1_555 1_555
C2D C3D 1_555 1_555
C2G C3G 1_555 1_555
C2I_2 C1I_2 1_555 1_555
C2_2 C3_2 1_555 1_555
C3I C4I 1_555 1_555
C3D C4D 1_555 1_555
C3G C4G 1_555 1_555
C3I_2 C2I_2 1_555 1_555
C3_2 C4_2 1_555 1_555
C4I C5I 1_555 1_555
C4D C5D 1_555 1_555
C4G C5G 1_555 1_555
C4I_2 C3I_2 1_555 1_555
C4_2 C5_2 1_555 1_555
C5I C6I 1_555 1_555
C5D C6D 1_555 1_555
C5G C6G 1_555 1_555
C5I_2 C4I_2 1_555 1_555
C5_2 C6_2 1_555 1_555
C6I C7I 1_555 1_555
C6D C7D 1_555 1_555
C6G C7G 1_555 1_555
C6I_2 C5I_2 1_555 1_555
C6_2 C7_2 1_555 1_555
C7I C2I 1_555 1_555
C7D C2D 1_555 1_555
C7G C2G 1_555 1_555
C7I_2 C2I_2 1_555 1_555
C7_2 C2_2 1_555 1_555
C8I C11 1_555 1_555
C8D C5D 1_555 1_555
C8G C5G 1_555 1_555
C8I_2 C5I_2 1_555 1_555
C8_2 C5_2 1_555 1_555
C9I C10 1_555 1_555
C9D C8D 1_555 1_555
C9G C8G 1_555 1_555
C9I_2 C8I_2 1_555 1_555
C9_2 C8_2 1_555 1_555
C10D C9D 1_555 1_555
C10_2 C9I_2 1_555 1_555
C11D C8D 1_555 1_555
C11_2 C8I_2 1_555 1_555
C12A O4A 1_555 1_555
C12B O4B 1_555 1_555
C13A C12A 1_555 1_555
C13B C12B 1_555 1_555
C14I C13 1_555 1_555
C14A C13A 1_555 1_555
C14J C13A 1_555 1_555
C14B C13B 1_555 1_555
C14K C13B 1_555 1_555
C15I C14 1_555 1_555
C15A C14A 1_555 1_555
C15J C14A 1_555 1_555
C15B C14B 1_555 1_555
C15K C14B 1_555 1_555
C16A C15A 1_555 1_555
C16B C15B 1_555 1_555
C17A C16A 1_555 1_555
C17J C16A 1_555 1_555
C17B C16B 1_555 1_555
C17K C16B 1_555 1_555
C17I C16 1_555 1_555
C18A C13A 1_555 1_555
C18J C13A 1_555 1_555
C18B C13B 1_555 1_555
C18K C13B 1_555 1_555
C18I C13 1_555 1_555
C19A C20 1_555 1_555
C19B C16B 1_555 1_555
C20A C19A 1_555 1_555
C20B C19 1_555 1_555
C21F O6F 1_555 1_555
C21I O6I 1_555 1_555
C21C O6C 1_555 1_555
C21A O6A 1_555 1_555
C21G C22G 1_555 1_555
C22F C21F 1_555 1_555
C22I C21I 1_555 1_555
C22C C21C 1_555 1_555
C22A C21A 1_555 1_555
C22G C23G 1_555 1_555
C23F C24 1_555 1_555
C23I C22I 1_555 1_555
C23C C22C 1_555 1_555
C23A C22A 1_555 1_555
C23G C24A 1_555 1_555
C24F C23 1_555 1_555
C24I C22I 1_555 1_555
C24C C22C 1_555 1_555
C24A C22A 1_555 1_555
C24G C22G 1_555 1_555
C25D O8D 1_555 1_555
C25_2 C26_2 1_555 1_555
C26D C25D 1_555 1_555
C26_2 C27I_2 1_555 1_555
C27I C26 1_555 1_555
C27D C26D 1_555 1_555
C27G C26D 1_555 1_555
C27I_2 C28I_2 1_555 1_555
C27_2 C26_2 1_555 1_555
C28I C30 1_555 1_555
C28D C27D 1_555 1_555
C28G C27G 1_555 1_555
C28I_2 C29I_2 1_555 1_555
C28_2 C27_2 1_555 1_555
C29I C30 1_555 1_555
C29D C27D 1_555 1_555
C29G C27G 1_555 1_555
C29I_2 C27I_2 1_555 1_555
C29_2 C27_2 1_555 1_555
C30D C10D 1_555 1_555
C30_2 C10_2 1_555 1_555
O3 C1 1_555 1_555
O5 C12 1_555 1_555
O7 C21 1_555 1_555
C6 C7 1_555 1_555
C14 C14I 1_555 1_555
C15 C14I 1_555 1_555
C15 C15I 1_555 1_555
C16 C15I 1_555 1_555
C17 C18 1_555 1_555
C17 C17I 1_555 1_555
C18 C18I 1_555 1_555
C28 C30 1_555 1_555
C29 C30 1_555 1_555
O5A C12A 1_555 1_555
O5B C12B 1_555 1_555
O7F C21F 1_555 1_555
O7I C21I 1_555 1_555
O7C C21C 1_555 1_555
O7A C21A 1_555 1_555
O8G C25D 1_555 1_555
C5I C8I 1_555 1_555
C6I_2 C7I_2 1_555 1_555
C8I C9I 1_555 1_555
C8G C11D 1_555 1_555
C8_2 C11_2 1_555 1_555
C9G C10D 1_555 1_555
C9_2 C10_2 1_555 1_555
C14I C15I 1_555 1_555
C14A C14J 1_555 1_555
C14J C15A 1_555 1_555
C14J C15J 1_555 1_555
C14B C14K 1_555 1_555
C14K C15B 1_555 1_555
C14K C15K 1_555 1_555
C15A C15J 1_555 1_555
C15J C16A 1_555 1_555
C15B C15K 1_555 1_555
C15K C16B 1_555 1_555
C16A C19A 1_555 1_555
C17A C17J 1_555 1_555
C17A C18A 1_555 1_555
C17J C18J 1_555 1_555
C17B C17K 1_555 1_555
C17B C18B 1_555 1_555
C17K C18K 1_555 1_555
C17I C18I 1_555 1_555
C18A C18J 1_555 1_555
C18B C18K 1_555 1_555
C19B C20A 1_555 1_555
C19B C20B 1_555 1_555
C22F C23F 1_555 1_555
C22F C24F 1_555 1_555
C23I C24C 1_555 1_555
C23C C24I 1_555 1_555
C23A C24G 1_555 1_555
C27I C28I 1_555 1_555
C27I C29I 1_555 1_555
C28I C29I 1_555 1_555
C28D C29D 1_555 1_555
C28D C30D 1_555 1_555
C28G C29G 1_555 1_555
C28G C30D 1_555 1_555
C28I_2 C30_2 1_555 1_555
C28_2 C29_2 1_555 1_555
C28_2 C30_2 1_555 1_555
C29D C30D 1_555 1_555
C29G C30D 1_555 1_555
C29I_2 C30_2 1_555 1_555
C29_2 C30_2 1_555 1_555

#END
