
#######################################################################
#
#                 Cambridge Crystallographic Data Centre
#                                CCDC 
#
#######################################################################
#
# If this CIF has been generated from an entry in the Cambridge 
# Structural Database, then it will include bibliographic, chemical, 
# crystal, experimental, refinement or atomic coordinate data resulting 
# from the CCDC's data processing and validation procedures.
#
#######################################################################

data_LUSWEC
_chemical_formula_moiety         '(C34 H28 N2 O8 Rh2)n,0.4n(C1 O2)'
_chemical_name_systematic        
'catena-(tetrakis(\m~2~-benzoato)-(\m~2~-2,3-dimethylpyrazine)-di-rhodium(ii) carbon dioxide solvate)'
_symmetry_cell_setting           triclinic
_symmetry_space_group_name_H-M   'P -1'
_symmetry_Int_Tables_number      2
_space_group_name_Hall           '-P 1'
loop_
_symmetry_equiv_pos_site_id
_symmetry_equiv_pos_as_xyz
1 x,y,z
2 -x,-y,-z
_cell_length_a                   10.3170(11)
_cell_length_b                   10.4309(11)
_cell_length_c                   15.6740(16)
_cell_angle_alpha                80.248(2)
_cell_angle_beta                 81.189(2)
_cell_angle_gamma                87.870(2)
_cell_volume                     1642.67
_exptl_crystal_colour            red
_exptl_crystal_description       plate
_cell_formula_units_Z            2
loop_
_atom_site_label
_atom_site_type_symbol
_atom_site_fract_x
_atom_site_fract_y
_atom_site_fract_z
_atom_site_U_iso_or_equiv
_atom_site_thermal_displace_type
C1 C 0.5928(5) 0.2939(6) -0.5621(3) 0.0166 Uani
C2 C 0.6435(5) 0.1751(6) -0.5982(3) 0.0169 Uani
C3 C 0.6555(6) 0.0585(6) -0.5431(4) 0.0218 Uani
H1 H 0.6246 0.0520 -0.4822 0.0260 Uiso
C4 C 0.7121(6) -0.0492(6) -0.5758(4) 0.0245 Uani
H2 H 0.7192 -0.1295 -0.5378 0.0290 Uiso
C5 C 0.7585(6) -0.0387(6) -0.6649(4) 0.0244 Uani
H3 H 0.8003 -0.1112 -0.6874 0.0290 Uiso
C6 C 0.7437(6) 0.0776(6) -0.7209(4) 0.0255 Uani
H4 H 0.7729 0.0834 -0.7820 0.0310 Uiso
C7 C 0.6870(6) 0.1845(6) -0.6884(4) 0.0217 Uani
H5 H 0.6774 0.2641 -0.7268 0.0260 Uiso
C8 C 0.7197(6) 0.5412(6) -0.4450(4) 0.0210 Uani
C9 C 0.8373(6) 0.5745(6) -0.4103(4) 0.0214 Uani
C10 C 0.8417(7) 0.5424(7) -0.3205(5) 0.0347 Uani
H6 H 0.7712 0.4962 -0.2832 0.0420 Uiso
C11 C 0.9467(7) 0.5768(8) -0.2856(5) 0.0433 Uani
H7 H 0.9491 0.5556 -0.2245 0.0520 Uiso
C12 C 1.0485(7) 0.6425(8) -0.3404(5) 0.0416 Uani
H8 H 1.1214 0.6677 -0.3169 0.0500 Uiso
C13 C 1.0455(7) 0.6719(7) -0.4291(5) 0.0395 Uani
H9 H 1.1178 0.7151 -0.4664 0.0470 Uiso
C14 C 0.9397(6) 0.6400(6) -0.4648(4) 0.0287 Uani
H10 H 0.9373 0.6627 -0.5258 0.0340 Uiso
C15 C -0.1142(5) -0.0441(6) -0.1292(3) 0.0174 Uani
C16 C -0.1776(5) -0.0779(6) -0.2017(4) 0.0180 Uani
C17 C -0.1223(6) -0.0396(7) -0.2885(4) 0.0278 Uani
H11 H -0.0433 0.0086 -0.3022 0.0330 Uiso
C18 C -0.1824(6) -0.0717(7) -0.3550(4) 0.0296 Uani
H12 H -0.1449 -0.0443 -0.4143 0.0350 Uiso
C19 C -0.2963(6) -0.1431(7) -0.3360(4) 0.0284 Uani
H13 H -0.3370 -0.1651 -0.3820 0.0340 Uiso
C20 C -0.3513(6) -0.1828(6) -0.2489(4) 0.0277 Uani
H14 H -0.4296 -0.2320 -0.2353 0.0330 Uiso
C21 C -0.2916(6) -0.1505(6) -0.1824(4) 0.0244 Uani
H15 H -0.3289 -0.1781 -0.1231 0.0290 Uiso
C22 C -0.1349(6) 0.2143(6) 0.0140(3) 0.0182 Uani
C23 C -0.2106(6) 0.3355(6) 0.0252(4) 0.0200 Uani
C24 C -0.1579(6) 0.4551(6) -0.0134(4) 0.0259 Uani
H16 H -0.0747 0.4590 -0.0493 0.0310 Uiso
C25 C -0.2250(7) 0.5695(6) -0.0006(5) 0.0333 Uani
H17 H -0.1873 0.6514 -0.0261 0.0400 Uiso
C26 C -0.3474(7) 0.5628(7) 0.0498(5) 0.0331 Uani
H18 H -0.3951 0.6408 0.0575 0.0400 Uiso
C27 C -0.4013(7) 0.4445(7) 0.0892(5) 0.0368 Uani
H19 H -0.4850 0.4409 0.1246 0.0440 Uiso
C28 C -0.3327(6) 0.3314(7) 0.0769(4) 0.0310 Uani
H20 H -0.3695 0.2497 0.1040 0.0370 Uiso
C29 C 0.2505(5) 0.3507(5) -0.2748(3) 0.0168 Uani
H21 H 0.2103 0.4203 -0.3091 0.0200 Uiso
C30 C 0.1774(6) 0.2837(6) -0.2011(4) 0.0186 Uani
H22 H 0.0875 0.3063 -0.1871 0.0220 Uiso
C31 C 0.3589(6) 0.1632(6) -0.1694(3) 0.0179 Uani
C32 C 0.4316(5) 0.2290(5) -0.2475(3) 0.0168 Uani
C33 C 0.4244(6) 0.0654(6) -0.1081(4) 0.0249 Uani
H23 H 0.3625 0.0372 -0.0548 0.0370 Uiso
H24 H 0.5008 0.1047 -0.0930 0.0370 Uiso
H25 H 0.4529 -0.0099 -0.1365 0.0370 Uiso
C34 C 0.5723(6) 0.1919(7) -0.2740(4) 0.0316 Uani
H26 H 0.6043 0.2395 -0.3325 0.0470 Uiso
H27 H 0.5788 0.0982 -0.2749 0.0470 Uiso
H28 H 0.6255 0.2139 -0.2320 0.0470 Uiso
N1 N 0.3758(4) 0.3214(5) -0.2996(3) 0.0164 Uani
N2 N 0.2297(5) 0.1877(5) -0.1488(3) 0.0164 Uani
O1 O 0.5378(4) 0.2774(4) -0.4826(2) 0.0182 Uani
O2 O 0.6092(4) 0.4001(4) -0.6134(2) 0.0192 Uani
O3 O 0.6351(4) 0.4687(4) -0.3933(2) 0.0199 Uani
O4 O 0.7086(4) 0.5918(4) -0.5238(2) 0.0185 Uani
O5 O -0.0137(4) 0.0259(4) -0.1487(2) 0.0167 Uani
O6 O -0.1669(4) -0.0915(4) -0.0522(2) 0.0200 Uani
O7 O -0.0279(4) 0.2250(4) -0.0379(2) 0.0190 Uani
O8 O -0.1834(4) 0.1085(4) 0.0571(2) 0.0201 Uani
Rh1 Rh 0.46187(4) 0.43487(4) -0.43058(3) 0.0151 Uani
Rh2 Rh 0.08259(4) 0.06231(4) -0.05082(3) 0.0151 Uani
O2A O 0.3908(4) 0.5999(4) -0.3866(2) 0.0192 Uani
O4A O 0.2914(4) 0.4082(4) -0.4762(2) 0.0185 Uani
O6A O 0.1669(4) 0.0915(4) 0.0522(2) 0.0200 Uani
O8A O 0.1834(4) -0.1085(4) -0.0571(2) 0.0201 Uani
Rh1A Rh 0.53813(4) 0.56513(4) -0.56942(3) 0.0151 Uani
Rh2A Rh -0.08259(4) -0.06231(4) 0.05082(3) 0.0151 Uani
C35 C 0.876(3) 0.267(5) -0.2460(17) 0.2032 Uani
O9 O 0.936(2) 0.264(3) -0.3152(15) 0.1961 Uani
O10 O 0.804(2) 0.275(3) -0.1827(15) 0.2012 Uani
loop_
_atom_site_aniso_label
_atom_site_aniso_U_11
_atom_site_aniso_U_22
_atom_site_aniso_U_33
_atom_site_aniso_U_23
_atom_site_aniso_U_13
_atom_site_aniso_U_12
C1 0.017 0.019 0.013 -0.003 0.002 -0.004
C2 0.02 0.018 0.012 -0.006 0.004 -0.002
C3 0.028 0.019 0.017 -0.003 0.002 -0.003
C4 0.031 0.015 0.025 0.001 -0.001 -0.002
C5 0.029 0.022 0.022 -0.009 0.003 -0.003
C6 0.032 0.027 0.017 -0.006 0.002 -0.006
C7 0.026 0.021 0.017 -0.004 0.003 -0.008
C8 0.025 0.019 0.017 0 0 0.001
C9 0.024 0.015 0.026 -0.004 -0.005 -0.002
C10 0.039 0.03 0.035 0 -0.01 -0.007
C11 0.043 0.042 0.047 -0.001 -0.018 -0.011
C12 0.035 0.041 0.054 -0.008 -0.021 -0.007
C13 0.027 0.035 0.057 -0.008 -0.006 -0.006
C14 0.024 0.026 0.034 -0.004 0.003 -0.006
C15 0.021 0.018 0.012 -0.002 0.001 -0.003
C16 0.023 0.018 0.012 -0.003 0.002 -0.003
C17 0.026 0.037 0.018 -0.004 0.005 -0.005
C18 0.031 0.039 0.018 -0.005 0 -0.003
C19 0.033 0.031 0.023 -0.006 -0.008 0
C20 0.029 0.027 0.025 0 -0.001 -0.005
C21 0.029 0.025 0.017 -0.001 0.002 -0.004
C22 0.027 0.016 0.009 0.0011 0.003 -0.004
C23 0.025 0.019 0.014 -0.002 0.003 -0.002
C24 0.028 0.019 0.03 -0.004 -0.002 0
C25 0.039 0.018 0.042 -0.002 -0.006 -0.004
C26 0.04 0.023 0.037 -0.007 -0.006 0.002
C27 0.043 0.026 0.038 -0.005 0.004 0.001
C28 0.036 0.025 0.028 0 0.003 -0.002
C29 0.021 0.015 0.01 0.005 0.004 -0.003
C30 0.022 0.015 0.015 0.002 0.005 -0.004
C31 0.024 0.018 0.01 0 0.001 -0.005
C32 0.022 0.014 0.012 0 0.004 -0.004
C33 0.025 0.027 0.018 0.006 0.002 -0.006
C34 0.029 0.03 0.026 0.008 0.012 0.001
N1 0.014 0.019 0.014 0.0004 0.0024 -0.0053
N2 0.025 0.016 0.006 -0.0014 0.0056 -0.0046
O1 0.024 0.017 0.0103 0.002 0.0035 -0.0032
O2 0.029 0.015 0.0102 0.0013 0.0049 -0.0028
O3 0.024 0.02 0.0128 0.0021 0.0021 -0.0055
O4 0.0171 0.021 0.0159 -0.0017 0.0033 -0.0092
O5 0.023 0.017 0.0091 -0.0018 0.0019 -0.0055
O6 0.026 0.018 0.0133 0.004 0.0005 -0.0085
O7 0.025 0.013 0.0163 0.0004 0.0032 -0.0033
O8 0.026 0.016 0.015 0.0019 0.0035 -0.0055
Rh1 0.0204 0.0128 0.009 0.00185 0.00483 -0.00427
Rh2 0.0221 0.0119 0.0081 0.00158 0.0054 -0.00562
O2A 0.029 0.015 0.0102 0.0013 0.0049 -0.0028
O4A 0.0171 0.021 0.0159 -0.0017 0.0033 -0.0092
O6A 0.026 0.018 0.0133 0.004 0.0005 -0.0085
O8A 0.026 0.016 0.015 0.0019 0.0035 -0.0055
Rh1A 0.0204 0.0128 0.009 0.00185 0.00483 -0.00427
Rh2A 0.0221 0.0119 0.0081 0.00158 0.0054 -0.00562
C35 0.204 0.202 0.204 -0.036 -0.028 -0.006
O9 0.196 0.197 0.198 -0.036 -0.033 -0.009
O10 0.203 0.201 0.199 -0.034 -0.025 -0.011
loop_
_geom_bond_atom_site_label_1
_geom_bond_atom_site_label_2
_geom_bond_site_symmetry_1
_geom_bond_site_symmetry_2
C1 C2 1_555 1_555
C2 C3 1_555 1_555
C3 H1 1_555 1_555
C4 C3 1_555 1_555
H2 C4 1_555 1_555
C5 C4 1_555 1_555
H3 C5 1_555 1_555
C6 C5 1_555 1_555
H4 C6 1_555 1_555
C7 C2 1_555 1_555
H5 C7 1_555 1_555
C8 C9 1_555 1_555
C9 C10 1_555 1_555
C10 H6 1_555 1_555
C11 C10 1_555 1_555
H7 C11 1_555 1_555
C12 C11 1_555 1_555
H8 C12 1_555 1_555
C13 C12 1_555 1_555
H9 C13 1_555 1_555
C14 C9 1_555 1_555
H10 C14 1_555 1_555
C15 C16 1_555 1_555
C16 C17 1_555 1_555
C17 H11 1_555 1_555
C18 C17 1_555 1_555
H12 C18 1_555 1_555
C19 C18 1_555 1_555
H13 C19 1_555 1_555
C20 C19 1_555 1_555
H14 C20 1_555 1_555
C21 C16 1_555 1_555
H15 C21 1_555 1_555
C22 C23 1_555 1_555
C23 C24 1_555 1_555
C24 H16 1_555 1_555
C25 C24 1_555 1_555
H17 C25 1_555 1_555
C26 C25 1_555 1_555
H18 C26 1_555 1_555
C27 C26 1_555 1_555
H19 C27 1_555 1_555
C28 C23 1_555 1_555
H20 C28 1_555 1_555
C29 H21 1_555 1_555
C30 C29 1_555 1_555
H22 C30 1_555 1_555
C31 C32 1_555 1_555
C32 C34 1_555 1_555
C33 C31 1_555 1_555
H23 C33 1_555 1_555
H24 C33 1_555 1_555
H25 C33 1_555 1_555
C34 H26 1_555 1_555
H27 C34 1_555 1_555
H28 C34 1_555 1_555
C35 O9 1_555 1_555
N1 C29 1_555 1_555
N2 C30 1_555 1_555
O1 C1 1_555 1_555
O2 C1 1_555 1_555
O3 C8 1_555 1_555
O4 C8 1_555 1_555
O5 C15 1_555 1_555
O6 C15 1_555 1_555
O7 C22 1_555 1_555
O8 C22 1_555 1_555
O10 C35 1_555 1_555
Rh1 N1 1_555 1_555
Rh2 N2 1_555 1_555
O2A Rh1 1_555 1_555
O4A Rh1 1_555 1_555
O6A Rh2 1_555 1_555
O8A Rh2 1_555 1_555
Rh1A O2 1_555 1_555
Rh2A O6 1_555 1_555
C6 C7 1_555 1_555
C13 C14 1_555 1_555
C20 C21 1_555 1_555
C27 C28 1_555 1_555
C31 N2 1_555 1_555
C32 N1 1_555 1_555
O1 Rh1 1_555 1_555
O3 Rh1 1_555 1_555
O4 Rh1A 1_555 1_555
O5 Rh2 1_555 1_555
O7 Rh2 1_555 1_555
O8 Rh2A 1_555 1_555
Rh1 Rh1A 1_555 1_555
Rh2 Rh2A 1_555 1_555

#END
