
#######################################################################
#
#                 Cambridge Crystallographic Data Centre
#                                CCDC 
#
#######################################################################
#
# If this CIF has been generated from an entry in the Cambridge 
# Structural Database, then it will include bibliographic, chemical, 
# crystal, experimental, refinement or atomic coordinate data resulting 
# from the CCDC's data processing and validation procedures.
#
#######################################################################

data_FECYUJ
_chemical_formula_moiety         '(C75 H49 N1 O30 Zn8)n,1.7n(H2 O1)'
_chemical_name_systematic        
'catena-(bis(\m~4~-Oxo)-hexakis(\m~4~-naphthalene-2,6-dicarboxylato)-triaqua-dimethylformamide-octa-zinc hydrate clathrate)'
_symmetry_cell_setting           triclinic
_symmetry_space_group_name_H-M   'P -1'
_symmetry_Int_Tables_number      2
_space_group_name_Hall           '-P 1'
loop_
_symmetry_equiv_pos_site_id
_symmetry_equiv_pos_as_xyz
1 x,y,z
2 -x,-y,-z
_cell_length_a                   18.6086(8)
_cell_length_b                   20.2422(7)
_cell_length_c                   20.8135(7)
_cell_angle_alpha                70.421(3)
_cell_angle_beta                 68.955(3)
_cell_angle_gamma                68.031(4)
_cell_volume                     6600.68
_exptl_crystal_colour            brown
_exptl_crystal_description       block
_cell_formula_units_Z            2
loop_
_atom_site_label
_atom_site_type_symbol
_atom_site_fract_x
_atom_site_fract_y
_atom_site_fract_z
Zn1 Zn 0.63553(3) 0.78775(3) 0.47691(2)
Zn2 Zn 0.61532(3) 0.64152(3) 0.47331(3)
Zn3 Zn 0.78068(3) 0.64767(3) 0.47471(2)
Zn4 Zn 0.63571(3) 0.65894(3) 0.61730(3)
Zn5 Zn 0.19902(3) 1.20825(3) 0.90605(2)
Zn6 Zn 1.19587(3) 1.07844(3) 0.04017(3)
Zn7 Zn 1.05113(3) 1.22246(3) 0.04027(2)
Zn8 Zn 0.22546(3) 1.22332(3) 0.04454(3)
O1 O 0.66564(17) 0.68268(15) 0.51020(14)
O2 O 0.16572(18) 1.18387(15) 1.00863(14)
O3 O 0.9938(2) 1.1486(2) 0.09644(19)
O4 O 0.8436(2) 0.5753(2) 0.53720(18)
O5 O 0.5697(2) 0.85211(18) 0.54086(17)
O6 O 0.8086(2) 0.5956(2) 0.4001(2)
O7 O 0.7258(2) 0.82588(18) 0.41564(18)
O8 O 1.0973(3) 1.0473(2) 0.0929(2)
O9 O 0.6922(2) 0.5859(2) 0.4027(2)
O10 O 0.5609(3) 0.5716(2) 0.54023(18)
O11 O 1.0142(2) 0.2888(2) 0.1020(2)
O12 O 0.2679(3) 0.2710(2) 0.8597(2)
O13 O 0.5371(2) 0.71676(19) 0.42335(19)
O14 O 0.2470(3) 1.0287(2) 0.96243(19)
O15 O 0.9999(2) 0.2781(2) 0.96268(17)
O16 O 0.2560(3) 1.0319(2) 0.1088(2)
O17 O 0.5534(2) 0.6041(2) 0.63433(18)
O18 O 1.1044(2) 0.2590(2) 0.86834(18)
O19 O 0.2501(2) 1.1223(2) 0.86604(18)
O20 O 0.5678(3) 0.8174(2) 0.4114(2)
O21 O 0.8325(2) 0.72570(19) 0.42078(18)
O22 O 1.1330(2) 0.2932(2) 0.10112(19)
O23 O 0.7336(2) 0.5603(2) 0.62413(18)
O24 O 0.5445(2) 0.7582(2) 0.62950(19)
O25 O 0.6120(3) 0.6353(3) 0.7276(2)
H1 H 0.626(3) 0.5831(12) 0.748(3)
H2 H 0.5565(15) 0.652(3) 0.751(3)
O26 O 0.2434(3) 0.3097(2) 0.9548(2)
O27 O 0.23759(18) 1.13670(16) 0.13382(14)
O28 O 0.72777(18) 0.71491(16) 0.60895(14)
H3 H 0.7444 0.7304 0.6363
H4 H 0.7417 0.6656 0.6179
O29 O 0.33452(18) 1.15516(16) -0.01673(14)
H5 H 0.3889 1.1465 -0.0270
H6 H 0.3216 1.1149 -0.0126
O30 O 0.3054(3) 1.2519(3) 0.0751(3)
C1 C 0.5396(3) 0.5674(3) 0.6053(3)
C2 C 1.0599(4) 0.3107(3) 0.1193(3)
C3 C 1.0249(3) 1.0809(3) 0.1144(3)
C4 C 0.7997(3) 0.7924(3) 0.3974(2)
C5 C 0.8219(3) 0.9097(3) 0.3171(3)
H7 H 0.7667 0.9311 0.3313
C6 C 0.4908(3) 0.4599(3) 0.6230(3)
H8 H 0.5159 0.4601 0.5754
C7 C 0.4940(3) 0.5123(3) 0.6522(3)
C8 C 1.0032(3) 0.9649(3) 0.1972(3)
H9 H 1.0586 0.9441 0.1841
C9 C 0.3655(3) 0.3597(3) 0.7784(3)
H10 H 0.3635 0.3253 0.7591
C10 C 0.4571(3) 0.5122(3) 0.7217(3)
H11 H 0.4606 0.5459 0.7408
C11 C 1.0151(3) 0.3631(3) 0.1680(3)
C12 C 0.8705(3) 0.9532(3) 0.2662(3)
C13 C 0.4107(3) 0.4097(3) 0.7358(3)
C14 C 0.8531(3) 0.8370(3) 0.3463(3)
C15 C 0.4513(3) 0.4092(3) 0.6639(3)
H12 H 0.4509 0.3741 0.6446
C16 C 0.9544(3) 0.9211(3) 0.2476(3)
C17 C 1.0569(4) 0.3957(4) 0.1854(4)
H13 H 1.1126 0.3841 0.1678
C18 C 0.9711(3) 1.0368(3) 0.1673(3)
C19 C 0.9585(3) 0.3909(3) 0.7323(2)
C20 C 1.0079(3) 0.3445(3) 0.7777(3)
H14 H 1.0616 0.3215 0.7582
C21 C 0.8917(3) 0.5073(3) 0.3036(3)
H15 H 0.9201 0.5284 0.3157
C22 C 0.4111(3) 1.0028(3) 0.6591(3)
H16 H 0.3969 1.0525 0.6380
C23 C 0.4586(3) 0.9531(3) 0.6183(3)
H17 H 0.4758 0.9699 0.5695
C24 C 0.4818(3) 0.8780(3) 0.6480(3)
C25 C 0.3839(3) 0.9786(3) 0.7329(2)
C26 C 0.8599(3) 0.4912(3) 0.6453(3)
C27 C 0.9332(3) 0.4607(3) 0.2568(3)
C28 C 0.9400(3) 0.4571(3) 0.6154(3)
H18 H 0.9612 0.4686 0.5666
C29 C 0.5359(3) 0.8251(3) 0.6025(3)
C30 C 0.8884(4) 1.0675(3) 0.1872(4)
H19 H 0.8664 1.1163 0.1668
C31 C 0.9884(3) 0.4064(3) 0.6575(3)
H20 H 1.0410 0.3822 0.6367
C32 C 0.3365(4) 0.9262(3) 0.8805(3)
H21 H 0.3217 0.9096 0.9294
C33 C 0.3247(4) 0.3614(3) 0.8477(3)
C34 C 0.3795(5) 0.8780(3) 0.8400(3)
H22 H 0.3920 0.8282 0.8610
C35 C 0.7674(3) 0.5717(3) 0.3823(3)
C36 C 0.9780(3) 0.3328(3) 0.8497(3)
C37 C 0.2763(4) 0.3094(3) 0.8921(3)
C38 C 0.8070(4) 0.5465(3) 0.5998(3)
C39 C 0.3376(3) 1.0269(3) 0.7777(3)
H23 H 0.3229 1.0770 0.7582
C40 C 0.3136(3) 1.0015(3) 0.8499(3)
C41 C 0.8381(4) 1.0280(3) 0.2358(4)
H24 H 0.7830 1.0502 0.2488
C42 C 0.8099(3) 0.5224(3) 0.3320(3)
C43 C 0.4067(4) 0.9022(3) 0.7640(3)
C44 C 0.2655(3) 1.0553(3) 0.8964(3)
C45 C 0.4559(4) 0.8530(3) 0.7196(3)
H25 H 0.4708 0.8030 0.7395
C46 C 1.0325(3) 0.2866(3) 0.8968(3)
C47 C 0.8962(3) 0.3684(4) 0.8788(3)
H26 H 0.8759 0.3606 0.9277
C48 C 0.9325(3) 0.3795(3) 0.1947(3)
H27 H 0.9045 0.3578 0.1827
C49 C 0.8478(4) 0.4122(4) 0.8382(3)
H28 H 0.7944 0.4342 0.8592
C50 C 0.8903(3) 0.4276(3) 0.2391(3)
C51 C 0.8765(3) 0.4265(3) 0.7621(3)
C52 C 0.4138(4) 0.4620(3) 0.7650(3)
C53 C 0.8279(3) 0.4755(3) 0.7175(3)
H29 H 0.7739 0.4973 0.7369
C54 C 0.8067(4) 0.4448(4) 0.2682(4)
H30 H 0.7774 0.4241 0.2566
C55 C 1.0184(4) 0.4445(5) 0.2276(4)
H31 H 1.0474 0.4671 0.2373
C56 C 0.7671(3) 0.4911(4) 0.3130(4)
H32 H 0.7115 0.5019 0.3310
C57 C 0.9851(4) 0.8485(4) 0.2786(4)
H33 H 1.0405 0.8274 0.2667
C58 C 0.3286(5) 0.4149(4) 0.8766(3)
H34 H 0.3005 0.4173 0.9233
C59 C 0.4083(6) 1.0204(4) 0.2552(4)
H35 H 0.4404 1.0417 0.2624
C60 C 0.4107(4) 0.9467(3) 0.2873(3)
C61 C 0.5303(3) 0.7848(3) 0.4008(3)
C62 C 0.9375(4) 0.8065(3) 0.3260(4)
H36 H 0.9607 0.7575 0.3451
C63 C 0.4722(4) 0.8285(3) 0.3570(3)
C64 C 0.2618(4) 1.0709(4) 0.1431(3)
C65 C 0.4626(4) 0.9020(3) 0.3309(3)
H37 H 0.4913 0.9235 0.3423
C66 C 0.3126(4) 1.0269(4) 0.1952(3)
C67 C 0.3731(5) 0.4622(4) 0.8365(3)
H38 H 0.3765 0.4951 0.8567
C68 C 0.4263(4) 0.7963(3) 0.3423(4)
H39 H 0.4314 0.7466 0.3604
C69 C 0.3186(4) 0.9555(4) 0.2247(3)
H40 H 0.2900 0.9334 0.2137
C70 C 0.3666(4) 0.9131(3) 0.2716(3)
C71 C 0.3557(6) 1.0610(4) 0.2118(4)
H41 H 0.3491 1.1110 0.1938
C72 C 0.3738(5) 0.8385(4) 0.3009(4)
H42 H 0.3428 0.8169 0.2925
C73 C 0.2909(7) 1.3160(6) 0.0763(5)
H43 H 0.2462 1.3502 0.0622
N1 N 0.3388(9) 1.3402(8) 0.0980(6)
C74 C 0.3229(13) 1.4129(12) 0.1046(11)
H44 H 0.3675 1.4315 0.0749
H45 H 0.3155 1.4119 0.1529
H46 H 0.2751 1.4439 0.0903
C75 C 0.4128(12) 1.2882(11) 0.1098(10)
H47 H 0.4017 1.2476 0.1479
H48 H 0.4416 1.3111 0.1217
H49 H 0.4449 1.2710 0.0675
Zn5_2 Zn 0.19902(3) 0.20825(3) 0.90605(2)
Zn5_3 Zn 1.19902(3) 0.20825(3) 0.90605(2)
Zn6_2 Zn 0.19587(3) 1.07844(3) 1.04017(3)
Zn6_3 Zn 0.19587(3) 1.07844(3) 0.04017(3)
Zn7_2 Zn 0.05113(3) 1.22246(3) 1.04027(2)
Zn7_3 Zn 1.05113(3) 0.22246(3) 0.04027(2)
Zn7_4 Zn 1.05113(3) 0.22246(3) 1.04027(2)
Zn8_2 Zn 0.22546(3) 1.22332(3) 1.04454(3)
Zn8_3 Zn 1.22546(3) 0.22332(3) 0.04454(3)
Zn8_4 Zn 0.22546(3) 0.22332(3) 1.04454(3)
O2_2 O 1.16572(18) 1.18387(15) 0.00863(14)
O2_3 O 0.16572(18) 1.18387(15) 0.00863(14)
O11_2 O 1.0142(2) 1.2888(2) 0.1020(2)
O12_2 O 0.2679(3) 1.2710(2) 0.8597(2)
O14_2 O 1.2470(3) 1.0287(2) -0.03757(19)
O15_2 O 0.9999(2) 1.2781(2) -0.03732(17)
O16_2 O 1.2560(3) 1.0319(2) 0.1088(2)
O18_2 O 0.1044(2) 1.2590(2) 0.86834(18)
O22_2 O 0.1330(2) 1.2932(2) 0.10112(19)
O26_2 O 0.2434(3) 1.3097(2) -0.0452(2)
O31 O 0.4545(5) 0.6708(4) 0.8152(4)
O32 O 0.6242(5) 0.4870(4) 0.8054(4)
loop_
_geom_bond_atom_site_label_1
_geom_bond_atom_site_label_2
_geom_bond_site_symmetry_1
_geom_bond_site_symmetry_2
Zn1 O1 1_555 1_555
Zn2 O1 1_555 1_555
Zn3 O1 1_555 1_555
Zn4 O1 1_555 1_555
Zn5 O2 1_555 1_555
Zn6 O8 1_555 1_555
Zn7 O3 1_555 1_555
Zn8 O27 1_555 1_555
O2 Zn6_2 1_555 1_555
O3 C3 1_555 1_555
O4 Zn3 1_555 1_555
O5 Zn1 1_555 1_555
O6 Zn3 1_555 1_555
O7 Zn1 1_555 1_555
O8 C3 1_555 1_555
O9 Zn2 1_555 1_555
O10 Zn2 1_555 1_555
O11 C2 1_555 1_555
O12 C37 1_555 1_555
O13 Zn2 1_555 1_555
O14 C44 1_555 1_555
O15 C46 1_555 1_555
O16 C64 1_555 1_555
O17 Zn4 1_555 1_555
O18 C46 1_555 1_555
O19 Zn5 1_555 1_555
O20 Zn1 1_555 1_555
O21 Zn3 1_555 1_555
O22 C2 1_555 1_555
O23 Zn4 1_555 1_555
O24 Zn4 1_555 1_555
O25 Zn4 1_555 1_555
H1 O25 1_555 1_555
H2 O25 1_555 1_555
O26 C37 1_555 1_555
O27 C64 1_555 1_555
O28 Zn4 1_555 1_555
H3 O28 1_555 1_555
H4 O28 1_555 1_555
O29 Zn8 1_555 1_555
H5 O29 1_555 1_555
H6 O29 1_555 1_555
O30 Zn8 1_555 1_555
C1 O10 1_555 1_555
C2 C11 1_555 1_555
C3 C18 1_555 1_555
C4 O7 1_555 1_555
C5 H7 1_555 1_555
C6 H8 1_555 1_555
C7 C1 1_555 1_555
C8 H9 1_555 1_555
C9 H10 1_555 1_555
C10 C7 1_555 1_555
H11 C10 1_555 1_555
C11 C17 1_555 1_555
C12 C5 1_555 1_555
C13 C9 1_555 1_555
C14 C4 1_555 1_555
C15 C6 1_555 1_555
H12 C15 1_555 1_555
C16 C8 1_555 1_555
C17 H13 1_555 1_555
C18 C8 1_555 1_555
C19 C20 1_555 1_555
C20 H14 1_555 1_555
C21 H15 1_555 1_555
C22 H16 1_555 1_555
C23 C22 1_555 1_555
H17 C23 1_555 1_555
C24 C23 1_555 1_555
C25 C22 1_555 1_555
C26 C28 1_555 1_555
C27 C21 1_555 1_555
C28 H18 1_555 1_555
C29 O5 1_555 1_555
C30 C18 1_555 1_555
H19 C30 1_555 1_555
C31 C19 1_555 1_555
H20 C31 1_555 1_555
C32 H21 1_555 1_555
C33 C9 1_555 1_555
C34 C32 1_555 1_555
H22 C34 1_555 1_555
C35 O6 1_555 1_555
C36 C20 1_555 1_555
C37 C33 1_555 1_555
C38 O4 1_555 1_555
C39 C25 1_555 1_555
H23 C39 1_555 1_555
C40 C32 1_555 1_555
C41 C12 1_555 1_555
H24 C41 1_555 1_555
C42 C21 1_555 1_555
C43 C25 1_555 1_555
C44 O19 1_555 1_555
C45 C24 1_555 1_555
H25 C45 1_555 1_555
C46 C36 1_555 1_555
C47 C36 1_555 1_555
H26 C47 1_555 1_555
C48 C11 1_555 1_555
H27 C48 1_555 1_555
C49 C47 1_555 1_555
H28 C49 1_555 1_555
C50 C27 1_555 1_555
C51 C19 1_555 1_555
C52 C10 1_555 1_555
C53 C26 1_555 1_555
H29 C53 1_555 1_555
C54 C50 1_555 1_555
H30 C54 1_555 1_555
C55 C17 1_555 1_555
H31 C55 1_555 1_555
C56 C42 1_555 1_555
H32 C56 1_555 1_555
C57 C16 1_555 1_555
H33 C57 1_555 1_555
C58 C33 1_555 1_555
H34 C58 1_555 1_555
C59 H35 1_555 1_555
C60 C59 1_555 1_555
C61 O13 1_555 1_555
C62 C14 1_555 1_555
H36 C62 1_555 1_555
C63 C61 1_555 1_555
C64 C66 1_555 1_555
C65 C60 1_555 1_555
H37 C65 1_555 1_555
C66 C69 1_555 1_555
C67 C52 1_555 1_555
H38 C67 1_555 1_555
C68 C63 1_555 1_555
H39 C68 1_555 1_555
C69 H40 1_555 1_555
C70 C60 1_555 1_555
C71 C59 1_555 1_555
H41 C71 1_555 1_555
C72 C68 1_555 1_555
H42 C72 1_555 1_555
C73 O30 1_555 1_555
H43 C73 1_555 1_555
N1 C73 1_555 1_555
C74 N1 1_555 1_555
H44 C74 1_555 1_555
H45 C74 1_555 1_555
H46 C74 1_555 1_555
C75 N1 1_555 1_555
H47 C75 1_555 1_555
H48 C75 1_555 1_555
H49 C75 1_555 1_555
Zn5_2 O12 1_555 1_555
Zn5_3 O18 1_555 1_555
Zn6_2 O14 1_555 1_555
Zn6_3 O16 1_555 1_555
Zn7_2 O2 1_555 1_555
Zn7_3 O11 1_555 1_555
Zn7_4 O15 1_555 1_555
Zn8_2 O2 1_555 1_555
Zn8_3 O22 1_555 1_555
Zn8_4 O26 1_555 1_555
O2_2 Zn6 1_555 1_555
O2_3 Zn8 1_555 1_555
O11_2 Zn7 1_555 1_555
O12_2 Zn5 1_555 1_555
O14_2 Zn6 1_555 1_555
O15_2 Zn7 1_555 1_555
O16_2 Zn6 1_555 1_555
O18_2 Zn5 1_555 1_555
O22_2 Zn8 1_555 1_555
O26_2 Zn8 1_555 1_555
Zn7 O2_2 1_555 1_555
O9 C35 1_555 1_555
O17 C1 1_555 1_555
O20 C61 1_555 1_555
O21 C4 1_555 1_555
O23 C38 1_555 1_555
O24 C29 1_555 1_555
C5 C14 1_555 1_555
C6 C7 1_555 1_555
C12 C16 1_555 1_555
C13 C15 1_555 1_555
C13 C52 1_555 1_555
C24 C29 1_555 1_555
C26 C38 1_555 1_555
C27 C55 1_555 1_555
C28 C31 1_555 1_555
C30 C41 1_555 1_555
C34 C43 1_555 1_555
C35 C42 1_555 1_555
C39 C40 1_555 1_555
C40 C44 1_555 1_555
C43 C45 1_555 1_555
C48 C50 1_555 1_555
C49 C51 1_555 1_555
C51 C53 1_555 1_555
C54 C56 1_555 1_555
C57 C62 1_555 1_555
C58 C67 1_555 1_555
C63 C65 1_555 1_555
C66 C71 1_555 1_555
C69 C70 1_555 1_555
C70 C72 1_555 1_555
Zn6_3 O2_3 1_555 1_555

#END
