
#######################################################################
#
#                 Cambridge Crystallographic Data Centre
#                                CCDC 
#
#######################################################################
#
# If this CIF has been generated from an entry in the Cambridge 
# Structural Database, then it will include bibliographic, chemical, 
# crystal, experimental, refinement or atomic coordinate data resulting 
# from the CCDC's data processing and validation procedures.
#
#######################################################################

data_KUJPAH
_chemical_formula_moiety         
'(C128 H80 N36 O16 Zn10)n,n(C64 H40 N18 O8 Zn5),20n(C4 H9 N1 O1),4n(H2 O1)'
_chemical_name_systematic        
"catena-(dodecakis(\m~3~-Benzotriazolato)-bis((\m~2~-4,4'-biphenyldicarboxylato-O,O',O'',O''')-(\m~2~-4,4'-biphenyldicarboxylato-O,O',O''))-deca-zinc hexakis(\m~3~-benzotriazolato)-bis(\m~2~-4,4'-biphenyldicarboxylato)-diaqua-penta-zinc N,N-dimethylacetamide solvate tetrahydrate)"
_symmetry_cell_setting           tetragonal
_symmetry_space_group_name_H-M   'I 41/a'
_symmetry_Int_Tables_number      88
_space_group_name_Hall           '-I 4ad'
loop_
_symmetry_equiv_pos_site_id
_symmetry_equiv_pos_as_xyz
1 x,y,z
2 1/2-x,-y,1/2+z
3 3/4-y,1/4+x,1/4+z
4 3/4+y,3/4-x,3/4+z
5 1/2+x,1/2+y,1/2+z
6 -x,1/2-y,z
7 1/4-y,3/4+x,3/4+z
8 1/4+y,1/4-x,1/4+z
9 -x,-y,-z
10 1/2+x,y,1/2-z
11 1/4+y,3/4-x,3/4-z
12 1/4-y,1/4+x,1/4-z
13 1/2-x,1/2-y,1/2-z
14 x,1/2+y,-z
15 3/4+y,1/4-x,1/4-z
16 3/4-y,3/4+x,3/4-z
_cell_length_a                   36.2108(12)
_cell_length_b                   36.2108(12)
_cell_length_c                   50.989(3)
_cell_angle_alpha                90
_cell_angle_beta                 90
_cell_angle_gamma                90
_cell_volume                     66857.9
_exptl_crystal_colour            colorless
_exptl_crystal_description       block
_cell_formula_units_Z            8
loop_
_atom_site_label
_atom_site_type_symbol
_atom_site_fract_x
_atom_site_fract_y
_atom_site_fract_z
C37 C 0.08039(15) 0.66465(17) 0.07799(12)
C38 C 0.09842(17) 0.68425(15) 0.05846(11)
C39 C 0.13333(17) 0.67344(17) 0.05026(11)
H25 H 0.1454 0.6866 0.0372
C40 C 0.15022(16) 0.64299(18) 0.06165(12)
H26 H 0.1736 0.6357 0.0562
C41 C 0.13216(18) 0.62337(17) 0.08120(12)
H27 H 0.1435 0.6029 0.0888
C42 C 0.09724(18) 0.63419(17) 0.08939(11)
H28 H 0.0852 0.6211 0.1025
C43 C 0.0886(3) 0.8277(2) 0.05583(17)
C44 C 0.1209(3) 0.8431(3) 0.04568(16)
H29 H 0.1341 0.8306 0.0328
C45 C 0.1332(3) 0.8772(3) 0.0548(2)
H30 H 0.1548 0.8875 0.0480
C46 C 0.1134(3) 0.8959(2) 0.0740(2)
H31 H 0.1216 0.9187 0.0801
C47 C 0.0812(3) 0.8806(3) 0.08416(16)
H32 H 0.0679 0.8931 0.0970
C48 C 0.0688(2) 0.8465(3) 0.07508(16)
C77 C -0.0001(2) 0.42310(18) 0.23130(16)
C78 C -0.0137(2) 0.4557(3) 0.24013(16)
H49 H -0.0236 0.4573 0.2569
C79 C -0.0129(2) 0.4859(3) 0.22448(18)
H50 H -0.0223 0.5083 0.2305
C80 C 0.0015(2) 0.48360(18) 0.20000(16)
C81 C 0.0152(2) 0.4510(3) 0.19118(16)
H51 H 0.0251 0.4494 0.1744
C82 C 0.0144(2) 0.4208(3) 0.20683(18)
H52 H 0.0238 0.3984 0.2008
C83 C 0.0022(2) 0.5155(2) 0.18325(16)
C84 C 0.0237(3) 0.5152(3) 0.1615(2)
H53 H 0.0379 0.4945 0.1575
C85 C 0.0246(3) 0.5451(3) 0.14554(19)
H54 H 0.0394 0.5450 0.1306
C86 C 0.0040(3) 0.5753(2) 0.15133(18)
C87 C -0.0175(3) 0.5756(3) 0.1731(2)
H55 H -0.0316 0.5963 0.1770
C88 C -0.0184(3) 0.5457(3) 0.18904(19)
H56 H -0.0331 0.5458 0.2040
C89 C -0.0010(2) 0.3909(2) 0.24766(18)
C90 C 0.0052(3) 0.6063(3) 0.1345(2)
O9 O -0.0173(3) 0.3905(3) 0.26915(18)
O10 O 0.0178(4) 0.6262(4) 0.1272(3)
O11 O -0.0302(4) 0.6331(5) 0.1367(3)
O12 O 0.0147(3) 0.3618(3) 0.2407(2)
C91 C 0.0193(3) 0.75076(15) -0.0167(2)
C92 C 0.0383(2) 0.7515(2) -0.0404(3)
H57 H 0.0640 0.7523 -0.0394
C93 C 0.0229(4) 0.7510(4) -0.0653(2)
H58 H 0.0369 0.7517 -0.0806
C94 C -0.00015(12) 0.7692(2) 0.14567(16)
C95 C -0.0001(2) 0.78711(17) 0.16981(17)
H59 H 0.0007 0.8128 0.1695
C96 C -0.0010(3) 0.7704(3) 0.19434(16)
H60 H -0.0027 0.7840 0.2098
N19 N 0.04731(19) 0.6811(2) 0.08149(14)
N20 N 0.04536(18) 0.70974(18) 0.06546(12)
N21 N 0.07627(19) 0.71281(18) 0.05056(13)
N22 N 0.0707(2) 0.7960(2) 0.05067(14)
N23 N 0.04132(18) 0.79528(18) 0.06553(12)
N24 N 0.0380(2) 0.8245(2) 0.07995(14)
N25 N 0.0308(2) 0.7511(2) 0.00749(15)
N26 N 0.0000 0.7500 0.02153(19)
N27 N 0.0000 0.7500 0.10750(17)
N28 N 0.00036(17) 0.77908(19) 0.12212(13)
Zn1 Zn 0.0000 0.7500 0.06479(2)
Zn4 Zn 0.00427(3) 0.66907(3) 0.10537(2)
Zn7 Zn 0.08149(3) 0.75474(4) 0.02440(2)
C37E C -0.08039(15) 0.83535(17) 0.07799(12)
C38E C -0.09842(17) 0.81575(15) 0.05846(11)
C39E C -0.13333(17) 0.82656(17) 0.05026(11)
H25E H -0.1454 0.8134 0.0372
C40E C -0.15022(16) 0.85701(18) 0.06165(12)
H26E H -0.1736 0.8643 0.0562
C41E C -0.13216(18) 0.87663(17) 0.08120(12)
H27E H -0.1435 0.8971 0.0888
C42E C -0.09724(18) 0.86581(17) 0.08939(11)
H28E H -0.0852 0.8789 0.1025
C43E C -0.0886(3) 0.6723(2) 0.05583(17)
C44E C -0.1209(3) 0.6569(3) 0.04568(16)
H29E H -0.1341 0.6694 0.0328
C45E C -0.1332(3) 0.6228(3) 0.0548(2)
H30E H -0.1548 0.6125 0.0480
C46E C -0.1134(3) 0.6041(2) 0.0740(2)
H31E H -0.1216 0.5813 0.0801
C47E C -0.0812(3) 0.6194(3) 0.08416(16)
H32E H -0.0679 0.6069 0.0970
C48E C -0.0688(2) 0.6535(3) 0.07508(16)
C77C C 0.17310(18) 0.7501(2) -0.01870(16)
C78C C 0.2057(3) 0.7637(2) -0.00987(16)
H49C H 0.2073 0.7736 0.0069
C79C C 0.2359(3) 0.7629(2) -0.02552(18)
H50C H 0.2583 0.7723 -0.0195
C80C C 0.23360(18) 0.7485(2) -0.05000(16)
C81C C 0.2010(3) 0.7348(2) -0.05882(16)
H51C H 0.1994 0.7249 -0.0756
C82C C 0.1708(3) 0.7356(2) -0.04317(18)
H52C H 0.1484 0.7262 -0.0492
C83C C 0.2655(2) 0.7478(2) -0.06675(16)
C84C C 0.2652(3) 0.7263(3) -0.0885(2)
H53C H 0.2445 0.7121 -0.0925
C85C C 0.2951(3) 0.7254(3) -0.10446(19)
H54C H 0.2950 0.7106 -0.1194
C86C C 0.3253(2) 0.7460(3) -0.09867(18)
C87C C 0.3256(3) 0.7675(3) -0.0769(2)
H55C H 0.3463 0.7816 -0.0730
C88C C 0.2957(3) 0.7684(3) -0.06096(19)
H56C H 0.2958 0.7831 -0.0460
C89C C 0.1409(2) 0.7510(2) -0.00234(18)
C90C C 0.3563(3) 0.7448(3) -0.1155(2)
O9C O 0.1405(3) 0.7673(3) 0.01915(18)
O9F O -0.1405(3) 0.7327(3) 0.01915(18)
O10C O 0.3762(4) 0.7322(4) -0.1228(3)
O10E O -0.0178(4) 0.8738(4) 0.1272(3)
O11C O 0.3831(5) 0.7802(4) -0.1133(3)
O11E O 0.0302(4) 0.8669(5) 0.1367(3)
O12C O 0.1118(3) 0.7353(3) -0.0093(2)
O12F O -0.1118(3) 0.7647(3) -0.0093(2)
C91E C -0.0193(3) 0.74924(15) -0.0167(2)
C92E C -0.0383(2) 0.7485(2) -0.0404(3)
H57E H -0.0640 0.7477 -0.0394
C93E C -0.0229(4) 0.7490(4) -0.0653(2)
H58E H -0.0369 0.7483 -0.0806
C94E C 0.00015(12) 0.7308(2) 0.14567(16)
C95E C 0.0001(2) 0.71289(17) 0.16981(17)
H59E H -0.0007 0.6872 0.1695
C96E C 0.0010(3) 0.7296(3) 0.19434(16)
H60E H 0.0027 0.7160 0.2098
N19E N -0.04731(19) 0.8189(2) 0.08149(14)
N20E N -0.04536(18) 0.79026(18) 0.06546(12)
N21E N -0.07627(19) 0.78719(18) 0.05056(13)
N22E N -0.0707(2) 0.7040(2) 0.05067(14)
N23E N -0.04132(18) 0.70472(18) 0.06553(12)
N24E N -0.0380(2) 0.6755(2) 0.07995(14)
N25E N -0.0308(2) 0.7489(2) 0.00749(15)
N28E N -0.00036(17) 0.72092(19) 0.12212(13)
Zn4E Zn -0.00427(3) 0.83093(3) 0.10537(2)
Zn4C Zn 0.41907(3) 0.74573(3) -0.14463(2)
Zn7E Zn -0.08149(3) 0.74526(4) 0.02440(2)
Zn7B Zn -0.00474(4) 0.33149(3) 0.27440(2)
C1 C 0.2646(3) 0.6282(2) 0.20807(17)
C2 C 0.2260(3) 0.6249(2) 0.20798(19)
C3 C 0.2068(3) 0.6209(3) 0.2317(3)
H1 H 0.1812 0.6188 0.2316
C4 C 0.2262(4) 0.6202(3) 0.2555(2)
H2 H 0.2134 0.6175 0.2712
C5 C 0.2648(4) 0.6235(3) 0.2556(2)
H3 H 0.2776 0.6230 0.2714
C6 C 0.2840(2) 0.6275(2) 0.2319(2)
H4 H 0.3096 0.6296 0.2319
C7 C 0.3431(3) 0.5619(2) 0.1342(2)
C8 C 0.3253(2) 0.5441(3) 0.1133(2)
C9 C 0.3429(4) 0.5151(3) 0.10005(18)
H5 H 0.3311 0.5033 0.0862
C10 C 0.3783(4) 0.5038(3) 0.1077(2)
H6 H 0.3900 0.4846 0.0990
C11 C 0.3962(3) 0.5216(4) 0.1287(3)
H7 H 0.4197 0.5142 0.1337
C12 C 0.3786(4) 0.5506(3) 0.14189(18)
H8 H 0.3904 0.5624 0.1558
C13 C 0.3326(3) 0.7098(2) 0.13996(17)
C14 C 0.3136(2) 0.7287(3) 0.12100(16)
C15 C 0.3241(3) 0.7638(3) 0.11430(15)
H9 H 0.3112 0.7766 0.1014
C16 C 0.3537(3) 0.7800(2) 0.12654(19)
H10 H 0.3608 0.8038 0.1220
C17 C 0.3727(2) 0.7611(3) 0.14550(18)
H11 H 0.3927 0.7721 0.1538
C18 C 0.3622(2) 0.7260(3) 0.15221(14)
H12 H 0.3751 0.7132 0.1651
C19 C 0.1603(3) 0.5533(2) 0.1325(2)
C20 C 0.1798(2) 0.5360(3) 0.1126(2)
C21 C 0.1664(4) 0.5037(3) 0.10150(17)
H13 H 0.1795 0.4922 0.0881
C22 C 0.1334(4) 0.4887(3) 0.1103(2)
H14 H 0.1244 0.4670 0.1029
C23 C 0.1140(3) 0.5059(4) 0.1303(3)
H15 H 0.0919 0.4959 0.1362
C24 C 0.1274(3) 0.5382(4) 0.14136(17)
H16 H 0.1143 0.5497 0.1547
C25 C 0.2499(2) 0.6150(2) 0.04166(16)
C26 C 0.24893(19) 0.6532(2) 0.04220(15)
C27 C 0.2475(2) 0.6728(2) 0.0190(2)
H17 H 0.2469 0.6985 0.0193
C28 C 0.2471(3) 0.6544(3) -0.00472(19)
H18 H 0.2461 0.6676 -0.0203
C29 C 0.2480(3) 0.6162(3) -0.00524(19)
H19 H 0.2477 0.6038 -0.0212
C30 C 0.2494(2) 0.5966(2) 0.0179(2)
H20 H 0.2501 0.5709 0.0176
C31 C 0.14943(16) 0.69619(14) 0.13137(10)
C32 C 0.16774(14) 0.71622(15) 0.11226(11)
C33 C 0.15117(16) 0.74698(15) 0.10123(10)
H21 H 0.1635 0.7604 0.0884
C34 C 0.11630(16) 0.75771(15) 0.10932(11)
H22 H 0.1052 0.7784 0.1019
C35 C 0.09801(15) 0.73767(17) 0.12844(11)
H23 H 0.0746 0.7449 0.1339
C36 C 0.11455(16) 0.70693(16) 0.13946(10)
H24 H 0.1022 0.6935 0.1523
C49 C -0.0768(2) 0.62936(13) 0.29351(15)
C50 C -0.08054(19) 0.6270(2) 0.26660(15)
H33 H -0.1039 0.6271 0.2591
C51 C -0.0496(2) 0.6245(2) 0.25089(14)
H34 H -0.0521 0.6230 0.2328
C52 C -0.0148(2) 0.62440(16) 0.26210(15)
C53 C -0.0111(2) 0.6267(2) 0.28902(15)
H35 H 0.0123 0.6266 0.2966
C54 C -0.0421(2) 0.6292(2) 0.30471(13)
H36 H -0.0396 0.6308 0.3228
C55 C 0.01699(19) 0.62164(19) 0.24598(13)
C56 C 0.0213(2) 0.6449(2) 0.22500(16)
H37 H 0.0033 0.6624 0.2213
C57 C 0.0520(2) 0.6422(2) 0.20950(15)
H38 H 0.0549 0.6580 0.1953
C58 C 0.0785(2) 0.6163(2) 0.21498(14)
C59 C 0.0742(2) 0.5931(2) 0.23594(17)
H39 H 0.0922 0.5756 0.2397
C60 C 0.0435(2) 0.5958(2) 0.25144(15)
H40 H 0.0406 0.5800 0.2657
C61 C -0.1086(2) 0.63165(14) 0.30971(18)
C62 C 0.1104(2) 0.6140(3) 0.19898(16)
O1 O -0.1059(2) 0.6392(2) 0.33363(16)
O2 O -0.1403(2) 0.6262(2) 0.30105(16)
O3 O 0.1180(2) 0.6368(2) 0.18150(16)
O4 O 0.1336(3) 0.5882(3) 0.2013(2)
C63 C 0.2522(2) 0.8085(2) 0.04474(13)
C64 C 0.2263(2) 0.8352(3) 0.04830(16)
H41 H 0.2079 0.8321 0.0609
C65 C 0.2271(3) 0.8664(2) 0.03347(18)
H42 H 0.2094 0.8847 0.0359
C66 C 0.2539(3) 0.8710(2) 0.01508(14)
C67 C 0.2799(3) 0.8443(3) 0.01150(17)
H43 H 0.2983 0.8474 -0.0011
C68 C 0.2791(3) 0.8131(2) 0.02634(18)
H44 H 0.2969 0.7948 0.0239
C69 C 0.2551(3) 0.9659(2) -0.03140(14)
C70 C 0.2878(3) 0.9497(3) -0.0241(2)
H45 H 0.3102 0.9599 -0.0295
C71 C 0.2877(3) 0.9185(3) -0.0087(2)
H46 H 0.3098 0.9076 -0.0038
C72 C 0.2547(3) 0.9034(2) -0.00070(13)
C73 C 0.2219(3) 0.9196(3) -0.0080(2)
H47 H 0.1996 0.9094 -0.0026
C74 C 0.2221(3) 0.9508(3) -0.0234(2)
H48 H 0.1999 0.9618 -0.0283
C75 C 0.2554(4) 0.9979(2) -0.04719(15)
C76 C 0.2511(2) 0.7757(2) 0.06016(16)
O5 O 0.2684(3) 0.7475(3) 0.05324(19)
O6 O 0.2330(2) 0.7736(3) 0.08087(16)
O7 O 0.2267(3) 1.0128(3) -0.0559(2)
O8 O 0.2851(3) 1.0135(4) -0.0533(3)
N1 N 0.2759(2) 0.6298(2) 0.18320(16)
N2 N 0.2464(2) 0.62970(18) 0.16748(13)
N3 N 0.2162(2) 0.6259(2) 0.18242(16)
N4 N 0.3219(2) 0.5920(2) 0.13996(15)
N5 N 0.29281(19) 0.58966(19) 0.12465(14)
N6 N 0.2934(2) 0.5620(2) 0.10847(15)
N7 N 0.3171(2) 0.6771(2) 0.14231(13)
N8 N 0.28782(18) 0.67673(18) 0.12666(12)
N9 N 0.28557(18) 0.70708(19) 0.11187(12)
N10 N 0.2080(2) 0.5575(2) 0.10766(15)
N11 N 0.20738(19) 0.58497(19) 0.12421(13)
N12 N 0.1775(2) 0.5838(2) 0.13915(15)
N13 N 0.25049(19) 0.6028(2) 0.06642(14)
N14 N 0.24977(19) 0.6324(2) 0.08189(13)
N15 N 0.24811(19) 0.6617(2) 0.06804(14)
N16 N 0.17119(18) 0.66865(18) 0.13790(12)
N17 N 0.20130(17) 0.67090(17) 0.12376(12)
N18 N 0.20042(17) 0.69941(17) 0.10863(12)
Zn2 Zn 0.24716(3) 0.63075(3) 0.125089(19)
Zn3 Zn 0.24464(3) 0.71272(3) 0.08565(2)
Zn5 Zn 0.25238(3) 0.55074(3) 0.08297(3)
Zn6 Zn 0.16581(3) 0.62577(3) 0.16476(2)
Zn8 Zn 0.32750(3) 0.63393(4) 0.16646(2)
C1I C 0.7646(3) 0.6282(2) 0.29193(17)
C2I C 0.7260(3) 0.6249(2) 0.29202(19)
C3I C 0.7068(3) 0.6209(3) 0.2683(3)
H1I H 0.6812 0.6188 0.2684
C4I C 0.7262(4) 0.6202(3) 0.2445(2)
H2I H 0.7134 0.6175 0.2288
C5I C 0.7648(4) 0.6235(3) 0.2444(2)
H3I H 0.7776 0.6230 0.2286
C6I C 0.7840(2) 0.6275(2) 0.2681(2)
H4I H 0.8096 0.6296 0.2681
C7M C 0.3431(3) 1.0619(2) -0.1342(2)
C8M C 0.3253(2) 1.0441(3) -0.1133(2)
C9M C 0.3429(4) 1.0151(3) -0.10005(18)
H5M H 0.3311 1.0033 -0.0862
C10M C 0.3783(4) 1.0038(3) -0.1077(2)
H6M H 0.3900 0.9846 -0.0990
C11M C 0.3962(3) 1.0216(4) -0.1287(3)
H7M H 0.4197 1.0142 -0.1337
C12M C 0.3786(4) 1.0506(3) -0.14189(18)
H8M H 0.3904 1.0624 -0.1558
C13M C 0.3326(3) 0.2098(2) -0.13996(17)
C14M C 0.3136(2) 0.2287(3) -0.12100(16)
C15M C 0.3241(3) 0.2638(3) -0.11430(15)
H9M H 0.3112 0.2766 -0.1014
C16M C 0.3537(3) 0.2800(2) -0.12654(19)
H10M H 0.3608 0.3038 -0.1220
C17M C 0.3727(2) 0.2611(3) -0.14550(18)
H11M H 0.3927 0.2721 -0.1538
C18M C 0.3622(2) 0.2260(3) -0.15221(14)
H12M H 0.3751 0.2132 -0.1651
C19M C 0.1603(3) 1.0533(2) -0.1325(2)
C20M C 0.1798(2) 1.0360(3) -0.1126(2)
C21M C 0.1664(4) 1.0037(3) -0.10150(17)
H13M H 0.1795 0.9922 -0.0881
C22M C 0.1334(4) 0.9887(3) -0.1103(2)
H14M H 0.1244 0.9670 -0.1029
C23M C 0.1140(3) 1.0059(4) -0.1303(3)
H15M H 0.0919 0.9959 -0.1362
C24M C 0.1274(3) 1.0382(4) -0.14136(17)
H16M H 0.1143 1.0497 -0.1547
C25M C 0.2499(2) 0.1150(2) -0.04166(16)
C26M C 0.24893(19) 0.1532(2) -0.04220(15)
C27M C 0.2475(2) 0.1728(2) -0.0190(2)
H17M H 0.2469 0.1985 -0.0193
C28M C 0.2471(3) 0.1544(3) 0.00472(19)
H18M H 0.2461 0.1676 0.0203
C29M C 0.2480(3) 0.1162(3) 0.00524(19)
H19M H 0.2477 0.1038 0.0212
C30M C 0.2494(2) 0.0966(2) -0.0179(2)
H20M H 0.2501 0.0709 -0.0176
C31M C 0.14943(16) 0.19619(14) -0.13137(10)
C32M C 0.16774(14) 0.21622(15) -0.11226(11)
C33M C 0.15117(16) 0.24698(15) -0.10123(10)
H21M H 0.1635 0.2604 -0.0884
C34M C 0.11630(16) 0.25771(15) -0.10932(11)
H22M H 0.1052 0.2784 -0.1019
C35M C 0.09801(15) 0.23767(17) -0.12844(11)
H23M H 0.0746 0.2449 -0.1339
C36M C 0.11455(16) 0.20693(16) -0.13946(10)
H24M H 0.1022 0.1935 -0.1523
C49I C 0.4232(2) 0.62936(13) 0.20649(15)
C50I C 0.41946(19) 0.6270(2) 0.23340(15)
H33I H 0.3961 0.6271 0.2409
C51I C 0.4504(2) 0.6245(2) 0.24911(14)
H34I H 0.4479 0.6230 0.2672
C52I C 0.4852(2) 0.62440(16) 0.23790(15)
C53I C 0.4889(2) 0.6267(2) 0.21098(15)
H35I H 0.5123 0.6266 0.2034
C54I C 0.4579(2) 0.6292(2) 0.19529(13)
H36I H 0.4604 0.6308 0.1772
C55I C 0.51699(19) 0.62164(19) 0.25402(13)
C56I C 0.5213(2) 0.6449(2) 0.27500(16)
H37I H 0.5033 0.6624 0.2787
C57I C 0.5520(2) 0.6422(2) 0.29050(15)
H38I H 0.5549 0.6580 0.3047
C58I C 0.5785(2) 0.6163(2) 0.28502(14)
C59I C 0.5742(2) 0.5931(2) 0.26406(17)
H39I H 0.5922 0.5756 0.2603
C60I C 0.5435(2) 0.5958(2) 0.24856(15)
H40I H 0.5406 0.5800 0.2343
C61I C 0.3914(2) 0.63165(14) 0.19029(18)
C62I C 0.6104(2) 0.6140(3) 0.30102(16)
O1I O 0.3941(2) 0.6392(2) 0.16637(16)
O2I O 0.3597(2) 0.6262(2) 0.19895(16)
O3I O 0.6180(2) 0.6368(2) 0.31850(16)
O4I O 0.6336(3) 0.5882(3) 0.2987(2)
C63M C 0.2522(2) 0.3085(2) -0.04474(13)
C64M C 0.2263(2) 0.3352(3) -0.04830(16)
H41M H 0.2079 0.3321 -0.0609
C65M C 0.2271(3) 0.3664(2) -0.03347(18)
H42M H 0.2094 0.3847 -0.0359
C66M C 0.2539(3) 0.3710(2) -0.01508(14)
C67M C 0.2799(3) 0.3443(3) -0.01150(17)
H43M H 0.2983 0.3474 0.0011
C68M C 0.2791(3) 0.3131(2) -0.02634(18)
H44M H 0.2969 0.2948 -0.0239
C69M C 0.2551(3) 0.4659(2) 0.03140(14)
C70M C 0.2878(3) 0.4497(3) 0.0241(2)
H45M H 0.3102 0.4599 0.0295
C71M C 0.2877(3) 0.4185(3) 0.0087(2)
H46M H 0.3098 0.4076 0.0038
C72M C 0.2547(3) 0.4034(2) 0.00070(13)
C73M C 0.2219(3) 0.4196(3) 0.0080(2)
H47M H 0.1996 0.4094 0.0026
C74M C 0.2221(3) 0.4508(3) 0.0234(2)
H48M H 0.1999 0.4618 0.0283
C75M C 0.2554(4) 0.4979(2) 0.04719(15)
C76M C 0.2511(2) 0.2757(2) -0.06016(16)
O5M O 0.2684(3) 0.2475(3) -0.05324(19)
O6M O 0.2330(2) 0.2736(3) -0.08087(16)
O7M O 0.2267(3) 0.5128(3) 0.0559(2)
O8M O 0.2851(3) 0.5135(4) 0.0533(3)
N1I N 0.7759(2) 0.6298(2) 0.31680(16)
N1I_2 N -0.2241(2) 0.6298(2) 0.31680(16)
N2I N 0.7464(2) 0.62970(18) 0.33252(13)
N3I N 0.7162(2) 0.6259(2) 0.31758(16)
N4M N 0.3219(2) 1.0920(2) -0.13996(15)
N4I N -0.1781(2) 0.5920(2) 0.36004(15)
N5M N 0.29281(19) 1.08966(19) -0.12465(14)
N5I N 0.79281(19) 0.58966(19) 0.37535(14)
N6M N 0.2934(2) 1.0620(2) -0.10847(15)
N7M N 0.3171(2) 0.1771(2) -0.14231(13)
N7I N -0.1829(2) 0.6771(2) 0.35769(13)
N8M N 0.28782(18) 0.17673(18) -0.12666(12)
N8I N 0.78782(18) 0.67673(18) 0.37334(12)
N9M N 0.28557(18) 0.20708(19) -0.11187(12)
N10M N 0.2080(2) 1.0575(2) -0.10766(15)
N11M N 0.20738(19) 1.08497(19) -0.12421(13)
N11I N 0.70738(19) 0.58497(19) 0.37579(13)
N12M N 0.1775(2) 1.0838(2) -0.13915(15)
N12I N 0.6775(2) 0.5838(2) 0.36085(15)
N13M N 0.25049(19) 0.1028(2) -0.06642(14)
N13M_2 N 0.25049(19) 1.1028(2) -0.06642(14)
N14M N 0.24977(19) 0.1324(2) -0.08189(13)
N14I N 0.74977(19) 0.6324(2) 0.41811(13)
N15M N 0.24811(19) 0.1617(2) -0.06804(14)
N16M N 0.17119(18) 0.16865(18) -0.13790(12)
N16I N 0.67119(18) 0.66865(18) 0.36210(12)
N17M N 0.20130(17) 0.17090(17) -0.12376(12)
N17I N 0.70130(17) 0.67090(17) 0.37624(12)
N18M N 0.20042(17) 0.19941(17) -0.10863(12)
Zn2I Zn 0.74716(3) 0.63075(3) 0.374911(19)
Zn2M Zn 0.24716(3) 0.13075(3) -0.125089(19)
Zn2M_2 Zn 0.24716(3) 1.13075(3) -0.125089(19)
Zn3M Zn 0.24464(3) 0.21272(3) -0.08565(2)
Zn5M Zn 0.25238(3) 1.05074(3) -0.08297(3)
Zn5M_2 Zn 0.25238(3) 0.05074(3) -0.08297(3)
Zn6I Zn 0.66581(3) 0.62577(3) 0.33524(2)
Zn6M Zn 0.16581(3) 0.12577(3) -0.16476(2)
Zn6M_2 Zn 0.16581(3) 1.12577(3) -0.16476(2)
Zn8I Zn -0.17250(3) 0.63393(4) 0.33354(2)
Zn8M Zn 0.32750(3) 0.13393(4) -0.16646(2)
Zn8M_2 Zn 0.32750(3) 1.13393(4) -0.16646(2)
Zn8I_2 Zn 0.82750(3) 0.63393(4) 0.33354(2)
O13? O 0.3877(3) 0.7535(8) -0.1072(4)
O14? O 0.3539(5) 0.7350(5) -0.1393(3)
loop_
_geom_bond_atom_site_label_1
_geom_bond_atom_site_label_2
_geom_bond_site_symmetry_1
_geom_bond_site_symmetry_2
C1 C2 1_555 1_555
C2 C3 1_555 1_555
C3 H1 1_555 1_555
C4 C3 1_555 1_555
H2 C4 1_555 1_555
C5 C4 1_555 1_555
H3 C5 1_555 1_555
C6 C1 1_555 1_555
H4 C6 1_555 1_555
C7 C8 1_555 1_555
C8 C9 1_555 1_555
C9 H5 1_555 1_555
C10 C9 1_555 1_555
H6 C10 1_555 1_555
C11 C10 1_555 1_555
H7 C11 1_555 1_555
C12 C7 1_555 1_555
H8 C12 1_555 1_555
C13 C14 1_555 1_555
C14 C15 1_555 1_555
C15 H9 1_555 1_555
C16 C15 1_555 1_555
H10 C16 1_555 1_555
C17 C16 1_555 1_555
H11 C17 1_555 1_555
C18 C13 1_555 1_555
H12 C18 1_555 1_555
C19 C20 1_555 1_555
C20 C21 1_555 1_555
C21 H13 1_555 1_555
C22 C21 1_555 1_555
H14 C22 1_555 1_555
C23 C22 1_555 1_555
H15 C23 1_555 1_555
C24 C19 1_555 1_555
H16 C24 1_555 1_555
C25 C26 1_555 1_555
C26 C27 1_555 1_555
C27 H17 1_555 1_555
C28 C27 1_555 1_555
H18 C28 1_555 1_555
C29 C28 1_555 1_555
H19 C29 1_555 1_555
C30 C25 1_555 1_555
H20 C30 1_555 1_555
C31 C32 1_555 1_555
C32 C33 1_555 1_555
C33 H21 1_555 1_555
C34 C33 1_555 1_555
H22 C34 1_555 1_555
C35 C34 1_555 1_555
H23 C35 1_555 1_555
C36 C31 1_555 1_555
H24 C36 1_555 1_555
C37 C38 1_555 1_555
C38 C39 1_555 1_555
C39 H25 1_555 1_555
C40 C39 1_555 1_555
H26 C40 1_555 1_555
C41 C40 1_555 1_555
H27 C41 1_555 1_555
C42 C37 1_555 1_555
H28 C42 1_555 1_555
C43 C44 1_555 1_555
C44 H29 1_555 1_555
C45 C44 1_555 1_555
H30 C45 1_555 1_555
C46 C45 1_555 1_555
H31 C46 1_555 1_555
C47 C46 1_555 1_555
H32 C47 1_555 1_555
C48 C43 1_555 1_555
C49 C50 1_555 1_555
C50 H33 1_555 1_555
C51 C50 1_555 1_555
H34 C51 1_555 1_555
C52 C51 1_555 1_555
C53 C52 1_555 1_555
H35 C53 1_555 1_555
C54 C49 1_555 1_555
H36 C54 1_555 1_555
C55 C52 1_555 1_555
C56 C55 1_555 1_555
H37 C56 1_555 1_555
C57 C56 1_555 1_555
H38 C57 1_555 1_555
C58 C57 1_555 1_555
C59 C58 1_555 1_555
H39 C59 1_555 1_555
C60 C55 1_555 1_555
H40 C60 1_555 1_555
C61 C49 1_555 1_555
C62 C58 1_555 1_555
O1 C61 1_555 1_555
O2 C61 1_555 1_555
O3 C62 1_555 1_555
O4 C62 1_555 1_555
C63 C64 1_555 1_555
C64 H41 1_555 1_555
C65 C64 1_555 1_555
H42 C65 1_555 1_555
C66 C65 1_555 1_555
C67 C66 1_555 1_555
H43 C67 1_555 1_555
C68 C63 1_555 1_555
H44 C68 1_555 1_555
C69 C70 1_555 1_555
C70 H45 1_555 1_555
C71 C70 1_555 1_555
H46 C71 1_555 1_555
C72 C66 1_555 1_555
C73 C72 1_555 1_555
H47 C73 1_555 1_555
C74 C69 1_555 1_555
H48 C74 1_555 1_555
C75 C69 1_555 1_555
C76 C63 1_555 1_555
O5 C76 1_555 1_555
O6 C76 1_555 1_555
O7 C75 1_555 1_555
O8 C75 1_555 1_555
C77 C78 1_555 1_555
C78 H49 1_555 1_555
C79 C78 1_555 1_555
H50 C79 1_555 1_555
C80 C79 1_555 1_555
C81 C80 1_555 1_555
H51 C81 1_555 1_555
C82 C77 1_555 1_555
H52 C82 1_555 1_555
C83 C80 1_555 1_555
C84 C83 1_555 1_555
H53 C84 1_555 1_555
C85 C84 1_555 1_555
H54 C85 1_555 1_555
C86 C85 1_555 1_555
C87 C86 1_555 1_555
H55 C87 1_555 1_555
C88 C83 1_555 1_555
H56 C88 1_555 1_555
C89 C77 1_555 1_555
C90 C86 1_555 1_555
O9 C89 1_555 1_555
O10 C90 1_555 1_555
O11 C90 1_555 1_555
O12 C89 1_555 1_555
C91 C92 1_555 1_555
C92 H57 1_555 1_555
C93 C92 1_555 1_555
H58 C93 1_555 1_555
C94 C95 1_555 1_555
C95 H59 1_555 1_555
C96 C95 1_555 1_555
H60 C96 1_555 1_555
N1 C1 1_555 1_555
N2 N1 1_555 1_555
N3 C2 1_555 1_555
N4 C7 1_555 1_555
N5 N4 1_555 1_555
N6 C8 1_555 1_555
N7 C13 1_555 1_555
N8 N7 1_555 1_555
N9 C14 1_555 1_555
N10 C20 1_555 1_555
N11 N10 1_555 1_555
N12 C19 1_555 1_555
N13 C25 1_555 1_555
N14 N13 1_555 1_555
N15 C26 1_555 1_555
N16 C31 1_555 1_555
N17 N16 1_555 1_555
N18 C32 1_555 1_555
N19 C37 1_555 1_555
N20 N19 1_555 1_555
N21 C38 1_555 1_555
N22 C43 1_555 1_555
N23 N22 1_555 1_555
N24 C48 1_555 1_555
N25 C91 1_555 1_555
N26 N25 1_555 1_555
N27 N28 1_555 1_555
N28 C94 1_555 1_555
Zn1 N20 1_555 1_555
Zn2 N2 1_555 1_555
Zn3 O5 1_555 1_555
Zn4 O10 1_555 1_555
Zn5 N6 1_555 1_555
Zn6 O3 1_555 1_555
Zn7 N21 1_555 1_555
Zn8 N1 1_555 1_555
C1I C2I 1_555 1_555
C2I C3I 1_555 1_555
C3I H1I 1_555 1_555
C4I C3I 1_555 1_555
H2I C4I 1_555 1_555
C5I C4I 1_555 1_555
H3I C5I 1_555 1_555
C6I C1I 1_555 1_555
H4I C6I 1_555 1_555
C7M C8M 1_555 1_555
C8M C9M 1_555 1_555
C9M H5M 1_555 1_555
C10M C9M 1_555 1_555
H6M C10M 1_555 1_555
C11M C10M 1_555 1_555
H7M C11M 1_555 1_555
C12M C7M 1_555 1_555
H8M C12M 1_555 1_555
C13M C14M 1_555 1_555
C14M C15M 1_555 1_555
C15M H9M 1_555 1_555
C16M C15M 1_555 1_555
H10M C16M 1_555 1_555
C17M C16M 1_555 1_555
H11M C17M 1_555 1_555
C18M C13M 1_555 1_555
H12M C18M 1_555 1_555
C19M C20M 1_555 1_555
C20M C21M 1_555 1_555
C21M H13M 1_555 1_555
C22M C21M 1_555 1_555
H14M C22M 1_555 1_555
C23M C22M 1_555 1_555
H15M C23M 1_555 1_555
C24M C19M 1_555 1_555
H16M C24M 1_555 1_555
C25M C26M 1_555 1_555
C26M C27M 1_555 1_555
C27M H17M 1_555 1_555
C28M C27M 1_555 1_555
H18M C28M 1_555 1_555
C29M C28M 1_555 1_555
H19M C29M 1_555 1_555
C30M C25M 1_555 1_555
H20M C30M 1_555 1_555
C31M C32M 1_555 1_555
C32M C33M 1_555 1_555
C33M H21M 1_555 1_555
C34M C33M 1_555 1_555
H22M C34M 1_555 1_555
C35M C34M 1_555 1_555
H23M C35M 1_555 1_555
C36M C31M 1_555 1_555
H24M C36M 1_555 1_555
C37E C38E 1_555 1_555
C38E C39E 1_555 1_555
C39E H25E 1_555 1_555
C40E C39E 1_555 1_555
H26E C40E 1_555 1_555
C41E C40E 1_555 1_555
H27E C41E 1_555 1_555
C42E C37E 1_555 1_555
H28E C42E 1_555 1_555
C43E C44E 1_555 1_555
C44E H29E 1_555 1_555
C45E C44E 1_555 1_555
H30E C45E 1_555 1_555
C46E C45E 1_555 1_555
H31E C46E 1_555 1_555
C47E C46E 1_555 1_555
H32E C47E 1_555 1_555
C48E C43E 1_555 1_555
C49I C50I 1_555 1_555
C50I H33I 1_555 1_555
C51I C50I 1_555 1_555
H34I C51I 1_555 1_555
C52I C51I 1_555 1_555
C53I C52I 1_555 1_555
H35I C53I 1_555 1_555
C54I C49I 1_555 1_555
H36I C54I 1_555 1_555
C55I C52I 1_555 1_555
C56I C55I 1_555 1_555
H37I C56I 1_555 1_555
C57I C56I 1_555 1_555
H38I C57I 1_555 1_555
C58I C57I 1_555 1_555
C59I C58I 1_555 1_555
H39I C59I 1_555 1_555
C60I C55I 1_555 1_555
H40I C60I 1_555 1_555
C61I C49I 1_555 1_555
C62I C58I 1_555 1_555
O1I Zn8 1_555 1_555
O2I Zn8 1_555 1_555
O3I C62I 1_555 1_555
O4I C62I 1_555 1_555
C63M C64M 1_555 1_555
C64M H41M 1_555 1_555
C65M C64M 1_555 1_555
H42M C65M 1_555 1_555
C66M C65M 1_555 1_555
C67M C66M 1_555 1_555
H43M C67M 1_555 1_555
C68M C63M 1_555 1_555
H44M C68M 1_555 1_555
C69M C70M 1_555 1_555
C70M H45M 1_555 1_555
C71M C70M 1_555 1_555
H46M C71M 1_555 1_555
C72M C66M 1_555 1_555
C73M C72M 1_555 1_555
H47M C73M 1_555 1_555
C74M C69M 1_555 1_555
H48M C74M 1_555 1_555
C75M C69M 1_555 1_555
C76M C63M 1_555 1_555
O5M C76M 1_555 1_555
O6M C76M 1_555 1_555
O7M Zn5 1_555 1_555
O8M Zn5 1_555 1_555
C77C C78C 1_555 1_555
C78C H49C 1_555 1_555
C79C C78C 1_555 1_555
H50C C79C 1_555 1_555
C80C C79C 1_555 1_555
C81C C80C 1_555 1_555
H51C C81C 1_555 1_555
C82C C77C 1_555 1_555
H52C C82C 1_555 1_555
C83C C80C 1_555 1_555
C84C C83C 1_555 1_555
H53C C84C 1_555 1_555
C85C C84C 1_555 1_555
H54C C85C 1_555 1_555
C86C C85C 1_555 1_555
C87C C86C 1_555 1_555
H55C C87C 1_555 1_555
C88C C83C 1_555 1_555
H56C C88C 1_555 1_555
C89C C77C 1_555 1_555
C90C C86C 1_555 1_555
O9C Zn7 1_555 1_555
O9F Zn7E 1_555 1_555
O10C C90C 1_555 1_555
O10E Zn4E 1_555 1_555
O11C C90C 1_555 1_555
O11E Zn4E 1_555 1_555
O12C Zn7 1_555 1_555
O12F Zn7E 1_555 1_555
C91E C91 1_555 1_555
C92E C91E 1_555 1_555
H57E C92E 1_555 1_555
C93E C93 1_555 1_555
H58E C93E 1_555 1_555
C94E C94 1_555 1_555
C95E C94E 1_555 1_555
H59E C95E 1_555 1_555
C96E C96 1_555 1_555
H60E C96E 1_555 1_555
N1I C1I 1_555 1_555
N1I_2 Zn8I 1_555 1_555
N2I N1I 1_555 1_555
N3I C2I 1_555 1_555
N4M C7M 1_555 1_555
N4I Zn8I 1_555 1_555
N5M N4M 1_555 1_555
N5I Zn2I 1_555 1_555
N6M C8M 1_555 1_555
N7M C13M 1_555 1_555
N7I Zn8I 1_555 1_555
N8M N7M 1_555 1_555
N8I Zn2I 1_555 1_555
N9M C14M 1_555 1_555
N10M C20M 1_555 1_555
N11M N10M 1_555 1_555
N11I N12I 1_555 1_555
N12M C19M 1_555 1_555
N12I Zn6I 1_555 1_555
N13M C25M 1_555 1_555
N13M_2 Zn5M 1_555 1_555
N14M N13M 1_555 1_555
N14I Zn2I 1_555 1_555
N15M C26M 1_555 1_555
N16M C31M 1_555 1_555
N16I N17I 1_555 1_555
N17M N16M 1_555 1_555
N17I Zn2I 1_555 1_555
N18M C32M 1_555 1_555
N19E C37E 1_555 1_555
N20E Zn1 1_555 1_555
N21E C38E 1_555 1_555
N22E C43E 1_555 1_555
N23E Zn1 1_555 1_555
N24E Zn4 1_555 1_555
N25E N26 1_555 1_555
N28E N27 1_555 1_555
Zn2I N2I 1_555 1_555
Zn2M N8M 1_555 1_555
Zn2M_2 N5M 1_555 1_555
Zn3M O5M 1_555 1_555
Zn4E N24 1_555 1_555
Zn4C O10C 1_555 1_555
Zn5M O7 1_555 1_555
Zn5M_2 N13M 1_555 1_555
Zn6I O3I 1_555 1_555
Zn6M N16M 1_555 1_555
Zn6M_2 N12M 1_555 1_555
Zn7E N21E 1_555 1_555
Zn7B O9 1_555 1_555
Zn8I O1 1_555 1_555
Zn8M N7M 1_555 1_555
Zn8M_2 N4M 1_555 1_555
Zn8I_2 N1I 1_555 1_555
C5 C6 1_555 1_555
C11 C12 1_555 1_555
C17 C18 1_555 1_555
C23 C24 1_555 1_555
C29 C30 1_555 1_555
C35 C36 1_555 1_555
C41 C42 1_555 1_555
C47 C48 1_555 1_555
C53 C54 1_555 1_555
C59 C60 1_555 1_555
O2 Zn8I 1_555 1_555
C67 C68 1_555 1_555
C71 C72 1_555 1_555
C73 C74 1_555 1_555
O6 Zn3 1_555 1_555
O8 Zn5M 1_555 1_555
C81 C82 1_555 1_555
C87 C88 1_555 1_555
O11 Zn4 1_555 1_555
O12 Zn7B 1_555 1_555
N2 N3 1_555 1_555
N3 Zn6 1_555 1_555
N4 Zn8 1_555 1_555
N5 N6 1_555 1_555
N5 Zn2 1_555 1_555
N7 Zn8 1_555 1_555
N8 N9 1_555 1_555
N8 Zn2 1_555 1_555
N9 Zn3 1_555 1_555
N10 Zn5 1_555 1_555
N11 N12 1_555 1_555
N11 Zn2 1_555 1_555
N12 Zn6 1_555 1_555
N13 Zn5 1_555 1_555
N14 N15 1_555 1_555
N14 Zn2 1_555 1_555
N15 Zn3 1_555 1_555
N16 Zn6 1_555 1_555
N17 N18 1_555 1_555
N17 Zn2 1_555 1_555
N18 Zn3 1_555 1_555
N19 Zn4 1_555 1_555
N20 N21 1_555 1_555
N22 Zn7 1_555 1_555
N23 N24 1_555 1_555
N23 Zn1 1_555 1_555
N25 Zn7 1_555 1_555
N26 Zn1 1_555 1_555
N27 Zn1 1_555 1_555
N28 Zn4E 1_555 1_555
Zn4 N28E 1_555 1_555
C5I C6I 1_555 1_555
C11M C12M 1_555 1_555
C17M C18M 1_555 1_555
C23M C24M 1_555 1_555
C29M C30M 1_555 1_555
C35M C36M 1_555 1_555
C41E C42E 1_555 1_555
C47E C48E 1_555 1_555
C48E N24E 1_555 1_555
C53I C54I 1_555 1_555
C59I C60I 1_555 1_555
C61I O1I 1_555 1_555
C61I O2I 1_555 1_555
C67M C68M 1_555 1_555
C71M C72M 1_555 1_555
C73M C74M 1_555 1_555
C75M O7M 1_555 1_555
C75M O8M 1_555 1_555
O6M Zn3M 1_555 1_555
C81C C82C 1_555 1_555
C87C C88C 1_555 1_555
C89C O9C 1_555 1_555
C89C O12C 1_555 1_555
O11C Zn4C 1_555 1_555
C91E N25E 1_555 1_555
C92E C93E 1_555 1_555
C94E N28E 1_555 1_555
C95E C96E 1_555 1_555
N2I N3I 1_555 1_555
N3I Zn6I 1_555 1_555
N5M N6M 1_555 1_555
N6M Zn5M 1_555 1_555
N8M N9M 1_555 1_555
N9M Zn3M 1_555 1_555
N10M Zn5M 1_555 1_555
N11M N12M 1_555 1_555
N11M Zn2M_2 1_555 1_555
N11I Zn2I 1_555 1_555
N14M N15M 1_555 1_555
N14M Zn2M 1_555 1_555
N15M Zn3M 1_555 1_555
N16I Zn6I 1_555 1_555
N17M N18M 1_555 1_555
N17M Zn2M 1_555 1_555
N18M Zn3M 1_555 1_555
N19E N20E 1_555 1_555
N19E Zn4E 1_555 1_555
N20E N21E 1_555 1_555
N22E N23E 1_555 1_555
N22E Zn7E 1_555 1_555
N23E N24E 1_555 1_555
N25E Zn7E 1_555 1_555

#END
