
#######################################################################
#
#                 Cambridge Crystallographic Data Centre
#                                CCDC 
#
#######################################################################
#
# If this CIF has been generated from an entry in the Cambridge 
# Structural Database, then it will include bibliographic, chemical, 
# crystal, experimental, refinement or atomic coordinate data resulting 
# from the CCDC's data processing and validation procedures.
#
#######################################################################

data_NESVAK
_chemical_formula_moiety         
'(C2 H8 N1 1+)n,n(C24 H12 Cd3 N3 O13 1-),3.5n(C4 H9 N1 O1),4n(H2 O1)'
_chemical_name_systematic        
'catena-(Dimethylammonium (bis(\m~5~-1,3,5-benzenetricarboxylato)-(\m~3~-benzotriazolato)-aqua-tri-cadmium) dimethylacetamide solvate tetrahydrate)'
_symmetry_cell_setting           rhombohedral
_symmetry_space_group_name_H-M   'R 3 c'
_symmetry_Int_Tables_number      161
_space_group_name_Hall           'R 3 -2"c'
loop_
_symmetry_equiv_pos_site_id
_symmetry_equiv_pos_as_xyz
1 x,y,z
2 -y,x-y,z
3 -x+y,-x,z
4 -y,-x,1/2+z
5 x,x-y,1/2+z
6 -x+y,y,1/2+z
7 2/3+x,1/3+y,1/3+z
8 2/3-y,1/3+x-y,1/3+z
9 2/3-x+y,1/3-x,1/3+z
10 2/3-y,1/3-x,5/6+z
11 2/3+x,1/3+x-y,5/6+z
12 2/3-x+y,1/3+y,5/6+z
13 1/3+x,2/3+y,2/3+z
14 1/3-y,2/3+x-y,2/3+z
15 1/3-x+y,2/3-x,2/3+z
16 1/3-y,2/3-x,1/6+z
17 1/3+x,2/3+x-y,1/6+z
18 1/3-x+y,2/3+y,1/6+z
_cell_length_a                   21.5221(15)
_cell_length_b                   21.5221(15)
_cell_length_c                   66.232(8)
_cell_angle_alpha                90
_cell_angle_beta                 90
_cell_angle_gamma                120
_cell_volume                     26568.5
_exptl_crystal_colour            colorless
_exptl_crystal_description       block
_cell_formula_units_Z            18
loop_
_atom_site_label
_atom_site_type_symbol
_atom_site_fract_x
_atom_site_fract_y
_atom_site_fract_z
_atom_site_U_iso_or_equiv
_atom_site_thermal_displace_type
O2 O 0.6667 0.3333 0.70307(10) 0.0316 Uiso
O3 O 0.6667 0.3333 0.64901(11) 0.0357 Uiso
O4 O 0.3333 0.6667 0.84765(18) 0.0880 Uiso
O5 O 0.7596(9) 0.5167(10) 0.7379(3) 0.1400 Uiso
N1 N 0.6245(9) 0.4684(10) 0.7352(4) 0.1560 Uiso
C1 C 0.6965(9) 0.5201(10) 0.7416(3) 0.0900 Uiso
C2 C 0.6853(11) 0.5766(10) 0.7502(3) 0.0860 Uiso
H1 H 0.6339 0.5602 0.7504 0.1290 Uiso
H2 H 0.7102 0.6200 0.7419 0.1290 Uiso
H3 H 0.7044 0.5873 0.7640 0.1290 Uiso
C3 C 0.5539(9) 0.4566(11) 0.7407(3) 0.0890 Uiso
H4 H 0.5170 0.4165 0.7329 0.1340 Uiso
H5 H 0.5515 0.5000 0.7379 0.1340 Uiso
H6 H 0.5457 0.4453 0.7552 0.1340 Uiso
C4 C 0.6289(7) 0.4113(7) 0.7249(2) 0.0430 Uiso
H7 H 0.5811 0.3753 0.7201 0.0650 Uiso
H8 H 0.6471 0.3888 0.7342 0.0650 Uiso
H9 H 0.6615 0.4312 0.7133 0.0650 Uiso
Cd1 Cd 0.65336(2) 0.52449(2) 0.862178(6) 0.0253 Uani
Cd2 Cd 0.63383(2) 0.59825(3) 0.815669(6) 0.0371 Uani
Cd3 Cd 0.33525(2) 0.37355(2) 0.741487(6) 0.0301 Uani
O6 O 0.5599(2) 0.4935(2) 0.83250(6) 0.0371 Uani
O7 O 0.5813(3) 0.4160(2) 0.84839(6) 0.0426 Uani
O8 O 0.4060(2) 0.4065(2) 0.76997(7) 0.0393 Uani
O9 O 0.3861(3) 0.3053(3) 0.75663(7) 0.0500 Uani
O10 O 0.3997(4) 0.1292(3) 0.80265(10) 0.0882 Uani
O11 O 0.4380(4) 0.1579(3) 0.83307(8) 0.0736 Uani
O12 O 0.7259(3) 0.4909(3) 0.87608(7) 0.0551 Uani
O13 O 0.7455(2) 0.5912(2) 0.89054(7) 0.0389 Uani
O14 O 0.9204(2) 0.4203(2) 0.88935(7) 0.0450 Uani
O15 O 0.9072(3) 0.3894(3) 0.92174(7) 0.0523 Uani
O16 O 0.8920(3) 0.6588(3) 0.95518(9) 0.0707 Uani
O17 O 0.9527(3) 0.6090(3) 0.96227(8) 0.0637 Uani
N2 N 0.6481(4) 0.6594(3) 0.84452(8) 0.0507 Uani
N3 N 0.6563(3) 0.6306(2) 0.86090(8) 0.0294 Uani
N4 N 0.6651(4) 0.6713(3) 0.87756(8) 0.0478 Uani
C5 C 0.5513(4) 0.4322(3) 0.83503(9) 0.0382 Uani
C6 C 0.5009(3) 0.3736(3) 0.82059(9) 0.0352 Uani
C7 C 0.4778(3) 0.3885(3) 0.80284(9) 0.0317 Uani
H10 H 0.4904 0.4366 0.7999 0.0320 Uiso
C8 C 0.4373(3) 0.3358(3) 0.78954(9) 0.0364 Uani
C9 C 0.4184(4) 0.2653(3) 0.79404(9) 0.0410 Uani
H11 H 0.3885 0.2284 0.7849 0.0410 Uiso
C10 C 0.4417(4) 0.2466(3) 0.81159(10) 0.0417 Uani
C11 C 0.4820(3) 0.3037(3) 0.82521(9) 0.0348 Uani
H12 H 0.4963 0.2937 0.8378 0.0350 Uiso
C12 C 0.4082(3) 0.3507(3) 0.77071(9) 0.0338 Uani
C13 C 0.4246(4) 0.1752(3) 0.81621(10) 0.0414 Uani
C14 C 0.7552(3) 0.5388(4) 0.88917(9) 0.0420 Uani
C15 C 0.8090(3) 0.5330(4) 0.90291(10) 0.0382 Uani
C16 C 0.8342(3) 0.4859(4) 0.89801(10) 0.0402 Uani
H13 H 0.8218 0.4610 0.8855 0.0400 Uiso
C17 C 0.8777(3) 0.4759(3) 0.91175(10) 0.0339 Uani
C18 C 0.9000(4) 0.5157(4) 0.92932(9) 0.0400 Uani
H14 H 0.9298 0.5084 0.9384 0.0400 Uiso
C19 C 0.8798(4) 0.5665(4) 0.93406(10) 0.0434 Uani
C20 C 0.8319(3) 0.5751(4) 0.92125(8) 0.0363 Uani
H15 H 0.8153 0.6073 0.9246 0.0360 Uiso
C21 C 0.9058(4) 0.6108(4) 0.95240(10) 0.0463 Uani
C22 C 0.9041(3) 0.4244(4) 0.90685(11) 0.0440 Uani
C23 C 0.6369(5) 0.7153(4) 0.85055(11) 0.0466 Uani
C24 C 0.6438(5) 0.7200(4) 0.87141(11) 0.0396 Uani
C25 C 0.6392(5) 0.7737(5) 0.88170(12) 0.0622 Uani
H16 H 0.6439 0.7769 0.8960 0.0620 Uiso
C26 C 0.6278(5) 0.8228(5) 0.87113(14) 0.0784 Uani
H17 H 0.6246 0.8596 0.8782 0.0790 Uiso
C27 C 0.6209(5) 0.8181(5) 0.85027(15) 0.0741 Uani
H18 H 0.6131 0.8517 0.8430 0.0740 Uiso
C28 C 0.6255(5) 0.7644(5) 0.83998(12) 0.0579 Uani
H19 H 0.6208 0.7612 0.8257 0.0580 Uiso
O18 O 0.2301(4) 0.2686(4) 0.75067(11) 0.0890 Uiso
Cd1A Cd 0.47551(2) 0.12887(3) 0.862178(6) 0.0253 Uani
Cd1B Cd 0.87113(3) 0.34664(2) 0.862178(6) 0.0253 Uani
Cd2A Cd 0.40175(3) 0.03558(4) 0.815669(6) 0.0371 Uani
Cd2P Cd 0.96716(2) 0.70225(4) 0.982336(6) 0.0371 Uani
Cd3P Cd 0.66858(2) 0.62837(3) 0.908154(6) 0.0301 Uani
Cd3O Cd 0.95978(2) 0.33142(2) 0.908154(6) 0.0301 Uani
O10B O 0.7295(5) 0.6003(4) 0.80265(10) 0.0882 Uani
O11B O 0.7199(5) 0.5620(4) 0.83307(8) 0.0736 Uani
O13J O 0.4122(2) 0.4876(3) 0.72387(7) 0.0389 Uani
O14A O 0.5797(2) 0.5001(3) 0.88935(7) 0.0450 Uani
O15I O 0.2773(3) 0.4261(3) 0.75507(7) 0.0523 Uani
O16J O 0.5587(3) 0.5665(4) 0.78851(9) 0.0707 Uani
O17J O 0.6194(3) 0.6770(4) 0.79560(8) 0.0637 Uani
N4J N 0.3318(4) 0.3271(5) 0.71089(8) 0.0478 Uani
O1 O 0.6667 0.3333 0.85547(18) 0.0460 Uiso
C29? C 0.6830(7) 0.7329(4) 0.84848(14) 0.0438 Uani
C30? C 0.6938(6) 0.7413(4) 0.86922(13) 0.0284 Uani
C31? C 0.7200(6) 0.8086(5) 0.87794(11) 0.0554 Uani
H20? H 0.7274 0.8143 0.8921 0.0660 Uiso
C32? C 0.7355(7) 0.8675(4) 0.86592(16) 0.0549 Uani
H21? H 0.7534 0.9135 0.8719 0.0660 Uiso
C33? C 0.7247(7) 0.8592(5) 0.84518(15) 0.0646 Uani
H22? H 0.7353 0.8995 0.8370 0.0780 Uiso
C34? C 0.6985(7) 0.7919(6) 0.83645(11) 0.0560 Uani
H23? H 0.6911 0.7862 0.8223 0.0680 Uiso
O19? O 0.6667 0.3333 0.8645(3) 0.0490 Uiso
loop_
_atom_site_aniso_label
_atom_site_aniso_U_11
_atom_site_aniso_U_22
_atom_site_aniso_U_33
_atom_site_aniso_U_23
_atom_site_aniso_U_13
_atom_site_aniso_U_12
Cd1 0.0307(2) 0.0320(2) 0.01673(17) -0.00311(17) -0.00341(16) 0.01827(19)
Cd2 0.0421(3) 0.0531(3) 0.0209(2) 0.0014(2) -0.00621(19) 0.0273(2)
Cd3 0.0410(2) 0.0391(2) 0.01921(19) -0.00114(18) -0.00702(16) 0.0268(2)
O6 0.043(2) 0.031(2) 0.031(2) -0.0037(18) -0.0085(19) 0.0137(19)
O7 0.059(3) 0.038(2) 0.029(3) -0.0135(19) -0.024(2) 0.023(2)
O8 0.056(3) 0.034(2) 0.034(3) 0.0011(18) -0.024(2) 0.027(2)
O9 0.083(4) 0.053(3) 0.026(2) -0.013(2) -0.031(2) 0.043(3)
O10 0.146(5) 0.052(3) 0.062(4) 0.003(3) -0.033(4) 0.046(4)
O11 0.127(5) 0.050(3) 0.042(3) 0.002(2) -0.040(3) 0.043(3)
O12 0.056(3) 0.097(4) 0.032(3) -0.016(3) -0.021(2) 0.053(3)
O13 0.044(3) 0.055(3) 0.030(3) 0.006(2) -0.0035(19) 0.034(2)
O14 0.041(3) 0.039(2) 0.047(3) -0.022(2) -0.006(2) 0.014(2)
O15 0.084(4) 0.076(3) 0.033(3) -0.021(2) -0.026(2) 0.067(3)
O16 0.097(4) 0.081(4) 0.068(4) -0.044(3) -0.044(3) 0.070(4)
O17 0.089(4) 0.073(4) 0.051(4) -0.038(3) -0.039(3) 0.057(3)
N2 0.093(5) 0.037(3) 0.028(3) -0.001(2) -0.006(3) 0.037(3)
N3 0.042(3) 0.028(3) 0.019(2) 0.001(2) -0.0058(19) 0.018(2)
N4 0.090(5) 0.042(3) 0.026(3) -0.017(2) -0.019(3) 0.044(3)
C5 0.064(4) 0.041(4) 0.020(3) -0.006(3) -0.010(3) 0.034(3)
C6 0.050(4) 0.033(3) 0.023(3) -0.003(2) -0.004(3) 0.021(3)
C7 0.035(3) 0.033(3) 0.031(3) -0.002(3) -0.011(3) 0.020(3)
C8 0.049(4) 0.045(4) 0.024(3) -0.001(3) -0.007(3) 0.030(3)
C9 0.066(4) 0.038(4) 0.023(3) -0.015(3) -0.021(3) 0.029(3)
C10 0.056(4) 0.040(4) 0.025(3) 0.005(3) -0.012(3) 0.021(3)
C11 0.047(4) 0.036(3) 0.023(3) -0.001(3) -0.005(3) 0.022(3)
C12 0.047(4) 0.029(3) 0.024(3) -0.002(3) -0.013(3) 0.018(3)
C13 0.066(4) 0.045(4) 0.031(4) -0.022(3) -0.027(3) 0.041(4)
C14 0.036(3) 0.074(5) 0.018(3) -0.005(3) -0.006(3) 0.029(3)
C15 0.032(3) 0.061(4) 0.028(3) -0.010(3) -0.006(3) 0.028(3)
C16 0.032(3) 0.061(4) 0.034(4) -0.023(3) -0.009(3) 0.028(3)
C17 0.026(3) 0.052(4) 0.031(3) -0.013(3) -0.013(2) 0.025(3)
C18 0.059(4) 0.066(4) 0.016(3) -0.008(3) -0.012(3) 0.047(4)
C19 0.046(4) 0.067(5) 0.025(4) -0.018(3) -0.015(3) 0.034(4)
C20 0.044(4) 0.062(4) 0.017(3) -0.014(3) -0.013(3) 0.037(3)
C21 0.072(5) 0.064(5) 0.023(3) -0.023(3) -0.029(3) 0.049(4)
C22 0.027(3) 0.053(4) 0.044(4) -0.037(3) -0.011(3) 0.014(3)
C23 0.055(6) 0.040(5) 0.045(5) 0.004(4) -0.004(5) 0.024(5)
C24 0.048(6) 0.036(5) 0.040(5) 0.000(4) 0.005(5) 0.025(5)
C25 0.087(8) 0.052(6) 0.056(6) -0.007(5) 0.000(6) 0.041(6)
C26 0.096(8) 0.063(7) 0.086(7) -0.011(6) -0.012(7) 0.047(6)
C27 0.084(8) 0.067(7) 0.089(7) 0.005(6) -0.011(6) 0.051(6)
C28 0.067(7) 0.065(6) 0.051(6) 0.008(5) -0.008(5) 0.040(6)
Cd1A 0.032 0.02616 0.01673 -0.0003 0.00311 0.01373
Cd1B 0.02616 0.0307 0.01673 0.00341 0.0003 0.01243
Cd2A 0.0531 0.0406 0.0209 -0.00761 -0.0014 0.0258
Cd2P 0.0421 0.0406 0.0209 -0.00761 -0.00621 0.0148
Cd3P 0.041 0.0265 0.01921 -0.00588 -0.00702 0.0142
Cd3O 0.0391 0.041 0.01921 0.00702 0.00114 0.0268
O10B 0.106 0.146 0.062 0.033 0.036 0.1
O11B 0.091 0.127 0.042 0.04 0.042 0.084
O13J 0.044 0.031 0.03 -0.0095 -0.0035 0.01
O14A 0.039 0.052 0.047 0.016 0.022 0.025
O15I 0.076 0.084 0.033 0.026 0.021 0.067
O16J 0.097 0.038 0.068 0 -0.044 0.027
O17J 0.089 0.048 0.051 -0.001 -0.039 0.032
N4J 0.09 0.044 0.026 -0.002 -0.019 0.046
C29? 0.049(10) 0.052(8) 0.030(7) 0.001(6) -0.007(8) 0.025(9)
C30? 0.025(6) 0.034(5) 0.024(5) -0.011(4) -0.008(5) 0.013(5)
C31? 0.083(13) 0.019(7) 0.065(10) -0.015(6) -0.046(10) 0.026(8)
C32? 0.066(8) 0.049(6) 0.050(6) 0.006(5) 0.000(6) 0.029(6)
C33? 0.085(9) 0.056(6) 0.051(7) 0.000(6) -0.006(7) 0.034(7)
C34? 0.071(9) 0.053(7) 0.040(7) 0.004(5) -0.010(7) 0.028(6)
loop_
_geom_bond_atom_site_label_1
_geom_bond_atom_site_label_2
_geom_bond_site_symmetry_1
_geom_bond_site_symmetry_2
O5 C1 1_555 1_555
N1 C1 1_555 1_555
C1 C2 1_555 1_555
C2 H1 1_555 1_555
H2 C2 1_555 1_555
H3 C2 1_555 1_555
C3 N1 1_555 1_555
H4 C3 1_555 1_555
H5 C3 1_555 1_555
H6 C3 1_555 1_555
C4 N1 1_555 1_555
H7 C4 1_555 1_555
H8 C4 1_555 1_555
H9 C4 1_555 1_555
Cd1 O6 1_555 1_555
Cd2 O6 1_555 1_555
Cd3 O8 1_555 1_555
O6 C5 1_555 1_555
O7 Cd1 1_555 1_555
O8 C12 1_555 1_555
O9 Cd3 1_555 1_555
O10 C13 1_555 1_555
O11 C13 1_555 1_555
O12 Cd1 1_555 1_555
O13 Cd1 1_555 1_555
O14 C22 1_555 1_555
O15 C22 1_555 1_555
O16 C21 1_555 1_555
O17 C21 1_555 1_555
N2 Cd2 1_555 1_555
N3 Cd1 1_555 1_555
N4 N3 1_555 1_555
C5 O7 1_555 1_555
C6 C5 1_555 1_555
C7 C6 1_555 1_555
H10 C7 1_555 1_555
C8 C7 1_555 1_555
C9 C8 1_555 1_555
H11 C9 1_555 1_555
C10 C9 1_555 1_555
C11 C6 1_555 1_555
H12 C11 1_555 1_555
C12 O9 1_555 1_555
C13 C10 1_555 1_555
C14 O12 1_555 1_555
C15 C14 1_555 1_555
C16 C15 1_555 1_555
H13 C16 1_555 1_555
C17 C16 1_555 1_555
C18 C17 1_555 1_555
H14 C18 1_555 1_555
C19 C18 1_555 1_555
C20 C15 1_555 1_555
H15 C20 1_555 1_555
C21 C19 1_555 1_555
C22 C17 1_555 1_555
C23 N2 1_555 1_555
C24 N4 1_555 1_555
C25 C24 1_555 1_555
H16 C25 1_555 1_555
C26 C25 1_555 1_555
H17 C26 1_555 1_555
C27 C26 1_555 1_555
H18 C27 1_555 1_555
C28 C23 1_555 1_555
H19 C28 1_555 1_555
O18 Cd3 1_555 1_555
Cd1A O11 1_555 1_555
Cd1B O14 1_555 1_555
Cd2A O10 1_555 1_555
Cd2P O16 1_555 1_555
Cd3P O13 1_555 1_555
Cd3O O15 1_555 1_555
O10B Cd2 1_555 1_555
O11B Cd1 1_555 1_555
O13J Cd3 1_555 1_555
O14A Cd1 1_555 1_555
O15I Cd3 1_555 1_555
O16J Cd2 1_555 1_555
O17J Cd2 1_555 1_555
N4J Cd3 1_555 1_555
Cd2 O11B 1_555 1_555
O11 Cd2A 1_555 1_555
O13 C14 1_555 1_555
O17 Cd2P 1_555 1_555
N2 N3 1_555 1_555
N4 Cd3P 1_555 1_555
C8 C12 1_555 1_555
C10 C11 1_555 1_555
C19 C20 1_555 1_555
C23 C24 1_555 1_555
C27 C28 1_555 1_555

#END
