
#######################################################################
#
#                 Cambridge Crystallographic Data Centre
#                                CCDC 
#
#######################################################################
#
# If this CIF has been generated from an entry in the Cambridge 
# Structural Database, then it will include bibliographic, chemical, 
# crystal, experimental, refinement or atomic coordinate data resulting 
# from the CCDC's data processing and validation procedures.
#
#######################################################################

data_PATLON
_chemical_formula_moiety         '(C7 H6 Cd1 N2 O4)n,1.5n(H2 O1)'
_chemical_name_systematic        
'catena-[(\m~4~-5-Carboxy-4-carboxylato-2-ethyl-1H-imidazolyl)-cadmium(ii) sesquihydrate]'
_symmetry_cell_setting           tetragonal
_symmetry_space_group_name_H-M   'P 42/n m c'
_symmetry_Int_Tables_number      137
_space_group_name_Hall           '-P 4ac 2a'
loop_
_symmetry_equiv_pos_site_id
_symmetry_equiv_pos_as_xyz
1 x,y,z
2 1/2-x,1/2-y,z
3 1/2-y,x,1/2+z
4 y,1/2-x,1/2+z
5 -x,1/2+y,-z
6 1/2+x,-y,-z
7 1/2+y,1/2+x,1/2-z
8 -y,-x,1/2-z
9 -x,-y,-z
10 1/2+x,1/2+y,-z
11 1/2+y,-x,1/2-z
12 -y,1/2+x,1/2-z
13 x,1/2-y,z
14 1/2-x,y,z
15 1/2-y,1/2-x,1/2+z
16 y,x,1/2+z
_cell_length_a                   16.2019(19)
_cell_length_b                   16.2019(19)
_cell_length_c                   6.8947(8)
_cell_angle_alpha                90
_cell_angle_beta                 90
_cell_angle_gamma                90
_cell_volume                     1809.87
_exptl_crystal_colour            colorless
_exptl_crystal_description       block
_cell_formula_units_Z            8
loop_
_atom_site_label
_atom_site_type_symbol
_atom_site_fract_x
_atom_site_fract_y
_atom_site_fract_z
_atom_site_U_iso_or_equiv
_atom_site_thermal_displace_type
Cd1 Cd 0.45735(2) 0.95735(2) 0.2500 0.0251 Uani
O1 O 0.4274(2) 1.0179(3) 0.5679(7) 0.0380 Uani
O2 O 0.3299(3) 1.0802(5) 0.7394(8) 0.0647 Uani
N1 N 0.3190(3) 0.9726(3) 0.2845(7) 0.0280 Uani
C1 C 0.3532(4) 1.0388(4) 0.5950(9) 0.0330 Uani
C2 C 0.2925(3) 1.0105(3) 0.4514(8) 0.0277 Uani
C3 C 0.2500 0.9514(5) 0.1875(13) 0.0317 Uani
C4 C 0.2500 0.9096(8) -0.0018(18) 0.0663 Uani
H1 H 0.2980 0.9268 -0.0729 0.0790 Uiso
C5 C 0.2500 0.8192(17) 0.022(4) 0.0787 Uani
H2 H 0.2500 0.7922 -0.1017 0.1180 Uiso
H3 H 0.2984 0.8034 0.0935 0.1180 Uiso
Cd1H Cd 0.54265(2) 1.04265(2) 0.7500 0.0251 Uani
Cd1K Cd 0.04265(2) 0.95735(2) 0.2500 0.0251 Uani
Cd1C Cd -0.04265(2) 1.04265(2) 0.7500 0.0251 Uani
O1M O 0.0726(2) 1.0179(3) 0.5679(7) 0.0380 Uani
O1F O 0.5179(3) 0.9274(2) -0.0679(7) 0.0380 Uani
O1H O 0.5726(2) 0.9821(3) 0.4321(7) 0.0380 Uani
O1N O 0.4821(3) 1.0726(2) 0.0679(7) 0.0380 Uani
O2M O 0.1701(3) 1.0802(5) 0.7394(8) 0.0647 Uani
N1M N 0.1810(3) 0.9726(3) 0.2845(7) 0.0280 Uani
N1F N 0.4726(3) 0.8190(3) 0.2155(7) 0.0280 Uani
C1M C 0.1468(4) 1.0388(4) 0.5950(9) 0.0330 Uani
C2M C 0.2075(3) 1.0105(3) 0.4514(8) 0.0277 Uani
H1M H 0.2020 0.9268 -0.0729 0.0790 Uiso
H3M H 0.2016 0.8034 0.0935 0.1180 Uiso
O3 O 0.2500 1.1821(4) 0.8002(12) 0.0483 Uani
H4 H 0.2082 1.2007 0.7399 0.0730 Uiso
H4M H 0.2918 1.2007 0.7399 0.0730 Uiso
O4 O 0.322(3) 1.2500 0.575(6) 0.2600 Uani
H5? H 0.3699 1.0919 0.8066 0.0970 Uiso
H6? H 0.2879 0.8641 0.0003 0.0790 Uiso
H7? H 0.2698 0.9487 -0.0955 0.0790 Uiso
C6? C 0.1765(16) 0.878(2) -0.085(4) 0.0670 Uani
H8? H 0.1889 0.8529 -0.2076 0.1000 Uiso
H9? H 0.1377 0.9218 -0.1027 0.1000 Uiso
H10? H 0.1533 0.8371 0.0006 0.1000 Uiso
H11? H 0.2752 1.1493 0.7246 0.0730 Uiso
H12? H 0.3605 1.2676 0.6468 0.3890 Uiso
H13? H 0.2865 1.2262 0.6484 0.3890 Uiso
loop_
_atom_site_aniso_label
_atom_site_aniso_U_11
_atom_site_aniso_U_22
_atom_site_aniso_U_33
_atom_site_aniso_U_23
_atom_site_aniso_U_13
_atom_site_aniso_U_12
Cd1 0.0215(3) 0.0215(3) 0.0324(5) -0.00384(16) 0.00384(16) 0.0005(2)
O1 0.018(2) 0.050(3) 0.046(3) -0.007(2) -0.004(2) -0.002(2)
O2 0.037(3) 0.093(5) 0.064(4) -0.047(3) -0.007(2) 0.005(3)
N1 0.022(2) 0.030(3) 0.032(2) -0.005(2) 0.006(2) 0.002(2)
C1 0.020(3) 0.040(4) 0.039(3) -0.011(3) 0.000(2) 0.001(2)
C2 0.021(3) 0.029(3) 0.033(3) -0.006(2) 0.002(2) 0.002(2)
C3 0.035(5) 0.029(5) 0.031(4) -0.004(4) 0.000 0.000
C4 0.081(6) 0.064(5) 0.054(5) -0.015(5) 0.000 0.000
C5 0.089(7) 0.075(7) 0.072(7) -0.013(6) 0.000 0.000
Cd1H 0.0215 0.0215 0.0324 -0.00384 0.00384 0.0005
Cd1K 0.0215 0.0215 0.0324 -0.00384 -0.00384 -0.0005
Cd1C 0.0215 0.0215 0.0324 -0.00384 -0.00384 -0.0005
O1M 0.018 0.05 0.046 -0.007 0.004 0.002
O1F 0.05 0.018 0.046 0.004 0.007 -0.002
O1H 0.018 0.05 0.046 -0.007 -0.004 -0.002
O1N 0.05 0.018 0.046 0.004 0.007 -0.002
O2M 0.037 0.093 0.064 -0.047 0.007 -0.005
N1M 0.022 0.03 0.032 -0.005 -0.006 -0.002
N1F 0.03 0.022 0.032 -0.006 0.005 0.002
C1M 0.02 0.04 0.039 -0.011 0 -0.001
C2M 0.021 0.029 0.033 -0.006 -0.002 -0.002
O3 0.027(3) 0.039(4) 0.079(5) -0.017(4) 0.000 0.000
O4 0.49(8) 0.040(12) 0.25(4) 0.000 0.20(5) 0.000
C6? 0.075(7) 0.068(7) 0.058(7) -0.013(6) -0.003(6) -0.003(6)
loop_
_geom_bond_atom_site_label_1
_geom_bond_atom_site_label_2
_geom_bond_site_symmetry_1
_geom_bond_site_symmetry_2
Cd1 O1 1_555 1_555
O1 C1 1_555 1_555
O2 C1 1_555 1_555
N1 Cd1 1_555 1_555
C1 C2 1_555 1_555
C2 N1 1_555 1_555
C3 N1 1_555 1_555
C4 C3 1_555 1_555
H1 C4 1_555 1_555
C5 C4 1_555 1_555
H2 C5 1_555 1_555
H3 C5 1_555 1_555
O3 H4 1_555 1_555
Cd1H O1 1_555 1_555
Cd1K O1M 1_555 1_555
Cd1C O1M 1_555 1_555
O1M C1M 1_555 1_555
O1F Cd1 1_555 1_555
O1H Cd1 1_555 1_555
O1N Cd1 1_555 1_555
O2M C1M 1_555 1_555
N1M C3 1_555 1_555
N1F Cd1 1_555 1_555
C1M C2M 1_555 1_555
C2M C2 1_555 1_555
H1M C4 1_555 1_555
H3M C5 1_555 1_555
H4M O3 1_555 1_555
Cd1H O1H 1_555 1_555
Cd1K N1M 1_555 1_555
N1M C2M 1_555 1_555

#END
