
#######################################################################
#
#                 Cambridge Crystallographic Data Centre
#                                CCDC 
#
#######################################################################
#
# If this CIF has been generated from an entry in the Cambridge 
# Structural Database, then it will include bibliographic, chemical, 
# crystal, experimental, refinement or atomic coordinate data resulting 
# from the CCDC's data processing and validation procedures.
#
#######################################################################

data_XENMOU
_chemical_formula_moiety         '(C42 H26 O20 Zn5)n,2.5n(H2 O1),1.5n(C2 H6 O1)'
_chemical_name_systematic        
'catena-(bis(\m~7~-3,5-bis(4-carboxyphenoxy)benzoato)-tetrakis(\m~3~-hydroxo)-penta-zinc(ii) ethanol solvate hydrate)'
_symmetry_cell_setting           triclinic
_symmetry_space_group_name_H-M   'P -1'
_symmetry_Int_Tables_number      2
_space_group_name_Hall           '-P 1'
loop_
_symmetry_equiv_pos_site_id
_symmetry_equiv_pos_as_xyz
1 x,y,z
2 -x,-y,-z
_cell_length_a                   6.3303(4)
_cell_length_b                   12.6819(8)
_cell_length_c                   15.6877(10)
_cell_angle_alpha                95.7110(10)
_cell_angle_beta                 99.7730(10)
_cell_angle_gamma                97.9730(10)
_cell_volume                     1219.33
_exptl_crystal_colour            colorless
_exptl_crystal_description       block
_cell_formula_units_Z            1
loop_
_atom_site_label
_atom_site_type_symbol
_atom_site_fract_x
_atom_site_fract_y
_atom_site_fract_z
O2 O 0.062(4) 0.357(2) 0.9505(15)
H3 H 0.0760 0.4202 0.9769
H4 H -0.0696 0.3266 0.9440
C1 C 1.6702(11) -0.8032(5) -0.2201(4)
C2 C 1.5981(10) -0.7201(5) -0.2751(4)
C3 C 1.6996(10) -0.6965(5) -0.3443(4)
H5 H 1.8118 -0.7321 -0.3565
C4 C 1.6330(10) -0.6198(5) -0.3948(4)
C5 C 1.4649(11) -0.5660(5) -0.3781(4)
H6 H 1.4209 -0.5141 -0.4120
C6 C 1.3642(10) -0.5921(5) -0.3091(4)
C7 C 1.4285(10) -0.6677(5) -0.2573(4)
H7 H 1.3595 -0.6835 -0.2113
C8 C 1.2061(10) -0.4560(5) -0.2383(4)
C9 C 1.0153(10) -0.4215(5) -0.2243(4)
H8 H 0.8820 -0.4597 -0.2531
C10 C 1.0240(10) -0.3304(5) -0.1674(4)
H9 H 0.8956 -0.3072 -0.1583
C11 C 1.2212(9) -0.2727(4) -0.1234(4)
C12 C 1.4107(10) -0.3082(5) -0.1374(4)
H10 H 1.5441 -0.2703 -0.1083
C13 C 1.4030(10) -0.4002(5) -0.1947(4)
H11 H 1.5310 -0.4240 -0.2037
C14 C 1.2251(9) -0.1730(4) -0.0636(4)
C15 C 1.7557(11) -0.6708(5) -0.5246(4)
C16 C 1.9503(11) -0.6687(6) -0.5526(4)
H12 H 2.0675 -0.6157 -0.5278
C17 C 1.9701(11) -0.7459(6) -0.6181(4)
H13 H 2.1027 -0.7460 -0.6361
C18 C 1.7948(10) -0.8230(5) -0.6571(4)
C19 C 1.5990(11) -0.8230(6) -0.6296(5)
H14 H 1.4798 -0.8740 -0.6561
C20 C 1.5797(11) -0.7468(6) -0.5624(4)
H15 H 1.4485 -0.7473 -0.5432
C21 C 1.8148(10) -0.9066(5) -0.7289(4)
O3 O 1.2503(6) 0.0196(3) 0.1078(2)
H16 H 1.2890 0.0865 0.1240
O4 O 0.8130(6) -0.0821(3) 0.0870(2)
O5 O 1.5799(8) -0.8184(4) -0.1558(3)
O6 O 1.8184(9) -0.8515(4) -0.2430(3)
O7 O 1.1809(7) -0.5462(4) -0.2974(3)
O8 O 1.0472(6) -0.1512(3) -0.0479(3)
O9 O 1.4089(6) -0.1152(3) -0.0325(3)
O10 O 1.7386(8) -0.5890(3) -0.4611(3)
O11 O 1.6460(7) -0.9548(4) -0.7769(3)
O12 O 2.0080(7) -0.9223(4) -0.7343(3)
Zn1 Zn 1.0000 0.0000 0.0000
Zn2 Zn 1.48003(10) -0.95383(6) -0.10046(4)
Zn3 Zn 1.94140(11) -0.96181(6) -0.18612(4)
C1A C 0.3298(11) 0.8032(5) 0.2201(4)
C2A C 0.4019(10) 0.7201(5) 0.2751(4)
C3A C 0.3004(10) 0.6965(5) 0.3443(4)
H5A H 0.1882 0.7321 0.3565
C4A C 0.3670(10) 0.6198(5) 0.3948(4)
C5A C 0.5351(11) 0.5660(5) 0.3781(4)
H6A H 0.5791 0.5141 0.4120
C6A C 0.6358(10) 0.5921(5) 0.3091(4)
C7A C 0.5715(10) 0.6677(5) 0.2573(4)
H7A H 0.6405 0.6835 0.2113
C8A C 0.7939(10) 0.4560(5) 0.2383(4)
C9A C 0.9847(10) 0.4215(5) 0.2243(4)
H8A H 1.1180 0.4597 0.2531
C10A C 0.9760(10) 0.3304(5) 0.1674(4)
H9A H 1.1044 0.3072 0.1583
C11A C 0.7788(9) 0.2727(4) 0.1234(4)
C12A C 0.5893(10) 0.3082(5) 0.1374(4)
H10A H 0.4559 0.2703 0.1083
C13A C 0.5970(10) 0.4002(5) 0.1947(4)
H11A H 0.4690 0.4240 0.2037
C14A C 0.7749(9) 0.1730(4) 0.0636(4)
C15A C 0.2443(11) 0.6708(5) 0.5246(4)
C16A C 0.0497(11) 0.6687(6) 0.5526(4)
H12A H -0.0675 0.6157 0.5278
C17A C 0.0299(11) 0.7459(6) 0.6181(4)
H13A H -0.1027 0.7460 0.6361
C18A C 0.2052(10) 0.8230(5) 0.6571(4)
C19A C 0.4010(11) 0.8230(6) 0.6296(5)
H14A H 0.5202 0.8740 0.6561
C20A C 0.4203(11) 0.7468(6) 0.5624(4)
H15A H 0.5515 0.7473 0.5432
C21A C 0.1852(10) 0.9066(5) 0.7289(4)
O3A O 0.7497(6) -0.0196(3) -0.1078(2)
O3A_2 O 1.7497(6) -1.0196(3) -0.1078(2)
O3_2 O 0.2503(6) 1.0196(3) 0.1078(2)
H16A H 0.7110 -0.0865 -0.1240
H16A_2 H 1.7110 -1.0865 -0.1240
H16_2 H 0.2890 1.0865 0.1240
O4A O 1.1870(6) 0.0821(3) -0.0870(2)
O4A_2 O 1.1870(6) -0.9179(3) -0.0870(2)
O4A_3 O 2.1870(6) -0.9179(3) -0.0870(2)
O4_2 O 0.8130(6) 0.9179(3) 0.0870(2)
O4_3 O -0.1870(6) 0.9179(3) 0.0870(2)
O5A O 0.4201(8) 0.8184(4) 0.1558(3)
O6A O 0.1816(9) 0.8515(4) 0.2430(3)
O7A O 0.8191(7) 0.5462(4) 0.2974(3)
O8A O 0.9528(6) 0.1512(3) 0.0479(3)
O9A O 0.5911(6) 0.1152(3) 0.0325(3)
O9A_2 O 1.5911(6) -0.8848(3) 0.0325(3)
O9_2 O 1.4089(6) -1.1152(3) -0.0325(3)
O9_3 O 0.4089(6) 0.8848(3) -0.0325(3)
O9A_3 O 0.5911(6) 1.1152(3) 0.0325(3)
O10A O 0.2614(8) 0.5890(3) 0.4611(3)
O11A O 0.3540(7) 0.9548(4) 0.7769(3)
O11A_2 O 1.3540(7) -1.0452(4) -0.2231(3)
O11_2 O 0.6460(7) 1.0452(4) 0.2231(3)
O12A O -0.0080(7) 0.9223(4) 0.7343(3)
O12A_2 O 1.9920(7) -1.0777(4) -0.2657(3)
O12_2 O 0.0080(7) 1.0777(4) 0.2657(3)
Zn2A Zn 0.51997(10) 0.95383(6) 0.10046(4)
Zn2A_2 Zn 1.51997(10) -0.04617(6) 0.10046(4)
Zn2A_3 Zn 0.51997(10) -0.04617(6) 0.10046(4)
Zn2_2 Zn 1.48003(10) 0.04617(6) -0.10046(4)
Zn2A_4 Zn 1.51997(10) -1.04617(6) -0.89954(4)
Zn2_3 Zn 0.48003(10) 0.04617(6) -0.10046(4)
Zn2_4 Zn 0.48003(10) 1.04617(6) 0.89954(4)
Zn3A Zn 0.05860(11) 0.96181(6) 0.18612(4)
Zn3A_2 Zn 1.05860(11) -0.03819(6) 0.18612(4)
Zn3A_3 Zn 2.05860(11) -1.03819(6) -0.81388(4)
Zn3_2 Zn 0.94140(11) 0.03819(6) -0.18612(4)
Zn3_3 Zn -0.05860(11) 1.03819(6) 0.81388(4)
O1 O 0.200(3) 0.5248(13) 1.0250(10)
H1 H 0.2173 0.5915 1.0437
H2 H 0.0693 0.4966 1.0251
C22? C 0.836(4) 0.0222(17) 0.5371(11)
H17? H 0.8819 0.0340 0.5993
H18? H 0.7183 -0.0369 0.5218
H19? H 0.7879 0.0856 0.5172
C23? C 1.0000 0.0000 0.5000
H20? H -0.2999 0.9446 0.0939
O13? O 1.178(3) 0.0923(13) 0.5621(10)
H21? H 1.1403 0.1533 0.5562
O14? O 0.050(3) 0.4541(15) 0.9873(11)
H22? H 0.0848 0.4505 0.9371
H23? H 0.0687 0.5196 1.0097
O15? O 0.167(4) 0.307(2) 0.9365(15)
H24? H 0.2547 0.2718 0.9640
H25? H 0.0382 0.2737 0.9317
loop_
_geom_bond_atom_site_label_1
_geom_bond_atom_site_label_2
_geom_bond_site_symmetry_1
_geom_bond_site_symmetry_2
O1 H1 1_555 1_555
H2 O1 1_555 1_555
O2 H3 1_555 1_555
H4 O2 1_555 1_555
C1 C2 1_555 1_555
C2 C3 1_555 1_555
C3 H5 1_555 1_555
C4 C3 1_555 1_555
C5 C4 1_555 1_555
H6 C5 1_555 1_555
C6 C5 1_555 1_555
C7 C2 1_555 1_555
H7 C7 1_555 1_555
C8 C9 1_555 1_555
C9 H8 1_555 1_555
C10 C9 1_555 1_555
H9 C10 1_555 1_555
C11 C10 1_555 1_555
C12 C11 1_555 1_555
H10 C12 1_555 1_555
C13 C8 1_555 1_555
H11 C13 1_555 1_555
C14 C11 1_555 1_555
C15 C16 1_555 1_555
C16 H12 1_555 1_555
C17 C16 1_555 1_555
H13 C17 1_555 1_555
C18 C17 1_555 1_555
C19 C18 1_555 1_555
H14 C19 1_555 1_555
C20 C15 1_555 1_555
H15 C20 1_555 1_555
C21 C18 1_555 1_555
O3 H16 1_555 1_555
O4 Zn1 1_555 1_555
O5 C1 1_555 1_555
O6 C1 1_555 1_555
O7 C6 1_555 1_555
O8 C14 1_555 1_555
O9 C14 1_555 1_555
O10 C4 1_555 1_555
O11 C21 1_555 1_555
O12 C21 1_555 1_555
Zn1 O3 1_555 1_555
Zn2 O5 1_555 1_555
Zn3 O6 1_555 1_555
C1A C2A 1_555 1_555
C2A C3A 1_555 1_555
C3A H5A 1_555 1_555
C4A C3A 1_555 1_555
C5A C4A 1_555 1_555
H6A C5A 1_555 1_555
C6A C5A 1_555 1_555
C7A C2A 1_555 1_555
H7A C7A 1_555 1_555
C8A C9A 1_555 1_555
C9A H8A 1_555 1_555
C10A C9A 1_555 1_555
H9A C10A 1_555 1_555
C11A C10A 1_555 1_555
C12A C11A 1_555 1_555
H10A C12A 1_555 1_555
C13A C8A 1_555 1_555
H11A C13A 1_555 1_555
C14A C11A 1_555 1_555
C15A C16A 1_555 1_555
C16A H12A 1_555 1_555
C17A C16A 1_555 1_555
H13A C17A 1_555 1_555
C18A C17A 1_555 1_555
C19A C18A 1_555 1_555
H14A C19A 1_555 1_555
C20A C15A 1_555 1_555
H15A C20A 1_555 1_555
C21A C18A 1_555 1_555
O3A Zn1 1_555 1_555
O3A_2 Zn2 1_555 1_555
O3_2 H16_2 1_555 1_555
H16A O3A 1_555 1_555
H16A_2 O3A_2 1_555 1_555
O4A Zn1 1_555 1_555
O4A_2 Zn2 1_555 1_555
O4A_3 Zn3 1_555 1_555
O4_2 Zn2A 1_555 1_555
O4_3 Zn3A 1_555 1_555
O5A C1A 1_555 1_555
O6A C1A 1_555 1_555
O7A C6A 1_555 1_555
O8A Zn1 1_555 1_555
O9A C14A 1_555 1_555
O9A_2 Zn2 1_555 1_555
O9_2 Zn2 1_555 1_555
O9_3 Zn2A 1_555 1_555
O9A_3 Zn2A 1_555 1_555
O10A C4A 1_555 1_555
O11A C21A 1_555 1_555
O11A_2 Zn2 1_555 1_555
O11_2 Zn2A 1_555 1_555
O12A C21A 1_555 1_555
O12A_2 Zn3 1_555 1_555
O12_2 Zn3A 1_555 1_555
Zn2A O3_2 1_555 1_555
Zn2A_2 O3 1_555 1_555
Zn2A_3 O4 1_555 1_555
Zn2_2 O9 1_555 1_555
Zn2A_4 O11 1_555 1_555
Zn2_3 O3A 1_555 1_555
Zn2_4 O11A 1_555 1_555
Zn3A O3_2 1_555 1_555
Zn3A_2 O3 1_555 1_555
Zn3A_3 O12 1_555 1_555
Zn3_2 O3A 1_555 1_555
Zn3_3 O12A 1_555 1_555
C6 C7 1_555 1_555
C8 O7 1_555 1_555
C12 C13 1_555 1_555
C15 O10 1_555 1_555
C19 C20 1_555 1_555
O4 Zn3A_2 1_555 1_555
O8 Zn1 1_555 1_555
O9 Zn2A_2 1_555 1_555
Zn3 O3A_2 1_555 1_555
C6A C7A 1_555 1_555
C8A O7A 1_555 1_555
C12A C13A 1_555 1_555
C14A O8A 1_555 1_555
C15A O10A 1_555 1_555
C19A C20A 1_555 1_555
O4A Zn2_2 1_555 1_555
O4A Zn3_2 1_555 1_555
O5A Zn2A 1_555 1_555
O6A Zn3A 1_555 1_555
O9A Zn2A_3 1_555 1_555
O9A Zn2_3 1_555 1_555

#END
