
#######################################################################
#
#                 Cambridge Crystallographic Data Centre
#                                CCDC 
#
#######################################################################
#
# If this CIF has been generated from an entry in the Cambridge 
# Structural Database, then it will include bibliographic, chemical, 
# crystal, experimental, refinement or atomic coordinate data resulting 
# from the CCDC's data processing and validation procedures.
#
#######################################################################

data_GEGDED
_chemical_formula_moiety         '(C37 H28 Cu4 O24)n'
_chemical_name_systematic        
'catena-((\m~16~-tetrakis((3,5-Dicarboxylatophenyl)oxymethyl)methane)-tetra-aqua-tetra-copper unknown solvate)'
_symmetry_cell_setting           orthorhombic
_symmetry_space_group_name_H-M   'P b c m'
_symmetry_Int_Tables_number      57
_space_group_name_Hall           '-P 2c 2b'
loop_
_symmetry_equiv_pos_site_id
_symmetry_equiv_pos_as_xyz
1 x,y,z
2 -x,-y,1/2+z
3 x,1/2-y,-z
4 -x,1/2+y,1/2-z
5 -x,-y,-z
6 x,y,1/2-z
7 -x,1/2+y,z
8 x,1/2-y,1/2+z
_cell_length_a                   12.2473(5)
_cell_length_b                   25.914
_cell_length_c                   25.9141(9)
_cell_angle_alpha                90
_cell_angle_beta                 90
_cell_angle_gamma                90
_cell_volume                     8224.53
_cell_formula_units_Z            4
loop_
_atom_site_label
_atom_site_type_symbol
_atom_site_fract_x
_atom_site_fract_y
_atom_site_fract_z
Cu1 Cu 1.07411(4) 0.49399(2) 0.036737(18)
Cu2 Cu 0.99536(6) 0.70295(3) -0.2500
Cu3 Cu 1.14575(5) 0.77623(3) -0.2500
O1 O 1.1630(2) 0.54371(12) 0.00007(10)
O2 O 1.0371(2) 0.55218(12) -0.06270(10)
O3 O 1.0830(3) 0.67320(14) -0.19778(11)
O4 O 1.2167(2) 0.73454(13) -0.19596(10)
O5 O 1.4151(3) 0.68672(13) -0.02930(10)
O6 O 1.6744(2) 0.72237(14) 0.06031(11)
O7 O 1.8754(2) 0.56088(12) 0.00899(10)
O8 O 2.0019(2) 0.55159(12) 0.07070(10)
O9 O 2.0529(2) 0.69264(12) 0.19693(9)
O10 O 1.9279(3) 0.75513(15) 0.19809(12)
O11 O 1.1908(2) 0.47439(16) 0.09775(10)
O12 O 0.8708(4) 0.6445(2) -0.2500
O13 O 1.2627(4) 0.8378(2) -0.2500
C1 C 1.1275(4) 0.56322(18) -0.04064(16)
C2 C 1.1914(4) 0.6064(2) -0.06434(15)
C3 C 1.1584(4) 0.6284(2) -0.11101(16)
H1 H 1.0977 0.6144 -0.1290
C4 C 1.2125(4) 0.66977(19) -0.13089(15)
C5 C 1.3006(3) 0.6907(2) -0.10532(16)
H2 H 1.3381 0.7197 -0.1191
C6 C 1.3338(3) 0.66854(19) -0.05876(15)
C7 C 1.2788(4) 0.6271(2) -0.03974(16)
H3 H 1.3023 0.6122 -0.0082
C8 C 1.1679(4) 0.6958(3) -0.17974(15)
C9 C 1.4691(3) 0.7320(2) -0.04503(15)
H4 H 1.5142 0.7250 -0.0760
H5 H 1.4153 0.7591 -0.0537
C10 C 1.5423(4) 0.7500 0.0000
C11 C 1.6140(3) 0.70473(19) 0.01653(15)
H6 H 1.6641 0.6947 -0.0117
H7 H 1.5685 0.6746 0.0258
C12 C 1.7579(4) 0.6936(2) 0.07741(16)
C13 C 1.8134(3) 0.7136(2) 0.11941(16)
H8 H 1.7888 0.7446 0.1351
C14 C 1.9052(3) 0.6884(2) 0.13875(15)
C15 C 1.9400(3) 0.64190(19) 0.11755(15)
H9 H 2.0018 0.6244 0.1311
C16 C 1.8815(3) 0.62139(19) 0.07543(15)
C17 C 1.7914(3) 0.6470(2) 0.05558(16)
H10 H 1.7525 0.6328 0.0272
C18 C 1.9657(4) 0.7140(2) 0.18098(15)
C19 C 1.9220(4) 0.57323(18) 0.05025(16)
Cu1B Cu 1.07411(4) 1.00601(2) -0.036737(18)
Cu1D Cu 0.92589(4) 0.50601(2) -0.036737(18)
Cu1D_2 Cu 1.92589(4) 0.50601(2) -0.036737(18)
Cu1_2 Cu 2.07411(4) 0.49399(2) 0.036737(18)
Cu1F Cu 0.92589(4) 0.99399(2) 0.036737(18)
Cu1F_2 Cu 1.92589(4) 0.99399(2) 0.036737(18)
Cu1B_2 Cu 2.07411(4) 1.00601(2) -0.036737(18)
Cu2B Cu 1.99536(6) 0.79705(3) 0.2500
Cu2B_2 Cu 0.99536(6) 0.79705(3) 0.2500
Cu2_2 Cu 1.99536(6) 0.70295(3) -0.2500
Cu3B Cu 2.14575(5) 0.72377(3) 0.2500
Cu3B_2 Cu 1.14575(5) 0.72377(3) 0.2500
Cu3_2 Cu 2.14575(5) 0.77623(3) -0.2500
O1B O 1.1630(2) 0.95629(12) -0.00007(10)
O2B O 1.0371(2) 0.94782(12) 0.06270(10)
O2D O 0.9629(2) 0.44782(12) 0.06270(10)
O2F O 0.9629(2) 1.05218(12) -0.06270(10)
O3B O 1.0830(3) 0.82680(14) 0.19778(11)
O3E O 1.0830(3) 0.67320(14) -0.30222(11)
O4B O 1.2167(2) 0.76546(13) 0.19596(10)
O4E O 1.2167(2) 0.73454(13) -0.30404(10)
O5B O 1.4151(3) 0.81328(13) 0.02930(10)
O6B O 1.6744(2) 0.77763(14) -0.06031(11)
O7B O 1.8754(2) 0.93912(12) -0.00899(10)
O7D O 1.1246(2) 0.43912(12) -0.00899(10)
O7F O 1.1246(2) 1.06088(12) 0.00899(10)
O8B O 2.0019(2) 0.94841(12) -0.07070(10)
O8_2 O 1.0019(2) 0.55159(12) 0.07070(10)
O8B_2 O 1.0019(2) 0.94841(12) -0.07070(10)
O9B O 2.0529(2) 0.80736(12) -0.19693(9)
O9B_2 O 1.0529(2) 0.80736(12) -0.19693(9)
O9G O 1.0529(2) 0.80736(12) -0.30307(9)
O10B O 1.9279(3) 0.74487(15) -0.19809(12)
O10B_2 O 0.9279(3) 0.74487(15) -0.19809(12)
O10G O 0.9279(3) 0.74487(15) -0.30191(12)
O11B O 1.1908(2) 1.02561(16) -0.09775(10)
C1B C 1.1275(4) 0.93678(18) 0.04064(16)
C2B C 1.1914(4) 0.8936(2) 0.06434(15)
C3B C 1.1584(4) 0.8716(2) 0.11101(16)
H1B H 1.0977 0.8856 0.1290
C4B C 1.2125(4) 0.83023(19) 0.13089(15)
C5B C 1.3006(3) 0.8093(2) 0.10532(16)
H2B H 1.3381 0.7803 0.1191
C6B C 1.3338(3) 0.83146(19) 0.05876(15)
C7B C 1.2788(4) 0.8729(2) 0.03974(16)
H3B H 1.3023 0.8878 0.0082
C8B C 1.1679(4) 0.8042(3) 0.17974(15)
C9B C 1.4691(3) 0.7680(2) 0.04503(15)
H4B H 1.5142 0.7750 0.0760
H5B H 1.4153 0.7409 0.0537
C11B C 1.6140(3) 0.79527(19) -0.01653(15)
H6B H 1.6641 0.8053 0.0117
H7B H 1.5685 0.8254 -0.0258
C12B C 1.7579(4) 0.8064(2) -0.07741(16)
C13B C 1.8134(3) 0.7864(2) -0.11941(16)
H8B H 1.7888 0.7554 -0.1351
C14B C 1.9052(3) 0.8116(2) -0.13875(15)
C15B C 1.9400(3) 0.85810(19) -0.11755(15)
H9B H 2.0018 0.8756 -0.1311
C16B C 1.8815(3) 0.87861(19) -0.07543(15)
C17B C 1.7914(3) 0.8530(2) -0.05558(16)
H10B H 1.7525 0.8672 -0.0272
C18B C 1.9657(4) 0.7860(2) -0.18098(15)
C19B C 1.9220(4) 0.92677(18) -0.05025(16)
loop_
_geom_bond_atom_site_label_1
_geom_bond_atom_site_label_2
_geom_bond_site_symmetry_1
_geom_bond_site_symmetry_2
Cu1 O1 1_555 1_555
Cu2 O3 1_555 1_555
Cu3 O4 1_555 1_555
O1 C1 1_555 1_555
O2 C1 1_555 1_555
O3 C8 1_555 1_555
O4 C8 1_555 1_555
O5 C6 1_555 1_555
O6 C11 1_555 1_555
O7 C19 1_555 1_555
O8 C19 1_555 1_555
O9 C18 1_555 1_555
O10 C18 1_555 1_555
O11 Cu1 1_555 1_555
O12 Cu2 1_555 1_555
O13 Cu3 1_555 1_555
C1 C2 1_555 1_555
C2 C3 1_555 1_555
C3 H1 1_555 1_555
C4 C3 1_555 1_555
C5 C4 1_555 1_555
H2 C5 1_555 1_555
C6 C5 1_555 1_555
C7 C2 1_555 1_555
H3 C7 1_555 1_555
C8 C4 1_555 1_555
C9 O5 1_555 1_555
H4 C9 1_555 1_555
H5 C9 1_555 1_555
C10 C9 1_555 1_555
C11 C10 1_555 1_555
H6 C11 1_555 1_555
H7 C11 1_555 1_555
C12 O6 1_555 1_555
C13 C12 1_555 1_555
H8 C13 1_555 1_555
C14 C13 1_555 1_555
C15 C14 1_555 1_555
H9 C15 1_555 1_555
C16 C15 1_555 1_555
C17 C12 1_555 1_555
H10 C17 1_555 1_555
C18 C14 1_555 1_555
C19 C16 1_555 1_555
Cu1B O1B 1_555 1_555
Cu1D O2 1_555 1_555
Cu1D_2 O7 1_555 1_555
Cu1_2 O8 1_555 1_555
Cu1F O2B 1_555 1_555
Cu1F_2 O7B 1_555 1_555
Cu1B_2 O8B 1_555 1_555
Cu2B O10 1_555 1_555
Cu2B_2 O3B 1_555 1_555
Cu2_2 O10B 1_555 1_555
Cu3B O9 1_555 1_555
Cu3B_2 O4B 1_555 1_555
Cu3_2 O9B 1_555 1_555
O1B C1B 1_555 1_555
O2B C1B 1_555 1_555
O2D Cu1 1_555 1_555
O2F Cu1B 1_555 1_555
O3B C8B 1_555 1_555
O3E Cu2 1_555 1_555
O4B C8B 1_555 1_555
O4E Cu3 1_555 1_555
O5B C6B 1_555 1_555
O6B C11B 1_555 1_555
O7B C19B 1_555 1_555
O7D Cu1 1_555 1_555
O7F Cu1B 1_555 1_555
O8B C19B 1_555 1_555
O8_2 Cu1 1_555 1_555
O8B_2 Cu1B 1_555 1_555
O9B C18B 1_555 1_555
O9B_2 Cu3 1_555 1_555
O9G Cu3 1_555 1_555
O10B C18B 1_555 1_555
O10B_2 Cu2 1_555 1_555
O10G Cu2 1_555 1_555
O11B Cu1B 1_555 1_555
C1B C2B 1_555 1_555
C2B C3B 1_555 1_555
C3B H1B 1_555 1_555
C4B C3B 1_555 1_555
C5B C4B 1_555 1_555
H2B C5B 1_555 1_555
C6B C5B 1_555 1_555
C7B C2B 1_555 1_555
H3B C7B 1_555 1_555
C8B C4B 1_555 1_555
C9B C10 1_555 1_555
H4B C9B 1_555 1_555
H5B C9B 1_555 1_555
C11B C10 1_555 1_555
H6B C11B 1_555 1_555
H7B C11B 1_555 1_555
C12B O6B 1_555 1_555
C13B C12B 1_555 1_555
H8B C13B 1_555 1_555
C14B C13B 1_555 1_555
C15B C14B 1_555 1_555
H9B C15B 1_555 1_555
C16B C15B 1_555 1_555
C17B C12B 1_555 1_555
H10B C17B 1_555 1_555
C18B C14B 1_555 1_555
C19B C16B 1_555 1_555
C6 C7 1_555 1_555
C16 C17 1_555 1_555
O5B C9B 1_555 1_555
C6B C7B 1_555 1_555
C16B C17B 1_555 1_555

#END
