
#######################################################################
#
#                 Cambridge Crystallographic Data Centre
#                                CCDC 
#
#######################################################################
#
# If this CIF has been generated from an entry in the Cambridge 
# Structural Database, then it will include bibliographic, chemical, 
# crystal, experimental, refinement or atomic coordinate data resulting 
# from the CCDC's data processing and validation procedures.
#
#######################################################################

data_OHEQUP03
_chemical_formula_moiety         '(C34 H20 Co2 N2 O8)n'
_chemical_name_systematic        
"catena-(bis(\m~4~-Naphthalene-2,6-dicarboxylato)-(\m~2~-4,4'-bipyridine)-di-cobalt unknown solvate)"
_symmetry_cell_setting           triclinic
_symmetry_space_group_name_H-M   'P -1'
_symmetry_Int_Tables_number      2
_space_group_name_Hall           '-P 1'
loop_
_symmetry_equiv_pos_site_id
_symmetry_equiv_pos_as_xyz
1 x,y,z
2 -x,-y,-z
_cell_length_a                   7.6397(12)
_cell_length_b                   10.4311(17)
_cell_length_c                   10.9968(18)
_cell_angle_alpha                71.121(12)
_cell_angle_beta                 87.061(12)
_cell_angle_gamma                83.361(12)
_cell_volume                     823.547
_exptl_crystal_colour            violet
_exptl_crystal_description       block
_cell_formula_units_Z            1
loop_
_atom_site_label
_atom_site_type_symbol
_atom_site_fract_x
_atom_site_fract_y
_atom_site_fract_z
Co1 Co 0.64734(14) 0.54479(12) 0.54207(11)
O1 O 0.7676(7) 0.5052(6) 0.3912(6)
C1 C 0.6912(11) 0.4660(9) 0.3121(8)
O2 O 0.5390(7) 0.4258(6) 0.3289(6)
C2 C 0.7878(10) 0.4656(9) 0.1901(8)
O3 O 0.4680(8) 0.6823(7) 0.3979(6)
C3 C 0.9547(11) 0.5083(10) 0.1657(8)
H1 H 1.0110 0.5323 0.2292
O4 O 0.2451(8) 0.6238(7) 0.3134(6)
C4 C 1.0420(10) 0.5167(9) 0.0481(8)
C5 C 0.7848(11) 0.4416(11) -0.0201(9)
H2 H 0.7257 0.4187 -0.0829
C6 C 0.7024(11) 0.4340(10) 0.0942(8)
H3 H 0.5865 0.4071 0.1096
C7 C 0.3628(12) 0.7000(10) 0.3084(9)
C8 C 0.3787(12) 0.8168(11) 0.1882(10)
C9 C 0.5365(12) 0.8772(11) 0.1638(10)
H4 H 0.6257 0.8482 0.2269
C10 C 0.5651(12) 0.9806(12) 0.0470(11)
C11 C 0.2729(13) 0.9580(13) -0.0176(11)
H5 H 0.1803 0.9880 -0.0780
C12 C 0.2499(13) 0.8593(11) 0.0932(11)
H6 H 0.1437 0.8170 0.1079
C13 C 0.681(3) 0.830(2) 0.553(3)
H7 H 0.5656 0.8230 0.5890
C14 C 0.759(3) 0.948(3) 0.535(3)
H8 H 0.6938 1.0213 0.5558
C15 C 0.997(4) 0.854(5) 0.461(2)
H9 H 1.1135 0.8556 0.4265
C16 C 0.922(5) 0.745(3) 0.477(3)
H10 H 0.9865 0.6730 0.4546
N1 N 0.761(3) 0.7285(19) 0.5236(16)
C17 C 0.928(3) 0.961(3) 0.487(2)
O1A O 1.2324(7) 0.4948(6) -0.3912(6)
C1A C 1.3088(11) 0.5340(9) -0.3121(8)
O2A O 1.4610(7) 0.5742(6) -0.3289(6)
C2A C 1.2122(10) 0.5344(9) -0.1901(8)
C3A C 1.0453(11) 0.4917(10) -0.1657(8)
H1A H 0.9890 0.4677 -0.2292
C4A C 0.9580(10) 0.4833(9) -0.0481(8)
C5A C 1.2152(11) 0.5584(11) 0.0201(9)
H2A H 1.2743 0.5813 0.0829
C6A C 1.2976(11) 0.5660(10) -0.0942(8)
H3A H 1.4135 0.5929 -0.1096
C13A C 1.319(3) 1.170(2) 0.447(3)
H7A H 1.4344 1.1770 0.4110
C14A C 1.241(3) 1.052(3) 0.465(3)
H8A H 1.3062 0.9787 0.4442
C15A C 1.003(4) 1.146(5) 0.539(2)
H9A H 0.8865 1.1444 0.5735
C16A C 1.078(5) 1.255(3) 0.523(3)
H10A H 1.0135 1.3270 0.5454
N1A N 1.239(3) 1.2715(19) 0.4764(16)
C17A C 1.072(3) 1.039(3) 0.513(2)
O3A O 0.5320(8) 1.3177(7) -0.3979(6)
O4A O 0.7549(8) 1.3762(7) -0.3134(6)
C7A C 0.6372(12) 1.3000(10) -0.3084(9)
C8A C 0.6213(12) 1.1832(11) -0.1882(10)
C9A C 0.4635(12) 1.1228(11) -0.1638(10)
H4A H 0.3743 1.1518 -0.2269
C10A C 0.4349(12) 1.0194(12) -0.0470(11)
C11A C 0.7271(13) 1.0420(13) 0.0176(11)
H5A H 0.8197 1.0120 0.0780
C12A C 0.7501(13) 1.1407(11) -0.0932(11)
H6A H 0.8563 1.1830 -0.1079
Co1A Co 0.35266(14) 0.45521(12) 0.45793(11)
Co1_2 Co 0.64734(14) 1.54479(12) -0.45793(11)
Co1_3 Co 1.64734(14) 0.54479(12) -0.45793(11)
Co1A_2 Co 0.35266(14) 1.45521(12) -0.54207(11)
Co1A_3 Co 1.35266(14) 0.45521(12) -0.54207(11)
Co1A_4 Co 1.35266(14) 1.45521(12) 0.45793(11)
O1A_2 O 0.2324(7) 0.4948(6) 0.6088(6)
O2A_2 O 0.4610(7) 0.5742(6) 0.6711(6)
O3A_2 O 0.5320(8) 0.3177(7) 0.6021(6)
O4A_2 O 0.7549(8) 0.3762(7) 0.6866(6)
N1A_2 N 0.239(3) 0.2715(19) 0.4764(16)
N2? N 0.801(2) 0.688(2) 0.548(2)
C18? C 0.982(3) 0.916(3) 0.527(3)
C19? C 0.922(3) 0.729(2) 0.455(2)
H11? H 0.9453 0.6803 0.3960
C20? C 1.018(3) 0.846(3) 0.440(3)
H12? H 1.1035 0.8730 0.3734
C21? C 0.775(3) 0.761(3) 0.627(2)
H13? H 0.6894 0.7348 0.6930
C22? C 0.857(3) 0.869(3) 0.622(2)
H14? H 0.8304 0.9129 0.6852
loop_
_geom_bond_atom_site_label_1
_geom_bond_atom_site_label_2
_geom_bond_site_symmetry_1
_geom_bond_site_symmetry_2
Co1 O1 1_555 1_555
O1 C1 1_555 1_555
C1 O2 1_555 1_555
O2 Co1A 1_555 1_555
C2 C1 1_555 1_555
O3 Co1 1_555 1_555
C3 C2 1_555 1_555
H1 C3 1_555 1_555
O4 C7 1_555 1_555
C4 C3 1_555 1_555
C5 H2 1_555 1_555
C6 C2 1_555 1_555
H3 C6 1_555 1_555
C7 O3 1_555 1_555
C8 C7 1_555 1_555
C9 C8 1_555 1_555
H4 C9 1_555 1_555
C10 C9 1_555 1_555
C11 H5 1_555 1_555
C12 C8 1_555 1_555
H6 C12 1_555 1_555
C13 H7 1_555 1_555
C14 C13 1_555 1_555
H8 C14 1_555 1_555
C15 H9 1_555 1_555
C16 C15 1_555 1_555
H10 C16 1_555 1_555
N1 Co1 1_555 1_555
C17 C14 1_555 1_555
O1A C1A 1_555 1_555
C1A O2A 1_555 1_555
O2A Co1_3 1_555 1_555
C2A C1A 1_555 1_555
C3A C2A 1_555 1_555
H1A C3A 1_555 1_555
C4A C4 1_555 1_555
C5A C4 1_555 1_555
H2A C5A 1_555 1_555
C6A C2A 1_555 1_555
H3A C6A 1_555 1_555
C13A H7A 1_555 1_555
C14A C13A 1_555 1_555
H8A C14A 1_555 1_555
C15A H9A 1_555 1_555
C16A C15A 1_555 1_555
H10A C16A 1_555 1_555
N1A C13A 1_555 1_555
C17A C17 1_555 1_555
O3A C7A 1_555 1_555
O4A C7A 1_555 1_555
C7A C8A 1_555 1_555
C8A C9A 1_555 1_555
C9A H4A 1_555 1_555
C10A C10 1_555 1_555
C11A C10 1_555 1_555
H5A C11A 1_555 1_555
C12A C8A 1_555 1_555
H6A C12A 1_555 1_555
Co1A Co1 1_555 1_555
Co1_2 O4A 1_555 1_555
Co1_3 Co1A_3 1_555 1_555
Co1A_2 O3A 1_555 1_555
Co1A_3 O1A 1_555 1_555
Co1A_4 N1A 1_555 1_555
O1A_2 Co1A 1_555 1_555
O2A_2 Co1 1_555 1_555
O3A_2 Co1A 1_555 1_555
O4A_2 Co1 1_555 1_555
N1A_2 Co1A 1_555 1_555
O4 Co1A 1_555 1_555
C5 C6 1_555 1_555
C5 C4A 1_555 1_555
C11 C12 1_555 1_555
C11 C10A 1_555 1_555
C13 N1 1_555 1_555
C15 C17 1_555 1_555
C16 N1 1_555 1_555
C3A C4A 1_555 1_555
C5A C6A 1_555 1_555
C14A C17A 1_555 1_555
C15A C17A 1_555 1_555
C16A N1A 1_555 1_555
C9A C10A 1_555 1_555
C11A C12A 1_555 1_555
Co1_2 Co1A_2 1_555 1_555

#END
