
#######################################################################
#
#                 Cambridge Crystallographic Data Centre
#                                CCDC 
#
#######################################################################
#
# If this CIF has been generated from an entry in the Cambridge 
# Structural Database, then it will include bibliographic, chemical, 
# crystal, experimental, refinement or atomic coordinate data resulting 
# from the CCDC's data processing and validation procedures.
#
#######################################################################

data_SERLEI
_chemical_name_common            ZJU-5
_chemical_formula_moiety         '(C21 H13 Cu2 N1 O10)n'
_chemical_name_systematic        
"catena-[(\m~8~-5,5'-pyridine-2,5-diyldibenzene-1,3-dicarboxylato)-diaqua-di-copper(ii) unknown solvate]"
_symmetry_cell_setting           rhombohedral
_symmetry_space_group_name_H-M   'R -3 m'
_symmetry_Int_Tables_number      166
_space_group_name_Hall           '-R 3 2"'
loop_
_symmetry_equiv_pos_site_id
_symmetry_equiv_pos_as_xyz
1 x,y,z
2 -y,x-y,z
3 -x+y,-x,z
4 y,x,-z
5 x-y,-y,-z
6 -x,-x+y,-z
7 2/3+x,1/3+y,1/3+z
8 2/3-y,1/3+x-y,1/3+z
9 2/3-x+y,1/3-x,1/3+z
10 2/3+y,1/3+x,1/3-z
11 2/3+x-y,1/3-y,1/3-z
12 2/3-x,1/3-x+y,1/3-z
13 1/3+x,2/3+y,2/3+z
14 1/3-y,2/3+x-y,2/3+z
15 1/3-x+y,2/3-x,2/3+z
16 1/3+y,2/3+x,2/3-z
17 1/3+x-y,2/3-y,2/3-z
18 1/3-x,2/3-x+y,2/3-z
19 -x,-y,-z
20 y,-x+y,-z
21 x-y,x,-z
22 -y,-x,z
23 -x+y,y,z
24 x,x-y,z
25 1/3-x,2/3-y,2/3-z
26 1/3+y,2/3-x+y,2/3-z
27 1/3+x-y,2/3+x,2/3-z
28 1/3-y,2/3-x,2/3+z
29 1/3-x+y,2/3+y,2/3+z
30 1/3+x,2/3+x-y,2/3+z
31 2/3-x,1/3-y,1/3-z
32 2/3+y,1/3-x+y,1/3-z
33 2/3+x-y,1/3+x,1/3-z
34 2/3-y,1/3-x,1/3+z
35 2/3-x+y,1/3+y,1/3+z
36 2/3+x,1/3+x-y,1/3+z
_cell_length_a                   18.8163(13)
_cell_length_b                   18.8163(13)
_cell_length_c                   38.079(4)
_cell_angle_alpha                90
_cell_angle_beta                 90
_cell_angle_gamma                120
_cell_volume                     11675.7
_exptl_crystal_colour            green
_exptl_crystal_description       block
_cell_formula_units_Z            9
loop_
_atom_site_label
_atom_site_type_symbol
_atom_site_fract_x
_atom_site_fract_y
_atom_site_fract_z
_atom_site_U_iso_or_equiv
_atom_site_thermal_displace_type
Cu1 Cu 0.04598(5) 0.52299(3) 0.02875(2) 0.0336 Uani
O1 O 0.1115(2) 0.4830(3) 0.00459(10) 0.0504 Uani
O2 O 0.0319(2) 0.4446(3) -0.04409(10) 0.0492 Uani
O3 O 0.1083(6) 0.5541(3) 0.07814(19) 0.1052 Uani
C1 C 0.0945(3) 0.4555(4) -0.02616(17) 0.0509 Uani
C2 C 0.1531(4) 0.4337(4) -0.04347(14) 0.0476 Uani
C3 C 0.2244(3) 0.4488(5) -0.0265(2) 0.0454 Uani
H1 H 0.2346 0.4692 -0.0037 0.0550 Uiso
C4 C 0.1386(4) 0.4047(4) -0.07814(15) 0.0547 Uani
H2 H 0.0913 0.3960 -0.0897 0.0650 Uiso
C5 C 0.1944(3) 0.3889(7) -0.0954(2) 0.0652 Uani
C6 C 0.1810(4) 0.3620(7) -0.1327(3) 0.0686 Uani
C7 C 0.1028(11) 0.3119(14) -0.1443(3) 0.0863 Uani
N1 N 0.1391(12) 0.3851(16) -0.1542(5) 0.1012 Uani
O1P O -0.0382(4) 0.1837(3) -0.33792(10) 0.0504 Uani
O2P O -0.0794(4) 0.2221(3) -0.28924(10) 0.0492 Uani
C1P C -0.0277(5) 0.2112(4) -0.30717(17) 0.0509 Uani
C2P C 0.0527(6) 0.2330(4) -0.28986(14) 0.0476 Uani
C3P C 0.1089(6) 0.2179(5) -0.3068(2) 0.0454 Uani
H1P H 0.0987 0.1975 -0.3296 0.0550 Uiso
C4P C 0.0672(6) 0.2620(4) -0.25519(15) 0.0547 Uani
H2P H 0.0286 0.2707 -0.2436 0.0650 Uiso
C5P C 0.1388(8) 0.2778(7) -0.2379(2) 0.0652 Uani
C6P C 0.1523(8) 0.3047(7) -0.2006(3) 0.0686 Uani
C7P C 0.1242(18) 0.3548(14) -0.1890(3) 0.0863 Uani
N1P N 0.0873(20) 0.2816(16) -0.1791(5) 0.1012 Uani
O1V O 0.3715(4) 0.4830(3) 0.00459(10) 0.0504 Uani
O2V O 0.4127(4) 0.4446(3) -0.04409(10) 0.0492 Uani
C1V C 0.3610(5) 0.4555(4) -0.02616(17) 0.0509 Uani
C2V C 0.2806(6) 0.4337(4) -0.04347(14) 0.0476 Uani
C4V C 0.2661(6) 0.4047(4) -0.07814(15) 0.0547 Uani
H2V H 0.3047 0.3960 -0.0897 0.0650 Uiso
C7V C 0.2091(18) 0.3119(14) -0.1443(3) 0.0863 Uani
N1V N 0.2460(20) 0.3851(16) -0.1542(5) 0.1012 Uani
O1X O 0.2218(2) 0.1837(3) -0.33792(10) 0.0504 Uani
O2X O 0.3014(2) 0.2221(3) -0.28924(10) 0.0492 Uani
C1X C 0.2388(3) 0.2112(4) -0.30717(17) 0.0509 Uani
C2X C 0.1802(4) 0.2330(4) -0.28986(14) 0.0476 Uani
C4X C 0.1947(4) 0.2620(4) -0.25519(15) 0.0547 Uani
H2X H 0.2420 0.2707 -0.2436 0.0650 Uiso
C7X C 0.2305(11) 0.3548(14) -0.1890(3) 0.0863 Uani
N1X N 0.1942(12) 0.2816(16) -0.1791(5) 0.1012 Uani
Cu1A Cu 0.47701(3) 0.52299(6) 0.02875(2) 0.0336 Uani
O3A O 0.4459(3) 0.5542(7) 0.07814(19) 0.1052 Uani
Cu1D Cu 0.52299(6) 0.47701(3) -0.02875(2) 0.0336 Uani
Cu1E Cu -0.04598(5) 0.47701(6) -0.02875(2) 0.0336 Uani
Cu1L Cu 0.37931(5) 0.18966(3) -0.30458(2) 0.0336 Uani
Cu1M Cu -0.18966(3) 0.18966(6) -0.30458(2) 0.0336 Uani
Cu1P Cu -0.14368(6) 0.14368(3) -0.36208(2) 0.0336 Uani
Cu1Q Cu 0.28735(5) 0.14368(6) -0.36208(2) 0.0336 Uani
O1A O 0.5170(3) 0.6285(4) 0.00459(10) 0.0504 Uani
O1W O 0.1115(2) 0.6285(4) 0.00459(10) 0.0504 Uani
O2D O 0.5873(4) 0.5554(3) 0.04409(10) 0.0492 Uani
O2E O -0.0319(2) 0.4127(4) 0.04409(10) 0.0492 Uani
O2R O -0.0319(2) 0.5554(3) 0.04409(10) 0.0492 Uani
O2S O 0.4446(3) 0.4127(4) 0.04409(10) 0.0492 Uani
C8? C 0.1391(12) 0.3851(16) -0.1542(5) 0.1012 Uani
N2? N 0.1028(11) 0.3119(14) -0.1443(3) 0.0863 Uani
loop_
_atom_site_aniso_label
_atom_site_aniso_U_11
_atom_site_aniso_U_22
_atom_site_aniso_U_33
_atom_site_aniso_U_23
_atom_site_aniso_U_13
_atom_site_aniso_U_12
Cu1 0.0276(5) 0.0422(5) 0.0261(6) -0.00071(18) -0.0014(4) 0.0138(3)
O1 0.046(2) 0.079(3) 0.038(2) -0.012(2) -0.0054(19) 0.040(2)
O2 0.040(2) 0.071(3) 0.037(2) -0.016(2) -0.0006(19) 0.028(2)
O3 0.126(7) 0.125(5) 0.065(5) -0.032(2) -0.064(5) 0.063(4)
C1 0.029(3) 0.060(4) 0.054(4) 0.001(3) 0.003(3) 0.015(3)
C2 0.046(3) 0.066(4) 0.036(3) -0.002(3) 0.003(3) 0.032(3)
C3 0.042(3) 0.063(5) 0.039(4) -0.006(4) -0.003(2) 0.032(3)
C4 0.041(3) 0.085(5) 0.044(3) -0.015(3) -0.013(3) 0.036(4)
C5 0.050(4) 0.113(9) 0.053(6) -0.035(6) -0.017(3) 0.056(4)
C6 0.055(4) 0.115(9) 0.055(6) -0.043(6) -0.022(3) 0.057(4)
C7 0.101(13) 0.151(17) 0.027(7) -0.032(9) -0.006(8) 0.078(13)
N1 0.092(13) 0.19(2) 0.081(13) -0.028(14) -0.021(10) 0.115(16)
O1P 0.045 0.079 0.038 -0.012 -0.0066 0.039
O2P 0.055 0.071 0.037 -0.016 -0.0154 0.043
C1P 0.059 0.06 0.054 0.001 -0.002 0.045
C2P 0.048 0.066 0.036 -0.002 -0.005 0.034
C3P 0.041 0.063 0.039 -0.006 -0.003 0.031
C4P 0.054 0.085 0.044 -0.015 -0.002 0.049
C5P 0.051 0.113 0.053 -0.035 -0.018 0.057
C6P 0.056 0.115 0.055 -0.043 -0.021 0.058
C7P 0.096 0.151 0.027 -0.032 -0.026 0.073
N1P 0.052 0.19 0.081 -0.028 -0.007 0.075
O1V 0.045 0.079 0.038 -0.012 -0.0066 0.039
O2V 0.055 0.071 0.037 -0.016 -0.0154 0.043
C1V 0.059 0.06 0.054 0.001 -0.002 0.045
C2V 0.048 0.066 0.036 -0.002 -0.005 0.034
C4V 0.054 0.085 0.044 -0.015 -0.002 0.049
C7V 0.096 0.151 0.027 -0.032 -0.026 0.073
N1V 0.052 0.19 0.081 -0.028 -0.007 0.075
O1X 0.046 0.079 0.038 -0.012 -0.0054 0.04
O2X 0.04 0.071 0.037 -0.016 -0.0006 0.028
C1X 0.029 0.06 0.054 0.001 0.003 0.015
C2X 0.046 0.066 0.036 -0.002 0.003 0.032
C4X 0.041 0.085 0.044 -0.015 -0.013 0.036
C7X 0.101 0.151 0.027 -0.032 -0.006 0.078
N1X 0.092 0.19 0.081 -0.028 -0.021 0.115
Cu1A 0.0422 0.0422 0.0261 -0.00069 0.00071 0.0284
O3A 0.125 0.125 0.065 -0.032 0.032 0.062
Cu1D 0.0422 0.0422 0.0261 -0.00071 0.00069 0.0284
Cu1E 0.0276 0.0422 0.0261 -0.00069 -0.0014 0.0138
Cu1L 0.0276 0.0422 0.0261 -0.00071 -0.0014 0.0138
Cu1M 0.0422 0.0422 0.0261 -0.00069 0.00071 0.0284
Cu1P 0.0422 0.0422 0.0261 -0.00071 0.00069 0.0284
Cu1Q 0.0276 0.0422 0.0261 -0.00069 -0.0014 0.0138
O1A 0.079 0.045 0.038 0.0066 0.012 0.039
O1W 0.046 0.045 0.038 0.0066 -0.0054 0.006
O2D 0.055 0.071 0.037 -0.016 -0.0154 0.043
O2E 0.04 0.055 0.037 0.0154 -0.0006 0.012
O2R 0.04 0.071 0.037 -0.016 -0.0006 0.028
O2S 0.071 0.055 0.037 0.0154 0.016 0.043
C8? 0.092(13) 0.19(2) 0.081(13) -0.028(14) -0.021(10) 0.115(16)
N2? 0.101(13) 0.151(17) 0.027(7) -0.032(9) -0.006(8) 0.078(13)
loop_
_geom_bond_atom_site_label_1
_geom_bond_atom_site_label_2
_geom_bond_site_symmetry_1
_geom_bond_site_symmetry_2
Cu1 O1 1_555 1_555
O1 C1 1_555 1_555
O2 C1 1_555 1_555
O3 Cu1 1_555 1_555
C1 C2 1_555 1_555
C2 C3 1_555 1_555
C3 H1 1_555 1_555
C4 C2 1_555 1_555
H2 C4 1_555 1_555
C5 C4 1_555 1_555
C6 C5 1_555 1_555
C7 C6 1_555 1_555
N1 C6 1_555 1_555
O1P C1P 1_555 1_555
O2P C1P 1_555 1_555
C1P C2P 1_555 1_555
C2P C3P 1_555 1_555
C3P H1P 1_555 1_555
C4P C2P 1_555 1_555
H2P C4P 1_555 1_555
C5P C4P 1_555 1_555
C6P C5P 1_555 1_555
C7P N1 1_555 1_555
N1P C7 1_555 1_555
O1V C1V 1_555 1_555
O2V C1V 1_555 1_555
C1V C2V 1_555 1_555
C2V C3 1_555 1_555
C4V C5 1_555 1_555
H2V C4V 1_555 1_555
C7V C6 1_555 1_555
N1V C6 1_555 1_555
O1X C1X 1_555 1_555
O2X C1X 1_555 1_555
C1X C2X 1_555 1_555
C2X C3P 1_555 1_555
C4X C5P 1_555 1_555
H2X C4X 1_555 1_555
C7X C6P 1_555 1_555
N1X C6P 1_555 1_555
Cu1A O1V 1_555 1_555
O3A Cu1A 1_555 1_555
Cu1D O2V 1_555 1_555
Cu1E O2 1_555 1_555
Cu1L O2X 1_555 1_555
Cu1M O2P 1_555 1_555
Cu1P O1P 1_555 1_555
Cu1Q O1X 1_555 1_555
O1A Cu1A 1_555 1_555
O1W Cu1 1_555 1_555
O2D Cu1A 1_555 1_555
O2E Cu1 1_555 1_555
O2R Cu1 1_555 1_555
O2S Cu1A 1_555 1_555
C7 N1 1_555 1_555
C6P C7P 1_555 1_555
C6P N1P 1_555 1_555
C7P N1P 1_555 1_555
C2V C4V 1_555 1_555
C7V N1V 1_555 1_555
C7V N1X 1_555 1_555
N1V C7X 1_555 1_555
C2X C4X 1_555 1_555
C7X N1X 1_555 1_555

#END
