
#######################################################################
#
#                 Cambridge Crystallographic Data Centre
#                                CCDC 
#
#######################################################################
#
# If this CIF has been generated from an entry in the Cambridge 
# Structural Database, then it will include bibliographic, chemical, 
# crystal, experimental, refinement or atomic coordinate data resulting 
# from the CCDC's data processing and validation procedures.
#
#######################################################################

data_XEXLIX
_chemical_formula_moiety         '(C19 H8 N2 O6 Zn1)n,1.5n(C3 H6 O1),n(H2 O1)'
_chemical_name_systematic        
'catena-((\m~5~-1,3-Dioxo-2-(pyridin-4-yl)-2,3-dihydro-1H-benzo[de]isoquinoline-6,7-dicarboxylato)-zinc allyl alcohol solvate monohydrate)'
_symmetry_cell_setting           monoclinic
_symmetry_space_group_name_H-M   'P 21/n'
_symmetry_Int_Tables_number      14
_space_group_name_Hall           '-P 2yn'
loop_
_symmetry_equiv_pos_site_id
_symmetry_equiv_pos_as_xyz
1 x,y,z
2 1/2-x,1/2+y,1/2-z
3 -x,-y,-z
4 1/2+x,1/2-y,1/2+z
_cell_length_a                   5.6415(14)
_cell_length_b                   27.633(7)
_cell_length_c                   14.847(4)
_cell_angle_alpha                90
_cell_angle_beta                 100.149(4)
_cell_angle_gamma                90
_cell_volume                     2278.31
_exptl_crystal_colour            yellow
_exptl_crystal_description       Rod
_cell_formula_units_Z            4
loop_
_atom_site_label
_atom_site_type_symbol
_atom_site_fract_x
_atom_site_fract_y
_atom_site_fract_z
Zn1 Zn 0.03925(10) 1.023721(18) 0.41077(4)
O1 O 0.2434(6) 0.96427(11) 0.3985(2)
O2 O 0.2377(6) 0.93907(12) 0.5426(2)
O3 O 0.7679(6) 0.98186(11) 0.3382(2)
O4 O 0.7522(6) 0.94604(12) 0.4741(2)
O5 O 0.7291(8) 0.73895(13) 0.1908(3)
O6 O 0.1610(7) 0.70401(13) 0.3647(3)
N1 N 0.4238(8) 0.58022(14) 0.1735(3)
C1 C 0.6221(9) 0.59740(18) 0.2269(4)
H1 H 0.7602 0.5772 0.2395
C2 C 0.6346(9) 0.64334(18) 0.2643(4)
H2 H 0.7773 0.6544 0.3026
C3 C 0.4349(10) 0.67270(18) 0.2448(4)
C4 C 0.2237(9) 0.65553(18) 0.1917(4)
H3 H 0.0833 0.6751 0.1794
C5 C 0.2247(9) 0.60871(17) 0.1571(4)
H4 H 0.0818 0.5963 0.1210
N2 N 0.4443(8) 0.72224(15) 0.2773(3)
C6 C 0.2931(9) 0.73448(18) 0.3399(4)
C7 C 0.3065(9) 0.78537(17) 0.3725(4)
C8 C 0.4592(9) 0.81932(17) 0.3394(3)
C9 C 0.6015(9) 0.80498(17) 0.2742(4)
C10 C 0.6037(10) 0.75370(18) 0.2433(4)
C11 C 0.1739(10) 0.79847(19) 0.4383(4)
H5 H 0.0792 0.7750 0.4626
C12 C 0.1793(10) 0.84634(18) 0.4691(4)
H6 H 0.0862 0.8551 0.5140
C13 C 0.3159(8) 0.88098(17) 0.4361(4)
C14 C 0.4699(8) 0.86808(16) 0.3716(3)
C15 C 0.6344(8) 0.90064(17) 0.3398(4)
C16 C 0.7612(10) 0.88570(18) 0.2728(4)
H7 H 0.8598 0.9083 0.2483
C17 C 0.7466(10) 0.83769(19) 0.2403(4)
H8 H 0.8369 0.8280 0.1951
C18 C 0.2708(8) 0.93292(17) 0.4613(4)
C19 C 0.7157(8) 0.94768(16) 0.3879(4)
Zn1_2 Zn 1.03925(10) 1.023721(18) 0.41077(4)
Zn1A Zn 0.46075(10) 0.523721(18) 0.08923(4)
Zn1B Zn -0.03925(10) 0.976279(18) 0.58923(4)
Zn1B_2 Zn 0.96075(10) 0.976279(18) 0.58923(4)
O2B O -0.2377(6) 1.06093(12) 0.4574(2)
O3_2 O -0.2321(6) 0.98186(11) 0.3382(2)
O4B O 0.2478(6) 1.05396(12) 0.5259(2)
N1A N 0.0762(8) 1.08022(14) 0.3265(3)
O7 O 0.1720(16) 0.7712(4) 0.0550(7)
H9 H 0.0223 0.7756 0.0452
C20 C 0.2817(17) 0.8108(3) 0.0299(6)
H10 H 0.2764 0.8070 -0.0367
H11 H 0.4529 0.8069 0.0585
C21 C 0.231(3) 0.8613(4) 0.0417(8)
H12 H 0.3144 0.8869 0.0183
C22 C 0.056(3) 0.8681(4) 0.0881(10)
H13 H -0.0214 0.8411 0.1099
H14 H 0.0071 0.9000 0.1000
H15 H 0.6009 1.0286 -0.0824
O8 O 0.441(6) 0.9982(15) -0.130(3)
H16 H 0.3459 1.0177 -0.1617
O9? O 0.721(10) 0.883(2) -0.047(4)
H17? H 0.6620 0.9096 -0.0296
O10? O 0.513(14) 0.961(3) -0.069(5)
C23? C 0.626(9) 0.9341(18) -0.075(4)
H18? H 0.4626 0.9422 -0.0980
H19? H 0.7377 0.9549 -0.1777
C24? C 0.818(5) 0.9592(12) -0.108(2)
O11? O 0.678(9) 0.9634(11) -0.132(3)
O12? O 0.985(8) 1.0309(17) -0.106(3)
C25? C 0.977(5) 1.0085(11) -0.140(2)
H20? H 0.9393 0.9859 -0.0963
H21? H 0.9891 0.9575 -0.0955
H22? H 1.1391 1.0119 -0.1489
C26? C 0.631(8) 0.990(2) -0.172(3)
O13? O 0.748(4) 1.0073(8) -0.1604(15)
H23? H 0.5778 0.9722 -0.2301
C27? C 0.789(4) 1.0378(9) -0.1921(16)
H24? H 0.7837 1.0621 -0.2378
H25? H 0.7041 1.0208 -0.1860
C28? C 0.601(9) 1.013(2) -0.143(5)
H26? H 0.4380 1.0159 -0.1799
O14? O 0.692(6) 0.9228(11) -0.098(2)
loop_
_geom_bond_atom_site_label_1
_geom_bond_atom_site_label_2
_geom_bond_site_symmetry_1
_geom_bond_site_symmetry_2
Zn1 O1 1_555 1_555
O1 C18 1_555 1_555
O2 C18 1_555 1_555
O3 C19 1_555 1_555
O4 C19 1_555 1_555
O5 C10 1_555 1_555
O6 C6 1_555 1_555
N1 C1 1_555 1_555
C1 H1 1_555 1_555
C2 C1 1_555 1_555
H2 C2 1_555 1_555
C3 C2 1_555 1_555
C4 C3 1_555 1_555
H3 C4 1_555 1_555
C5 N1 1_555 1_555
H4 C5 1_555 1_555
N2 C3 1_555 1_555
C6 N2 1_555 1_555
C7 C6 1_555 1_555
C8 C7 1_555 1_555
C9 C8 1_555 1_555
C10 N2 1_555 1_555
C11 C7 1_555 1_555
H5 C11 1_555 1_555
C12 C11 1_555 1_555
H6 C12 1_555 1_555
C13 C12 1_555 1_555
C14 C8 1_555 1_555
C15 C14 1_555 1_555
C16 C15 1_555 1_555
H7 C16 1_555 1_555
C17 C9 1_555 1_555
H8 C17 1_555 1_555
C18 C13 1_555 1_555
C19 C15 1_555 1_555
O7 H9 1_555 1_555
C20 O7 1_555 1_555
H10 C20 1_555 1_555
H11 C20 1_555 1_555
C21 C20 1_555 1_555
H12 C21 1_555 1_555
C22 C21 1_555 1_555
H13 C22 1_555 1_555
H14 C22 1_555 1_555
H15 O8 1_555 1_555
O8 H16 1_555 1_555
Zn1_2 O3 1_555 1_555
Zn1A N1 1_555 1_555
Zn1B O2 1_555 1_555
Zn1B_2 O4 1_555 1_555
O2B Zn1 1_555 1_555
O3_2 Zn1 1_555 1_555
O4B Zn1 1_555 1_555
N1A Zn1 1_555 1_555
C4 C5 1_555 1_555
C9 C10 1_555 1_555
C13 C14 1_555 1_555
C16 C17 1_555 1_555

#END
