
#######################################################################
#
#                 Cambridge Crystallographic Data Centre
#                                CCDC 
#
#######################################################################
#
# If this CIF has been generated from an entry in the Cambridge 
# Structural Database, then it will include bibliographic, chemical, 
# crystal, experimental, refinement or atomic coordinate data resulting 
# from the CCDC's data processing and validation procedures.
#
#######################################################################

data_XEXLOD
_chemical_formula_moiety         '(C19 H8 N2 O6 Zn1)n,n(C6 H14 O4)'
_chemical_name_systematic        
'catena-((\m~5~-1,3-Dioxo-2-(pyridin-4-yl)-2,3-dihydro-1H-benzo[de]isoquinoline-6,7-dicarboxylato)-zinc triethylene glycol solvate)'
_symmetry_cell_setting           monoclinic
_symmetry_space_group_name_H-M   'P 21/c'
_symmetry_Int_Tables_number      14
_space_group_name_Hall           '-P 2ybc'
loop_
_symmetry_equiv_pos_site_id
_symmetry_equiv_pos_as_xyz
1 x,y,z
2 -x,1/2+y,1/2-z
3 -x,-y,-z
4 x,1/2-y,1/2+z
_cell_length_a                   5.5797(4)
_cell_length_b                   25.9231(19)
_cell_length_c                   16.7931(12)
_cell_angle_alpha                90
_cell_angle_beta                 98.575(4)
_cell_angle_gamma                90
_cell_volume                     2401.85
_exptl_crystal_colour            yellow
_exptl_crystal_description       needle
_cell_formula_units_Z            4
loop_
_atom_site_label
_atom_site_type_symbol
_atom_site_fract_x
_atom_site_fract_y
_atom_site_fract_z
Zn1 Zn 0.88077(7) 0.479131(14) 0.42038(2)
O1 O 0.7109(4) 0.54758(9) 0.42007(14)
O2 O 0.8452(4) 0.57375(9) 0.54535(14)
O3 O 0.2721(4) 0.55599(9) 0.48946(14)
O4 O 0.1376(4) 0.51989(9) 0.36994(14)
O5 O 0.7010(5) 0.82044(10) 0.37413(18)
O6 O -0.0108(5) 0.77167(11) 0.22665(19)
N1 N 0.2605(5) 0.93415(11) 0.17313(17)
N2 N 0.3479(6) 0.79542(11) 0.30035(19)
C1 C 0.4453(7) 0.90254(15) 0.1649(2)
H1 H 0.5521 0.9116 0.1281
C2 C 0.4856(7) 0.85719(15) 0.2083(2)
H2 H 0.6179 0.8353 0.2018
C3 C 0.3277(7) 0.84472(14) 0.2611(2)
C4 C 0.1456(7) 0.87840(15) 0.2739(2)
H3 H 0.0435 0.8714 0.3131
C5 C 0.1168(7) 0.92253(14) 0.2278(2)
H4 H -0.0100 0.9457 0.2351
C6 C 0.5539(7) 0.78659(14) 0.3574(2)
C7 C 0.5755(7) 0.73406(14) 0.3931(2)
C8 C 0.4024(6) 0.69579(13) 0.3678(2)
C9 C 0.1978(7) 0.70752(14) 0.3108(2)
C10 C 0.1636(7) 0.76002(15) 0.2759(2)
C11 C 0.7715(7) 0.72368(14) 0.4501(2)
H5 H 0.8831 0.7503 0.4688
C12 C 0.8062(7) 0.67328(14) 0.4808(2)
H6 H 0.9414 0.6662 0.5208
C13 C 0.6482(6) 0.63425(13) 0.4541(2)
C14 C 0.4344(6) 0.64465(13) 0.39936(19)
C15 C 0.2499(6) 0.60768(13) 0.3732(2)
C16 C 0.0557(7) 0.62079(15) 0.3168(2)
H7 H -0.0634 0.5955 0.2989
C17 C 0.0296(7) 0.67044(15) 0.2851(2)
H8 H -0.1052 0.6786 0.2456
C18 C 0.7361(6) 0.58029(13) 0.4761(2)
C19 C 0.2261(6) 0.55627(13) 0.4140(2)
Zn1_2 Zn -0.11923(7) 0.479131(14) 0.42038(2)
Zn1A Zn 0.11923(7) 0.979131(14) 0.07962(2)
Zn1B Zn 0.11923(7) 0.520869(14) 0.57962(2)
Zn1B_2 Zn 1.11923(7) 0.520869(14) 0.57962(2)
O2B O 1.1548(4) 0.42625(9) 0.45465(14)
O3B O 0.7279(4) 0.44401(9) 0.51054(14)
O4_2 O 1.1376(4) 0.51989(9) 0.36994(14)
N1A N 0.7395(5) 0.43415(11) 0.32687(17)
O7 O 0.9296(9) 1.0714(2) 0.5316(3)
H9 H 0.8456 1.0533 0.4965
O8 O 1.3013(9) 0.9919(2) 0.5979(3)
O9 O 1.4778(14) 0.8869(3) 0.6124(3)
O10 O 1.2401(8) 0.8210(2) 0.4816(2)
H10 H 1.1942 0.8519 0.4791
C20 C 1.1823(15) 1.0685(3) 0.5206(5)
H11 H 1.2418 1.1036 0.5109
H12 H 1.1965 1.0473 0.4726
C21 C 1.3373(13) 1.0456(3) 0.5928(5)
H13 H 1.5100 1.0525 0.5893
H14 H 1.2982 1.0623 0.6422
C22 C 1.4357(16) 0.9702(4) 0.6678(5)
H15 H 1.3873 0.9869 0.7160
H16 H 1.6103 0.9771 0.6679
C23 C 1.3978(18) 0.9156(5) 0.6719(5)
H17 H 1.4803 0.9031 0.7246
H18 H 1.2221 0.9093 0.6701
C24 C 1.448(3) 0.8330(4) 0.6134(5)
H19 H 1.6123 0.8180 0.6166
H20 H 1.3908 0.8247 0.6649
C25 C 1.314(3) 0.8080(4) 0.5593(5)
H21 H 1.2572 0.7756 0.5755
loop_
_geom_bond_atom_site_label_1
_geom_bond_atom_site_label_2
_geom_bond_site_symmetry_1
_geom_bond_site_symmetry_2
Zn1 O1 1_555 1_555
O1 C18 1_555 1_555
O2 C18 1_555 1_555
O3 C19 1_555 1_555
O4 C19 1_555 1_555
O5 C6 1_555 1_555
O6 C10 1_555 1_555
N1 C1 1_555 1_555
N2 C3 1_555 1_555
C1 H1 1_555 1_555
C2 C1 1_555 1_555
H2 C2 1_555 1_555
C3 C2 1_555 1_555
C4 C3 1_555 1_555
H3 C4 1_555 1_555
C5 N1 1_555 1_555
H4 C5 1_555 1_555
C6 N2 1_555 1_555
C7 C6 1_555 1_555
C8 C7 1_555 1_555
C9 C8 1_555 1_555
C10 N2 1_555 1_555
C11 C7 1_555 1_555
H5 C11 1_555 1_555
C12 C11 1_555 1_555
H6 C12 1_555 1_555
C13 C12 1_555 1_555
C14 C8 1_555 1_555
C15 C14 1_555 1_555
C16 C15 1_555 1_555
H7 C16 1_555 1_555
C17 C9 1_555 1_555
H8 C17 1_555 1_555
C18 C13 1_555 1_555
C19 C15 1_555 1_555
O7 H9 1_555 1_555
O8 C21 1_555 1_555
O9 C23 1_555 1_555
O10 H10 1_555 1_555
C20 O7 1_555 1_555
H11 C20 1_555 1_555
H12 C20 1_555 1_555
C21 C20 1_555 1_555
H13 C21 1_555 1_555
H14 C21 1_555 1_555
C22 O8 1_555 1_555
H15 C22 1_555 1_555
H16 C22 1_555 1_555
C23 C22 1_555 1_555
H17 C23 1_555 1_555
H18 C23 1_555 1_555
C24 O9 1_555 1_555
H19 C24 1_555 1_555
H20 C24 1_555 1_555
C25 O10 1_555 1_555
H21 C25 1_555 1_555
Zn1_2 O4 1_555 1_555
Zn1A N1 1_555 1_555
Zn1B O3 1_555 1_555
Zn1B_2 O2 1_555 1_555
O2B Zn1 1_555 1_555
O3B Zn1 1_555 1_555
O4_2 Zn1 1_555 1_555
N1A Zn1 1_555 1_555
C4 C5 1_555 1_555
C9 C10 1_555 1_555
C13 C14 1_555 1_555
C16 C17 1_555 1_555
C24 C25 1_555 1_555

#END
