
#######################################################################
#
#                 Cambridge Crystallographic Data Centre
#                                CCDC 
#
#######################################################################
#
# If this CIF has been generated from an entry in the Cambridge 
# Structural Database, then it will include bibliographic, chemical, 
# crystal, experimental, refinement or atomic coordinate data resulting 
# from the CCDC's data processing and validation procedures.
#
#######################################################################

data_XEXMAQ
_chemical_formula_moiety         
'(C19 H8 N2 O6 Zn1)n,1.25n(C2 H6 O1),0.38n(H2 O1)'
_chemical_name_systematic        
'catena-((\m~5~-1,3-Dioxo-2-(pyridin-4-yl)-2,3-dihydro-1H-benzo[de]isoquinoline-6,7-dicarboxylato)-zinc ethanol solvate hydrate)'
_symmetry_cell_setting           monoclinic
_symmetry_space_group_name_H-M   'P 21/c'
_symmetry_Int_Tables_number      14
_space_group_name_Hall           '-P 2ybc'
loop_
_symmetry_equiv_pos_site_id
_symmetry_equiv_pos_as_xyz
1 x,y,z
2 -x,1/2+y,1/2-z
3 -x,-y,-z
4 x,1/2-y,1/2+z
_cell_length_a                   5.5871(2)
_cell_length_b                   25.9462(9)
_cell_length_c                   17.4983(7)
_cell_angle_alpha                90
_cell_angle_beta                 96.031(2)
_cell_angle_gamma                90
_cell_volume                     2522.58
_exptl_crystal_colour            yellow
_exptl_crystal_description       needle
_cell_formula_units_Z            4
loop_
_atom_site_label
_atom_site_type_symbol
_atom_site_fract_x
_atom_site_fract_y
_atom_site_fract_z
Zn1 Zn 0.89206(7) 0.473226(13) 0.42807(2)
O1 O 0.7130(5) 0.54098(9) 0.41684(16)
O2 O 0.8299(5) 0.57555(9) 0.53239(16)
O3 O 0.2642(5) 0.55616(9) 0.48002(15)
O4 O 0.1466(5) 0.51183(9) 0.37262(16)
O5 O 0.6855(5) 0.81304(10) 0.34467(19)
O6 O -0.0062(6) 0.75740(11) 0.2113(2)
N1 N 0.2338(5) 0.92238(11) 0.15426(19)
N2 N 0.3430(6) 0.78447(11) 0.2776(2)
C1 C 0.4278(7) 0.89310(15) 0.1459(2)
H1 H 0.5346 0.9033 0.1115
C2 C 0.4723(7) 0.84804(15) 0.1875(2)
H2 H 0.6066 0.8280 0.1808
C3 C 0.3144(7) 0.83331(14) 0.2389(2)
C4 C 0.1220(7) 0.86450(15) 0.2503(3)
H3 H 0.0184 0.8562 0.2867
C5 C 0.0871(7) 0.90847(14) 0.2063(2)
H4 H -0.0442 0.9294 0.2130
C6 C 0.5455(7) 0.77753(14) 0.3301(2)
C7 C 0.5737(7) 0.72632(13) 0.3674(2)
C8 C 0.4083(6) 0.68654(13) 0.3465(2)
C9 C 0.2088(7) 0.69565(14) 0.2915(2)
C10 C 0.1674(7) 0.74703(15) 0.2564(3)
C11 C 0.7639(7) 0.71831(14) 0.4215(2)
H5 H 0.8704 0.7451 0.4355
C12 C 0.7991(7) 0.66982(13) 0.4560(2)
H6 H 0.9284 0.6648 0.4932
C13 C 0.6448(6) 0.62939(13) 0.4356(2)
C14 C 0.4385(6) 0.63706(13) 0.3819(2)
C15 C 0.2597(6) 0.59885(13) 0.3615(2)
C16 C 0.0768(7) 0.60826(14) 0.3052(2)
H7 H -0.0321 0.5821 0.2902
C17 C 0.0502(7) 0.65699(15) 0.2692(3)
H8 H -0.0746 0.6627 0.2307
C18 C 0.7297(6) 0.57693(13) 0.4650(2)
C19 C 0.2301(6) 0.55090(13) 0.4084(2)
Zn1_2 Zn -0.10794(7) 0.473226(13) 0.42807(2)
Zn1A Zn 0.10794(7) 0.973226(13) 0.07193(2)
Zn1B Zn 0.10794(7) 0.526774(13) 0.57193(2)
Zn1B_2 Zn 1.10794(7) 0.526774(13) 0.57193(2)
O2B O 1.1701(5) 0.42445(9) 0.46761(16)
O3B O 0.7358(5) 0.44384(9) 0.51998(15)
O4_2 O 1.1466(5) 0.51183(9) 0.37262(16)
N1A N 0.7662(5) 0.42238(11) 0.34574(19)
O7 O 0.506(3) 0.4800(5) -0.2052(7)
C20 C 0.334(3) 0.4752(6) -0.1545(10)
C21 C 0.290(3) 0.4191(4) -0.1477(7)
O8 O -0.3164(19) 0.2650(4) -0.0482(6)
C22 C -0.500(3) 0.2978(9) -0.0855(15)
C23 C -0.382(4) 0.3410(6) -0.1190(12)
O9 O 0.030(7) 0.3795(16) -0.063(2)
C24? C -0.512(3) 0.2868(9) -0.0950(15)
C25? C -0.469(5) 0.3416(7) -0.1041(16)
O10? O 0.045(9) 0.397(2) -0.074(3)
C26? C -0.078(5) 0.4005(11) -0.0518(13)
C27? C -0.072(5) 0.4043(14) 0.0331(15)
O11? O 0.029(8) 0.3959(16) 0.022(2)
O12? O 0.150(4) 0.4257(10) 0.0596(13)
loop_
_geom_bond_atom_site_label_1
_geom_bond_atom_site_label_2
_geom_bond_site_symmetry_1
_geom_bond_site_symmetry_2
Zn1 O1 1_555 1_555
O1 C18 1_555 1_555
O2 C18 1_555 1_555
O3 C19 1_555 1_555
O4 C19 1_555 1_555
O5 C6 1_555 1_555
O6 C10 1_555 1_555
N1 C1 1_555 1_555
N2 C3 1_555 1_555
C1 H1 1_555 1_555
C2 C1 1_555 1_555
H2 C2 1_555 1_555
C3 C2 1_555 1_555
C4 C3 1_555 1_555
H3 C4 1_555 1_555
C5 N1 1_555 1_555
H4 C5 1_555 1_555
C6 N2 1_555 1_555
C7 C6 1_555 1_555
C8 C7 1_555 1_555
C9 C8 1_555 1_555
C10 N2 1_555 1_555
C11 C7 1_555 1_555
H5 C11 1_555 1_555
C12 C11 1_555 1_555
H6 C12 1_555 1_555
C13 C12 1_555 1_555
C14 C8 1_555 1_555
C15 C14 1_555 1_555
C16 C15 1_555 1_555
H7 C16 1_555 1_555
C17 C9 1_555 1_555
H8 C17 1_555 1_555
C18 C13 1_555 1_555
C19 C15 1_555 1_555
O7 C20 1_555 1_555
C20 C21 1_555 1_555
O8 C22 1_555 1_555
C22 C23 1_555 1_555
Zn1_2 O4 1_555 1_555
Zn1A N1 1_555 1_555
Zn1B O3 1_555 1_555
Zn1B_2 O2 1_555 1_555
O2B Zn1 1_555 1_555
O3B Zn1 1_555 1_555
O4_2 Zn1 1_555 1_555
N1A Zn1 1_555 1_555
C4 C5 1_555 1_555
C9 C10 1_555 1_555
C13 C14 1_555 1_555
C16 C17 1_555 1_555

#END
