
#######################################################################
#
#                 Cambridge Crystallographic Data Centre
#                                CCDC 
#
#######################################################################
#
# If this CIF has been generated from an entry in the Cambridge 
# Structural Database, then it will include bibliographic, chemical, 
# crystal, experimental, refinement or atomic coordinate data resulting 
# from the CCDC's data processing and validation procedures.
#
#######################################################################

data_CAVLOC
_chemical_name_common            PCM-14
_chemical_formula_moiety         '(C22 H21 Ca1 O9 P1)n,1.5n(H2 O1)'
_chemical_name_systematic        
'catena-((\m~3~-tris(4-Carboxylatophenyl)methylphosphonium)-triaqua-calcium sesquihydrate)'
_symmetry_cell_setting           cubic
_symmetry_space_group_name_H-M   'I 21 3'
_symmetry_Int_Tables_number      199
_space_group_name_Hall           'I 2b 2c 3'
loop_
_symmetry_equiv_pos_site_id
_symmetry_equiv_pos_as_xyz
1 x,y,z
2 1/2-x,-y,1/2+z
3 -x,1/2+y,1/2-z
4 1/2+x,1/2-y,-z
5 z,x,y
6 1/2+z,1/2-x,-y
7 1/2-z,-x,1/2+y
8 -z,1/2+x,1/2-y
9 y,z,x
10 -y,1/2+z,1/2-x
11 1/2+y,1/2-z,-x
12 1/2-y,-z,1/2+x
13 1/2+x,1/2+y,1/2+z
14 -x,1/2-y,z
15 1/2-x,y,-z
16 x,-y,1/2-z
17 1/2+z,1/2+x,1/2+y
18 z,-x,1/2-y
19 -z,1/2-x,y
20 1/2-z,x,-y
21 1/2+y,1/2+z,1/2+x
22 1/2-y,z,-x
23 y,-z,1/2-x
24 -y,1/2-z,x
_cell_length_a                   17.124(2)
_cell_length_b                   17.124(2)
_cell_length_c                   17.124(2)
_cell_angle_alpha                90
_cell_angle_beta                 90
_cell_angle_gamma                90
_cell_volume                     5021.29
_exptl_crystal_colour            colorless
_exptl_crystal_description       shard
_cell_formula_units_Z            8
loop_
_atom_site_label
_atom_site_type_symbol
_atom_site_fract_x
_atom_site_fract_y
_atom_site_fract_z
_atom_site_U_iso_or_equiv
_atom_site_thermal_displace_type
Ca1 Ca 0.66382(7) 0.33618(7) 0.83618(7) 0.0685 Uani
P1 P 0.54621(10) 0.04621(10) 0.45379(10) 0.0622 Uani
O1 O 0.6509(4) 0.3319(3) 0.7045(3) 0.1240 Uani
O2 O 0.6565(4) 0.3977(3) 0.5946(3) 0.1107 Uani
O3 O 0.5287(3) 0.3231(3) 0.8558(7) 0.1833 Uani
H1 H 0.5057(19) 0.2790(18) 0.854(7) 0.2750 Uiso
H2 H 0.4952(13) 0.354(5) 0.836(7) 0.2750 Uiso
C1 C 0.5753(4) 0.1315(3) 0.5064(3) 0.0620 Uani
C2 C 0.4878(4) -0.0122(4) 0.5122(4) 0.0850 Uani
H3 H 0.4505 0.0133 0.5281 0.1270 Uiso
C3 C 0.5987(4) 0.1981(4) 0.4683(3) 0.0773 Uani
H4 H 0.5985 0.1992 0.4140 0.0930 Uiso
C4 C 0.6224(4) 0.2634(3) 0.5089(4) 0.0810 Uani
H5 H 0.6383 0.3075 0.4815 0.0970 Uiso
C5 C 0.6230(4) 0.2644(3) 0.5891(4) 0.0720 Uani
C6 C 0.5983(4) 0.1978(4) 0.6286(3) 0.0780 Uani
H6 H 0.5984 0.1969 0.6829 0.0940 Uiso
C7 C 0.5731(4) 0.1322(3) 0.5868(3) 0.0733 Uani
H7 H 0.5547 0.0886 0.6136 0.0880 Uiso
C8 C 0.6469(4) 0.3373(5) 0.6344(5) 0.0890 Uani
Ca1C Ca 0.16382(7) 0.16382(7) 0.16382(7) 0.0685 Uani
Ca1A Ca 0.83618(7) -0.33618(7) 0.33618(7) 0.0685 Uani
O1G O 0.2955(3) 0.1509(4) 0.1681(3) 0.1240 Uani
O1J O 0.8319(3) -0.2045(3) 0.3491(4) 0.1240 Uani
O1I O 0.6681(3) 0.2045(3) 0.8491(4) 0.1240 Uani
O1F O 0.7955(3) 0.3491(4) 0.8319(3) 0.1240 Uani
O2G O 0.4054(3) 0.1565(4) 0.1023(3) 0.1107 Uani
O2J O 0.8977(3) -0.0946(3) 0.3435(4) 0.1107 Uani
O3F O 0.6442(7) 0.4713(3) 0.8231(3) 0.1833 Uani
O3I O 0.6769(3) 0.3558(7) 0.9713(3) 0.1833 Uani
H1F H 0.646(7) 0.4943(19) 0.7790(18) 0.2750 Uiso
H1I H 0.7210(18) 0.354(7) 0.9943(19) 0.2750 Uiso
H2F H 0.664(7) 0.5048(13) 0.854(5) 0.2750 Uiso
H2I H 0.646(5) 0.336(7) 1.0048(13) 0.2750 Uiso
C1G C 0.4936(3) 0.0753(4) 0.3685(3) 0.0620 Uani
C1J C 0.6315(3) -0.0064(3) 0.4247(4) 0.0620 Uani
H3G H 0.4719 -0.0495 0.4867 0.1270 Uiso
H3J H 0.5133 -0.0281 0.5495 0.1270 Uiso
C3G C 0.5317(3) 0.0987(4) 0.3019(4) 0.0773 Uani
C3J C 0.6981(4) 0.0317(3) 0.4013(4) 0.0773 Uani
H4G H 0.5860 0.0985 0.3008 0.0930 Uiso
H4J H 0.6992 0.0860 0.4015 0.0930 Uiso
C4G C 0.4911(4) 0.1224(4) 0.2366(3) 0.0810 Uani
C4J C 0.7634(3) -0.0089(4) 0.3776(4) 0.0810 Uani
H5G H 0.5185 0.1383 0.1925 0.0970 Uiso
H5J H 0.8075 0.0185 0.3617 0.0970 Uiso
C5G C 0.4109(4) 0.1230(4) 0.2356(3) 0.0720 Uani
C5J C 0.7644(3) -0.0891(4) 0.3770(4) 0.0720 Uani
C6G C 0.3714(3) 0.0983(4) 0.3022(4) 0.0780 Uani
C6J C 0.6978(4) -0.1286(3) 0.4017(4) 0.0780 Uani
H6G H 0.3171 0.0984 0.3031 0.0940 Uiso
H6J H 0.6969 -0.1829 0.4016 0.0940 Uiso
C7G C 0.4132(3) 0.0731(4) 0.3678(3) 0.0733 Uani
C7J C 0.6322(3) -0.0868(3) 0.4269(4) 0.0733 Uani
H7G H 0.3864 0.0547 0.4114 0.0880 Uiso
H7J H 0.5886 -0.1136 0.4453 0.0880 Uiso
C8G C 0.3656(5) 0.1469(4) 0.1627(5) 0.0890 Uani
C8J C 0.8373(5) -0.1344(5) 0.3531(4) 0.0890 Uani
O4 O 0.5000 0.2500 1.0281(5) 0.1777 Uani
loop_
_atom_site_aniso_label
_atom_site_aniso_U_11
_atom_site_aniso_U_22
_atom_site_aniso_U_33
_atom_site_aniso_U_23
_atom_site_aniso_U_13
_atom_site_aniso_U_12
Ca1 0.0685(6) 0.0685(6) 0.0685(6) -0.0041(6) 0.0041(6) 0.0041(6)
P1 0.0622(7) 0.0622(7) 0.0622(7) -0.0126(8) -0.0126(8) 0.0126(8)
O1 0.203(6) 0.090(4) 0.079(3) -0.031(3) -0.051(4) 0.021(4)
O2 0.162(5) 0.063(3) 0.107(4) -0.015(3) -0.020(4) -0.004(3)
O3 0.056(3) 0.079(3) 0.415(13) -0.032(6) -0.020(4) 0.014(2)
C1 0.077(4) 0.055(3) 0.054(3) -0.012(3) -0.015(3) 0.026(3)
C2 0.085(3) 0.085(3) 0.085(3) -0.007(4) -0.007(4) 0.007(4)
C3 0.116(5) 0.067(4) 0.049(3) -0.009(3) -0.006(3) 0.016(4)
C4 0.133(6) 0.052(3) 0.058(4) 0.000(3) -0.016(4) 0.011(4)
C5 0.086(4) 0.060(4) 0.070(4) -0.011(3) -0.022(3) 0.021(3)
C6 0.099(5) 0.081(4) 0.054(3) -0.018(3) -0.012(3) 0.013(4)
C7 0.093(5) 0.057(3) 0.070(4) -0.013(3) -0.011(3) 0.016(3)
C8 0.109(5) 0.070(4) 0.088(5) -0.030(4) -0.044(4) 0.034(4)
Ca1C 0.0685 0.0685 0.0685 -0.0041 -0.0041 -0.0041
Ca1A 0.0685 0.0685 0.0685 0.0041 -0.0041 0.0041
O1G 0.079 0.203 0.09 -0.021 -0.031 0.051
O1J 0.09 0.079 0.203 -0.051 -0.021 0.031
O1I 0.09 0.079 0.203 0.051 0.021 0.031
O1F 0.079 0.203 0.09 -0.021 0.031 -0.051
O2G 0.107 0.162 0.063 0.004 -0.015 0.02
O2J 0.063 0.107 0.162 -0.02 0.004 0.015
O3F 0.415 0.056 0.079 -0.014 0.032 -0.02
O3I 0.079 0.415 0.056 0.02 0.014 0.032
C1G 0.054 0.077 0.055 -0.026 -0.012 0.015
C1J 0.055 0.054 0.077 -0.015 -0.026 0.012
C3G 0.049 0.116 0.067 -0.016 -0.009 0.006
C3J 0.067 0.049 0.116 -0.006 -0.016 0.009
C4G 0.058 0.133 0.052 -0.011 0 0.016
C4J 0.052 0.058 0.133 -0.016 -0.011 0
C5G 0.07 0.086 0.06 -0.021 -0.011 0.022
C5J 0.06 0.07 0.086 -0.022 -0.021 0.011
C6G 0.054 0.099 0.081 -0.013 -0.018 0.012
C6J 0.081 0.054 0.099 -0.012 -0.013 0.018
C7G 0.07 0.093 0.057 -0.016 -0.013 0.011
C7J 0.057 0.07 0.093 -0.011 -0.016 0.013
C8G 0.088 0.109 0.07 -0.034 -0.03 0.044
C8J 0.07 0.088 0.109 -0.044 -0.034 0.03
O4 0.143(8) 0.285(15) 0.105(7) 0.000 0.000 -0.003(9)
loop_
_geom_bond_atom_site_label_1
_geom_bond_atom_site_label_2
_geom_bond_site_symmetry_1
_geom_bond_site_symmetry_2
Ca1 O1 1_555 1_555
P1 C1 1_555 1_555
O1 C8 1_555 1_555
O2 C8 1_555 1_555
O3 Ca1 1_555 1_555
H1 O3 1_555 1_555
H2 O3 1_555 1_555
C1 C3 1_555 1_555
C2 P1 1_555 1_555
H3 C2 1_555 1_555
C3 H4 1_555 1_555
C4 C3 1_555 1_555
H5 C4 1_555 1_555
C5 C4 1_555 1_555
C6 C5 1_555 1_555
H6 C6 1_555 1_555
C7 C1 1_555 1_555
H7 C7 1_555 1_555
C8 C5 1_555 1_555
Ca1C O1G 1_555 1_555
Ca1A O1J 1_555 1_555
O1G C8G 1_555 1_555
O1J C8J 1_555 1_555
O1I Ca1 1_555 1_555
O1F Ca1 1_555 1_555
O2G C8G 1_555 1_555
O2J C8J 1_555 1_555
O3F Ca1 1_555 1_555
O3I Ca1 1_555 1_555
H1F O3F 1_555 1_555
H1I O3I 1_555 1_555
H2F O3F 1_555 1_555
H2I O3I 1_555 1_555
C1G P1 1_555 1_555
C1J P1 1_555 1_555
H3G C2 1_555 1_555
H3J C2 1_555 1_555
C3G C1G 1_555 1_555
C3J C1J 1_555 1_555
H4G C3G 1_555 1_555
H4J C3J 1_555 1_555
C4G C3G 1_555 1_555
C4J C3J 1_555 1_555
H5G C4G 1_555 1_555
H5J C4J 1_555 1_555
C5G C4G 1_555 1_555
C5J C4J 1_555 1_555
C6G C5G 1_555 1_555
C6J C5J 1_555 1_555
H6G C6G 1_555 1_555
H6J C6J 1_555 1_555
C7G C1G 1_555 1_555
C7J C1J 1_555 1_555
H7G C7G 1_555 1_555
H7J C7J 1_555 1_555
C8G C5G 1_555 1_555
C8J C5J 1_555 1_555
C6 C7 1_555 1_555
C6G C7G 1_555 1_555
C6J C7J 1_555 1_555

#END
