
#######################################################################
#
#                 Cambridge Crystallographic Data Centre
#                                CCDC 
#
#######################################################################
#
# If this CIF has been generated from an entry in the Cambridge 
# Structural Database, then it will include bibliographic, chemical, 
# crystal, experimental, refinement or atomic coordinate data resulting 
# from the CCDC's data processing and validation procedures.
#
#######################################################################

data_BOYCEY
_chemical_name_common            NOTT-110
_chemical_formula_moiety         
'(C30 H18 Cu2 O10)n,7.5n(C3 H7 N1 O1),5n(H2 O1)'
_chemical_name_systematic        
"catena-[(\m~8~-5,5'-(Phenanthrene-2,7-diyl)dibenzene-1,3-dicarboxylato)-diaqua-di-copper(ii) dimethylformamide solvate pentahydrate]"
_symmetry_cell_setting           rhombohedral
_symmetry_space_group_name_H-M   'R -3 m'
_symmetry_Int_Tables_number      166
_space_group_name_Hall           '-R 3 2"'
loop_
_symmetry_equiv_pos_site_id
_symmetry_equiv_pos_as_xyz
1 x,y,z
2 -y,x-y,z
3 -x+y,-x,z
4 y,x,-z
5 x-y,-y,-z
6 -x,-x+y,-z
7 2/3+x,1/3+y,1/3+z
8 2/3-y,1/3+x-y,1/3+z
9 2/3-x+y,1/3-x,1/3+z
10 2/3+y,1/3+x,1/3-z
11 2/3+x-y,1/3-y,1/3-z
12 2/3-x,1/3-x+y,1/3-z
13 1/3+x,2/3+y,2/3+z
14 1/3-y,2/3+x-y,2/3+z
15 1/3-x+y,2/3-x,2/3+z
16 1/3+y,2/3+x,2/3-z
17 1/3+x-y,2/3-y,2/3-z
18 1/3-x,2/3-x+y,2/3-z
19 -x,-y,-z
20 y,-x+y,-z
21 x-y,x,-z
22 -y,-x,z
23 -x+y,y,z
24 x,x-y,z
25 1/3-x,2/3-y,2/3-z
26 1/3+y,2/3-x+y,2/3-z
27 1/3+x-y,2/3+x,2/3-z
28 1/3-y,2/3-x,2/3+z
29 1/3-x+y,2/3+y,2/3+z
30 1/3+x,2/3+x-y,2/3+z
31 2/3-x,1/3-y,1/3-z
32 2/3+y,1/3-x+y,1/3-z
33 2/3+x-y,1/3+x,1/3-z
34 2/3-y,1/3-x,1/3+z
35 2/3-x+y,1/3+y,1/3+z
36 2/3+x,1/3+x-y,1/3+z
_cell_length_a                   18.3411(4)
_cell_length_b                   18.3411(4)
_cell_length_c                   52.6041(15)
_cell_angle_alpha                90
_cell_angle_beta                 90
_cell_angle_gamma                120
_cell_volume                     15325
_exptl_crystal_colour            'blue green'
_exptl_crystal_description       block
_cell_formula_units_Z            9
loop_
_atom_site_label
_atom_site_type_symbol
_atom_site_fract_x
_atom_site_fract_y
_atom_site_fract_z
Cu1 Cu 0.04999(4) 0.52500(2) 0.020310(12)
O1 O 0.1093(2) 0.4801(2) 0.00095(6)
O2 O 0.0260(2) 0.4393(3) -0.03349(6)
O3 O 0.1193(8) 0.5597(4) 0.0553(2)
C1 C 0.0905(3) 0.4506(4) -0.02140(8)
C2 C 0.2220(3) 0.4440(5) -0.02178(12)
H1 H 0.2312 0.4625 -0.0046
C3 C 0.1503(3) 0.4306(4) -0.03423(9)
C4 C 0.1375(4) 0.4060(5) -0.05958(10)
H2 H 0.0877 0.3965 -0.0680
C5 C 0.1975(3) 0.3950(5) -0.07284(8)
C6 C 0.1268(3) 0.3802(5) -0.11492(8)
H3 H 0.1047 0.4136 -0.1079
C7 C 0.1660(3) 0.3494(5) -0.09915(8)
C8 C 0.1979(3) 0.3011(5) -0.10927(8)
H4 H 0.2250 0.2798 -0.0984
C9 C 0.1907(3) 0.2836(5) -0.13516(8)
H5 H 0.2128 0.2503 -0.1421
C10 C 0.1515(3) 0.3145(5) -0.15093(8)
C11 C 0.1195(3) 0.3628(5) -0.14081(8)
C12 C 0.0803(3) 0.3936(5) -0.15658(8)
C13 C 0.2604(3) 0.2905(5) -0.15090(8)
H6 H 0.2971 0.2780 -0.1412
Cu1V Cu 0.47501(4) 0.52500(2) 0.020310(12)
Cu1E Cu -0.04999(4) 0.47501(4) -0.020310(12)
Cu1S Cu 0.52500(2) 0.47501(4) -0.020310(12)
Cu1P Cu -0.14168(4) 0.14167(2) -0.353643(12)
Cu1M Cu -0.19167(2) 0.19166(4) -0.313023(12)
Cu1X Cu 0.28334(4) 0.14167(2) -0.353643(12)
Cu1CA Cu 0.38332(4) 0.19166(4) -0.313023(12)
O1V O 0.3708(3) 0.4801(2) 0.00095(6)
O1P O -0.0375(3) 0.1866(2) -0.33428(6)
O1X O 0.2240(2) 0.1866(2) -0.33428(6)
O1W O 0.1093(2) 0.6292(3) 0.00095(6)
O1A O 0.5199(2) 0.6292(3) 0.00095(6)
O2V O 0.4133(4) 0.4393(3) -0.03349(6)
O2P O -0.0800(4) 0.2274(3) -0.29984(6)
O2X O 0.3073(2) 0.2274(3) -0.29984(6)
O2E O -0.0260(2) 0.4133(4) 0.03349(6)
O2R O -0.0260(2) 0.5607(3) 0.03349(6)
O2S O 0.4393(3) 0.4133(4) 0.03349(6)
O2D O 0.5867(4) 0.5607(3) 0.03349(6)
O3V O 0.4404(9) 0.5597(4) 0.0553(2)
C1V C 0.3601(5) 0.4506(4) -0.02140(8)
C1P C -0.0268(5) 0.2161(4) -0.31193(8)
C1X C 0.2428(3) 0.2161(4) -0.31193(8)
C2P C 0.1113(6) 0.2227(5) -0.31155(12)
H1P H 0.1020 0.2042 -0.3287
C3V C 0.2803(5) 0.4306(4) -0.03423(9)
C3P C 0.0530(5) 0.2361(4) -0.29910(9)
C3X C 0.1830(3) 0.2361(4) -0.29910(9)
C4V C 0.2685(6) 0.4060(5) -0.05958(10)
C4P C 0.0648(6) 0.2607(5) -0.27375(10)
C4X C 0.1958(4) 0.2607(5) -0.27375(10)
H2V H 0.3088 0.3965 -0.0680
H2X H 0.2456 0.2702 -0.2653
H2P H 0.0245 0.2702 -0.2653
C5P C 0.1358(6) 0.2717(5) -0.26049(8)
C6V C 0.2534(6) 0.3802(5) -0.11492(8)
C6P C 0.0799(6) 0.2865(5) -0.21841(8)
C6X C 0.2065(3) 0.2865(5) -0.21841(8)
H3V H 0.3089 0.4136 -0.1079
H3P H 0.0244 0.2531 -0.2254
H3X H 0.2286 0.2531 -0.2254
C7V C 0.1834(6) 0.3494(5) -0.09915(8)
C7P C 0.1499(6) 0.3173(5) -0.23418(8)
C7X C 0.1673(3) 0.3173(5) -0.23418(8)
C8V C 0.1032(6) 0.3011(5) -0.10927(8)
C8X C 0.1354(3) 0.3656(5) -0.22406(8)
C8P C 0.2301(6) 0.3656(5) -0.22406(8)
H4V H 0.0548 0.2798 -0.0984
H4X H 0.1083 0.3869 -0.2349
H4P H 0.2785 0.3869 -0.2349
C9V C 0.0929(6) 0.2836(5) -0.13516(8)
C9X C 0.1426(3) 0.3831(5) -0.19817(8)
C9P C 0.2404(6) 0.3831(5) -0.19817(8)
H5V H 0.0375 0.2503 -0.1421
H5X H 0.1205 0.4164 -0.1912
H5P H 0.2958 0.4164 -0.1912
C10V C 0.1630(6) 0.3145(5) -0.15093(8)
C10P C 0.1703(6) 0.3522(5) -0.18240(8)
C10X C 0.1818(3) 0.3522(5) -0.18240(8)
C11V C 0.2433(6) 0.3628(5) -0.14081(8)
C11P C 0.0900(6) 0.3039(5) -0.19252(8)
C11X C 0.2138(3) 0.3039(5) -0.19252(8)
C12P C 0.0200(6) 0.2731(5) -0.17675(8)
C12X C 0.2530(3) 0.2731(5) -0.17675(8)
C12V C 0.3133(6) 0.3936(5) -0.15658(8)
C13V C 0.0301(6) 0.2905(5) -0.15090(8)
C13X C 0.0729(3) 0.3762(5) -0.18243(8)
C13P C 0.3032(6) 0.3762(5) -0.18243(8)
H6V H -0.0191 0.2780 -0.1412
H6X H 0.0362 0.3887 -0.1921
H6P H 0.3524 0.3887 -0.1921
C14? C 0.1602(3) 0.4226(5) -0.11723(8)
H7? H 0.1380 0.4557 -0.1101
C15? C 0.1975(3) 0.3927(5) -0.10183(8)
C16? C 0.2274(3) 0.3394(5) -0.11243(8)
H8? H 0.2520 0.3153 -0.1016
C17? C 0.2200(3) 0.3237(5) -0.13843(8)
H9? H 0.2534 0.2933 -0.1476
C18? C 0.1827(3) 0.3631(5) -0.15382(8)
C19? C 0.1528(3) 0.4069(5) -0.14323(8)
C20? C 0.1155(3) 0.4407(5) -0.15863(8)
H10? H 0.0948 0.4749 -0.1513
C21? C 0.1150(3) 0.4207(5) -0.18790(8)
H11? H 0.0883 0.4424 -0.1988
H12? H 0.0583 0.4270 -0.1496
O4? O 0.1572(18) 0.5786(9) 0.0460(5)
loop_
_geom_bond_atom_site_label_1
_geom_bond_atom_site_label_2
_geom_bond_site_symmetry_1
_geom_bond_site_symmetry_2
Cu1 O1 1_555 1_555
O1 C1 1_555 1_555
O2 C1 1_555 1_555
O3 Cu1 1_555 1_555
C1 C3 1_555 1_555
C2 H1 1_555 1_555
C3 C2 1_555 1_555
C4 C3 1_555 1_555
H2 C4 1_555 1_555
C5 C4 1_555 1_555
C6 H3 1_555 1_555
C7 C5 1_555 1_555
C8 C7 1_555 1_555
H4 C8 1_555 1_555
C9 C8 1_555 1_555
H5 C9 1_555 1_555
C10 C9 1_555 1_555
C11 C6 1_555 1_555
C12 C11 1_555 1_555
C13 C9 1_555 1_555
H6 C13 1_555 1_555
Cu1V O1V 1_555 1_555
Cu1E O2 1_555 1_555
Cu1S O2V 1_555 1_555
Cu1P O1P 1_555 1_555
Cu1M O2P 1_555 1_555
Cu1X O1X 1_555 1_555
Cu1CA O2X 1_555 1_555
O1V C1V 1_555 1_555
O1P C1P 1_555 1_555
O1X C1X 1_555 1_555
O1W Cu1 1_555 1_555
O1A Cu1V 1_555 1_555
O2V C1V 1_555 1_555
O2P C1P 1_555 1_555
O2X C1X 1_555 1_555
O2E Cu1 1_555 1_555
O2R Cu1 1_555 1_555
O2S Cu1V 1_555 1_555
O2D Cu1V 1_555 1_555
O3V Cu1V 1_555 1_555
C1V C3V 1_555 1_555
C1P C3P 1_555 1_555
C1X C3X 1_555 1_555
C2P H1P 1_555 1_555
C3V C2 1_555 1_555
C3P C2P 1_555 1_555
C3X C2P 1_555 1_555
C4V C5 1_555 1_555
C4P C3P 1_555 1_555
C4X C3X 1_555 1_555
H2V C4V 1_555 1_555
H2X C4X 1_555 1_555
H2P C4P 1_555 1_555
C5P C4P 1_555 1_555
C6V C7 1_555 1_555
C6P H3P 1_555 1_555
C6X H3X 1_555 1_555
H3V C6V 1_555 1_555
C7V C5 1_555 1_555
C7P C5P 1_555 1_555
C7X C5P 1_555 1_555
C8V C6 1_555 1_555
C8X C6P 1_555 1_555
C8P C6X 1_555 1_555
H4V C8V 1_555 1_555
H4X C8X 1_555 1_555
H4P C8P 1_555 1_555
C9V C10 1_555 1_555
C9X C8X 1_555 1_555
C9P C8P 1_555 1_555
H5V C9V 1_555 1_555
H5X C9X 1_555 1_555
H5P C9P 1_555 1_555
C10V C9 1_555 1_555
C10P C9X 1_555 1_555
C10X C9X 1_555 1_555
C11V C9 1_555 1_555
C11P C6P 1_555 1_555
C11X C6X 1_555 1_555
C12P C11P 1_555 1_555
C12X C13 1_555 1_555
C12V C13 1_555 1_555
C13V C11 1_555 1_555
C13X C12 1_555 1_555
C13P C9P 1_555 1_555
H6V C13V 1_555 1_555
H6X C13X 1_555 1_555
H6P C13P 1_555 1_555
C6 C7 1_555 1_555
C6 C7V 1_555 1_555
C7 C7V 1_555 1_555
C7 C8V 1_555 1_555
C8 C6V 1_555 1_555
C8 C7V 1_555 1_555
C8 C8V 1_555 1_555
H5 C13 1_555 1_555
C10 C11 1_555 1_555
C10 C10V 1_555 1_555
C10 C11V 1_555 1_555
C11 C9V 1_555 1_555
C11 C10V 1_555 1_555
C12 C13V 1_555 1_555
C13 C11V 1_555 1_555
C3V C4V 1_555 1_555
C4X C5P 1_555 1_555
C6V C7V 1_555 1_555
C6V C11V 1_555 1_555
C6P C7P 1_555 1_555
C6P C7X 1_555 1_555
C6X C7P 1_555 1_555
C6X C7X 1_555 1_555
C7V C8V 1_555 1_555
C7P C7X 1_555 1_555
C7P C8X 1_555 1_555
C7P C8P 1_555 1_555
C7X C8X 1_555 1_555
C7X C8P 1_555 1_555
C8V C9V 1_555 1_555
C8X C8P 1_555 1_555
C9V C10V 1_555 1_555
C9V C13V 1_555 1_555
C9X C11P 1_555 1_555
C9X C13X 1_555 1_555
C9P C10P 1_555 1_555
C9P C10X 1_555 1_555
C9P C11X 1_555 1_555
H5V C13V 1_555 1_555
H5X C13X 1_555 1_555
H5P C13P 1_555 1_555
C10V C11V 1_555 1_555
C10P C10X 1_555 1_555
C10P C11P 1_555 1_555
C10P C11X 1_555 1_555
C10X C11P 1_555 1_555
C10X C11X 1_555 1_555
C11V C12V 1_555 1_555
C11P C13X 1_555 1_555
C11X C12X 1_555 1_555
C11X C13P 1_555 1_555
C12P C13V 1_555 1_555
C12P C13X 1_555 1_555
C12X C13P 1_555 1_555
C12V C13P 1_555 1_555

#END
