
#######################################################################
#
#                 Cambridge Crystallographic Data Centre
#                                CCDC 
#
#######################################################################
#
# If this CIF has been generated from an entry in the Cambridge 
# Structural Database, then it will include bibliographic, chemical, 
# crystal, experimental, refinement or atomic coordinate data resulting 
# from the CCDC's data processing and validation procedures.
#
#######################################################################

data_TOXNIF
_chemical_formula_moiety         '(C16 H8 Al2 O10)n,1.8n(C2 D4)'
_chemical_name_systematic        
"catena-[bis((\m-biphenyl-3,3',5,5'-tetracarboxylato)-bis(\m-hydroxo)-di-aluminium) perdeuteroethylene]"
_symmetry_cell_setting           tetragonal
_symmetry_space_group_name_H-M   'I 41 2 2'
_symmetry_Int_Tables_number      98
_space_group_name_Hall           'I 4bw 2bw'
loop_
_symmetry_equiv_pos_site_id
_symmetry_equiv_pos_as_xyz
1 x,y,z
2 1/2-x,y,3/4-z
3 -y,-x,-z
4 -y,1/2+x,1/4+z
5 1/2+y,-x,3/4+z
6 1/2+y,1/2+x,1/2-z
7 x,1/2-y,1/4-z
8 1/2-x,1/2-y,1/2+z
9 1/2+x,1/2+y,1/2+z
10 -x,1/2+y,1/4-z
11 1/2-y,1/2-x,1/2-z
12 1/2-y,x,3/4+z
13 y,1/2-x,1/4+z
14 y,x,-z
15 1/2+x,-y,3/4-z
16 -x,-y,z
_cell_length_a                   14.794232(96)
_cell_length_b                   14.794232(96)
_cell_length_c                   11.77851(18)
_cell_angle_alpha                90
_cell_angle_beta                 90
_cell_angle_gamma                90
_cell_volume                     2577.95
_cell_formula_units_Z            4
loop_
_atom_site_label
_atom_site_type_symbol
_atom_site_fract_x
_atom_site_fract_y
_atom_site_fract_z
_atom_site_U_iso_or_equiv
_atom_site_thermal_displace_type
Al1 Al 0.69440(43) 0.30560(43) 0.500 0.0063 Uiso
O1 O 0.75598(39) 0.250 0.625 0.0325 Uiso
O2 O 0.62528(56) 0.38097(65) 0.60004(45) 0.0325 Uiso
O3 O 0.60840(61) 0.28741(41) 0.73855(57) 0.0325 Uiso
C1 C 0.59430(43) 0.36287(35) 0.69553(34) 0.0150 Uiso
C2 C 0.54174(16) 0.42975(12) 0.75669(30) 0.0150 Uiso
C3 C 0.500 0.500 0.69743(35) 0.0150 Uiso
C4 C 0.54174(16) 0.42975(12) 0.87521(23) 0.0150 Uiso
C5 C 0.500 0.500 0.93446(22) 0.0150 Uiso
H1 H 0.81682(88) 0.250 0.625 0.0325 Uiso
H2 H 0.500 0.500 0.60828(60) 0.0150 Uiso
H3 H 0.57314(32) 0.37691(34) 0.91978(33) 0.0150 Uiso
O2B O 0.61903(65) 0.37472(56) 1.39996(45) 0.0325 Uiso
O3B O 0.71259(41) 0.39160(61) 1.26145(57) 0.0325 Uiso
C1B C 0.63713(35) 0.40570(43) 1.30447(34) 0.0150 Uiso
C2B C 0.57025(12) 0.45826(16) 1.24331(30) 0.0150 Uiso
C3B C 0.500 0.500 1.30257(35) 0.0150 Uiso
C4B C 0.57025(12) 0.45826(16) 1.12479(23) 0.0150 Uiso
C5B C 0.500 0.500 1.06554(22) 0.0150 Uiso
H2B H 0.500 0.500 1.39172(60) 0.0150 Uiso
H3B H 0.62309(34) 0.42686(32) 1.08022(33) 0.0150 Uiso
O2M O 0.38097(65) 0.62528(56) 1.39996(45) 0.0325 Uiso
O3M O 0.28741(41) 0.60840(61) 1.26145(57) 0.0325 Uiso
C1M C 0.36287(35) 0.59430(43) 1.30447(34) 0.0150 Uiso
C2M C 0.42975(12) 0.54174(16) 1.24331(30) 0.0150 Uiso
C4M C 0.42975(12) 0.54174(16) 1.12479(23) 0.0150 Uiso
H3M H 0.37691(34) 0.57314(32) 1.08022(33) 0.0150 Uiso
O2O O 0.37472(56) 0.61903(65) 0.60004(45) 0.0325 Uiso
O3O O 0.39160(61) 0.71259(41) 0.73855(57) 0.0325 Uiso
C1O C 0.40570(43) 0.63713(35) 0.69553(34) 0.0150 Uiso
C2O C 0.45826(16) 0.57025(12) 0.75669(30) 0.0150 Uiso
C4O C 0.45826(16) 0.57025(12) 0.87521(23) 0.0150 Uiso
H3O H 0.42686(32) 0.62309(34) 0.91978(33) 0.0150 Uiso
Al1A Al 0.80560(43) 0.30560(43) 1.250 0.0063 Uiso
O1A O 0.74402(39) 0.250 1.125 0.0325 Uiso
H1A H 0.68318(88) 0.250 1.125 0.0325 Uiso
Al1_2 Al 0.69440(43) 0.30560(43) 1.500 0.0063 Uiso
Al1C Al 0.69440(43) 0.19440(43) 0.750 0.0063 Uiso
Al1E Al 0.80560(43) 0.19440(43) 1.000 0.0063 Uiso
Al1I Al 0.30560(43) 0.80560(43) 0.750 0.0063 Uiso
Al1K Al 0.19440(43) 0.69440(43) 1.250 0.0063 Uiso
Al1M Al 0.30560(43) 0.69440(43) 0.500 0.0063 Uiso
Al1M_2 Al 0.30560(43) 0.69440(43) 1.500 0.0063 Uiso
O1B O 0.750 0.24402(39) 0.375 0.0325 Uiso
O1B_2 O 0.750 0.24402(39) 1.375 0.0325 Uiso
O2A O 0.87472(56) 0.38097(65) 1.14996(45) 0.0325 Uiso
O2B_2 O 0.61903(65) 0.37472(56) 0.39996(45) 0.0325 Uiso
O2D O 0.88097(65) 0.37472(56) 1.35004(45) 0.0325 Uiso
O3D O 0.78741(41) 0.39160(61) 0.48855(57) 0.0325 Uiso
O3F O 0.60840(61) 0.21259(41) 0.51145(57) 0.0325 Uiso
O3G O 0.89160(61) 0.21259(41) 1.23855(57) 0.0325 Uiso
C6? C 0.1319(15) 0.3314(14) 0.2422(34) 0.0571 Uiso
D1? D 0.1522(20) 0.2617(15) 0.2280(43) 0.0571 Uiso
C7? C 0.0454(14) 0.3510(10) 0.2647(26) 0.0571 Uiso
D2? D -0.0045(16) 0.2972(10) 0.2690(32) 0.0571 Uiso
D3? D 0.1147(17) 0.3182(14) 0.2623(38) 0.0571 Uiso
D4? D 0.0251(12) 0.42078(98) 0.2785(23) 0.0571 Uiso
C8? C 0.01118(43) 0.23260(75) 0.6447(11) 0.0743 Uiso
D5? D 0.01066(64) 0.20654(93) 0.7310(12) 0.0743 Uiso
D6? D -0.05088(52) 0.25780(98) 0.6068(13) 0.0743 Uiso
C9? C 0.08830(52) 0.2338(11) 0.5852(13) 0.0743 Uiso
D7? D 0.08886(87) 0.2601(14) 0.4990(13) 0.0743 Uiso
D8? D 0.15038(49) 0.2087(15) 0.6232(16) 0.0743 Uiso
loop_
_geom_bond_atom_site_label_1
_geom_bond_atom_site_label_2
_geom_bond_site_symmetry_1
_geom_bond_site_symmetry_2
Al1 O1 1_555 1_555
O1 H1 1_555 1_555
O2 Al1 1_555 1_555
O3 C1 1_555 1_555
C1 O2 1_555 1_555
C2 C1 1_555 1_555
C3 C2 1_555 1_555
C4 C2 1_555 1_555
C5 C4 1_555 1_555
H2 C3 1_555 1_555
H3 C4 1_555 1_555
O2B C1B 1_555 1_555
O3B C1B 1_555 1_555
C1B C2B 1_555 1_555
C2B C3B 1_555 1_555
C3B H2B 1_555 1_555
C4B C2B 1_555 1_555
C5B C5 1_555 1_555
H3B C4B 1_555 1_555
O2M C1M 1_555 1_555
O3M C1M 1_555 1_555
C1M C2M 1_555 1_555
C2M C3B 1_555 1_555
C4M C5B 1_555 1_555
H3M C4M 1_555 1_555
O2O C1O 1_555 1_555
O3O C1O 1_555 1_555
C1O C2O 1_555 1_555
C2O C3 1_555 1_555
C4O C5 1_555 1_555
H3O C4O 1_555 1_555
Al1A O3B 1_555 1_555
O1A Al1A 1_555 1_555
H1A O1A 1_555 1_555
Al1_2 O2B 1_555 1_555
Al1C O1 1_555 1_555
Al1E O1A 1_555 1_555
Al1I O3O 1_555 1_555
Al1K O3M 1_555 1_555
Al1M O2O 1_555 1_555
Al1M_2 O2M 1_555 1_555
O1B Al1 1_555 1_555
O1B_2 Al1A 1_555 1_555
O2A Al1A 1_555 1_555
O2B_2 Al1 1_555 1_555
O2D Al1A 1_555 1_555
O3D Al1 1_555 1_555
O3F Al1 1_555 1_555
O3G Al1A 1_555 1_555
O3 Al1C 1_555 1_555
C4B C5B 1_555 1_555
C2M C4M 1_555 1_555
C2O C4O 1_555 1_555
Al1_2 O1B_2 1_555 1_555

#END
