
#######################################################################
#
#                 Cambridge Crystallographic Data Centre
#                                CCDC 
#
#######################################################################
#
# If this CIF has been generated from an entry in the Cambridge 
# Structural Database, then it will include bibliographic, chemical, 
# crystal, experimental, refinement or atomic coordinate data resulting 
# from the CCDC's data processing and validation procedures.
#
#######################################################################

data_XUPSAE
_chemical_name_common            'NOTT-300 deuteroethane solvate'
_chemical_formula_moiety         '(C16 H8 Al2 O10)n,1.3n(C2 D6)'
_chemical_name_systematic        
"catena-[(\m~8~-Biphenyl-3,3',5,5'-tetracarboxylato)-bis(\m~2~-hydroxo)-di-aluminium deuteroethane solvate]"
_symmetry_cell_setting           tetragonal
_symmetry_space_group_name_H-M   'I 41 2 2'
_symmetry_Int_Tables_number      98
_space_group_name_Hall           'I 4bw 2bw'
loop_
_symmetry_equiv_pos_site_id
_symmetry_equiv_pos_as_xyz
1 x,y,z
2 1/2-x,y,3/4-z
3 -y,-x,-z
4 -y,1/2+x,1/4+z
5 1/2+y,-x,3/4+z
6 1/2+y,1/2+x,1/2-z
7 x,1/2-y,1/4-z
8 1/2-x,1/2-y,1/2+z
9 1/2+x,1/2+y,1/2+z
10 -x,1/2+y,1/4-z
11 1/2-y,1/2-x,1/2-z
12 1/2-y,x,3/4+z
13 y,1/2-x,1/4+z
14 y,x,-z
15 1/2+x,-y,3/4-z
16 -x,-y,z
_cell_length_a                   14.79549(11)
_cell_length_b                   14.79549(11)
_cell_length_c                   11.77847(20)
_cell_angle_alpha                90
_cell_angle_beta                 90
_cell_angle_gamma                90
_cell_volume                     2578.38
_cell_formula_units_Z            4
loop_
_atom_site_label
_atom_site_type_symbol
_atom_site_fract_x
_atom_site_fract_y
_atom_site_fract_z
_atom_site_U_iso_or_equiv
_atom_site_thermal_displace_type
Al1 Al 0.69236(49) 0.30764(49) 0.500 0.0063 Uiso
O1 O 0.75199(41) 0.250 0.625 0.0281 Uiso
O2 O 0.62129(55) 0.38032(64) 0.60089(46) 0.0281 Uiso
O3 O 0.60389(60) 0.28756(42) 0.74260(57) 0.0281 Uiso
C1 C 0.59271(43) 0.36141(35) 0.69627(35) 0.0117 Uiso
C2 C 0.54277(16) 0.43043(12) 0.75788(30) 0.0117 Uiso
C3 C 0.500 0.500 0.69866(35) 0.0117 Uiso
C4 C 0.54277(16) 0.43043(12) 0.87633(23) 0.0117 Uiso
C5 C 0.500 0.500 0.93556(22) 0.0117 Uiso
H1 H 0.81282(87) 0.250 0.625 0.0281 Uiso
H2 H 0.500 0.500 0.61214(62) 0.0117 Uiso
H3 H 0.57401(32) 0.37962(35) 0.91959(34) 0.0117 Uiso
O2B O 0.61968(64) 0.37871(55) 1.39911(46) 0.0281 Uiso
O3B O 0.71244(42) 0.39611(60) 1.25740(57) 0.0281 Uiso
C1B C 0.63859(35) 0.40729(43) 1.30373(35) 0.0117 Uiso
C2B C 0.56957(12) 0.45723(16) 1.24212(30) 0.0117 Uiso
C3B C 0.500 0.500 1.30134(35) 0.0117 Uiso
C4B C 0.56957(12) 0.45723(16) 1.12367(23) 0.0117 Uiso
C5B C 0.500 0.500 1.06444(22) 0.0117 Uiso
H2B H 0.500 0.500 1.38786(62) 0.0117 Uiso
H3B H 0.62038(35) 0.42599(32) 1.08041(34) 0.0117 Uiso
O2M O 0.38032(64) 0.62129(55) 1.39911(46) 0.0281 Uiso
O3M O 0.28756(42) 0.60389(60) 1.25740(57) 0.0281 Uiso
C1M C 0.36141(35) 0.59271(43) 1.30373(35) 0.0117 Uiso
C2M C 0.43043(12) 0.54277(16) 1.24212(30) 0.0117 Uiso
C4M C 0.43043(12) 0.54277(16) 1.12367(23) 0.0117 Uiso
H3M H 0.37962(35) 0.57401(32) 1.08041(34) 0.0117 Uiso
O2O O 0.37871(55) 0.61968(64) 0.60089(46) 0.0281 Uiso
O3O O 0.39611(60) 0.71244(42) 0.74260(57) 0.0281 Uiso
C1O C 0.40729(43) 0.63859(35) 0.69627(35) 0.0117 Uiso
C2O C 0.45723(16) 0.56957(12) 0.75788(30) 0.0117 Uiso
C4O C 0.45723(16) 0.56957(12) 0.87633(23) 0.0117 Uiso
H3O H 0.42599(32) 0.62038(35) 0.91959(34) 0.0117 Uiso
Al1A Al 0.80764(49) 0.30764(49) 1.250 0.0063 Uiso
O1A O 0.74801(41) 0.250 1.125 0.0281 Uiso
H1A H 0.68718(87) 0.250 1.125 0.0281 Uiso
Al1_2 Al 0.69236(49) 0.30764(49) 1.500 0.0063 Uiso
Al1C Al 0.69236(49) 0.19236(49) 0.750 0.0063 Uiso
Al1E Al 0.80764(49) 0.19236(49) 1.000 0.0063 Uiso
Al1I Al 0.30764(49) 0.80764(49) 0.750 0.0063 Uiso
Al1K Al 0.19236(49) 0.69236(49) 1.250 0.0063 Uiso
Al1M Al 0.30764(49) 0.69236(49) 0.500 0.0063 Uiso
Al1M_2 Al 0.30764(49) 0.69236(49) 1.500 0.0063 Uiso
O1B O 0.750 0.24801(41) 0.375 0.0281 Uiso
O1B_2 O 0.750 0.24801(41) 1.375 0.0281 Uiso
O2A O 0.87871(55) 0.38032(64) 1.14911(46) 0.0281 Uiso
O2B_2 O 0.61968(64) 0.37871(55) 0.39911(46) 0.0281 Uiso
O2D O 0.88032(64) 0.37871(55) 1.35089(46) 0.0281 Uiso
O3D O 0.78756(42) 0.39611(60) 0.49260(57) 0.0281 Uiso
O3F O 0.60389(60) 0.21244(42) 0.50740(57) 0.0281 Uiso
O3G O 0.89611(60) 0.21244(42) 1.24260(57) 0.0281 Uiso
C6? C 0.00907(47) 0.22315(63) 0.62643(88) 0.0380 Uiso
D1? D 0.01336(67) 0.26323(88) 0.53252(89) 0.0380 Uiso
D2? D -0.05079(59) 0.25677(82) 0.5922(10) 0.0380 Uiso
D3? D 0.00323(86) 0.15044(63) 0.6118(12) 0.0380 Uiso
D4? D 0.15338(49) 0.2240(16) 0.6017(14) 0.0380 Uiso
D5? D 0.20384(90) 0.2750(10) 0.2888(19) 0.0258 Uiso
C7? C 0.13663(84) 0.29724(79) 0.2623(14) 0.0258 Uiso
D6? D 0.1662(18) 0.43878(83) 0.2842(23) 0.0258 Uiso
D7? D 0.1871(17) 0.3964(16) 0.1443(20) 0.0258 Uiso
D8? D 0.2046(13) 0.4087(11) 0.1645(16) 0.0258 Uiso
C8? C 0.1412(14) 0.39441(89) 0.2170(19) 0.0258 Uiso
D9? D 0.1117(12) 0.25191(92) 0.1960(16) 0.0258 Uiso
D10? D 0.0736(16) 0.4156(10) 0.1909(25) 0.0258 Uiso
D11? D 0.08885(89) 0.2441(17) 0.4757(11) 0.0380 Uiso
D12? D 0.0997(12) 0.3311(12) 0.5804(17) 0.0380 Uiso
C9? C 0.09423(64) 0.2583(12) 0.5665(12) 0.0380 Uiso
loop_
_geom_bond_atom_site_label_1
_geom_bond_atom_site_label_2
_geom_bond_site_symmetry_1
_geom_bond_site_symmetry_2
Al1 O1 1_555 1_555
O1 H1 1_555 1_555
O2 Al1 1_555 1_555
O3 C1 1_555 1_555
C1 O2 1_555 1_555
C2 C1 1_555 1_555
C3 C2 1_555 1_555
C4 C2 1_555 1_555
C5 C4 1_555 1_555
H2 C3 1_555 1_555
H3 C4 1_555 1_555
O2B C1B 1_555 1_555
O3B C1B 1_555 1_555
C1B C2B 1_555 1_555
C2B C3B 1_555 1_555
C3B H2B 1_555 1_555
C4B C2B 1_555 1_555
C5B C5 1_555 1_555
H3B C4B 1_555 1_555
O2M C1M 1_555 1_555
O3M C1M 1_555 1_555
C1M C2M 1_555 1_555
C2M C3B 1_555 1_555
C4M C5B 1_555 1_555
H3M C4M 1_555 1_555
O2O C1O 1_555 1_555
O3O C1O 1_555 1_555
C1O C2O 1_555 1_555
C2O C3 1_555 1_555
C4O C5 1_555 1_555
H3O C4O 1_555 1_555
Al1A O3B 1_555 1_555
O1A Al1A 1_555 1_555
H1A O1A 1_555 1_555
Al1_2 O2B 1_555 1_555
Al1C O1 1_555 1_555
Al1E O1A 1_555 1_555
Al1I O3O 1_555 1_555
Al1K O3M 1_555 1_555
Al1M O2O 1_555 1_555
Al1M_2 O2M 1_555 1_555
O1B Al1 1_555 1_555
O1B_2 Al1A 1_555 1_555
O2A Al1A 1_555 1_555
O2B_2 Al1 1_555 1_555
O2D Al1A 1_555 1_555
O3D Al1 1_555 1_555
O3F Al1 1_555 1_555
O3G Al1A 1_555 1_555
O3 Al1C 1_555 1_555
C4B C5B 1_555 1_555
C2M C4M 1_555 1_555
C2O C4O 1_555 1_555
Al1_2 O1B_2 1_555 1_555

#END
