
#######################################################################
#
#                 Cambridge Crystallographic Data Centre
#                                CCDC 
#
#######################################################################
#
# If this CIF has been generated from an entry in the Cambridge 
# Structural Database, then it will include bibliographic, chemical, 
# crystal, experimental, refinement or atomic coordinate data resulting 
# from the CCDC's data processing and validation procedures.
#
#######################################################################

data_IWESOT
_chemical_formula_moiety         
'(C168 H204 F12 N36 Ni6 O24)n,6n(C3 H7 N1 O1),2n(H2 O1)'
_chemical_name_systematic        
'catena-(tetrakis(\m~3~-Benzene-1,3,5-tricarboxylato)-hexakis(3,10-bis(2-fluorobenzyl)-1,3,5,8,10,12-hexa-azacyclotetradecane)-hexa-nickel dimethylformamide solvate dihydrate)'
_symmetry_cell_setting           triclinic
_symmetry_space_group_name_H-M   'P -1'
_symmetry_Int_Tables_number      2
_space_group_name_Hall           '-P 1'
loop_
_symmetry_equiv_pos_site_id
_symmetry_equiv_pos_as_xyz
1 x,y,z
2 -x,-y,-z
_cell_length_a                   16.5659(6)
_cell_length_b                   17.3791(5)
_cell_length_c                   18.8432(6)
_cell_angle_alpha                112.489(3)
_cell_angle_beta                 92.471(3)
_cell_angle_gamma                102.115(3)
_cell_volume                     4854.85
_exptl_crystal_colour            pink
_exptl_crystal_description       block
_cell_formula_units_Z            1
loop_
_atom_site_label
_atom_site_type_symbol
_atom_site_fract_x
_atom_site_fract_y
_atom_site_fract_z
C1 C 0.39099(19) 0.0371(2) 0.11087(18)
H1 H 0.3888 0.0521 0.0652
H2 H 0.3555 0.0674 0.1472
C2 C 0.35959(18) -0.05984(19) 0.08544(16)
H3 H 0.3007 -0.0789 0.0611
H4 H 0.3932 -0.0902 0.0470
C3 C 0.35339(17) -0.17266(17) 0.13661(15)
H5 H 0.2960 -0.2023 0.1096
H6 H 0.3924 -0.1959 0.1005
C4 C 0.30389(17) -0.17326(19) 0.25923(16)
H7 H 0.3091 -0.1105 0.2819
H8 H 0.3175 -0.1902 0.3020
C5 C 0.21520(17) -0.21840(17) 0.22290(15)
C6 C 0.16123(18) -0.17706(18) 0.20242(16)
H9 H 0.1804 -0.1180 0.2120
C7 C 0.07959(18) -0.22002(19) 0.16810(16)
H10 H 0.0435 -0.1902 0.1550
C8 C 0.05108(18) -0.30598(19) 0.15313(17)
H11 H -0.0041 -0.3357 0.1283
C9 C 0.10270(18) -0.34874(19) 0.17419(19)
H12 H 0.0837 -0.4078 0.1647
C10 C 0.18230(17) -0.30360(18) 0.20919(17)
C11 C 0.44960(17) -0.16681(18) 0.24233(18)
H13 H 0.4867 -0.1865 0.2029
H14 H 0.4528 -0.1960 0.2780
C12 C 0.56739(18) -0.0452(2) 0.32687(17)
H15 H 0.6041 -0.0737 0.2908
H16 H 0.5695 -0.0613 0.3718
C13 C 0.59636(18) 0.05155(19) 0.35380(16)
H17 H 0.5610 0.0801 0.3914
H18 H 0.6547 0.0719 0.3796
C14 C 0.60097(18) 0.16514(18) 0.30292(17)
H19 H 0.5580 0.1862 0.3348
H20 H 0.6562 0.1974 0.3339
C15 C 0.66102(19) 0.1629(2) 0.18477(19)
H21 H 0.6522 0.1774 0.1395
H22 H 0.6580 0.1006 0.1652
C16 C 0.7456(2) 0.2126(2) 0.22942(19)
C17 C 0.8726(3) 0.2261(4) 0.3056(2)
H23 H 0.9068 0.2009 0.3275
C18 C 0.8978(3) 0.3117(4) 0.3169(3)
H24 H 0.9492 0.3461 0.3483
C19 C 0.8491(3) 0.3480(3) 0.2829(3)
H25 H 0.8671 0.4061 0.2889
C20 C 0.51262(19) 0.15837(19) 0.1913(2)
H26 H 0.5147 0.1847 0.1529
H27 H 0.4740 0.1821 0.2276
C21 C 0.34181(17) 0.51352(18) 0.70410(17)
H28 H 0.2913 0.5314 0.7236
H29 H 0.3242 0.4594 0.6571
C22 C 0.39664(18) 0.58308(19) 0.68473(18)
H30 H 0.3659 0.5923 0.6436
H31 H 0.4122 0.6378 0.7313
C23 C 0.54264(17) 0.62575(18) 0.65822(17)
H32 H 0.5231 0.6516 0.6242
H33 H 0.5572 0.6710 0.7115
C24 C 0.61111(17) 0.54943(19) 0.54856(16)
H34 H 0.5778 0.5730 0.5208
H35 H 0.5820 0.4887 0.5351
C25 C 0.69660(18) 0.55347(19) 0.52232(16)
C26 C 0.74153(19) 0.6272(2) 0.51524(17)
H36 H 0.7190 0.6761 0.5288
C27 C 0.8181(2) 0.6302(2) 0.48890(19)
H37 H 0.8471 0.6806 0.4837
C28 C 0.8524(2) 0.5613(3) 0.4702(2)
H38 H 0.9049 0.5640 0.4516
C29 C 0.8115(2) 0.4879(3) 0.4782(2)
H39 H 0.8354 0.4400 0.4665
C30 C 0.7343(2) 0.4865(2) 0.5039(2)
C31 C 0.66123(16) 0.56804(17) 0.68039(15)
H40 H 0.6734 0.6122 0.7342
H41 H 0.7151 0.5610 0.6614
C32 C 0.66228(16) 0.45196(18) 0.72535(16)
H42 H 0.6917 0.4990 0.7746
H43 H 0.7043 0.4261 0.6951
C33 C 0.60094(17) 0.38417(19) 0.74201(17)
H44 H 0.5738 0.3356 0.6928
H45 H 0.6306 0.3619 0.7737
C34 C 0.34952(16) 0.42927(18) 0.78452(15)
H46 H 0.3029 0.4457 0.8131
H47 H 0.3254 0.3784 0.7360
C35 C 0.43501(19) 0.4697(2) 0.91001(17)
H48 H 0.4581 0.5258 0.9075
H49 H 0.4812 0.4533 0.9313
C36 C 0.37037(18) 0.4800(2) 0.96473(16)
C37 C 0.3057(2) 0.5706(2) 1.0656(2)
H50 H 0.3007 0.6266 1.0971
C38 C 0.2584(2) 0.4994(2) 1.07333(18)
H51 H 0.2195 0.5061 1.1095
C39 C 0.2677(3) 0.4186(2) 1.0285(2)
H52 H 0.2363 0.3694 1.0343
C40 C 0.46555(18) 0.36440(19) 0.79352(18)
H53 H 0.4400 0.3198 0.7417
H54 H 0.4856 0.3353 0.8243
C41 C -0.06634(18) -0.01780(18) 0.35144(15)
H55 H -0.0707 0.0062 0.3119
H56 H -0.1210 -0.0562 0.3482
C42 C 0.00035(18) -0.06787(18) 0.33670(15)
H57 H -0.0144 -0.1164 0.2852
H58 H 0.0546 -0.0302 0.3375
C43 C 0.07880(18) -0.13766(18) 0.39950(16)
H59 H 0.0729 -0.1888 0.3504
H60 H 0.1301 -0.0951 0.4019
C44 C -0.0217(2) 0.23488(19) 0.53792(18)
H61 H 0.0329 0.2217 0.5439
H62 H -0.0281 0.2409 0.4880
C45 C -0.0225(2) 0.3189(2) 0.60324(19)
C46 C 0.0426(3) 0.3577(2) 0.6659(2)
H63 H 0.0851 0.3292 0.6684
C47 C 0.0449(4) 0.4367(3) 0.7237(3)
H64 H 0.0895 0.4637 0.7653
C48 C -0.0159(4) 0.4744(3) 0.7203(3)
H65 H -0.0141 0.5277 0.7618
C49 C -0.0815(3) 0.4426(3) 0.6616(3)
H66 H -0.1233 0.4722 0.6607
C50 C -0.0816(3) 0.3619(3) 0.6025(3)
C51 C -0.11145(19) 0.09364(19) 0.45927(17)
H67 H -0.1303 0.1166 0.4226
H68 H -0.1591 0.0493 0.4608
C52 C 0.97896(17) 0.05791(18) 0.15940(15)
H69 H 0.9244 0.0175 0.1525
H70 H 0.9877 0.1046 0.2118
C53 C 1.04824(17) 0.01132(18) 0.15083(15)
H71 H 1.1030 0.0524 0.1605
H72 H 1.0477 -0.0150 0.1891
C54 C 1.10869(17) -0.09163(18) 0.04871(17)
H73 H 1.1570 -0.0440 0.0546
H74 H 1.1226 -0.1178 0.0845
C55 C 0.96084(19) 0.23826(18) 0.0438(2)
H75 H 0.9998 0.2567 0.0919
H76 H 0.9943 0.2312 0.0004
C56 C 0.9155(2) 0.30792(18) 0.05163(17)
C57 C 0.9580(2) 0.3855(2) 0.05167(19)
C58 C 0.9225(3) 0.4523(2) 0.0592(2)
H77 H 0.9542 0.5041 0.0582
C59 C 0.8393(3) 0.4418(2) 0.0683(2)
H78 H 0.8130 0.4871 0.0741
C60 C 0.7939(3) 0.3659(3) 0.0690(2)
H79 H 0.7367 0.3590 0.0757
C61 C 0.8324(2) 0.2995(2) 0.0599(2)
H80 H 0.8004 0.2470 0.0594
C62 C 0.90586(17) 0.12685(18) 0.09186(16)
H81 H 0.8549 0.0810 0.0829
H82 H 0.9049 0.1754 0.1411
C63 C 0.45261(16) 0.33132(16) 0.56980(15)
C64 C 0.38826(15) 0.24912(16) 0.52226(15)
C65 C 0.39940(16) 0.19819(16) 0.44750(15)
H83 H 0.4494 0.2134 0.4278
C66 C 0.33815(16) 0.12525(16) 0.40140(15)
C67 C 0.34866(17) 0.07082(16) 0.31929(15)
C68 C 0.26544(16) 0.10328(16) 0.43095(14)
H84 H 0.2234 0.0535 0.3996
C69 C 0.25339(15) 0.15303(16) 0.50565(14)
C70 C 0.17223(16) 0.13148(17) 0.53572(15)
C71 C 0.31492(16) 0.22571(16) 0.55078(14)
H85 H 0.3071 0.2601 0.6018
C72 C 0.53970(16) -0.33556(18) -0.12801(16)
C73 C 0.60450(16) -0.25832(16) -0.07130(15)
C74 C 0.68661(16) -0.23977(16) -0.08584(14)
H86 H 0.7032 -0.2772 -0.1313
C75 C 0.74456(15) -0.16676(16) -0.03420(14)
C76 C 0.83333(15) -0.14357(16) -0.05053(14)
C77 C 0.71993(15) -0.11438(16) 0.03348(14)
H87 H 0.7590 -0.0644 0.0689
C78 C 0.63901(16) -0.13398(16) 0.05027(14)
C79 C 0.61705(16) -0.07866(16) 0.12708(15)
C80 C 0.58109(16) -0.20502(16) -0.00369(15)
H88 H 0.5250 -0.2171 0.0059
N1 N 0.47837(15) 0.06356(15) 0.14965(14)
H103 H 0.5108 0.0441 0.1122
N2 N 0.36683(13) -0.07978(14) 0.15448(12)
H104 H 0.3263 -0.0614 0.1827
N3 N 0.36491(14) -0.19260(14) 0.20386(13)
N4 N 0.48097(14) -0.07242(14) 0.28723(13)
H105 H 0.4471 -0.0553 0.3240
N5 N 0.59033(14) 0.07257(14) 0.28571(12)
H106 H 0.6318 0.0554 0.2581
N6 N 0.59463(15) 0.18275(15) 0.23404(15)
N7 N 0.39088(13) 0.50047(14) 0.76417(12)
H107 H 0.4000 0.5495 0.8080
N8 N 0.47277(14) 0.55537(14) 0.65776(13)
H108 H 0.4584 0.5157 0.6080
N9 N 0.61702(14) 0.59832(14) 0.63270(13)
N10 N 0.61510(13) 0.48586(13) 0.68096(12)
H109 H 0.6031 0.4465 0.6310
N11 N 0.53799(14) 0.42496(15) 0.78426(13)
H110 H 0.5633 0.4630 0.8324
N12 N 0.40282(14) 0.40520(16) 0.83090(13)
N13 N -0.04345(14) 0.05278(15) 0.42983(12)
H111 H -0.0004 0.0938 0.4277
N14 N 0.00641(14) -0.10035(14) 0.39795(12)
H112 H -0.0403 -0.1430 0.3888
N15 N -0.08846(16) 0.16278(15) 0.53589(14)
N16 N 0.97977(13) 0.09369(14) 0.10024(12)
H113 H 1.0252 0.1389 0.1150
N17 N 1.03518(13) -0.05580(14) 0.07153(12)
H114 H 0.9918 -0.0996 0.0680
N18 N 0.90415(14) 0.15531(14) 0.02975(14)
Ni1 Ni 0.47951(3) -0.00387(3) 0.21931(2)
Ni2 Ni 0.50393(2) 0.49328(3) 0.72498(2)
Ni3 Ni 0.0000 0.0000 0.5000
Ni4 Ni 1.0000 0.0000 0.0000
O1 O 0.42255(11) 0.07972(12) 0.30299(11)
O2 O 0.28464(11) 0.02198(12) 0.27393(11)
O3 O 0.43814(11) 0.37408(11) 0.63704(10)
O4 O 0.51469(12) 0.35236(13) 0.53968(11)
O5 O 0.12216(11) 0.06031(12) 0.49317(10)
O6 O 0.16005(12) 0.18447(13) 0.59893(11)
O7 O 0.56695(11) -0.39129(11) -0.18098(10)
O8 O 0.46545(12) -0.33811(14) -0.11915(14)
O9 O 0.87488(10) -0.06799(11) -0.00951(10)
O10 O 0.85875(11) -0.19932(12) -0.10313(11)
O11 O 0.67628(11) -0.03228(12) 0.17961(10)
O12 O 0.53993(11) -0.08376(12) 0.13244(10)
F1 F 0.23144(11) -0.34567(12) 0.23251(12)
C87 C 0.7966(2) 0.1784(3) 0.2617(2)
H117 H 0.7789 0.1196 0.2536
C88 C 0.7745(2) 0.2973(2) 0.2409(2)
F2 F 0.72672(18) 0.33123(17) 0.2076(2)
F3 F 0.69460(15) 0.41458(14) 0.51193(17)
C89 C 0.3602(2) 0.5591(2) 1.0114(2)
H118 H 0.3922 0.6084 1.0061
C90 C 0.3231(2) 0.4104(2) 0.97535(19)
F4 F 0.3419(3) 0.3298(2) 0.94260(19)
F5 F -0.14231(19) 0.32788(19) 0.5431(2)
F6 F 1.04094(14) 0.39622(13) 0.04333(14)
C1A C -0.39099(19) -0.0371(2) 0.88913(18)
H1A H -0.3888 -0.0521 0.9348
H2A H -0.3555 -0.0674 0.8528
C2A C -0.35959(18) 0.05984(19) 0.91456(16)
H3A H -0.3007 0.0789 0.9389
H4A H -0.3932 0.0902 0.9530
C3A C -0.35339(17) 0.17266(17) 0.86339(15)
H5A H -0.2960 0.2023 0.8904
H6A H -0.3924 0.1959 0.8995
C4A C -0.30389(17) 0.17326(19) 0.74077(16)
H7A H -0.3091 0.1105 0.7181
H8A H -0.3175 0.1902 0.6980
C5A C -0.21520(17) 0.21840(17) 0.77710(15)
C6A C -0.16123(18) 0.17706(18) 0.79758(16)
H9A H -0.1804 0.1180 0.7880
C7A C -0.07959(18) 0.22002(19) 0.83190(16)
H10A H -0.0435 0.1902 0.8450
C8A C -0.05108(18) 0.30598(19) 0.84687(17)
H11A H 0.0041 0.3357 0.8717
C9A C -0.10270(18) 0.34874(19) 0.82581(19)
H12A H -0.0837 0.4078 0.8353
C10A C -0.18230(17) 0.30360(18) 0.79081(17)
C11A C -0.44960(17) 0.16681(18) 0.75767(18)
H13A H -0.4867 0.1865 0.7971
H14A H -0.4528 0.1960 0.7220
C12A C -0.56739(18) 0.0452(2) 0.67313(17)
H15A H -0.6041 0.0737 0.7092
H16A H -0.5695 0.0613 0.6282
C13A C -0.59636(18) -0.05155(19) 0.64620(16)
H17A H -0.5610 -0.0801 0.6086
H18A H -0.6547 -0.0719 0.6204
C14A C -0.60097(18) -0.16514(18) 0.69708(17)
H19A H -0.5580 -0.1862 0.6652
H20A H -0.6562 -0.1974 0.6661
C15A C -0.66102(19) -0.1629(2) 0.81523(19)
H21A H -0.6522 -0.1774 0.8605
H22A H -0.6580 -0.1006 0.8348
C16A C -0.7456(2) -0.2126(2) 0.77058(19)
C17A C -0.8726(3) -0.2261(4) 0.6944(2)
H23A H -0.9068 -0.2009 0.6725
C18A C -0.8978(3) -0.3117(4) 0.6831(3)
H24A H -0.9492 -0.3461 0.6517
C19A C -0.8491(3) -0.3480(3) 0.7171(3)
H25A H -0.8671 -0.4061 0.7111
C20A C -0.51262(19) -0.15837(19) 0.8087(2)
H26A H -0.5147 -0.1847 0.8471
H27A H -0.4740 -0.1821 0.7724
C21A C -0.34181(17) -0.51352(18) 0.29590(17)
H28A H -0.2913 -0.5314 0.2764
H29A H -0.3242 -0.4594 0.3429
C22A C -0.39664(18) -0.58308(19) 0.31527(18)
H30A H -0.3659 -0.5923 0.3564
H31A H -0.4122 -0.6378 0.2687
C23A C -0.54264(17) -0.62575(18) 0.34178(17)
H32A H -0.5231 -0.6516 0.3758
H33A H -0.5572 -0.6710 0.2885
C24A C -0.61111(17) -0.54943(19) 0.45144(16)
H34A H -0.5778 -0.5730 0.4792
H35A H -0.5820 -0.4887 0.4649
C25A C -0.69660(18) -0.55347(19) 0.47768(16)
C26A C -0.74153(19) -0.6272(2) 0.48476(17)
H36A H -0.7190 -0.6761 0.4712
C27A C -0.8181(2) -0.6302(2) 0.51110(19)
H37A H -0.8471 -0.6806 0.5163
C28A C -0.8524(2) -0.5613(3) 0.5298(2)
H38A H -0.9049 -0.5640 0.5484
C29A C -0.8115(2) -0.4879(3) 0.5218(2)
H39A H -0.8354 -0.4400 0.5335
C30A C -0.7343(2) -0.4865(2) 0.4961(2)
C31A C -0.66123(16) -0.56804(17) 0.31961(15)
H40A H -0.6734 -0.6122 0.2658
H41A H -0.7151 -0.5610 0.3386
C32A C -0.66228(16) -0.45196(18) 0.27465(16)
H42A H -0.6917 -0.4990 0.2254
H43A H -0.7043 -0.4261 0.3049
C33A C -0.60094(17) -0.38417(19) 0.25799(17)
H44A H -0.5738 -0.3356 0.3072
H45A H -0.6306 -0.3619 0.2263
C34A C -0.34952(16) -0.42927(18) 0.21548(15)
H46A H -0.3029 -0.4457 0.1869
H47A H -0.3254 -0.3784 0.2640
C35A C -0.43501(19) -0.4697(2) 0.08999(17)
H48A H -0.4581 -0.5258 0.0925
H49A H -0.4812 -0.4533 0.0687
C36A C -0.37037(18) -0.4800(2) 0.03527(16)
C37A C -0.3057(2) -0.5706(2) -0.0656(2)
H50A H -0.3007 -0.6266 -0.0971
C38A C -0.2584(2) -0.4994(2) -0.07333(18)
H51A H -0.2195 -0.5061 -0.1095
C39A C -0.2677(3) -0.4186(2) -0.0285(2)
H52A H -0.2363 -0.3694 -0.0343
C40A C -0.46555(18) -0.36440(19) 0.20648(18)
H53A H -0.4400 -0.3198 0.2583
H54A H -0.4856 -0.3353 0.1757
C41A C 0.06634(18) 0.01780(18) 0.64856(15)
H55A H 0.0707 -0.0062 0.6881
H56A H 0.1210 0.0562 0.6518
C42A C -0.00035(18) 0.06787(18) 0.66330(15)
H57A H 0.0144 0.1164 0.7148
H58A H -0.0546 0.0302 0.6625
C43A C -0.07880(18) 0.13766(18) 0.60050(16)
H59A H -0.0729 0.1888 0.6496
H60A H -0.1301 0.0951 0.5981
C44A C 0.0217(2) -0.23488(19) 0.46208(18)
H61A H -0.0329 -0.2217 0.4561
H62A H 0.0281 -0.2409 0.5120
C45A C 0.0225(2) -0.3189(2) 0.39676(19)
C46A C -0.0426(3) -0.3577(2) 0.3341(2)
H63A H -0.0851 -0.3292 0.3316
C47A C -0.0449(4) -0.4367(3) 0.2763(3)
H64A H -0.0895 -0.4637 0.2347
C48A C 0.0159(4) -0.4744(3) 0.2797(3)
H65A H 0.0141 -0.5277 0.2382
C49A C 0.0815(3) -0.4426(3) 0.3384(3)
H66A H 0.1233 -0.4722 0.3393
C50A C 0.0816(3) -0.3619(3) 0.3975(3)
C51A C 0.11145(19) -0.09364(19) 0.54073(17)
H67A H 0.1303 -0.1166 0.5774
H68A H 0.1591 -0.0493 0.5392
C52A C 1.02104(17) -0.05791(18) -0.15940(15)
H69A H 1.0756 -0.0175 -0.1525
H70A H 1.0123 -0.1046 -0.2118
C53A C 0.95176(17) -0.01132(18) -0.15083(15)
H71A H 0.8970 -0.0524 -0.1605
H72A H 0.9523 0.0150 -0.1891
C54A C 0.89131(17) 0.09163(18) -0.04871(17)
H73A H 0.8430 0.0440 -0.0546
H74A H 0.8774 0.1178 -0.0845
C55A C 1.03916(19) -0.23826(18) -0.0438(2)
H75A H 1.0002 -0.2567 -0.0919
H76A H 1.0057 -0.2312 -0.0004
C56A C 1.0845(2) -0.30792(18) -0.05163(17)
C57A C 1.0420(2) -0.3855(2) -0.05167(19)
C58A C 1.0775(3) -0.4523(2) -0.0592(2)
H77A H 1.0458 -0.5041 -0.0582
C59A C 1.1607(3) -0.4418(2) -0.0683(2)
H78A H 1.1870 -0.4871 -0.0741
C60A C 1.2061(3) -0.3659(3) -0.0690(2)
H79A H 1.2633 -0.3590 -0.0757
C61A C 1.1676(2) -0.2995(2) -0.0599(2)
H80A H 1.1996 -0.2470 -0.0594
C62A C 1.09414(17) -0.12685(18) -0.09186(16)
H81A H 1.1451 -0.0810 -0.0829
H82A H 1.0951 -0.1754 -0.1411
C63A C -0.45261(16) -0.33132(16) 0.43020(15)
C64A C -0.38826(15) -0.24912(16) 0.47774(15)
C65A C -0.39940(16) -0.19819(16) 0.55250(15)
H83A H -0.4494 -0.2134 0.5722
C66A C -0.33815(16) -0.12525(16) 0.59860(15)
C67A C -0.34866(17) -0.07082(16) 0.68071(15)
C68A C -0.26544(16) -0.10328(16) 0.56905(14)
H84A H -0.2234 -0.0535 0.6004
C69A C -0.25339(15) -0.15303(16) 0.49435(14)
C70A C -0.17223(16) -0.13148(17) 0.46428(15)
C71A C -0.31492(16) -0.22571(16) 0.44922(14)
H85A H -0.3071 -0.2601 0.3982
C72_2 C 0.53970(16) 0.66444(18) 0.87199(16)
C73_2 C 0.60450(16) 0.74168(16) 0.92870(15)
C74_2 C 0.68661(16) 0.76023(16) 0.91416(14)
H86_2 H 0.7032 0.7228 0.8687
C75_2 C 0.74456(15) 0.83324(16) 0.96580(14)
C76_2 C 0.83333(15) 0.85643(16) 0.94947(14)
C77_2 C 0.71993(15) 0.88562(16) 1.03348(14)
H87_2 H 0.7590 0.9356 1.0689
C78_2 C 0.63901(16) 0.86602(16) 1.05027(14)
C79_2 C 0.61705(16) 0.92134(16) 1.12708(15)
C80_2 C 0.58109(16) 0.79498(16) 0.99631(15)
H88_2 H 0.5250 0.7829 1.0059
N1A N -0.47837(15) -0.06356(15) 0.85035(14)
H103A H -0.5108 -0.0441 0.8878
N2A N -0.36683(13) 0.07978(14) 0.84552(12)
H104A H -0.3263 0.0614 0.8173
N3A N -0.36491(14) 0.19260(14) 0.79614(13)
N4A N -0.48097(14) 0.07242(14) 0.71277(13)
H105A H -0.4471 0.0553 0.6760
N5A N -0.59033(14) -0.07257(14) 0.71429(12)
H106A H -0.6318 -0.0554 0.7419
N6A N -0.59463(15) -0.18275(15) 0.76596(15)
N7A N -0.39088(13) -0.50047(14) 0.23583(12)
H107A H -0.4000 -0.5495 0.1920
N8A N -0.47277(14) -0.55537(14) 0.34224(13)
H108A H -0.4584 -0.5157 0.3920
N9A N -0.61702(14) -0.59832(14) 0.36730(13)
N10A N -0.61510(13) -0.48586(13) 0.31904(12)
H109A H -0.6031 -0.4465 0.3690
N11A N -0.53799(14) -0.42496(15) 0.21574(13)
H110A H -0.5633 -0.4630 0.1676
N12A N -0.40282(14) -0.40520(16) 0.16910(13)
N13A N 0.04345(14) -0.05278(15) 0.57017(12)
H111A H 0.0004 -0.0938 0.5723
N14A N -0.00641(14) 0.10035(14) 0.60205(12)
H112A H 0.0403 0.1430 0.6112
N15A N 0.08846(16) -0.16278(15) 0.46411(14)
N16A N 1.02023(13) -0.09369(14) -0.10024(12)
H113A H 0.9748 -0.1389 -0.1150
N17A N 0.96482(13) 0.05580(14) -0.07153(12)
H114A H 1.0082 0.0996 -0.0680
N18A N 1.09585(14) -0.15531(14) -0.02975(14)
Ni1A Ni -0.47951(3) 0.00387(3) 0.78069(2)
Ni1_2 Ni 0.47951(3) 0.99613(3) 1.21931(2)
Ni2A Ni -0.50393(2) -0.49328(3) 0.27502(2)
Ni2_2 Ni 0.50393(2) -0.50672(3) -0.27502(2)
Ni4_2 Ni 1.0000 1.0000 1.0000
O1A O -0.42255(11) -0.07972(12) 0.69701(11)
O2A O -0.28464(11) -0.02198(12) 0.72607(11)
O3A O -0.43814(11) -0.37408(11) 0.36296(10)
O4A O -0.51469(12) -0.35236(13) 0.46032(11)
O5A O -0.12216(11) -0.06031(12) 0.50683(10)
O6A O -0.16005(12) -0.18447(13) 0.40107(11)
O7_2 O 0.56695(11) 0.60871(11) 0.81902(10)
O7A O -0.56695(11) -0.60871(11) 0.18098(10)
O8_2 O 0.46545(12) 0.66189(14) 0.88085(14)
O9_2 O 0.87488(10) 0.93201(11) 0.99049(10)
O9A O 1.12512(10) 0.06799(11) 0.00951(10)
O10_2 O 0.85875(11) 0.80068(12) 0.89687(11)
O11_2 O 0.67628(11) 0.96772(12) 1.17961(10)
O12_2 O 0.53993(11) 0.91624(12) 1.13244(10)
O12A O -0.53993(11) 0.08376(12) 0.86756(10)
F1A F -0.23144(11) 0.34567(12) 0.76749(12)
C87A C -0.7966(2) -0.1784(3) 0.7383(2)
H117A H -0.7789 -0.1196 0.7464
C88A C -0.7745(2) -0.2973(2) 0.7591(2)
F2A F -0.72672(18) -0.33123(17) 0.7924(2)
F3A F -0.69460(15) -0.41458(14) 0.48807(17)
C89A C -0.3602(2) -0.5591(2) -0.0114(2)
H118A H -0.3922 -0.6084 -0.0061
C90A C -0.3231(2) -0.4104(2) 0.02465(19)
F4A F -0.3419(3) -0.3298(2) 0.05740(19)
F5A F 0.14231(19) -0.32788(19) 0.4569(2)
F6A F 0.95906(14) -0.39622(13) -0.04333(14)
C81 C 0.84440(19) 0.8430(2) 0.15828(19)
H89 H 0.8216 0.8884 0.1573
C82 C 0.8375(2) 0.7271(2) 0.2005(2)
H90 H 0.8027 0.6726 0.1624
H91 H 0.8348 0.7282 0.2527
H92 H 0.8953 0.7329 0.1898
C83 C 0.73355(19) 0.8145(2) 0.2319(2)
H93 H 0.7212 0.8653 0.2275
H94 H 0.7437 0.8248 0.2868
H95 H 0.6861 0.7649 0.2059
N19 N 0.80758(15) 0.79736(16) 0.19554(15)
O13 O 0.90563(14) 0.83130(17) 0.12489(15)
C84 C 0.1160(2) 0.1643(2) 0.33823(16)
H96 H 0.1414 0.1208 0.3399
C85 C 0.1184(2) 0.2830(2) 0.3014(2)
H97 H 0.0609 0.2743 0.3130
H98 H 0.1190 0.2831 0.2495
H99 H 0.1519 0.3381 0.3397
C86 C 0.23040(19) 0.2040(2) 0.27288(18)
H100 H 0.2757 0.2535 0.3048
H101 H 0.2249 0.2003 0.2196
H102 H 0.2428 0.1514 0.2731
N20 N 0.15288(15) 0.21411(15) 0.30429(14)
O14 O 0.05148(14) 0.17023(15) 0.36757(13)
O15 O 0.15391(18) 0.37579(17) 0.16995(17)
H115 H 0.1369 0.3923 0.1353
H116 H 0.1502 0.3210 0.1464
O16 O 0.4324(4) 0.9466(4) 0.4429(3)
N21 N 0.3520(4) 0.8258(4) 0.4517(4)
C91 C 0.4328(4) 0.8781(5) 0.4505(4)
H119 H 0.4830 0.8612 0.4551
C92 C 0.2759(3) 0.8518(3) 0.4500(3)
H120 H 0.2873 0.9084 0.4476
H121 H 0.2509 0.8549 0.4969
H122 H 0.2373 0.8099 0.4042
C93 C 0.3542(5) 0.7485(4) 0.4676(4)
H123 H 0.3449 0.7598 0.5213
H124 H 0.4088 0.7356 0.4598
H125 H 0.3105 0.6995 0.4322
C94? C 0.7966(2) 0.1784(3) 0.2617(2)
C95? C 0.7745(2) 0.2973(2) 0.2409(2)
C96? C 0.3602(2) 0.5591(2) 1.0114(2)
C97? C 0.3231(2) 0.4104(2) 0.97535(19)
C98? C 0.3454(8) 0.9274(7) 0.4458(7)
C99? C 0.4390(8) 0.8293(10) 0.4494(11)
C100? C 0.2868(9) 0.7861(10) 0.4540(10)
F7? F 0.7900(9) 0.1130(8) 0.2820(10)
F8? F 0.4139(3) 0.6359(3) 1.0234(3)
H126? H 0.7404 0.3218 0.2181
H127? H 0.3292 0.3546 0.9446
H128? H 0.2914 0.9380 0.4477
H129? H 0.4547 0.8148 0.3971
H130? H 0.4351 0.7799 0.4633
H131? H 0.4812 0.8785 0.4865
H132? H 0.2764 0.7346 0.4056
H133? H 0.2372 0.8092 0.4606
H134? H 0.2993 0.7712 0.4978
N22? N 0.3580(8) 0.8510(8) 0.4511(10)
O17? O 0.4030(6) 0.9792(6) 0.4390(5)
loop_
_geom_bond_atom_site_label_1
_geom_bond_atom_site_label_2
_geom_bond_site_symmetry_1
_geom_bond_site_symmetry_2
C1 H1 1_555 1_555
H2 C1 1_555 1_555
C2 C1 1_555 1_555
H3 C2 1_555 1_555
H4 C2 1_555 1_555
C3 H5 1_555 1_555
H6 C3 1_555 1_555
C4 H7 1_555 1_555
H8 C4 1_555 1_555
C5 C4 1_555 1_555
C6 C5 1_555 1_555
H9 C6 1_555 1_555
C7 C6 1_555 1_555
H10 C7 1_555 1_555
C8 C7 1_555 1_555
H11 C8 1_555 1_555
C9 C8 1_555 1_555
H12 C9 1_555 1_555
C10 C5 1_555 1_555
C11 H13 1_555 1_555
H14 C11 1_555 1_555
C12 H15 1_555 1_555
H16 C12 1_555 1_555
C13 C12 1_555 1_555
H17 C13 1_555 1_555
H18 C13 1_555 1_555
C14 H19 1_555 1_555
H20 C14 1_555 1_555
C15 H21 1_555 1_555
H22 C15 1_555 1_555
C16 C15 1_555 1_555
C17 H23 1_555 1_555
C18 C17 1_555 1_555
H24 C18 1_555 1_555
C19 C18 1_555 1_555
H25 C19 1_555 1_555
C20 H26 1_555 1_555
H27 C20 1_555 1_555
C21 H28 1_555 1_555
H29 C21 1_555 1_555
C22 C21 1_555 1_555
H30 C22 1_555 1_555
H31 C22 1_555 1_555
C23 H32 1_555 1_555
H33 C23 1_555 1_555
C24 H34 1_555 1_555
H35 C24 1_555 1_555
C25 C24 1_555 1_555
C26 C25 1_555 1_555
H36 C26 1_555 1_555
C27 C26 1_555 1_555
H37 C27 1_555 1_555
C28 C27 1_555 1_555
H38 C28 1_555 1_555
C29 C28 1_555 1_555
H39 C29 1_555 1_555
C30 C25 1_555 1_555
C31 H40 1_555 1_555
H41 C31 1_555 1_555
C32 H42 1_555 1_555
H43 C32 1_555 1_555
C33 C32 1_555 1_555
H44 C33 1_555 1_555
H45 C33 1_555 1_555
C34 H46 1_555 1_555
H47 C34 1_555 1_555
C35 H48 1_555 1_555
H49 C35 1_555 1_555
C36 C35 1_555 1_555
C37 H50 1_555 1_555
C38 C37 1_555 1_555
H51 C38 1_555 1_555
C39 C38 1_555 1_555
H52 C39 1_555 1_555
C40 H53 1_555 1_555
H54 C40 1_555 1_555
C41 H55 1_555 1_555
H56 C41 1_555 1_555
C42 C41 1_555 1_555
H57 C42 1_555 1_555
H58 C42 1_555 1_555
C43 H59 1_555 1_555
H60 C43 1_555 1_555
C44 H61 1_555 1_555
H62 C44 1_555 1_555
C45 C44 1_555 1_555
C46 C45 1_555 1_555
H63 C46 1_555 1_555
C47 C46 1_555 1_555
H64 C47 1_555 1_555
C48 C47 1_555 1_555
H65 C48 1_555 1_555
C49 C48 1_555 1_555
H66 C49 1_555 1_555
C50 C45 1_555 1_555
C51 H67 1_555 1_555
H68 C51 1_555 1_555
C52 H69 1_555 1_555
H70 C52 1_555 1_555
C53 C52 1_555 1_555
H71 C53 1_555 1_555
H72 C53 1_555 1_555
C54 H73 1_555 1_555
H74 C54 1_555 1_555
C55 H75 1_555 1_555
H76 C55 1_555 1_555
C56 C55 1_555 1_555
C57 C56 1_555 1_555
C58 C57 1_555 1_555
H77 C58 1_555 1_555
C59 C58 1_555 1_555
H78 C59 1_555 1_555
C60 C59 1_555 1_555
H79 C60 1_555 1_555
C61 C56 1_555 1_555
H80 C61 1_555 1_555
C62 H81 1_555 1_555
H82 C62 1_555 1_555
C63 C64 1_555 1_555
C64 C65 1_555 1_555
C65 H83 1_555 1_555
C66 C65 1_555 1_555
C67 C66 1_555 1_555
C68 C66 1_555 1_555
H84 C68 1_555 1_555
C69 C68 1_555 1_555
C70 C69 1_555 1_555
C71 C64 1_555 1_555
H85 C71 1_555 1_555
C72 C73 1_555 1_555
C73 C74 1_555 1_555
C74 H86 1_555 1_555
C75 C74 1_555 1_555
C76 C75 1_555 1_555
C77 C75 1_555 1_555
H87 C77 1_555 1_555
C78 C77 1_555 1_555
C79 C78 1_555 1_555
C80 C73 1_555 1_555
H88 C80 1_555 1_555
C81 H89 1_555 1_555
C82 H90 1_555 1_555
H91 C82 1_555 1_555
H92 C82 1_555 1_555
C83 H93 1_555 1_555
H94 C83 1_555 1_555
H95 C83 1_555 1_555
C84 H96 1_555 1_555
C85 H97 1_555 1_555
H98 C85 1_555 1_555
H99 C85 1_555 1_555
C86 H100 1_555 1_555
H101 C86 1_555 1_555
H102 C86 1_555 1_555
N1 C1 1_555 1_555
H103 N1 1_555 1_555
N2 C2 1_555 1_555
H104 N2 1_555 1_555
N3 C3 1_555 1_555
N4 C11 1_555 1_555
H105 N4 1_555 1_555
N5 C13 1_555 1_555
H106 N5 1_555 1_555
N6 C14 1_555 1_555
N7 C21 1_555 1_555
H107 N7 1_555 1_555
N8 C22 1_555 1_555
H108 N8 1_555 1_555
N9 C23 1_555 1_555
N10 C31 1_555 1_555
H109 N10 1_555 1_555
N11 C33 1_555 1_555
H110 N11 1_555 1_555
N12 C34 1_555 1_555
N13 C41 1_555 1_555
H111 N13 1_555 1_555
N14 C42 1_555 1_555
H112 N14 1_555 1_555
N15 C44 1_555 1_555
N16 C52 1_555 1_555
H113 N16 1_555 1_555
N17 C53 1_555 1_555
H114 N17 1_555 1_555
N18 C55 1_555 1_555
N19 C81 1_555 1_555
N20 C84 1_555 1_555
Ni1 N1 1_555 1_555
Ni2 N7 1_555 1_555
Ni3 N13 1_555 1_555
Ni4 N16 1_555 1_555
O1 C67 1_555 1_555
O2 C67 1_555 1_555
O3 C63 1_555 1_555
O4 C63 1_555 1_555
O5 C70 1_555 1_555
O6 C70 1_555 1_555
O7 C72 1_555 1_555
O8 C72 1_555 1_555
O9 C76 1_555 1_555
O10 C76 1_555 1_555
O11 C79 1_555 1_555
O12 C79 1_555 1_555
O13 C81 1_555 1_555
O14 C84 1_555 1_555
O15 H115 1_555 1_555
H116 O15 1_555 1_555
F1 C10 1_555 1_555
C87 C16 1_555 1_555
H117 C87 1_555 1_555
C88 C16 1_555 1_555
F2 C88 1_555 1_555
F3 C30 1_555 1_555
C89 C36 1_555 1_555
H118 C89 1_555 1_555
C90 C36 1_555 1_555
F4 C90 1_555 1_555
F5 C50 1_555 1_555
F6 C57 1_555 1_555
O16 C91 1_555 1_555
N21 C91 1_555 1_555
C91 H119 1_555 1_555
C92 N21 1_555 1_555
H120 C92 1_555 1_555
H121 C92 1_555 1_555
H122 C92 1_555 1_555
C93 N21 1_555 1_555
H123 C93 1_555 1_555
H124 C93 1_555 1_555
H125 C93 1_555 1_555
C1A H1A 1_555 1_555
H2A C1A 1_555 1_555
C2A C1A 1_555 1_555
H3A C2A 1_555 1_555
H4A C2A 1_555 1_555
C3A H5A 1_555 1_555
H6A C3A 1_555 1_555
C4A H7A 1_555 1_555
H8A C4A 1_555 1_555
C5A C4A 1_555 1_555
C6A C5A 1_555 1_555
H9A C6A 1_555 1_555
C7A C6A 1_555 1_555
H10A C7A 1_555 1_555
C8A C7A 1_555 1_555
H11A C8A 1_555 1_555
C9A C8A 1_555 1_555
H12A C9A 1_555 1_555
C10A C5A 1_555 1_555
C11A H13A 1_555 1_555
H14A C11A 1_555 1_555
C12A H15A 1_555 1_555
H16A C12A 1_555 1_555
C13A C12A 1_555 1_555
H17A C13A 1_555 1_555
H18A C13A 1_555 1_555
C14A H19A 1_555 1_555
H20A C14A 1_555 1_555
C15A H21A 1_555 1_555
H22A C15A 1_555 1_555
C16A C15A 1_555 1_555
C17A H23A 1_555 1_555
C18A C17A 1_555 1_555
H24A C18A 1_555 1_555
C19A C18A 1_555 1_555
H25A C19A 1_555 1_555
C20A H26A 1_555 1_555
H27A C20A 1_555 1_555
C21A H28A 1_555 1_555
H29A C21A 1_555 1_555
C22A C21A 1_555 1_555
H30A C22A 1_555 1_555
H31A C22A 1_555 1_555
C23A H32A 1_555 1_555
H33A C23A 1_555 1_555
C24A H34A 1_555 1_555
H35A C24A 1_555 1_555
C25A C24A 1_555 1_555
C26A C25A 1_555 1_555
H36A C26A 1_555 1_555
C27A C26A 1_555 1_555
H37A C27A 1_555 1_555
C28A C27A 1_555 1_555
H38A C28A 1_555 1_555
C29A C28A 1_555 1_555
H39A C29A 1_555 1_555
C30A C25A 1_555 1_555
C31A H40A 1_555 1_555
H41A C31A 1_555 1_555
C32A H42A 1_555 1_555
H43A C32A 1_555 1_555
C33A C32A 1_555 1_555
H44A C33A 1_555 1_555
H45A C33A 1_555 1_555
C34A H46A 1_555 1_555
H47A C34A 1_555 1_555
C35A H48A 1_555 1_555
H49A C35A 1_555 1_555
C36A C35A 1_555 1_555
C37A H50A 1_555 1_555
C38A C37A 1_555 1_555
H51A C38A 1_555 1_555
C39A C38A 1_555 1_555
H52A C39A 1_555 1_555
C40A H53A 1_555 1_555
H54A C40A 1_555 1_555
C41A H55A 1_555 1_555
H56A C41A 1_555 1_555
C42A C41A 1_555 1_555
H57A C42A 1_555 1_555
H58A C42A 1_555 1_555
C43A N15 1_555 1_555
H59A C43A 1_555 1_555
H60A C43A 1_555 1_555
C44A H61A 1_555 1_555
H62A C44A 1_555 1_555
C45A C44A 1_555 1_555
C46A C45A 1_555 1_555
H63A C46A 1_555 1_555
C47A C46A 1_555 1_555
H64A C47A 1_555 1_555
C48A C47A 1_555 1_555
H65A C48A 1_555 1_555
C49A C48A 1_555 1_555
H66A C49A 1_555 1_555
C50A C45A 1_555 1_555
C51A H67A 1_555 1_555
H68A C51A 1_555 1_555
C52A H69A 1_555 1_555
H70A C52A 1_555 1_555
C53A C52A 1_555 1_555
H71A C53A 1_555 1_555
H72A C53A 1_555 1_555
C54A N18 1_555 1_555
H73A C54A 1_555 1_555
H74A C54A 1_555 1_555
C55A H75A 1_555 1_555
H76A C55A 1_555 1_555
C56A C55A 1_555 1_555
C57A C56A 1_555 1_555
C58A C57A 1_555 1_555
H77A C58A 1_555 1_555
C59A C58A 1_555 1_555
H78A C59A 1_555 1_555
C60A C59A 1_555 1_555
H79A C60A 1_555 1_555
C61A C56A 1_555 1_555
H80A C61A 1_555 1_555
C62A H81A 1_555 1_555
H82A C62A 1_555 1_555
C63A C64A 1_555 1_555
C64A C65A 1_555 1_555
C65A H83A 1_555 1_555
C66A C65A 1_555 1_555
C67A C66A 1_555 1_555
C68A C66A 1_555 1_555
H84A C68A 1_555 1_555
C69A C68A 1_555 1_555
C70A C69A 1_555 1_555
C71A C64A 1_555 1_555
H85A C71A 1_555 1_555
C72_2 C73_2 1_555 1_555
C73_2 C74_2 1_555 1_555
C74_2 H86_2 1_555 1_555
C75_2 C74_2 1_555 1_555
C76_2 C75_2 1_555 1_555
C77_2 C75_2 1_555 1_555
H87_2 C77_2 1_555 1_555
C78_2 C77_2 1_555 1_555
C79_2 C78_2 1_555 1_555
C80_2 C73_2 1_555 1_555
H88_2 C80_2 1_555 1_555
N1A C1A 1_555 1_555
H103A N1A 1_555 1_555
N2A C2A 1_555 1_555
H104A N2A 1_555 1_555
N3A C3A 1_555 1_555
N4A C11A 1_555 1_555
H105A N4A 1_555 1_555
N5A C13A 1_555 1_555
H106A N5A 1_555 1_555
N6A C14A 1_555 1_555
N7A C21A 1_555 1_555
H107A N7A 1_555 1_555
N8A C22A 1_555 1_555
H108A N8A 1_555 1_555
N9A C23A 1_555 1_555
N10A C31A 1_555 1_555
H109A N10A 1_555 1_555
N11A C33A 1_555 1_555
H110A N11A 1_555 1_555
N12A C34A 1_555 1_555
N13A Ni3 1_555 1_555
H111A N13A 1_555 1_555
N14A Ni3 1_555 1_555
H112A N14A 1_555 1_555
N15A C43 1_555 1_555
N16A Ni4 1_555 1_555
H113A N16A 1_555 1_555
N17A Ni4 1_555 1_555
H114A N17A 1_555 1_555
N18A C54 1_555 1_555
Ni1A N1A 1_555 1_555
Ni1_2 O12_2 1_555 1_555
Ni2A N7A 1_555 1_555
Ni2_2 O7 1_555 1_555
Ni4_2 O9_2 1_555 1_555
O1A C67A 1_555 1_555
O2A C67A 1_555 1_555
O3A C63A 1_555 1_555
O4A C63A 1_555 1_555
O5A Ni3 1_555 1_555
O6A C70A 1_555 1_555
O7_2 Ni2 1_555 1_555
O7A Ni2A 1_555 1_555
O8_2 C72_2 1_555 1_555
O9_2 C76_2 1_555 1_555
O9A Ni4 1_555 1_555
O10_2 C76_2 1_555 1_555
O11_2 C79_2 1_555 1_555
O12_2 C79_2 1_555 1_555
O12A Ni1A 1_555 1_555
F1A C10A 1_555 1_555
C87A C16A 1_555 1_555
H117A C87A 1_555 1_555
C88A C16A 1_555 1_555
F2A C88A 1_555 1_555
F3A C30A 1_555 1_555
C89A C36A 1_555 1_555
H118A C89A 1_555 1_555
C90A C36A 1_555 1_555
F4A C90A 1_555 1_555
F5A C50A 1_555 1_555
F6A C57A 1_555 1_555
C3 N2 1_555 1_555
C4 N3 1_555 1_555
C9 C10 1_555 1_555
C11 N3 1_555 1_555
C12 N4 1_555 1_555
C14 N5 1_555 1_555
C15 N6 1_555 1_555
C17 C87 1_555 1_555
C19 C88 1_555 1_555
C20 N1 1_555 1_555
C20 N6 1_555 1_555
C23 N8 1_555 1_555
C24 N9 1_555 1_555
C29 C30 1_555 1_555
C31 N9 1_555 1_555
C32 N10 1_555 1_555
C34 N7 1_555 1_555
C35 N12 1_555 1_555
C37 C89 1_555 1_555
C39 C90 1_555 1_555
C40 N11 1_555 1_555
C40 N12 1_555 1_555
C43 N14 1_555 1_555
C49 C50 1_555 1_555
C51 N13 1_555 1_555
C51 N15 1_555 1_555
C54 N17 1_555 1_555
C60 C61 1_555 1_555
C62 N16 1_555 1_555
C62 N18 1_555 1_555
C69 C71 1_555 1_555
C78 C80 1_555 1_555
C82 N19 1_555 1_555
C83 N19 1_555 1_555
C85 N20 1_555 1_555
C86 N20 1_555 1_555
N2 Ni1 1_555 1_555
N4 Ni1 1_555 1_555
N5 Ni1 1_555 1_555
N8 Ni2 1_555 1_555
N10 Ni2 1_555 1_555
N11 Ni2 1_555 1_555
N14 Ni3 1_555 1_555
N17 Ni4 1_555 1_555
Ni1 O1 1_555 1_555
Ni1 O12 1_555 1_555
Ni2 O3 1_555 1_555
Ni3 O5 1_555 1_555
Ni4 O9 1_555 1_555
C3A N2A 1_555 1_555
C4A N3A 1_555 1_555
C9A C10A 1_555 1_555
C11A N3A 1_555 1_555
C12A N4A 1_555 1_555
C14A N5A 1_555 1_555
C15A N6A 1_555 1_555
C17A C87A 1_555 1_555
C19A C88A 1_555 1_555
C20A N1A 1_555 1_555
C20A N6A 1_555 1_555
C23A N8A 1_555 1_555
C24A N9A 1_555 1_555
C29A C30A 1_555 1_555
C31A N9A 1_555 1_555
C32A N10A 1_555 1_555
C34A N7A 1_555 1_555
C35A N12A 1_555 1_555
C37A C89A 1_555 1_555
C39A C90A 1_555 1_555
C40A N11A 1_555 1_555
C40A N12A 1_555 1_555
C41A N13A 1_555 1_555
C42A N14A 1_555 1_555
C43A N14A 1_555 1_555
C44A N15A 1_555 1_555
C49A C50A 1_555 1_555
C51A N13A 1_555 1_555
C51A N15A 1_555 1_555
C52A N16A 1_555 1_555
C53A N17A 1_555 1_555
C54A N17A 1_555 1_555
C55A N18A 1_555 1_555
C60A C61A 1_555 1_555
C62A N16A 1_555 1_555
C62A N18A 1_555 1_555
C69A C71A 1_555 1_555
C70A O5A 1_555 1_555
C72_2 O7_2 1_555 1_555
C78_2 C80_2 1_555 1_555
N2A Ni1A 1_555 1_555
N4A Ni1A 1_555 1_555
N5A Ni1A 1_555 1_555
N8A Ni2A 1_555 1_555
N10A Ni2A 1_555 1_555
N11A Ni2A 1_555 1_555
Ni1A O1A 1_555 1_555
Ni2A O3A 1_555 1_555

#END
