
#######################################################################
#
#                 Cambridge Crystallographic Data Centre
#                                CCDC 
#
#######################################################################
#
# If this CIF has been generated from an entry in the Cambridge 
# Structural Database, then it will include bibliographic, chemical, 
# crystal, experimental, refinement or atomic coordinate data resulting 
# from the CCDC's data processing and validation procedures.
#
#######################################################################

data_ROGMEG
_chemical_formula_moiety         '(C36 H28 N2 O10 Zn2)n,6n(C6 H14),3n(H2 O1)'
_chemical_name_systematic        
"catena-(bis(\m~4~-4,4'-carbonyldibenzoato)-(\m~2~-1,4-diazabicyclo[2.2.2]octane)-di-zinc(ii) n-hexane solvate trihydrate)"
_symmetry_cell_setting           tetragonal
_symmetry_space_group_name_H-M   'I 41/a'
_symmetry_Int_Tables_number      88
_space_group_name_Hall           '-I 4ad'
loop_
_symmetry_equiv_pos_site_id
_symmetry_equiv_pos_as_xyz
1 x,y,z
2 3/4-y,1/4+x,1/4+z
3 1/2+x,1/2+y,1/2+z
4 1/4-y,3/4+x,3/4+z
5 1/4+y,1/4-x,1/4+z
6 1/2-x,-y,1/2+z
7 3/4+y,3/4-x,3/4+z
8 -x,1/2-y,z
9 -x,-y,-z
10 1/4+y,3/4-x,3/4-z
11 1/2-x,1/2-y,1/2-z
12 3/4+y,1/4-x,1/4-z
13 3/4-y,3/4+x,3/4-z
14 1/2+x,y,1/2-z
15 1/4-y,1/4+x,1/4-z
16 x,1/2+y,-z
_cell_length_a                   19.4506(7)
_cell_length_b                   19.4506(7)
_cell_length_c                   50.9176(12)
_cell_angle_alpha                90
_cell_angle_beta                 90
_cell_angle_gamma                90
_cell_volume                     19263.4
_exptl_crystal_colour            colorless
_exptl_crystal_description       octahedral
_cell_formula_units_Z            8
loop_
_atom_site_label
_atom_site_type_symbol
_atom_site_fract_x
_atom_site_fract_y
_atom_site_fract_z
_atom_site_U_iso_or_equiv
_atom_site_thermal_displace_type
C1 C 0.6866(4) -0.0577(4) 0.93890(13) 0.1190 Uani
H1 H 0.6758 -0.0996 0.9467 0.1430 Uiso
C2 C 0.7390(5) -0.0534(5) 0.91875(14) 0.1407 Uani
H2 H 0.7658 -0.0918 0.9149 0.1690 Uiso
C3 C 0.7492(4) 0.0061(5) 0.90552(13) 0.1160 Uani
C4 C 0.7077(4) 0.0609(5) 0.91147(13) 0.1253 Uani
H3 H 0.7107 0.1 0.901 0.1510 Uiso
C5 C 0.6636(3) 0.0613(3) 0.93122(11) 0.0937 Uani
H4 H 0.6393 0.1011 0.9352 0.1120 Uiso
C6 C 0.7653(3) 0.1261(3) 0.81390(10) 0.0820 Uani
C7 C 0.8320(4) 0.1120(4) 0.82370(11) 0.1070 Uani
H5 H 0.8701 0.1274 0.8144 0.1280 Uiso
C8 C 0.8413(4) 0.0778(5) 0.84567(14) 0.1397 Uani
H6 H 0.8858 0.0734 0.8522 0.1680 Uiso
C9 C 0.7903(4) 0.0493(4) 0.85901(14) 0.1113 Uani
C10 C 0.7238(6) 0.0573(5) 0.84927(15) 0.1510 Uani
H7 H 0.6868 0.0347 0.8569 0.1810 Uiso
C11 C 0.7146(3) 0.1011(4) 0.82718(12) 0.1010 Uani
H8 H 0.67 0.1123 0.8221 0.1210 Uiso
C12 C 0.8039(6) 0.0129(5) 0.88548(19) 0.1440 Uani
O1 O 0.8522(4) -0.0262(5) 0.88562(12) 0.1930 Uani
C13 C 0.5030(9) 0.2092(5) 0.97287(19) 0.2777 Uani
H9 H 0.4669 0.1901 0.9619 0.3330 Uiso
H10 H 0.5468 0.196 0.9653 0.3330 Uiso
C14 C 0.5580(10) 0.2087(7) 1.0102(4) 0.3537 Uani
H11 H 0.5597 0.191 1.028 0.4280 Uiso
H12 H 0.5994 0.1944 1.0011 0.4280 Uiso
C15 C 0.4468(9) 0.2209(11) 1.0105(4) 0.3573 Uani
H13 H 0.4029 0.2037 1.0043 0.4280 Uiso
H14 H 0.4505 0.2076 1.0288 0.4280 Uiso
C16 C 0.5998(3) -0.0007(4) 0.96729(11) 0.0843 Uani
C17 C 0.6534(3) 0.0013(3) 0.94621(10) 0.0777 Uani
C18 C 0.7539(3) 0.1712(3) 0.79022(9) 0.0720 Uani
N1 N 0.49804(18) 0.18290(15) 0.99682(6) 0.0444 Uani
O2 O 0.5735(2) 0.0549(2) 0.97270(6) 0.0820 Uani
O3 O 0.5840(2) -0.0594(2) 0.97714(6) 0.0890 Uani
O4 O 0.69515(19) 0.1791(2) 0.78238(6) 0.0777 Uani
O5 O 0.8089(2) 0.1910(2) 0.77937(6) 0.0857 Uani
Zn1 Zn 0.49520(3) 0.07564(3) 0.997816(8) 0.0560 Uani
C1H C 0.3134(4) 0.0577(4) 1.06110(13) 0.1190 Uani
H1H H 0.3242 0.0996 1.0533 0.1430 Uiso
C2H C 0.2610(5) 0.0534(5) 1.08125(14) 0.1407 Uani
H2H H 0.2342 0.0918 1.0851 0.1690 Uiso
C3H C 0.2508(4) -0.0061(5) 1.09448(13) 0.1160 Uani
C4H C 0.2923(4) -0.0609(5) 1.08853(13) 0.1253 Uani
H3H H 0.2893 -0.1 1.099 0.1510 Uiso
C5H C 0.3364(3) -0.0613(3) 1.06878(11) 0.0937 Uani
H4H H 0.3607 -0.1011 1.0648 0.1120 Uiso
C6H C 0.2347(3) -0.1261(3) 1.18610(10) 0.0820 Uani
C7H C 0.1680(4) -0.1120(4) 1.17630(11) 0.1070 Uani
H5H H 0.1299 -0.1274 1.1856 0.1280 Uiso
C8H C 0.1587(4) -0.0778(5) 1.15433(14) 0.1397 Uani
H6H H 0.1142 -0.0734 1.1478 0.1680 Uiso
C9H C 0.2097(4) -0.0493(4) 1.14099(14) 0.1113 Uani
C10H C 0.2762(6) -0.0573(5) 1.15073(15) 0.1510 Uani
H7H H 0.3132 -0.0347 1.1431 0.1810 Uiso
C11H C 0.2854(3) -0.1011(4) 1.17282(12) 0.1010 Uani
H8H H 0.33 -0.1123 1.1779 0.1210 Uiso
C12H C 0.1961(6) -0.0129(5) 1.11452(19) 0.1440 Uani
O1H O 0.1478(4) 0.0262(5) 1.11438(12) 0.1930 Uani
C13G C 0.4970(9) 0.2908(5) 0.97287(19) 0.2777 Uani
H9G H 0.5331 0.3099 0.9619 0.3330 Uiso
H10G H 0.4532 0.304 0.9653 0.3330 Uiso
C14G C 0.4420(10) 0.2913(7) 1.0102(4) 0.3537 Uani
H11G H 0.4403 0.309 1.028 0.4280 Uiso
H12G H 0.4006 0.3056 1.0011 0.4280 Uiso
C15G C 0.5532(9) 0.2791(11) 1.0105(4) 0.3573 Uani
H13G H 0.5971 0.2963 1.0043 0.4280 Uiso
H14G H 0.5495 0.2924 1.0288 0.4280 Uiso
C16H C 0.4002(3) 0.0007(4) 1.03271(11) 0.0843 Uani
C17H C 0.3466(3) -0.0013(3) 1.05379(10) 0.0777 Uani
C18H C 0.2461(3) -0.1712(3) 1.20978(9) 0.0720 Uani
N1G N 0.50196(18) 0.31710(15) 0.99682(6) 0.0444 Uani
O2H O 0.4265(2) -0.0549(2) 1.02730(6) 0.0820 Uani
O2G O 0.4265(2) 0.4451(2) 0.97270(6) 0.0820 Uani
O3H O 0.4160(2) 0.0594(2) 1.02286(6) 0.0890 Uani
O3O O 0.5840(2) 0.4406(2) 1.02286(6) 0.0890 Uani
O4H O 0.30485(19) -0.1791(2) 1.21762(6) 0.0777 Uani
O4I O 0.4291(2) 0.05485(19) 0.96762(6) 0.0777 Uani
O4L O 0.5709(2) 0.44515(19) 0.96762(6) 0.0777 Uani
O5H O 0.1911(2) -0.1910(2) 1.22063(6) 0.0857 Uani
O5A O 0.5590(2) 0.0589(2) 1.02937(6) 0.0857 Uani
O5D O 0.4410(2) 0.4411(2) 1.02937(6) 0.0857 Uani
Zn1G Zn 0.50480(3) 0.42436(3) 0.997816(8) 0.0560 Uani
Zn1H Zn 0.50480(3) -0.07564(3) 1.002184(8) 0.0560 Uani
Zn1L Zn 0.67436(3) 0.24520(3) 0.752184(8) 0.0560 Uani
Zn1F Zn 0.82564(3) 0.25480(3) 0.747816(8) 0.0560 Uani
Zn1D Zn 0.32564(3) -0.24520(3) 1.247816(8) 0.0560 Uani
Zn1N Zn 0.17436(3) -0.25480(3) 1.252184(8) 0.0560 Uani
loop_
_atom_site_aniso_label
_atom_site_aniso_U_11
_atom_site_aniso_U_22
_atom_site_aniso_U_33
_atom_site_aniso_U_23
_atom_site_aniso_U_13
_atom_site_aniso_U_12
C1 0.146(7) 0.096(6) 0.115(5) 0.029(4) 0.005(5) 0.001(5)
C2 0.181(9) 0.132(7) 0.109(5) 0.026(5) 0.047(5) 0.043(6)
C3 0.106(6) 0.147(8) 0.095(5) 0.029(5) 0.017(4) 0.019(6)
C4 0.139(7) 0.137(7) 0.100(5) 0.045(4) 0.020(5) 0.016(6)
C5 0.096(5) 0.098(5) 0.087(4) 0.015(3) 0.018(3) 0.010(4)
C6 0.072(4) 0.101(5) 0.073(3) 0.009(3) 0.010(3) 0.006(3)
C7 0.091(5) 0.146(7) 0.084(4) 0.025(4) 0.006(3) 0.016(4)
C8 0.115(7) 0.2 0.104(5) 0.047(5) 0.009(4) 0.026(6)
C9 0.102(6) 0.134(7) 0.098(5) 0.028(4) 0.017(4) 0.035(5)
C10 0.176(10) 0.175(9) 0.102(6) 0.033(5) 0.033(6) 0.025(7)
C11 0.085(5) 0.118(6) 0.100(4) 0.011(4) 0.012(4) 0.008(4)
C12 0.117(8) 0.152(9) 0.163(8) 0.020(6) -0.002(6) 0.043(6)
O1 0.174(7) 0.254(9) 0.151(5) 0.052(5) 0.026(5) 0.033(6)
C13 0.55(3) 0.113(8) 0.170(10) -0.016(7) -0.001(14) -0.042(13)
C14 0.54(4) 0.071(8) 0.45(3) -0.009(11) -0.29(3) -0.019(14)
C15 0.262(19) 0.30(3) 0.51(3) -0.11(2) 0.20(2) 0.057(17)
C16 0.100(5) 0.078(5) 0.075(3) 0.008(3) 0.017(3) 0.007(4)
C17 0.088(4) 0.073(4) 0.072(3) 0.008(3) 0.008(3) 0.017(3)
C18 0.078(4) 0.077(4) 0.061(3) 0.008(2) 0.013(3) 0.004(3)
N1 0.063(2) 0.0284(18) 0.0417(17) 0.0019(13) 0.0014(14) 0.0109(17)
O2 0.107(3) 0.070(3) 0.069(2) 0.0125(18) 0.0078(19) 0.000(2)
O3 0.121(3) 0.076(3) 0.070(2) 0.0034(18) 0.023(2) 0.000(2)
O4 0.059(2) 0.099(3) 0.075(2) 0.0059(19) 0.0024(17) 0.003(2)
O5 0.076(3) 0.116(3) 0.065(2) 0.013(2) 0.0021(18) 0.004(2)
Zn1 0.0782(5) 0.0428(3) 0.0471(3) 0.0025(2) 0.0009(2) -0.0003(3)
C1H 0.146 0.096 0.115 0.029 0.005 0.001
C2H 0.181 0.132 0.109 0.026 0.047 0.043
C3H 0.106 0.147 0.095 0.029 0.017 0.019
C4H 0.139 0.137 0.1 0.045 0.02 0.016
C5H 0.096 0.098 0.087 0.015 0.018 0.01
C6H 0.072 0.101 0.073 0.009 0.01 0.006
C7H 0.091 0.146 0.084 0.025 0.006 0.016
C8H 0.115 0.2 0.104 0.047 0.009 0.026
C9H 0.102 0.134 0.098 0.028 0.017 0.035
C10H 0.176 0.175 0.102 0.033 0.033 0.025
C11H 0.085 0.118 0.1 0.011 0.012 0.008
C12H 0.117 0.152 0.163 0.02 -0.002 0.043
O1H 0.174 0.254 0.151 0.052 0.026 0.033
C13G 0.55 0.113 0.17 0.016 0.001 -0.042
C14G 0.54 0.071 0.45 0.009 0.29 -0.019
C15G 0.262 0.3 0.51 0.11 -0.2 0.057
C16H 0.1 0.078 0.075 0.008 0.017 0.007
C17H 0.088 0.073 0.072 0.008 0.008 0.017
C18H 0.078 0.077 0.061 0.008 0.013 0.004
N1G 0.063 0.0284 0.0417 -0.0019 -0.0014 0.0109
O2H 0.107 0.07 0.069 0.0125 0.0078 0
O2G 0.107 0.07 0.069 -0.0125 -0.0078 0
O3H 0.121 0.076 0.07 0.0034 0.023 0
O3O 0.121 0.076 0.07 -0.0034 -0.023 0
O4H 0.059 0.099 0.075 0.0059 0.0024 0.003
O4I 0.099 0.059 0.075 0.0024 -0.0059 -0.003
O4L 0.099 0.059 0.075 -0.0024 0.0059 -0.003
O5H 0.076 0.116 0.065 0.013 0.0021 0.004
O5A 0.116 0.076 0.065 0.0021 -0.013 -0.004
O5D 0.116 0.076 0.065 -0.0021 0.013 -0.004
Zn1G 0.0782 0.0428 0.0471 -0.0025 -0.0009 -0.0003
Zn1H 0.0782 0.0428 0.0471 0.0025 0.0009 -0.0003
Zn1L 0.0428 0.0782 0.0471 -0.0009 0.0025 0.0003
Zn1F 0.0428 0.0782 0.0471 -0.0009 0.0025 0.0003
Zn1D 0.0428 0.0782 0.0471 -0.0009 0.0025 0.0003
Zn1N 0.0428 0.0782 0.0471 -0.0009 0.0025 0.0003
loop_
_geom_bond_atom_site_label_1
_geom_bond_atom_site_label_2
_geom_bond_site_symmetry_1
_geom_bond_site_symmetry_2
C1 H1 1_555 1_555
C2 C1 1_555 1_555
H2 C2 1_555 1_555
C3 C2 1_555 1_555
C4 C3 1_555 1_555
H3 C4 1_555 1_555
C5 C4 1_555 1_555
H4 C5 1_555 1_555
C6 C7 1_555 1_555
C7 H5 1_555 1_555
C8 C7 1_555 1_555
H6 C8 1_555 1_555
C9 C8 1_555 1_555
C10 C9 1_555 1_555
H7 C10 1_555 1_555
C11 C6 1_555 1_555
H8 C11 1_555 1_555
C12 C3 1_555 1_555
O1 C12 1_555 1_555
C13 H9 1_555 1_555
H10 C13 1_555 1_555
C14 H11 1_555 1_555
H12 C14 1_555 1_555
C15 H13 1_555 1_555
H14 C15 1_555 1_555
C16 C17 1_555 1_555
C17 C1 1_555 1_555
C18 C6 1_555 1_555
N1 C13 1_555 1_555
O2 C16 1_555 1_555
O3 C16 1_555 1_555
O4 C18 1_555 1_555
O5 C18 1_555 1_555
Zn1 N1 1_555 1_555
C1H H1H 1_555 1_555
C2H C1H 1_555 1_555
H2H C2H 1_555 1_555
C3H C2H 1_555 1_555
C4H C3H 1_555 1_555
H3H C4H 1_555 1_555
C5H C4H 1_555 1_555
H4H C5H 1_555 1_555
C6H C7H 1_555 1_555
C7H H5H 1_555 1_555
C8H C7H 1_555 1_555
H6H C8H 1_555 1_555
C9H C8H 1_555 1_555
C10H C9H 1_555 1_555
H7H C10H 1_555 1_555
C11H C6H 1_555 1_555
H8H C11H 1_555 1_555
C12H C3H 1_555 1_555
O1H C12H 1_555 1_555
C13G C13 1_555 1_555
H9G C13G 1_555 1_555
H10G C13G 1_555 1_555
C14G C15 1_555 1_555
H11G C14G 1_555 1_555
H12G C14G 1_555 1_555
C15G C14 1_555 1_555
H13G C15G 1_555 1_555
H14G C15G 1_555 1_555
C16H C17H 1_555 1_555
C17H C1H 1_555 1_555
C18H C6H 1_555 1_555
N1G C13G 1_555 1_555
O2H C16H 1_555 1_555
O2G Zn1G 1_555 1_555
O3H Zn1 1_555 1_555
O3O Zn1G 1_555 1_555
O4H C18H 1_555 1_555
O4I Zn1 1_555 1_555
O4L Zn1G 1_555 1_555
O5H C18H 1_555 1_555
O5A Zn1 1_555 1_555
O5D Zn1G 1_555 1_555
Zn1G N1G 1_555 1_555
Zn1H O3 1_555 1_555
Zn1L O4 1_555 1_555
Zn1F O5 1_555 1_555
Zn1D O4H 1_555 1_555
Zn1N O5H 1_555 1_555
C5 C17 1_555 1_555
C9 C12 1_555 1_555
C10 C11 1_555 1_555
C14 N1 1_555 1_555
C15 N1 1_555 1_555
O2 Zn1 1_555 1_555
C5H C17H 1_555 1_555
C9H C12H 1_555 1_555
C10H C11H 1_555 1_555
C14G N1G 1_555 1_555
C15G N1G 1_555 1_555
C16H O3H 1_555 1_555
O2H Zn1H 1_555 1_555

#END
