
#######################################################################
#
#                 Cambridge Crystallographic Data Centre
#                                CCDC 
#
#######################################################################
#
# If this CIF has been generated from an entry in the Cambridge 
# Structural Database, then it will include bibliographic, chemical, 
# crystal, experimental, refinement or atomic coordinate data resulting 
# from the CCDC's data processing and validation procedures.
#
#######################################################################

data_PEVFON
_chemical_name_common            ZIF-8
_chemical_formula_moiety         '(C8 H10 N4 Zn1)n,0.67n(C8 H10)'
_chemical_name_systematic        
'catena-[bis(\m~2~-2-methyl-1H-imidazolato)-zinc(ii) 1,2-dimethylbenzene solvate]'
_symmetry_cell_setting           cubic
_symmetry_space_group_name_H-M   'I -4 3 m'
_symmetry_Int_Tables_number      217
_space_group_name_Hall           'I -4 2 3'
loop_
_symmetry_equiv_pos_site_id
_symmetry_equiv_pos_as_xyz
1 x,y,z
2 z,x,y
3 y,z,x
4 y,-x,-z
5 -z,y,-x
6 -x,-z,y
7 -x,-y,z
8 -z,x,-y
9 -y,-z,x
10 x,-y,-z
11 z,-x,-y
12 -y,z,-x
13 -y,x,-z
14 -z,-y,x
15 x,-z,-y
16 x,z,y
17 y,x,z
18 z,y,x
19 y,-z,-x
20 -y,-x,z
21 z,-y,-x
22 -x,z,-y
23 -x,y,-z
24 -z,-x,y
25 1/2+x,1/2+y,1/2+z
26 1/2+z,1/2+x,1/2+y
27 1/2+y,1/2+z,1/2+x
28 1/2+y,1/2-x,1/2-z
29 1/2-z,1/2+y,1/2-x
30 1/2-x,1/2-z,1/2+y
31 1/2-x,1/2-y,1/2+z
32 1/2-z,1/2+x,1/2-y
33 1/2-y,1/2-z,1/2+x
34 1/2+x,1/2-y,1/2-z
35 1/2+z,1/2-x,1/2-y
36 1/2-y,1/2+z,1/2-x
37 1/2-y,1/2+x,1/2-z
38 1/2-z,1/2-y,1/2+x
39 1/2+x,1/2-z,1/2-y
40 1/2+x,1/2+z,1/2+y
41 1/2+y,1/2+x,1/2+z
42 1/2+z,1/2+y,1/2+x
43 1/2+y,1/2-z,1/2-x
44 1/2-y,1/2-x,1/2+z
45 1/2+z,1/2-y,1/2-x
46 1/2-x,1/2+z,1/2-y
47 1/2-x,1/2+y,1/2-z
48 1/2-z,1/2-x,1/2+y
_cell_length_a                   16.9948(14)
_cell_length_b                   16.9948(14)
_cell_length_c                   16.9948(14)
_cell_angle_alpha                90
_cell_angle_beta                 90
_cell_angle_gamma                90
_cell_volume                     4908.49
_cell_formula_units_Z            12
loop_
_atom_site_label
_atom_site_type_symbol
_atom_site_fract_x
_atom_site_fract_y
_atom_site_fract_z
_atom_site_U_iso_or_equiv
_atom_site_thermal_displace_type
Zn1 Zn 0.50000 0.00000 0.75000 0.0536 Uiso
C1 C 0.38079(20) 0.0151(4) 0.61921(20) 0.0681 Uiso
C2 C 0.37027(24) -0.09952(27) 0.68776(18) 0.0681 Uiso
C3 C 0.40863(18) 0.09237(27) 0.59136(18) 0.0681 Uiso
N1 N 0.41228(19) -0.02829(22) 0.68107(19) 0.0681 Uiso
H1 H 0.3857(15) -0.1359(12) 0.7284(7) 0.0681 Uiso
H2 H 0.4312(4) 0.1218(4) 0.6341(4) 0.0681 Uiso
H3 H 0.44803(32) 0.0841(7) 0.55197(32) 0.0681 Uiso
C2D C 0.31224(18) -0.09952(27) 0.62973(24) 0.0681 Uiso
N1D N 0.31893(19) -0.02829(22) 0.58772(19) 0.0681 Uiso
H1D H 0.2716(7) -0.1359(12) 0.6143(15) 0.0681 Uiso
H2D H 0.3659(4) 0.1218(4) 0.5688(4) 0.0681 Uiso
C1F C 0.61921(20) -0.0151(4) 0.61921(20) 0.0681 Uiso
C2F C 0.62973(24) 0.09952(27) 0.68776(18) 0.0681 Uiso
C3F C 0.59137(18) -0.09237(27) 0.59136(18) 0.0681 Uiso
N1F N 0.58772(19) 0.02829(22) 0.68107(19) 0.0681 Uiso
H1F H 0.6143(15) 0.1359(12) 0.7284(7) 0.0681 Uiso
H2F H 0.5688(4) -0.1218(4) 0.6341(4) 0.0681 Uiso
H3F H 0.55197(32) -0.0841(7) 0.55197(32) 0.0681 Uiso
C2T C 0.68776(18) 0.09952(27) 0.62973(24) 0.0681 Uiso
N1T N 0.68107(19) 0.02829(22) 0.58772(19) 0.0681 Uiso
H1T H 0.7284(7) 0.1359(12) 0.6143(15) 0.0681 Uiso
H2T H 0.6341(4) -0.1218(4) 0.5688(4) 0.0681 Uiso
Zn1D Zn 0.25000 0.00000 0.50000 0.0536 Uiso
Zn1Q Zn 0.75000 0.00000 0.50000 0.0536 Uiso
N1AA N 0.47171(22) 0.08772(19) 0.81893(19) 0.0681 Uiso
N1JA N 0.52829(22) -0.08772(19) 0.81893(19) 0.0681 Uiso
C4? C 0.1639(6) 0.0778(6) 0.0378(8) 0.1640 Uiso
H4? H 0.1806(8) 0.0387(9) 0.0006(10) 0.1640 Uiso
C5? C 0.1866(6) 0.1553(6) 0.0283(9) 0.1640 Uiso
C6? C 0.1617(7) 0.2104(5) 0.0812(10) 0.1640 Uiso
H5? H 0.1774(9) 0.2643(7) 0.0747(13) 0.1640 Uiso
C7? C 0.1148(7) 0.1891(5) 0.1439(10) 0.1640 Uiso
H6? H 0.0978(9) 0.2281(8) 0.1810(11) 0.1640 Uiso
C8? C 0.0410(7) 0.0923(9) 0.2242(8) 0.1640 Uiso
C9? C 0.1163(6) 0.0565(4) 0.1004(9) 0.1640 Uiso
H7? H 0.1008(8) 0.0025(6) 0.1071(11) 0.1640 Uiso
H8? H 0.059(7) 0.041(6) 0.248(7) 0.1640 Uiso
H9? H 0.045(8) 0.135(5) 0.264(5) 0.1640 Uiso
H10? H -0.0149(19) 0.087(11) 0.2070(24) 0.1640 Uiso
C10? C 0.2369(7) 0.1801(9) -0.0396(10) 0.1640 Uiso
H11? H 0.253(11) 0.236(4) -0.032(7) 0.1640 Uiso
H12? H 0.285(6) 0.146(9) -0.042(8) 0.1640 Uiso
H13? H 0.206(4) 0.175(13) -0.0901(17) 0.1640 Uiso
C11? C 0.0927(6) 0.1129(5) 0.1544(8) 0.1640 Uiso
loop_
_geom_bond_atom_site_label_1
_geom_bond_atom_site_label_2
_geom_bond_site_symmetry_1
_geom_bond_site_symmetry_2
Zn1 N1 1_555 1_555
C1 C3 1_555 1_555
C2 N1 1_555 1_555
C3 H2 1_555 1_555
N1 C1 1_555 1_555
H1 C2 1_555 1_555
H3 C3 1_555 1_555
C2D C2 1_555 1_555
N1D C1 1_555 1_555
H1D C2D 1_555 1_555
H2D C3 1_555 1_555
C1F C3F 1_555 1_555
C2F N1F 1_555 1_555
C3F H2F 1_555 1_555
N1F Zn1 1_555 1_555
H1F C2F 1_555 1_555
H3F C3F 1_555 1_555
C2T C2F 1_555 1_555
N1T C1F 1_555 1_555
H1T C2T 1_555 1_555
H2T C3F 1_555 1_555
Zn1D N1D 1_555 1_555
Zn1Q N1T 1_555 1_555
N1AA Zn1 1_555 1_555
N1JA Zn1 1_555 1_555
C2D N1D 1_555 1_555
C1F N1F 1_555 1_555
C2T N1T 1_555 1_555

#END
