
#######################################################################
#
#                 Cambridge Crystallographic Data Centre
#                                CCDC 
#
#######################################################################
#
# If this CIF has been generated from an entry in the Cambridge 
# Structural Database, then it will include bibliographic, chemical, 
# crystal, experimental, refinement or atomic coordinate data resulting 
# from the CCDC's data processing and validation procedures.
#
#######################################################################

data_YUZCAZ
_chemical_name_common            'MAF-49 ethene'
_chemical_formula_moiety         '(C5 H6 N8 Zn1)n,0.39n(C2 H4)'
_chemical_name_systematic        
"catena-[(\m-3,3'-methylenebis(5-amino-1,2,4-triazolato))-zinc ethene]"
_symmetry_cell_setting           trigonal
_symmetry_space_group_name_H-M   'P 31 2 1'
_symmetry_Int_Tables_number      152
_space_group_name_Hall           'P 31 2"'
loop_
_symmetry_equiv_pos_site_id
_symmetry_equiv_pos_as_xyz
1 x,y,z
2 -y,x-y,1/3+z
3 -x+y,-x,2/3+z
4 y,x,-z
5 x-y,-y,2/3-z
6 -x,-x+y,1/3-z
_cell_length_a                   9.6896(16)
_cell_length_b                   9.6896(16)
_cell_length_c                   20.153(4)
_cell_angle_alpha                90
_cell_angle_beta                 90
_cell_angle_gamma                120
_cell_volume                     1638.63
_exptl_crystal_colour            colorless
_exptl_crystal_description       Block
_cell_formula_units_Z            6
loop_
_atom_site_label
_atom_site_type_symbol
_atom_site_fract_x
_atom_site_fract_y
_atom_site_fract_z
Zn1 Zn -0.06326(6) 0.50690(6) 0.41598(2)
N1 N 0.3485(4) 0.8315(5) 0.51349(17)
N2 N 0.4090(4) 0.8135(5) 0.45329(18)
N3 N 0.1429(4) 0.6825(4) 0.44901(18)
N4 N 0.0882(4) 0.7457(5) 0.55686(17)
H1 H -0.0126 0.6534 0.5613
H2 H 0.1200 0.7847 0.5986
N5 N 0.2168(6) 0.4199(4) 0.28902(17)
N6 N 0.0315(7) 0.4269(5) 0.35025(18)
N7 N -0.0371(7) 0.2759(5) 0.3222(2)
N8 N 0.0593(8) 0.1505(6) 0.2497(2)
H3 H -0.0419 0.0836 0.2290
H4 H 0.1249 0.1648 0.2147
C1 C 0.1902(5) 0.7512(5) 0.5093(2)
C2 C 0.2829(5) 0.7241(5) 0.4178(2)
C3 C 0.2939(5) 0.6781(6) 0.3471(2)
H5 H 0.2745 0.7470 0.3168
H6 H 0.4039 0.7001 0.3391
C4 C 0.1810(8) 0.5086(6) 0.3301(2)
C5 C 0.0768(8) 0.2786(5) 0.2861(2)
Zn1C Zn 0.50690(6) 0.93674(6) 0.58402(2)
Zn1D Zn 0.42984(8) 0.49310(6) 0.25069(2)
N1C N -0.1685(5) 0.3485(4) 0.48651(17)
N5D N -0.2031(7) 0.5801(4) 0.37765(17)
C6 C 0.188(4) 0.965(3) 0.3029(11)
H7 H 0.0724 0.9112 0.3273
H8 H 0.2782 1.0517 0.3329
C7 C 0.207(4) 0.909(3) 0.2429(11)
H9 H 0.1046 0.8093 0.2194
H10 H 0.3232 0.9632 0.2185
C6D C 0.223(5) 1.035(3) 0.3638(11)
H7D H 0.1612 1.0888 0.3394
H8D H 0.2265 0.9483 0.3338
C7D C 0.298(5) 1.091(3) 0.4238(11)
H9D H 0.2953 1.1907 0.4473
H10D H 0.3600 1.0368 0.4482
loop_
_geom_bond_atom_site_label_1
_geom_bond_atom_site_label_2
_geom_bond_site_symmetry_1
_geom_bond_site_symmetry_2
Zn1 N3 1_555 1_555
N1 N2 1_555 1_555
N2 C2 1_555 1_555
N3 C1 1_555 1_555
N4 H1 1_555 1_555
H2 N4 1_555 1_555
N5 C4 1_555 1_555
N6 Zn1 1_555 1_555
N7 N6 1_555 1_555
N8 H3 1_555 1_555
H4 N8 1_555 1_555
C1 N1 1_555 1_555
C2 N3 1_555 1_555
C3 C2 1_555 1_555
H5 C3 1_555 1_555
H6 C3 1_555 1_555
C4 N6 1_555 1_555
C5 N5 1_555 1_555
C6 H7 1_555 1_555
H8 C6 1_555 1_555
C7 C6 1_555 1_555
H9 C7 1_555 1_555
H10 C7 1_555 1_555
Zn1C N1 1_555 1_555
Zn1D N5 1_555 1_555
N1C Zn1 1_555 1_555
N5D Zn1 1_555 1_555
C6D H7D 1_555 1_555
H8D C6D 1_555 1_555
C7D C6D 1_555 1_555
H9D C7D 1_555 1_555
H10D C7D 1_555 1_555
N4 C1 1_555 1_555
N7 C5 1_555 1_555
N8 C5 1_555 1_555
C3 C4 1_555 1_555

#END
