
#######################################################################
#
#                 Cambridge Crystallographic Data Centre
#                                CCDC 
#
#######################################################################
#
# If this CIF has been generated from an entry in the Cambridge 
# Structural Database, then it will include bibliographic, chemical, 
# crystal, experimental, refinement or atomic coordinate data resulting 
# from the CCDC's data processing and validation procedures.
#
#######################################################################

data_EJEKOU01
_chemical_formula_moiety         
'(C3 H8 N1 O1 1+)n,n(C2 H8 N1 1+),n(C26 H16 Cl4 Co3 N8 O2 2-)'
_chemical_name_systematic        
'catena-(dimethylammonium N,N-dimethyl(oxo)methanaminium bis(\m~3~-3-(2-phenol)-5-(4-pyridyl)-1,2,4-triazole)-tetrachloro-tricobalt)'
_symmetry_cell_setting           monoclinic
_symmetry_space_group_name_H-M   'C 2/c'
_symmetry_Int_Tables_number      15
_space_group_name_Hall           '-C 2yc'
loop_
_symmetry_equiv_pos_site_id
_symmetry_equiv_pos_as_xyz
1 x,y,z
2 -x,y,1/2-z
3 1/2+x,1/2+y,z
4 1/2-x,1/2+y,1/2-z
5 -x,-y,-z
6 x,-y,1/2+z
7 1/2-x,1/2-y,-z
8 1/2+x,1/2-y,1/2+z
_cell_length_a                   20.787(2)
_cell_length_b                   15.4366(18)
_cell_length_c                   13.7906(15)
_cell_angle_alpha                90
_cell_angle_beta                 90.899(2)
_cell_angle_gamma                90
_cell_volume                     4424.59
_exptl_crystal_colour            blue
_exptl_crystal_description       block
_cell_formula_units_Z            4
loop_
_atom_site_label
_atom_site_type_symbol
_atom_site_fract_x
_atom_site_fract_y
_atom_site_fract_z
N5 N 0.5000 -0.0009(7) 0.2500
H9 H 0.4719 0.0338 0.2802
C14 C 0.4658(7) -0.0451(8) 0.1788(10)
H10 H 0.4450 -0.0048 0.1354
H11 H 0.4949 -0.0808 0.1431
H12 H 0.4339 -0.0808 0.2086
H9A H 0.5281 0.0338 0.2198
C14A C 0.5342(7) -0.0451(8) 0.3212(10)
H10A H 0.5550 -0.0048 0.3646
H11A H 0.5051 -0.0808 0.3569
H12A H 0.5661 -0.0808 0.2914
N6 N 0.7648(13) 0.2412(17) 0.4748(18)
C15 C 0.7920(15) 0.3087(15) 0.538(2)
H14 H 0.7909 0.2900 0.6039
H15 H 0.8358 0.3196 0.5198
C16 C 0.7682(17) 0.282(2) 0.376(2)
H17 H 0.7522 0.2418 0.3280
H18 H 0.7425 0.3336 0.3742
H19 H 0.8121 0.2963 0.3622
O2 O 0.8132(19) 0.1408(17) 0.550(3)
C17 C 0.777(2) 0.1594(15) 0.487(3)
N6F N 0.7352(13) 0.2588(17) 0.5252(18)
C15F C 0.7080(15) 0.1913(15) 0.462(2)
H14F H 0.7091 0.2100 0.3961
H15F H 0.6642 0.1804 0.4802
C16F C 0.7318(17) 0.218(2) 0.624(2)
H17F H 0.7478 0.2582 0.6720
H18F H 0.7575 0.1664 0.6258
H19F H 0.6879 0.2037 0.6378
O2F O 0.6868(19) 0.3592(17) 0.450(3)
C17F C 0.723(2) 0.3406(15) 0.513(3)
Co1 Co 0.2500 0.2500 0.5000
Co2 Co 0.16030(5) 0.38257(6) 0.63218(7)
Cl1 Cl 0.10805(11) 0.34161(16) 0.76680(16)
Cl2 Cl 0.12615(12) 0.51363(13) 0.5797(2)
O1 O 0.1568(2) 0.2958(3) 0.5275(3)
N1 N 0.2105(3) 0.1756(3) 0.3943(4)
N2 N 0.2446(3) 0.1171(4) 0.3414(4)
N3 N 0.1401(3) 0.0998(4) 0.3054(5)
N4 N 0.2345(3) -0.1426(3) 0.1032(5)
C1 C 0.1001(3) 0.2720(4) 0.4884(5)
C2 C 0.0433(4) 0.3085(5) 0.5213(6)
H1 H 0.0456 0.3490 0.5711
C3 C -0.0157(4) 0.2873(6) 0.4834(7)
H2 H -0.0524 0.3131 0.5079
C4 C -0.0211(4) 0.2280(7) 0.4090(7)
H3 H -0.0612 0.2131 0.3833
C5 C 0.0330(4) 0.1919(6) 0.3744(7)
H4 H 0.0294 0.1520 0.3240
C6 C 0.0945(4) 0.2122(5) 0.4113(5)
C7 C 0.1485(4) 0.1645(5) 0.3701(5)
C8 C 0.2004(4) 0.0720(5) 0.2903(6)
C9 C 0.2141(4) -0.0006(5) 0.2252(6)
C10 C 0.2732(4) -0.0209(5) 0.1929(7)
H5 H 0.3086 0.0125 0.2109
C11 C 0.2805(4) -0.0927(5) 0.1322(7)
H6 H 0.3217 -0.1053 0.1112
C12 C 0.1766(4) -0.1218(6) 0.1349(8)
H7 H 0.1420 -0.1559 0.1151
C13 C 0.1648(5) -0.0532(6) 0.1951(8)
H8 H 0.1232 -0.0431 0.2160
Co1C Co 0.2500 -0.2500 0.0000
Co1C_2 Co 0.2500 0.7500 1.0000
Co2F Co 0.33970(5) 0.11743(6) 0.36782(7)
Cl1F Cl 0.39195(11) 0.15839(16) 0.23320(16)
Cl2F Cl 0.37385(12) -0.01363(13) 0.4203(2)
O1F O 0.3432(2) 0.2042(3) 0.4725(3)
N1F N 0.2895(3) 0.3244(3) 0.6057(4)
N2F N 0.2554(3) 0.3829(4) 0.6586(4)
N3F N 0.3599(3) 0.4002(4) 0.6946(5)
N4F N 0.2655(3) 0.6426(3) 0.8968(5)
N4C N 0.2655(3) 0.3574(3) 0.3968(5)
N4E N 0.2345(3) 0.1426(3) 0.6032(5)
C1F C 0.3999(3) 0.2280(4) 0.5116(5)
C2F C 0.4567(4) 0.1915(5) 0.4787(6)
H1F H 0.4544 0.1510 0.4289
C3F C 0.5157(4) 0.2127(6) 0.5166(7)
H2F H 0.5524 0.1869 0.4921
C4F C 0.5211(4) 0.2720(7) 0.5910(7)
H3F H 0.5612 0.2869 0.6167
C5F C 0.4670(4) 0.3081(6) 0.6256(7)
H4F H 0.4706 0.3480 0.6760
C6F C 0.4055(4) 0.2878(5) 0.5887(5)
C7F C 0.3515(4) 0.3355(5) 0.6299(5)
C8F C 0.2996(4) 0.4280(5) 0.7097(6)
C9F C 0.2859(4) 0.5006(5) 0.7748(6)
C10F C 0.2268(4) 0.5209(5) 0.8071(7)
H5F H 0.1914 0.4875 0.7891
C11F C 0.2195(4) 0.5927(5) 0.8678(7)
H6F H 0.1783 0.6053 0.8888
C12F C 0.3234(4) 0.6218(6) 0.8651(8)
H7F H 0.3580 0.6559 0.8849
C13F C 0.3352(5) 0.5532(6) 0.8049(8)
H8F H 0.3768 0.5431 0.7840
H13? H 0.7220 0.2442 0.4878
H16? H 0.7673 0.3609 0.5301
H20? H 0.7585 0.1175 0.4468
loop_
_geom_bond_atom_site_label_1
_geom_bond_atom_site_label_2
_geom_bond_site_symmetry_1
_geom_bond_site_symmetry_2
Co1 O1 1_555 1_555
Co2 Cl1 1_555 1_555
Cl2 Co2 1_555 1_555
O1 Co2 1_555 1_555
N1 Co1 1_555 1_555
N2 N1 1_555 1_555
N3 C7 1_555 1_555
N4 C11 1_555 1_555
C1 O1 1_555 1_555
C2 C1 1_555 1_555
H1 C2 1_555 1_555
C3 C2 1_555 1_555
H2 C3 1_555 1_555
C4 C3 1_555 1_555
H3 C4 1_555 1_555
C5 C4 1_555 1_555
H4 C5 1_555 1_555
C6 C1 1_555 1_555
C7 N1 1_555 1_555
C8 N2 1_555 1_555
C9 C8 1_555 1_555
C10 C9 1_555 1_555
H5 C10 1_555 1_555
C11 C10 1_555 1_555
H6 C11 1_555 1_555
C12 N4 1_555 1_555
H7 C12 1_555 1_555
C13 C9 1_555 1_555
H8 C13 1_555 1_555
N5 H9 1_555 1_555
C14 N5 1_555 1_555
H10 C14 1_555 1_555
H11 C14 1_555 1_555
H12 C14 1_555 1_555
N6 C15 1_555 1_555
C15 H14 1_555 1_555
H15 C15 1_555 1_555
C16 N6 1_555 1_555
H17 C16 1_555 1_555
H18 C16 1_555 1_555
H19 C16 1_555 1_555
O2 C17 1_555 1_555
C17 N6 1_555 1_555
Co1C N4 1_555 1_555
Co1C_2 N4F 1_555 1_555
Co2F N2 1_555 1_555
Cl1F Co2F 1_555 1_555
Cl2F Co2F 1_555 1_555
O1F Co1 1_555 1_555
N1F Co1 1_555 1_555
N2F Co2 1_555 1_555
N3F C7F 1_555 1_555
N4F C11F 1_555 1_555
N4C Co1 1_555 1_555
N4E Co1 1_555 1_555
C1F O1F 1_555 1_555
C2F C1F 1_555 1_555
H1F C2F 1_555 1_555
C3F C2F 1_555 1_555
H2F C3F 1_555 1_555
C4F C3F 1_555 1_555
H3F C4F 1_555 1_555
C5F C4F 1_555 1_555
H4F C5F 1_555 1_555
C6F C1F 1_555 1_555
C7F N1F 1_555 1_555
C8F N2F 1_555 1_555
C9F C8F 1_555 1_555
C10F C9F 1_555 1_555
H5F C10F 1_555 1_555
C11F C10F 1_555 1_555
H6F C11F 1_555 1_555
C12F N4F 1_555 1_555
H7F C12F 1_555 1_555
C13F C9F 1_555 1_555
H8F C13F 1_555 1_555
H9A N5 1_555 1_555
C14A N5 1_555 1_555
H10A C14A 1_555 1_555
H11A C14A 1_555 1_555
H12A C14A 1_555 1_555
N6F N6 1_555 1_555
C15F N6 1_555 1_555
H14F C15F 1_555 1_555
H15F C15F 1_555 1_555
C16F N6F 1_555 1_555
H17F C16F 1_555 1_555
H18F C16F 1_555 1_555
H19F C16F 1_555 1_555
O2F C17F 1_555 1_555
C17F C15 1_555 1_555
N3 C8 1_555 1_555
C5 C6 1_555 1_555
C6 C7 1_555 1_555
C12 C13 1_555 1_555
C15 N6F 1_555 1_555
C17 C15F 1_555 1_555
Co2F O1F 1_555 1_555
N1F N2F 1_555 1_555
N3F C8F 1_555 1_555
C5F C6F 1_555 1_555
C6F C7F 1_555 1_555
C12F C13F 1_555 1_555
N6F C15F 1_555 1_555
N6F C17F 1_555 1_555

#END
