
#######################################################################
#
#                 Cambridge Crystallographic Data Centre
#                                CCDC 
#
#######################################################################
#
# If this CIF has been generated from an entry in the Cambridge 
# Structural Database, then it will include bibliographic, chemical, 
# crystal, experimental, refinement or atomic coordinate data resulting 
# from the CCDC's data processing and validation procedures.
#
#######################################################################

data_EJEKIO
_chemical_formula_moiety         
'(C26 H16 Cl4 Co3 N8 O2 2-)n,n(C2 H8 N1 1+),n(C3 H8 N1 O1 1+),3n(H2 O1)'
_chemical_name_systematic        
'catena-(dimethylammonium N,N-dimethyl(oxo)methanaminium bis(\m~3~-3-(2-phenol)-5-(4-pyridyl)-1,2,4-triazole)-tetrachloro-tri-cobalt hemikis(dimethylformamide) clathrate trihydrate)'
_symmetry_cell_setting           monoclinic
_symmetry_space_group_name_H-M   'C 2/c'
_symmetry_Int_Tables_number      15
_space_group_name_Hall           '-C 2yc'
loop_
_symmetry_equiv_pos_site_id
_symmetry_equiv_pos_as_xyz
1 x,y,z
2 -x,y,1/2-z
3 1/2+x,1/2+y,z
4 1/2-x,1/2+y,1/2-z
5 -x,-y,-z
6 x,-y,1/2+z
7 1/2-x,1/2-y,-z
8 1/2+x,1/2-y,1/2+z
_cell_length_a                   20.4490(17)
_cell_length_b                   15.5529(13)
_cell_length_c                   13.6581(11)
_cell_angle_alpha                90
_cell_angle_beta                 90.197(2)
_cell_angle_gamma                90
_cell_volume                     4343.81
_exptl_crystal_colour            blue
_exptl_crystal_description       block
_cell_formula_units_Z            4
loop_
_atom_site_label
_atom_site_type_symbol
_atom_site_fract_x
_atom_site_fract_y
_atom_site_fract_z
N5 N 0.0000 -0.0079(5) 0.7500
H9 H 0.0274 0.0265 0.7168
C14 C 0.0381(4) -0.0521(7) 0.8201(7)
H10 H 0.0604 -0.0117 0.8615
H11 H 0.0100 -0.0876 0.8592
H12 H 0.0695 -0.0875 0.7872
H9A H -0.0274 0.0265 0.7832
C14A C -0.0381(4) -0.0521(7) 0.6799(7)
H10A H -0.0604 -0.0117 0.6385
H11A H -0.0100 -0.0876 0.6408
H12A H -0.0695 -0.0875 0.7128
O2 O 0.4716(11) -0.0363(14) 0.5953(15)
H13 H 0.4343 -0.0543 0.5771
H14 H 0.4640 0.0103 0.6257
O3 O 0.5000 -0.144(2) 0.7500
H15 H 0.5223 -0.1034 0.7753
H15A H 0.4777 -0.1034 0.7247
N6 N 0.2400(7) -0.2642(8) 0.4643(10)
H16 H 0.2644 -0.2789 0.5194
C15 C 0.2746(9) -0.2789(11) 0.3718(11)
H17 H 0.2956 -0.3341 0.3727
H18 H 0.3065 -0.2351 0.3593
H19 H 0.2418 -0.2779 0.3213
C16 C 0.2211(10) -0.1726(9) 0.4611(16)
H20 H 0.1998 -0.1577 0.5212
H21 H 0.1896 -0.1736 0.4089
H22 H 0.2543 -0.1307 0.4468
C17 C 0.1785(14) -0.308(2) 0.458(2)
H23 H 0.1363 -0.2823 0.4528
O4 O 0.1922(12) -0.3854(11) 0.4620(18)
N6F N 0.2600(7) -0.2358(8) 0.5357(10)
H16F H 0.2356 -0.2211 0.4806
C15F C 0.2254(9) -0.2211(11) 0.6282(11)
H17F H 0.2044 -0.1659 0.6273
H18F H 0.1935 -0.2649 0.6407
H19F H 0.2582 -0.2221 0.6787
C16F C 0.2789(10) -0.3274(9) 0.5389(16)
H20F H 0.3002 -0.3423 0.4788
H21F H 0.3104 -0.3264 0.5911
H22F H 0.2457 -0.3693 0.5532
C17F C 0.3215(14) -0.192(2) 0.542(2)
H23F H 0.3637 -0.2177 0.5472
O4F O 0.3078(12) -0.1146(11) 0.5380(18)
Co1 Co 0.2500 0.7500 0.0000
Co2 Co 0.34054(3) 0.61637(5) -0.13349(5)
Cl1 Cl 0.37372(8) 0.48641(10) -0.07716(13)
Cl2 Cl 0.39590(7) 0.65573(11) -0.26973(11)
O1 O 0.34497(16) 0.7042(2) -0.0295(2)
N1 N 0.2910(2) 0.8237(3) 0.1063(3)
N2 N 0.2564(2) 0.8841(3) 0.1588(3)
N3 N 0.3629(2) 0.9015(3) 0.1917(4)
N4 N 0.2660(2) 1.1428(3) 0.3964(3)
C1 C 0.4027(2) 0.7262(3) 0.0103(4)
C2 C 0.4605(3) 0.6890(4) -0.0240(4)
H1 H 0.4579 0.6492 -0.0766
C3 C 0.5211(3) 0.7076(4) 0.0151(4)
H2 H 0.5592 0.6800 -0.0094
C4 C 0.5259(3) 0.7668(5) 0.0904(5)
H3 H 0.5674 0.7807 0.1176
C5 C 0.4705(3) 0.8050(5) 0.1254(5)
H4 H 0.4741 0.8450 0.1776
C6 C 0.4088(3) 0.7868(4) 0.0866(4)
C7 C 0.3533(3) 0.8368(4) 0.1286(4)
C8 C 0.3018(3) 0.9282(4) 0.2082(4)
C9 C 0.2877(3) 1.0029(4) 0.2732(4)
C10 C 0.2269(3) 1.0215(5) 0.3077(5)
H5 H 0.1905 0.9865 0.2907
C11 C 0.2188(3) 1.0924(4) 0.3681(5)
H6 H 0.1759 1.1049 0.3903
C12 C 0.3251(4) 1.1245(5) 0.3619(6)
H7 H 0.3606 1.1605 0.3803
C13 C 0.3373(3) 1.0567(6) 0.3015(7)
H8 H 0.3805 1.0467 0.2789
Co1C Co 0.2500 1.2500 0.5000
Co1C_2 Co 0.2500 0.2500 -0.5000
Co2F Co 0.15946(3) 0.88363(5) 0.13349(5)
Cl1F Cl 0.12628(8) 1.01359(10) 0.07716(13)
Cl2F Cl 0.10410(7) 0.84427(11) 0.26973(11)
O1F O 0.15503(16) 0.7958(2) 0.0295(2)
N1F N 0.2090(2) 0.6763(3) -0.1063(3)
N2F N 0.2436(2) 0.6159(3) -0.1588(3)
N3F N 0.1371(2) 0.5985(3) -0.1917(4)
N4F N 0.2340(2) 0.3572(3) -0.3964(3)
N4C N 0.2340(2) 0.6428(3) 0.1036(3)
N4E N 0.2660(2) 0.8572(3) -0.1036(3)
C1F C 0.0973(2) 0.7738(3) -0.0103(4)
C2F C 0.0395(3) 0.8110(4) 0.0240(4)
H1F H 0.0421 0.8508 0.0766
C3F C -0.0211(3) 0.7924(4) -0.0151(4)
H2F H -0.0592 0.8200 0.0094
C4F C -0.0259(3) 0.7332(5) -0.0904(5)
H3F H -0.0674 0.7193 -0.1176
C5F C 0.0295(3) 0.6950(5) -0.1254(5)
H4F H 0.0259 0.6550 -0.1776
C6F C 0.0912(3) 0.7132(4) -0.0866(4)
C7F C 0.1467(3) 0.6632(4) -0.1286(4)
C8F C 0.1982(3) 0.5718(4) -0.2082(4)
C9F C 0.2123(3) 0.4971(4) -0.2732(4)
C10F C 0.2731(3) 0.4785(5) -0.3077(5)
H5F H 0.3095 0.5135 -0.2907
C11F C 0.2812(3) 0.4076(4) -0.3681(5)
H6F H 0.3241 0.3951 -0.3903
C12F C 0.1749(4) 0.3755(5) -0.3619(6)
H7F H 0.1394 0.3395 -0.3803
C13F C 0.1627(3) 0.4433(6) -0.3015(7)
H8F H 0.1195 0.4533 -0.2789
loop_
_geom_bond_atom_site_label_1
_geom_bond_atom_site_label_2
_geom_bond_site_symmetry_1
_geom_bond_site_symmetry_2
Co1 O1 1_555 1_555
Co2 Cl1 1_555 1_555
Cl2 Co2 1_555 1_555
O1 Co2 1_555 1_555
N1 Co1 1_555 1_555
N2 N1 1_555 1_555
N3 C7 1_555 1_555
N4 C11 1_555 1_555
C1 O1 1_555 1_555
C2 C1 1_555 1_555
H1 C2 1_555 1_555
C3 C2 1_555 1_555
H2 C3 1_555 1_555
C4 C3 1_555 1_555
H3 C4 1_555 1_555
C5 C4 1_555 1_555
H4 C5 1_555 1_555
C6 C1 1_555 1_555
C7 N1 1_555 1_555
C8 N2 1_555 1_555
C9 C8 1_555 1_555
C10 C9 1_555 1_555
H5 C10 1_555 1_555
C11 C10 1_555 1_555
H6 C11 1_555 1_555
C12 N4 1_555 1_555
H7 C12 1_555 1_555
C13 C9 1_555 1_555
H8 C13 1_555 1_555
N5 H9 1_555 1_555
C14 N5 1_555 1_555
H10 C14 1_555 1_555
H11 C14 1_555 1_555
H12 C14 1_555 1_555
O2 H13 1_555 1_555
H14 O2 1_555 1_555
O3 H15 1_555 1_555
N6 H16 1_555 1_555
H16 N6F 1_555 1_555
C15 N6 1_555 1_555
H17 C15 1_555 1_555
H18 C15 1_555 1_555
H19 C15 1_555 1_555
C16 N6 1_555 1_555
H20 C16 1_555 1_555
H21 C16 1_555 1_555
H22 C16 1_555 1_555
C17 N6 1_555 1_555
H23 C17 1_555 1_555
O4 C17 1_555 1_555
Co1C N4 1_555 1_555
Co1C_2 N4F 1_555 1_555
Co2F N2 1_555 1_555
Cl1F Co2F 1_555 1_555
Cl2F Co2F 1_555 1_555
O1F Co1 1_555 1_555
N1F Co1 1_555 1_555
N2F Co2 1_555 1_555
N3F C7F 1_555 1_555
N4F C11F 1_555 1_555
N4C Co1 1_555 1_555
N4E Co1 1_555 1_555
C1F O1F 1_555 1_555
C2F C1F 1_555 1_555
H1F C2F 1_555 1_555
C3F C2F 1_555 1_555
H2F C3F 1_555 1_555
C4F C3F 1_555 1_555
H3F C4F 1_555 1_555
C5F C4F 1_555 1_555
H4F C5F 1_555 1_555
C6F C1F 1_555 1_555
C7F N1F 1_555 1_555
C8F N2F 1_555 1_555
C9F C8F 1_555 1_555
C10F C9F 1_555 1_555
H5F C10F 1_555 1_555
C11F C10F 1_555 1_555
H6F C11F 1_555 1_555
C12F N4F 1_555 1_555
H7F C12F 1_555 1_555
C13F C9F 1_555 1_555
H8F C13F 1_555 1_555
H9A N5 1_555 1_555
C14A N5 1_555 1_555
H10A C14A 1_555 1_555
H11A C14A 1_555 1_555
H12A C14A 1_555 1_555
H15A O3 1_555 1_555
N6F N6 1_555 1_555
H16F N6 1_555 1_555
C15F N6F 1_555 1_555
H17F C15F 1_555 1_555
H18F C15F 1_555 1_555
H19F C15F 1_555 1_555
C16F N6 1_555 1_555
H20F C16F 1_555 1_555
H21F C16F 1_555 1_555
H22F C16F 1_555 1_555
C17F N6F 1_555 1_555
H23F C17F 1_555 1_555
O4F C17F 1_555 1_555
N3 C8 1_555 1_555
C5 C6 1_555 1_555
C6 C7 1_555 1_555
C12 C13 1_555 1_555
H16 C16F 1_555 1_555
C16 N6F 1_555 1_555
C16 H16F 1_555 1_555
Co2F O1F 1_555 1_555
N1F N2F 1_555 1_555
N3F C8F 1_555 1_555
C5F C6F 1_555 1_555
C6F C7F 1_555 1_555
C12F C13F 1_555 1_555
N6F H16F 1_555 1_555
N6F C16F 1_555 1_555

#END
