
#######################################################################
#
#                 Cambridge Crystallographic Data Centre
#                                CCDC 
#
#######################################################################
#
# If this CIF has been generated from an entry in the Cambridge 
# Structural Database, then it will include bibliographic, chemical, 
# crystal, experimental, refinement or atomic coordinate data resulting 
# from the CCDC's data processing and validation procedures.
#
#######################################################################

data_EJELAH
_chemical_formula_moiety         
'(C26 H16 Cl4 Co3 N8 O2 2-)n,n(C3 H8 N1 O1 1+),n(C2 H8 N1 1+),n(C1 O2)'
_chemical_name_systematic        
'catena-(dimethylammonium N,N-dimethyl(oxo)methanaminium bis(\m~3~-3-(2-phenol)-5-(4-pyridyl)-1,2,4-triazole)-tetrachloro-tricobalt carbon dioxide)'
_symmetry_cell_setting           monoclinic
_symmetry_space_group_name_H-M   'C 2/c'
_symmetry_Int_Tables_number      15
_space_group_name_Hall           '-C 2yc'
loop_
_symmetry_equiv_pos_site_id
_symmetry_equiv_pos_as_xyz
1 x,y,z
2 -x,y,1/2-z
3 1/2+x,1/2+y,z
4 1/2-x,1/2+y,1/2-z
5 -x,-y,-z
6 x,-y,1/2+z
7 1/2-x,1/2-y,-z
8 1/2+x,1/2-y,1/2+z
_cell_length_a                   20.471(2)
_cell_length_b                   15.3812(17)
_cell_length_c                   13.8175(16)
_cell_angle_alpha                90
_cell_angle_beta                 90.271(2)
_cell_angle_gamma                90
_cell_volume                     4350.65
_exptl_crystal_colour            blue
_exptl_crystal_description       block
_cell_formula_units_Z            4
loop_
_atom_site_label
_atom_site_type_symbol
_atom_site_fract_x
_atom_site_fract_y
_atom_site_fract_z
N5 N 0.5000 -0.0084(6) 0.2500
H9 H 0.5277 0.0263 0.2175
C14 C 0.5373(5) -0.0547(7) 0.3186(8)
H10 H 0.5170 -0.1100 0.3296
H11 H 0.5808 -0.0635 0.2947
H12 H 0.5392 -0.0228 0.3783
H9A H 0.4723 0.0263 0.2825
C14A C 0.4627(5) -0.0547(7) 0.1814(8)
H10A H 0.4830 -0.1100 0.1704
H11A H 0.4192 -0.0635 0.2053
H12A H 0.4608 -0.0228 0.1217
N6 N -0.2660(6) -0.2516(8) -0.0501(10)
C15 C -0.2232(7) -0.2739(11) -0.1333(11)
H14 H -0.2170 -0.3370 -0.1360
H15 H -0.2436 -0.2538 -0.1936
H16 H -0.1807 -0.2454 -0.1250
C16 C -0.2717(9) -0.1574(8) -0.0554(16)
H17 H -0.2993 -0.1367 -0.0024
H18 H -0.2283 -0.1311 -0.0499
H19 H -0.2915 -0.1410 -0.1175
C17 C -0.3203(7) -0.2992(10) -0.0398(13)
H20 H -0.3632 -0.2765 -0.0330
O2 O -0.3063(12) -0.3750(10) -0.040(2)
N6F N -0.2340(6) -0.2484(8) 0.0501(10)
C15F C -0.2768(7) -0.2261(11) 0.1333(11)
H14F H -0.2830 -0.1630 0.1360
H15F H -0.2564 -0.2462 0.1936
H16F H -0.3193 -0.2546 0.1250
C16F C -0.2283(9) -0.3426(8) 0.0554(16)
H17F H -0.2007 -0.3633 0.0024
H18F H -0.2717 -0.3689 0.0499
H19F H -0.2085 -0.3590 0.1175
C17F C -0.1797(7) -0.2008(10) 0.0398(13)
H20F H -0.1368 -0.2235 0.0330
O2F O -0.1937(12) -0.1250(10) 0.040(2)
O3 O -0.1109(9) -0.0784(14) 0.0578(16)
O4 O -0.0055(9) -0.0442(14) 0.1077(17)
C18 C -0.0591(11) -0.055(3) 0.083(3)
Co1 Co 0.2500 0.7500 1.0000
Co2 Co 0.15965(4) 0.61553(6) 1.13176(6)
Cl1 Cl 0.10430(8) 0.65559(13) 1.26597(13)
Cl2 Cl 0.12710(9) 0.48385(12) 1.07704(15)
O1 O 0.15498(19) 0.7035(3) 1.0283(3)
N1 N 0.2093(2) 0.8242(3) 0.8943(4)
N2 N 0.2437(2) 0.8841(3) 0.8416(4)
N3 N 0.1374(3) 0.8999(3) 0.8059(4)
N4 N 0.2336(2) 1.1422(3) 0.6019(4)
C1 C 0.0968(3) 0.7261(4) 0.9878(4)
C2 C 0.0396(3) 0.6893(4) 1.0244(5)
H1 H 0.0424 0.6492 1.0766
C3 C -0.0215(3) 0.7101(5) 0.9862(5)
H2 H -0.0597 0.6835 1.0113
C4 C -0.0264(3) 0.7690(5) 0.9126(5)
H3 H -0.0680 0.7837 0.8865
C5 C 0.0290(3) 0.8067(5) 0.8765(5)
H4 H 0.0252 0.8481 0.8258
C6 C 0.0914(3) 0.7857(4) 0.9125(4)
C7 C 0.1464(3) 0.8358(4) 0.8710(4)
C8 C 0.1986(3) 0.9281(4) 0.7901(5)
C9 C 0.2124(3) 1.0011(4) 0.7253(4)
C10 C 0.1626(4) 1.0498(5) 0.6903(6)
H5 H 0.1190 1.0358 0.7075
C11 C 0.1741(4) 1.1195(5) 0.6301(6)
H6 H 0.1379 1.1527 0.6079
C12 C 0.2821(3) 1.0936(5) 0.6334(6)
H7 H 0.3251 1.1078 0.6134
C13 C 0.2738(3) 1.0224(5) 0.6946(6)
H8 H 0.3104 0.9890 0.7148
Co1C Co 0.2500 1.2500 0.5000
Co1C_2 Co 0.2500 0.2500 1.5000
Co2F Co 0.34035(4) 0.88447(6) 0.86824(6)
Cl1F Cl 0.39570(8) 0.84441(13) 0.73403(13)
Cl2F Cl 0.37290(9) 1.01615(12) 0.92296(15)
O1F O 0.34502(19) 0.7965(3) 0.9717(3)
N1F N 0.2907(2) 0.6758(3) 1.1057(4)
N2F N 0.2563(2) 0.6159(3) 1.1584(4)
N3F N 0.3626(3) 0.6001(3) 1.1941(4)
N4F N 0.2664(2) 0.3578(3) 1.3981(4)
N4C N 0.2664(2) 0.6422(3) 0.8981(4)
N4E N 0.2336(2) 0.8578(3) 1.1019(4)
C1F C 0.4032(3) 0.7739(4) 1.0122(4)
C2F C 0.4604(3) 0.8107(4) 0.9756(5)
H1F H 0.4576 0.8508 0.9234
C3F C 0.5215(3) 0.7899(5) 1.0138(5)
H2F H 0.5597 0.8165 0.9887
C4F C 0.5264(3) 0.7310(5) 1.0874(5)
H3F H 0.5680 0.7163 1.1135
C5F C 0.4710(3) 0.6933(5) 1.1235(5)
H4F H 0.4748 0.6519 1.1742
C6F C 0.4086(3) 0.7143(4) 1.0875(4)
C7F C 0.3536(3) 0.6642(4) 1.1290(4)
C8F C 0.3014(3) 0.5719(4) 1.2099(5)
C9F C 0.2876(3) 0.4989(4) 1.2747(4)
C10F C 0.3374(4) 0.4502(5) 1.3097(6)
H5F H 0.3810 0.4642 1.2925
C11F C 0.3259(4) 0.3805(5) 1.3699(6)
H6F H 0.3621 0.3473 1.3921
C12F C 0.2179(3) 0.4064(5) 1.3666(6)
H7F H 0.1749 0.3922 1.3866
C13F C 0.2262(3) 0.4776(5) 1.3054(6)
H8F H 0.1896 0.5110 1.2852
H13? H -0.2410 -0.2627 0.0049
loop_
_geom_bond_atom_site_label_1
_geom_bond_atom_site_label_2
_geom_bond_site_symmetry_1
_geom_bond_site_symmetry_2
Co1 O1 1_555 1_555
Co2 Cl1 1_555 1_555
Cl2 Co2 1_555 1_555
O1 Co2 1_555 1_555
N1 Co1 1_555 1_555
N2 N1 1_555 1_555
N3 C7 1_555 1_555
N4 C11 1_555 1_555
C1 O1 1_555 1_555
C2 C1 1_555 1_555
H1 C2 1_555 1_555
C3 C2 1_555 1_555
H2 C3 1_555 1_555
C4 C3 1_555 1_555
H3 C4 1_555 1_555
C5 C4 1_555 1_555
H4 C5 1_555 1_555
C6 C1 1_555 1_555
C7 N1 1_555 1_555
C8 N2 1_555 1_555
C9 C8 1_555 1_555
C10 C9 1_555 1_555
H5 C10 1_555 1_555
C11 C10 1_555 1_555
H6 C11 1_555 1_555
C12 N4 1_555 1_555
H7 C12 1_555 1_555
C13 C9 1_555 1_555
H8 C13 1_555 1_555
N5 H9 1_555 1_555
C14 N5 1_555 1_555
H10 C14 1_555 1_555
H11 C14 1_555 1_555
H12 C14 1_555 1_555
N6 C15 1_555 1_555
C15 H14 1_555 1_555
H15 C15 1_555 1_555
H16 C15 1_555 1_555
C16 N6 1_555 1_555
H17 C16 1_555 1_555
H18 C16 1_555 1_555
H19 C16 1_555 1_555
C17 N6 1_555 1_555
H20 C17 1_555 1_555
O2 C17 1_555 1_555
O3 C18 1_555 1_555
O4 C18 1_555 1_555
Co1C N4 1_555 1_555
Co1C_2 N4F 1_555 1_555
Co2F N2 1_555 1_555
Cl1F Co2F 1_555 1_555
Cl2F Co2F 1_555 1_555
O1F Co1 1_555 1_555
N1F Co1 1_555 1_555
N2F Co2 1_555 1_555
N3F C7F 1_555 1_555
N4F C11F 1_555 1_555
N4C Co1 1_555 1_555
N4E Co1 1_555 1_555
C1F O1F 1_555 1_555
C2F C1F 1_555 1_555
H1F C2F 1_555 1_555
C3F C2F 1_555 1_555
H2F C3F 1_555 1_555
C4F C3F 1_555 1_555
H3F C4F 1_555 1_555
C5F C4F 1_555 1_555
H4F C5F 1_555 1_555
C6F C1F 1_555 1_555
C7F N1F 1_555 1_555
C8F N2F 1_555 1_555
C9F C8F 1_555 1_555
C10F C9F 1_555 1_555
H5F C10F 1_555 1_555
C11F C10F 1_555 1_555
H6F C11F 1_555 1_555
C12F N4F 1_555 1_555
H7F C12F 1_555 1_555
C13F C9F 1_555 1_555
H8F C13F 1_555 1_555
H9A N5 1_555 1_555
C14A N5 1_555 1_555
H10A C14A 1_555 1_555
H11A C14A 1_555 1_555
H12A C14A 1_555 1_555
N6F N6 1_555 1_555
C15F N6F 1_555 1_555
H14F C15F 1_555 1_555
H15F C15F 1_555 1_555
H16F C15F 1_555 1_555
C16F N6F 1_555 1_555
H17F C16F 1_555 1_555
H18F C16F 1_555 1_555
H19F C16F 1_555 1_555
C17F N6F 1_555 1_555
H20F C17F 1_555 1_555
O2F C17F 1_555 1_555
N3 C8 1_555 1_555
C5 C6 1_555 1_555
C6 C7 1_555 1_555
C12 C13 1_555 1_555
Co2F O1F 1_555 1_555
N1F N2F 1_555 1_555
N3F C8F 1_555 1_555
C5F C6F 1_555 1_555
C6F C7F 1_555 1_555
C12F C13F 1_555 1_555

#END
