
#######################################################################
#
#                 Cambridge Crystallographic Data Centre
#                                CCDC 
#
#######################################################################
#
# If this CIF has been generated from an entry in the Cambridge 
# Structural Database, then it will include bibliographic, chemical, 
# crystal, experimental, refinement or atomic coordinate data resulting 
# from the CCDC's data processing and validation procedures.
#
#######################################################################

data_UNABUH01
_chemical_formula_moiety         '(C14 H8 Cu1 N2 O5)n,2n(H2 O1)'
_chemical_name_systematic        
'catena-((\m~3~-5-(isonicotinoylamino)isophthalato)-copper(ii) dihydrate)'
_symmetry_cell_setting           monoclinic
_symmetry_space_group_name_H-M   'P 21/c'
_symmetry_Int_Tables_number      14
_space_group_name_Hall           '-P 2ybc'
loop_
_symmetry_equiv_pos_site_id
_symmetry_equiv_pos_as_xyz
1 x,y,z
2 -x,1/2+y,1/2-z
3 -x,-y,-z
4 x,1/2-y,1/2+z
_cell_length_a                   8.4048(12)
_cell_length_b                   10.2379(15)
_cell_length_c                   17.7707(18)
_cell_angle_alpha                90
_cell_angle_beta                 104.405(5)
_cell_angle_gamma                90
_cell_volume                     1481.05
_exptl_crystal_colour            green
_exptl_crystal_description       block
_cell_formula_units_Z            4
_exptl_crystal_preparation       'rehydrated crystal'
loop_
_atom_site_label
_atom_site_type_symbol
_atom_site_fract_x
_atom_site_fract_y
_atom_site_fract_z
Cu1 Cu 0.60575(6) -0.55774(5) 0.43204(3)
C1 C 0.5201(5) -0.6108(4) 0.1976(2)
C2 C 0.5606(5) -0.7028(4) 0.1493(2)
H1 H 0.6327 -0.7703 0.1696
C3 C 0.4927(5) -0.6941(4) 0.0697(2)
C4 C 0.3837(5) -0.5944(4) 0.0381(2)
H2 H 0.3392 -0.5892 -0.0152
C5 C 0.3427(5) -0.5027(4) 0.0882(2)
C6 C 0.4119(5) -0.5111(4) 0.1667(2)
H3 H 0.3856 -0.4488 0.1998
C7 C 0.5892(5) -0.6191(4) 0.2839(2)
C8 C 0.5304(5) -0.7929(4) 0.0166(2)
C9 C 0.1320(5) -0.3829(4) -0.0088(2)
C10 C 0.0169(5) -0.2683(4) -0.0189(2)
C11 C -0.0583(5) -0.2303(5) -0.0946(2)
H4 H -0.0305 -0.2711 -0.1363
C12 C -0.1724(5) -0.1335(5) -0.1074(2)
H5 H -0.2216 -0.1090 -0.1582
C13 C -0.1423(5) -0.1074(4) 0.0237(2)
H6 H -0.1710 -0.0644 0.0645
C14 C -0.0261(5) -0.2041(4) 0.0407(2)
H7 H 0.0228 -0.2258 0.0921
N1 N -0.2161(4) -0.0722(4) -0.0490(2)
N2 N 0.2335(4) -0.3984(4) 0.0627(2)
H8 H 0.2312 -0.3381 0.0961
O1 O 0.5305(4) -0.5362(3) 0.32362(15)
O2 O 0.6936(4) -0.7007(3) 0.31250(17)
O3 O 0.4745(3) -0.7840(3) -0.05582(16)
O4 O 0.6208(4) -0.8906(3) 0.04172(16)
O5 O 0.1271(4) -0.4573(3) -0.06255(17)
Cu1C Cu -0.39425(6) 0.05774(5) -0.06796(3)
Cu1C_2 Cu 0.60575(6) -0.94226(5) -0.06796(3)
N1C N 0.7839(4) -0.4278(4) 0.4510(2)
O3C O 0.4745(3) -0.7160(3) 0.44418(16)
O4C O 0.6208(4) -0.6094(3) 0.54172(16)
O6 O -0.1629(10) -0.1204(15) -0.7951(4)
O7 O -0.082(2) -0.4185(17) -0.7876(6)
O8? O 0.025(3) -0.434(3) -0.7989(13)
loop_
_geom_bond_atom_site_label_1
_geom_bond_atom_site_label_2
_geom_bond_site_symmetry_1
_geom_bond_site_symmetry_2
Cu1 O1 1_555 1_555
C1 C2 1_555 1_555
C2 H1 1_555 1_555
C3 C2 1_555 1_555
C4 C3 1_555 1_555
H2 C4 1_555 1_555
C5 C4 1_555 1_555
C6 C1 1_555 1_555
H3 C6 1_555 1_555
C7 C1 1_555 1_555
C8 C3 1_555 1_555
C9 C10 1_555 1_555
C10 C11 1_555 1_555
C11 H4 1_555 1_555
C12 C11 1_555 1_555
H5 C12 1_555 1_555
C13 H6 1_555 1_555
C14 C10 1_555 1_555
H7 C14 1_555 1_555
N1 C12 1_555 1_555
N2 C5 1_555 1_555
H8 N2 1_555 1_555
O1 C7 1_555 1_555
O2 C7 1_555 1_555
O3 C8 1_555 1_555
O4 C8 1_555 1_555
O5 C9 1_555 1_555
Cu1C N1 1_555 1_555
Cu1C_2 O3 1_555 1_555
N1C Cu1 1_555 1_555
O3C Cu1 1_555 1_555
O4C Cu1 1_555 1_555
C5 C6 1_555 1_555
C9 N2 1_555 1_555
C13 C14 1_555 1_555
C13 N1 1_555 1_555
O4 Cu1C_2 1_555 1_555

#END
