
#######################################################################
#
#                 Cambridge Crystallographic Data Centre
#                                CCDC 
#
#######################################################################
#
# If this CIF has been generated from an entry in the Cambridge 
# Structural Database, then it will include bibliographic, chemical, 
# crystal, experimental, refinement or atomic coordinate data resulting 
# from the CCDC's data processing and validation procedures.
#
#######################################################################

data_WUHLAO
_chemical_formula_moiety         
'(C4 H4 N2 O3 Zn1)n,x(C4 H9 N1 O1),x(C3 H8 O1),x(H2 O1)'
_chemical_name_systematic        
'catena-[(\m-4-carboxylatopyrazolato)-aqua-zinc N,N-dimethylacetamide isopropanol solvate hydrate]'
_symmetry_cell_setting           monoclinic
_symmetry_space_group_name_H-M   'P 21/n'
_symmetry_Int_Tables_number      14
_space_group_name_Hall           '-P 2yn'
loop_
_symmetry_equiv_pos_site_id
_symmetry_equiv_pos_as_xyz
1 x,y,z
2 1/2-x,1/2+y,1/2-z
3 -x,-y,-z
4 1/2+x,1/2-y,1/2+z
_cell_length_a                   8.8126(3)
_cell_length_b                   10.6094(3)
_cell_length_c                   10.5394(3)
_cell_angle_alpha                90
_cell_angle_beta                 96.180(3)
_cell_angle_gamma                90
_cell_volume                     979.669
_exptl_crystal_colour            colorless
_exptl_crystal_description       prism
_cell_formula_units_Z            4
loop_
_atom_site_label
_atom_site_type_symbol
_atom_site_fract_x
_atom_site_fract_y
_atom_site_fract_z
_atom_site_U_iso_or_equiv
_atom_site_thermal_displace_type
Zn1 Zn 0.81496(3) 0.42688(3) 0.48894(3) 0.0105 Uani
O1 O 0.66780(19) 0.48369(17) 0.34493(16) 0.0204 Uani
O2 O 0.7177(2) 0.77428(16) 0.90673(16) 0.0189 Uani
O3 O 0.91973(19) 0.89353(16) 0.89552(16) 0.0190 Uani
N1 N 0.8765(2) 0.56846(18) 0.60635(19) 0.0132 Uani
N2 N 1.0145(2) 0.62944(19) 0.60889(18) 0.0138 Uani
C1 C 0.7991(3) 0.6208(2) 0.6950(2) 0.0152 Uani
H1 H 0.7003 0.5958 0.7133 0.0180 Uiso
C2 C 0.8413(3) 0.7999(2) 0.8578(2) 0.0136 Uani
C3 C 0.8848(3) 0.7177(2) 0.7565(2) 0.0130 Uani
C4 C 1.0193(3) 0.7190(2) 0.6978(2) 0.0157 Uani
H2 H 1.1020 0.7755 0.7181 0.0190 Uiso
Zn1A Zn 0.68504(3) 0.92688(3) 1.01106(3) 0.0105 Uani
Zn1B Zn 1.18504(3) 0.57312(3) 0.51106(3) 0.0105 Uani
O2A O 0.7823(2) 0.27428(16) 0.59327(16) 0.0189 Uani
O3A O 0.58027(19) 0.39353(16) 0.60448(16) 0.0190 Uani
N2B N 0.9855(2) 0.37056(19) 0.39111(18) 0.0138 Uani
loop_
_atom_site_aniso_label
_atom_site_aniso_U_11
_atom_site_aniso_U_22
_atom_site_aniso_U_33
_atom_site_aniso_U_23
_atom_site_aniso_U_13
_atom_site_aniso_U_12
Zn1 0.01088(17) 0.01021(17) 0.01121(18) 0.00105(11) 0.00495(11) 0.00087(10)
O1 0.0178(9) 0.0258(9) 0.0169(8) 0.0007(7) -0.0009(7) 0.0034(7)
O2 0.0226(9) 0.0153(8) 0.0215(9) -0.0061(7) 0.0141(7) -0.0044(7)
O3 0.0189(9) 0.0166(8) 0.0218(9) -0.0063(7) 0.0042(7) -0.0029(7)
N1 0.0110(9) 0.0157(10) 0.0138(9) -0.0014(7) 0.0051(7) -0.0001(7)
N2 0.0140(9) 0.0134(9) 0.0149(9) 0.0002(7) 0.0058(7) 0.0003(8)
C1 0.0125(11) 0.0176(11) 0.0163(11) -0.0028(9) 0.0059(9) 0.0012(9)
C2 0.0169(11) 0.0116(10) 0.0126(10) 0.0013(8) 0.0036(9) 0.0018(9)
C3 0.0135(11) 0.0138(11) 0.0121(10) -0.0005(8) 0.0035(8) 0.0018(9)
C4 0.0152(11) 0.0138(11) 0.0186(11) -0.0010(9) 0.0045(9) -0.0030(9)
Zn1A 0.01088 0.01021 0.01121 -0.00105 0.00495 -0.00087
Zn1B 0.01088 0.01021 0.01121 0.00105 0.00495 0.00087
O2A 0.0226 0.0153 0.0215 0.0061 0.0141 0.0044
O3A 0.0189 0.0166 0.0218 0.0063 0.0042 0.0029
N2B 0.014 0.0134 0.0149 0.0002 0.0058 0.0003
loop_
_geom_bond_atom_site_label_1
_geom_bond_atom_site_label_2
_geom_bond_site_symmetry_1
_geom_bond_site_symmetry_2
Zn1 O1 1_555 1_555
O2 C2 1_555 1_555
O3 C2 1_555 1_555
N1 Zn1 1_555 1_555
N2 N1 1_555 1_555
C1 N1 1_555 1_555
H1 C1 1_555 1_555
C2 C3 1_555 1_555
C3 C1 1_555 1_555
C4 N2 1_555 1_555
H2 C4 1_555 1_555
Zn1A O2 1_555 1_555
Zn1B N2 1_555 1_555
O2A Zn1 1_555 1_555
O3A Zn1 1_555 1_555
N2B Zn1 1_555 1_555
O3 Zn1A 1_555 1_555
C3 C4 1_555 1_555

#END
