
#######################################################################
#
#                 Cambridge Crystallographic Data Centre
#                                CCDC 
#
#######################################################################
#
# If this CIF has been generated from an entry in the Cambridge 
# Structural Database, then it will include bibliographic, chemical, 
# crystal, experimental, refinement or atomic coordinate data resulting 
# from the CCDC's data processing and validation procedures.
#
#######################################################################

data_FAYPAY
_chemical_name_common            DMOF-1
_chemical_formula_moiety         '(C69 H50 N18 O13 Zn5)n'
_chemical_name_systematic        
'catena-[(\m~4~-tetrakis((4-Carboxylatophenoxy)methyl)methane)-hexakis(\m~3~-benzotriazolyl)-aqua-penta-zinc(ii) unknown solvate]'
_symmetry_cell_setting           monoclinic
_symmetry_space_group_name_H-M   'C 2/c'
_symmetry_Int_Tables_number      15
_space_group_name_Hall           '-C 2yc'
loop_
_symmetry_equiv_pos_site_id
_symmetry_equiv_pos_as_xyz
1 x,y,z
2 -x,y,1/2-z
3 1/2+x,1/2+y,z
4 1/2-x,1/2+y,1/2-z
5 -x,-y,-z
6 x,-y,1/2+z
7 1/2-x,1/2-y,-z
8 1/2+x,1/2-y,1/2+z
_cell_length_a                   41.096(3)
_cell_length_b                   21.3170(16)
_cell_length_c                   41.307(3)
_cell_angle_alpha                90
_cell_angle_beta                 116.129(1)
_cell_angle_gamma                90
_cell_volume                     32488.6
_exptl_crystal_colour            colorless
_exptl_crystal_description       block
_cell_formula_units_Z            8
loop_
_atom_site_label
_atom_site_type_symbol
_atom_site_fract_x
_atom_site_fract_y
_atom_site_fract_z
_atom_site_U_iso_or_equiv
_atom_site_thermal_displace_type
Zn1 Zn 0.046533(13) 0.30231(2) 0.577797(11) 0.0589 Uani
Zn2 Zn 0.012172(15) 0.29467(3) 0.482278(12) 0.0708 Uani
Zn3 Zn 0.144753(16) 0.32452(3) 0.616688(14) 0.0846 Uani
Zn4 Zn 0.006385(15) 0.43114(3) 0.602283(13) 0.0706 Uani
Zn5 Zn 0.024999(18) 0.15534(3) 0.609741(15) 0.0959 Uani
C1 C -0.07491(13) 0.2004(2) 0.21154(10) 0.0525 Uani
C2 C 0.1129(2) 0.1153(3) 0.67707(19) 0.1681 Uani
H1 H 0.0939 0.0912 0.6769 0.2020 Uiso
C3 C -0.02135(17) 0.3212(4) 0.63020(16) 0.1166 Uani
C4 C 0.1489(3) 0.1028(4) 0.6995(3) 0.2458 Uani
H2 H 0.1538 0.0692 0.7153 0.2950 Uiso
C5 C -0.01612(15) 0.2552(3) 0.63520(16) 0.1263 Uani
C6 C -0.03290(17) 0.22207(18) 0.65265(16) 0.2797 Uani
H3 H -0.0293 0.1791 0.6562 0.3360 Uiso
C7 C -0.06661(18) 0.3375(3) 0.12785(16) 0.1613 Uani
H4 H -0.0855 0.3140 0.1109 0.1940 Uiso
C8 C 0.1789(2) 0.1368(5) 0.7006(3) 0.2613 Uani
H5 H 0.2024 0.1237 0.7154 0.3140 Uiso
C9 C -0.05514(16) 0.2532(3) 0.66480(16) 0.3322 Uani
H6 H -0.0664 0.2311 0.6765 0.3990 Uiso
C10 C 0.1728(2) 0.1906(4) 0.6791(2) 0.1881 Uani
H7 H 0.1916 0.2162 0.6804 0.2260 Uiso
C11 C 0.1076(2) 0.1673(3) 0.65461(17) 0.1109 Uani
C12 C -0.06060(15) 0.3175(3) 0.65949(15) 0.3185 Uani
H8 H -0.0755 0.3383 0.6676 0.3820 Uiso
C13 C -0.01304(15) 0.4079(3) 0.1733(2) 0.1198 Uani
H9 H 0.0063 0.4315 0.1896 0.1440 Uiso
C14 C -0.0438(2) 0.35061(19) 0.64204(19) 0.2694 Uani
H10 H -0.0479 0.3935 0.6383 0.3230 Uiso
C15 C 0.1219(2) 0.5517(3) 0.67964(18) 0.1626 Uani
H11 H 0.1232 0.5901 0.6909 0.1950 Uiso
C16 C -0.02338(16) 0.3577(3) 0.18670(14) 0.1074 Uani
H12 H -0.0121 0.3480 0.2111 0.1290 Uiso
C17 C -0.11462(12) 0.22251(19) 0.19650(10) 0.0607 Uani
H13 H -0.1158 0.2619 0.2077 0.0730 Uiso
H14 H -0.1243 0.2292 0.1707 0.0730 Uiso
C18 C 0.16306(19) 0.3193(4) 0.5064(2) 0.1907 Uani
H15 H 0.1857 0.3211 0.5066 0.2290 Uiso
C19 C 0.1311(3) 0.3152(3) 0.4739(2) 0.1581 Uani
H16 H 0.1335 0.3180 0.4526 0.1900 Uiso
C20 C -0.2500(2) 0.1832(3) 0.15828(16) 0.0967 Uani
C21 C -0.06003(10) 0.18606(18) 0.25212(9) 0.0577 Uani
H17 H -0.0725 0.1500 0.2558 0.0690 Uiso
H18 H -0.0344 0.1765 0.2621 0.0690 Uiso
C22 C -0.0534(2) 0.3899(4) 0.11800(15) 0.1578 Uani
H19 H -0.0638 0.4002 0.0936 0.1890 Uiso
C23 C 0.0897(2) 0.4684(3) 0.64307(13) 0.0775 Uani
C24 C -0.02665(14) 0.4168(2) 0.49036(14) 0.0631 Uani
C25 C -0.04942(14) 0.2406(3) 0.30657(13) 0.0659 Uani
C26 C -0.07398(13) 0.1412(2) 0.19076(10) 0.0640 Uani
H20 H -0.0814 0.1514 0.1656 0.0760 Uiso
H21 H -0.0906 0.1101 0.1921 0.0760 Uiso
C27 C -0.01274(13) 0.2060(2) 0.36508(13) 0.0838 Uani
H22 H 0.0024 0.1756 0.3806 0.1010 Uiso
C28 C -0.05106(17) 0.3220(3) 0.16273(17) 0.0747 Uani
C29 C -0.05158(11) 0.25301(19) 0.20787(11) 0.0607 Uani
H23 H -0.0520 0.2890 0.2220 0.0730 Uiso
H24 H -0.0267 0.2390 0.2166 0.0730 Uiso
C30 C -0.17244(16) 0.1813(3) 0.18892(13) 0.0732 Uani
C31 C -0.04735(14) 0.4352(2) 0.45440(13) 0.0766 Uani
H25 H -0.0472 0.4132 0.4350 0.0920 Uiso
C32 C -0.02015(14) 0.2582(3) 0.37899(13) 0.0710 Uani
C33 C -0.00267(17) 0.2660(3) 0.41974(15) 0.0854 Uani
C34 C -0.02834(13) 0.4496(2) 0.51892(14) 0.0567 Uani
C35 C -0.19071(16) 0.2317(2) 0.16912(13) 0.0767 Uani
H26 H -0.1781 0.2657 0.1661 0.0920 Uiso
C36 C 0.1230(2) 0.4448(3) 0.64663(15) 0.0814 Uani
C37 C -0.0011(2) -0.0779(3) 0.1359(2) 0.1158 Uani
C38 C -0.29131(19) 0.1858(4) 0.14163(19) 0.0981 Uani
C39 C 0.01133(14) -0.0066(2) 0.18769(17) 0.0823 Uani
H27 H 0.0344 -0.0238 0.1994 0.0990 Uiso
C40 C -0.0123(2) -0.0284(3) 0.15430(16) 0.0868 Uani
C41 C 0.00081(16) 0.0418(2) 0.20432(12) 0.0695 Uani
H28 H 0.0168 0.0554 0.2273 0.0830 Uiso
C42 C -0.05711(15) 0.0471(3) 0.15468(14) 0.1016 Uani
H29 H -0.0804 0.0636 0.1433 0.1220 Uiso
C43 C -0.0142(2) 0.4815(4) 0.1253(2) 0.1158 Uani
C44 C -0.02681(12) 0.1969(2) 0.32907(14) 0.0752 Uani
H30 H -0.0210 0.1610 0.3199 0.0900 Uiso
C45 C -0.22892(19) 0.2321(3) 0.15312(12) 0.0935 Uani
H31 H -0.2410 0.2659 0.1385 0.1120 Uiso
C46 C 0.0957(2) 0.3086(3) 0.5048(2) 0.0889 Uani
C47 C -0.04223(14) 0.3028(2) 0.35674(14) 0.0887 Uani
H32 H -0.0470 0.3389 0.3666 0.1060 Uiso
C48 C -0.06931(13) 0.5214(2) 0.47837(17) 0.0837 Uani
H33 H -0.0841 0.5567 0.4732 0.1000 Uiso
C49 C -0.06734(14) 0.4870(3) 0.45029(14) 0.0867 Uani
H34 H -0.0810 0.5014 0.4269 0.1040 Uiso
C50 C -0.1913(2) 0.1349(3) 0.19537(16) 0.1315 Uani
H35 H -0.1785 0.1019 0.2103 0.1580 Uiso
C51 C 0.09609(18) 0.3072(3) 0.47072(16) 0.1261 Uani
H36 H 0.0756 0.3018 0.4489 0.1510 Uiso
C52 C 0.15549(17) 0.4716(3) 0.66629(16) 0.1265 Uani
H37 H 0.1771 0.4545 0.6683 0.1520 Uiso
C53 C -0.04563(18) -0.0013(3) 0.13914(14) 0.1070 Uani
H38 H -0.0621 -0.0161 0.1167 0.1280 Uiso
C54 C 0.15401(19) 0.5250(3) 0.6828(2) 0.1582 Uani
H39 H 0.1757 0.5453 0.6971 0.1900 Uiso
C55 C 0.08805(18) 0.5243(3) 0.66056(16) 0.1189 Uani
H40 H 0.0667 0.5409 0.6595 0.1420 Uiso
C56 C -0.02761(19) 0.4260(3) 0.1401(2) 0.0936 Uani
C57 C -0.2302(2) 0.1344(3) 0.18012(19) 0.1364 Uani
H41 H -0.2420 0.1012 0.1850 0.1640 Uiso
C58 C 0.1595(2) 0.3206(3) 0.53737(16) 0.1360 Uani
H42 H 0.1799 0.3257 0.5592 0.1630 Uiso
C59 C 0.1362(2) 0.2034(4) 0.65531(18) 0.1122 Uani
C60 C 0.12571(18) 0.3145(3) 0.5371(2) 0.0926 Uani
C61 C -0.04896(13) 0.5023(2) 0.51412(13) 0.0710 Uani
H43 H -0.0494 0.5242 0.5334 0.0850 Uiso
C62 C -0.03216(16) 0.0688(2) 0.18749(15) 0.0634 Uani
C63 C -0.05780(12) 0.2959(2) 0.31957(13) 0.0813 Uani
H44 H -0.0730 0.3263 0.3041 0.0970 Uiso
C64 C -0.01696(13) 0.16924(18) 0.49981(14) 0.1410 Uani
C65 C -0.01384(13) 0.1374(3) 0.53040(10) 0.1513 Uani
C66 C -0.03094(17) 0.0798(3) 0.52701(13) 0.2738 Uani
H45 H -0.0288 0.0585 0.5475 0.3290 Uiso
C67 C -0.05115(16) 0.05412(19) 0.49304(17) 0.3327 Uani
H46 H -0.0626 0.0156 0.4908 0.3990 Uiso
C68 C -0.05427(15) 0.0860(3) 0.46245(11) 0.3339 Uani
H47 H -0.0678 0.0688 0.4397 0.4010 Uiso
C69 C -0.03718(16) 0.1436(2) 0.46584(11) 0.2801 Uani
H48 H -0.0393 0.1649 0.4454 0.3360 Uiso
N1 N 0.00603(13) 0.1750(2) 0.55721(10) 0.1058 Uani
N2 N -0.00415(10) 0.36702(17) 0.50443(10) 0.0612 Uani
N3 N 0.01563(10) 0.22525(17) 0.54332(11) 0.0660 Uani
N4 N 0.00172(11) 0.22370(17) 0.50770(10) 0.0809 Uani
N5 N 0.00808(9) 0.36902(16) 0.54052(10) 0.0548 Uani
N6 N -0.00567(10) 0.41817(19) 0.54974(9) 0.0582 Uani
N7 N 0.06120(11) 0.4306(2) 0.62159(10) 0.0633 Uani
N8 N 0.07692(13) 0.38396(18) 0.61246(8) 0.0602 Uani
N9 N 0.11388(13) 0.3904(2) 0.62683(11) 0.0707 Uani
N10 N 0.12251(15) 0.2505(2) 0.63102(12) 0.0795 Uani
N11 N 0.08692(14) 0.2409(2) 0.61613(10) 0.0685 Uani
N12 N 0.07704(12) 0.1905(2) 0.62931(12) 0.0853 Uani
N13 N 0.00451(12) 0.2412(2) 0.61827(11) 0.0877 Uani
N14 N 0.01319(10) 0.2962(2) 0.60720(9) 0.0661 Uani
N15 N -0.00197(13) 0.3448(2) 0.61448(11) 0.0826 Uani
N16 N 0.06669(11) 0.30375(16) 0.51198(11) 0.0635 Uani
N17 N 0.08023(13) 0.30910(16) 0.54739(12) 0.0590 Uani
N18 N 0.11567(14) 0.31508(18) 0.56300(10) 0.0703 Uani
O1 O 0.02994(12) -0.10390(19) 0.15385(11) 0.1187 Uani
O2 O -0.02041(14) -0.0942(2) 0.10664(11) 0.1394 Uani
O3 O 0.04667(12) 0.06493(16) 0.59383(10) 0.1840 Uani
O4 O 0.01828(12) 0.22840(18) 0.43896(9) 0.1255 Uani
O5 O -0.01411(9) 0.31341(16) 0.43097(8) 0.0995 Uani
O6 O -0.02652(18) 0.4969(2) 0.09669(11) 0.1865 Uani
O7 O 0.00710(12) 0.5154(2) 0.14982(12) 0.1501 Uani
O8 O -0.30604(12) 0.2268(2) 0.12047(11) 0.1419 Uani
O9 O -0.30620(13) 0.1476(2) 0.15116(14) 0.1658 Uani
O10 O -0.13594(10) 0.17563(14) 0.20385(7) 0.0769 Uani
O11 O -0.06563(8) 0.23931(13) 0.26950(8) 0.0731 Uani
O12 O -0.06554(8) 0.26932(15) 0.17151(8) 0.0830 Uani
O13 O -0.03781(8) 0.11690(14) 0.20645(7) 0.0628 Uani
Zn3G Zn -0.355247(16) 0.17548(3) 0.116688(14) 0.0846 Uani
Zn4E Zn 0.006385(15) 0.56886(3) 0.102283(13) 0.0706 Uani
Zn5E Zn 0.024999(18) -0.15534(3) 0.109741(15) 0.0959 Uani
O1E O 0.02994(12) 0.10390(19) 0.65385(11) 0.1187 Uani
O2E O -0.02041(14) 0.0942(2) 0.60664(11) 0.1394 Uani
O6E O -0.02652(18) 0.5031(2) 0.59669(11) 0.1865 Uani
O7E O 0.00710(12) 0.4846(2) 0.64982(12) 0.1501 Uani
O8G O 0.19396(12) 0.2732(2) 0.62047(11) 0.1419 Uani
O9G O 0.19380(13) 0.3524(2) 0.65116(14) 0.1658 Uani
loop_
_atom_site_aniso_label
_atom_site_aniso_U_11
_atom_site_aniso_U_22
_atom_site_aniso_U_33
_atom_site_aniso_U_23
_atom_site_aniso_U_13
_atom_site_aniso_U_12
Zn1 0.0673(4) 0.0550(4) 0.0522(3) 0.0051(3) 0.0242(3) 0.0047(3)
Zn2 0.0905(5) 0.0667(4) 0.0518(3) -0.0005(3) 0.0282(3) 0.0091(4)
Zn3 0.0605(5) 0.0993(5) 0.0828(4) -0.0103(4) 0.0214(4) 0.0080(4)
Zn4 0.0832(5) 0.0716(5) 0.0632(4) -0.0003(3) 0.0379(3) 0.0131(4)
Zn5 0.1164(6) 0.0796(5) 0.0836(5) 0.0260(4) 0.0366(4) -0.0123(4)
C1 0.050(4) 0.068(4) 0.037(3) 0.014(3) 0.017(3) 0.002(3)
C2 0.127(7) 0.151(7) 0.170(7) 0.100(5) 0.014(6) 0.018(6)
C3 0.131(6) 0.156(8) 0.116(5) -0.005(5) 0.103(4) 0.016(6)
C4 0.201(12) 0.189(10) 0.263(10) 0.145(8) 0.025(10) 0.007(9)
C5 0.203(8) 0.079(6) 0.156(6) 0.017(5) 0.133(5) 0.019(6)
C6 0.468(10) 0.139(7) 0.476(9) 0.115(6) 0.431(7) 0.050(6)
C7 0.261(8) 0.138(6) 0.046(4) -0.003(4) 0.032(5) -0.108(6)
C8 0.136(9) 0.252(12) 0.321(11) 0.206(9) 0.032(8) 0.013(8)
C9 0.474(9) 0.274(8) 0.503(8) 0.077(6) 0.448(7) 0.022(6)
C10 0.120(8) 0.171(8) 0.241(8) 0.099(6) 0.050(6) 0.020(6)
C11 0.116(7) 0.078(5) 0.107(5) 0.045(4) 0.020(5) 0.007(5)
C12 0.465(8) 0.308(8) 0.389(7) 0.009(6) 0.377(6) 0.004(6)
C13 0.087(5) 0.111(6) 0.152(7) 0.050(5) 0.044(5) -0.032(4)
C14 0.462(10) 0.212(8) 0.319(8) 0.051(6) 0.341(7) -0.014(7)
C15 0.121(7) 0.118(7) 0.185(7) -0.086(5) 0.009(6) -0.016(6)
C16 0.085(5) 0.129(6) 0.084(5) 0.029(4) 0.015(4) -0.025(4)
C17 0.056(4) 0.062(4) 0.054(3) 0.000(2) 0.015(3) 0.007(3)
C18 0.077(6) 0.358(11) 0.122(7) 0.032(7) 0.030(6) -0.002(6)
C19 0.136(7) 0.263(8) 0.126(7) 0.007(6) 0.104(7) 0.000(7)
C20 0.129(7) 0.067(5) 0.102(5) -0.009(4) 0.058(5) -0.012(5)
C21 0.063(3) 0.057(4) 0.042(3) 0.003(2) 0.013(3) 0.000(3)
C22 0.274(10) 0.131(7) 0.062(5) 0.004(4) 0.068(6) -0.090(6)
C23 0.088(6) 0.067(5) 0.071(4) -0.015(3) 0.029(4) -0.008(4)
C24 0.077(4) 0.060(4) 0.051(4) -0.002(3) 0.027(3) 0.001(3)
C25 0.086(5) 0.081(5) 0.039(3) -0.015(3) 0.035(3) -0.006(3)
C26 0.084 0.056 0.052 -0.017 0.03 -0.01
C27 0.109(5) 0.084(4) 0.040(3) -0.011(3) 0.016(3) 0.026(4)
C28 0.094(5) 0.067(4) 0.075(5) -0.001(4) 0.048(4) -0.012(4)
C29 0.062(4) 0.065(4) 0.058(3) -0.001(3) 0.029(3) -0.003(3)
C30 0.043(4) 0.087(5) 0.071(4) 0.019(3) 0.008(3) 0.014(4)
C31 0.083(5) 0.086(5) 0.055(4) 0.013(3) 0.025(3) 0.012(4)
C32 0.078(4) 0.075(5) 0.050(4) 0.007(3) 0.019(3) -0.001(4)
C33 0.111(6) 0.095(6) 0.056(5) -0.022(4) 0.042(4) -0.018(5)
C34 0.066(4) 0.049(4) 0.058(4) 0.009(3) 0.030(3) 0.015(3)
C35 0.052(5) 0.087(5) 0.089(4) 0.011(3) 0.029(4) -0.009(4)
C36 0.078(6) 0.069(5) 0.094(5) -0.019(4) 0.035(4) 0.009(5)
C37 0.187 0.062 0.118 -0.015 0.085 0.017
C38 0.030(6) 0.121(9) 0.122(7) -0.036(5) 0.014(5) -0.020(5)
C39 0.085 0.055 0.126 0.008 0.064 0.023
C40 0.113 0.076 0.07 -0.022 0.039 -0.019
C41 0.096 0.052 0.069 -0.009 0.044 -0.006
C42 0.104 0.097 0.067 -0.035 0.004 0.007
C43 0.153 0.074 0.115 -0.026 0.054 -0.019
C44 0.085(4) 0.067(4) 0.063(4) 0.007(3) 0.023(3) 0.034(3)
C45 0.078(5) 0.099(5) 0.086(4) 0.004(4) 0.020(4) 0.029(4)
C46 0.071(6) 0.122(5) 0.088(5) 0.014(4) 0.048(5) 0.021(4)
C47 0.130(5) 0.086(5) 0.053(4) -0.016(3) 0.043(4) 0.001(4)
C48 0.079(4) 0.078(4) 0.094(5) 0.021(4) 0.038(4) 0.024(3)
C49 0.091(5) 0.097(5) 0.066(4) 0.023(4) 0.029(4) 0.020(4)
C50 0.092(6) 0.113(6) 0.193(6) 0.076(5) 0.066(6) 0.010(5)
C51 0.111(6) 0.211(7) 0.081(5) 0.020(4) 0.065(5) 0.020(5)
C52 0.072(5) 0.100(6) 0.163(6) -0.068(4) 0.011(4) -0.022(5)
C53 0.106 0.105 0.077 -0.037 0.01 0.014
C54 0.078(6) 0.102(7) 0.246(8) -0.052(6) 0.027(6) -0.017(5)
C55 0.122(6) 0.077(5) 0.143(5) -0.048(4) 0.045(5) 0.013(4)
C56 0.125(6) 0.090(6) 0.086(5) 0.015(5) 0.065(5) -0.025(5)
C57 0.077(6) 0.116(6) 0.220(7) 0.049(5) 0.069(6) 0.002(5)
C58 0.160(9) 0.179(7) 0.074(5) 0.004(4) 0.056(6) -0.001(6)
C59 0.066(6) 0.119(7) 0.119(6) 0.030(5) 0.011(5) 0.017(6)
C60 0.039(5) 0.129(5) 0.118(7) 0.015(4) 0.042(5) 0.007(4)
C61 0.068(4) 0.069(4) 0.071(4) 0.006(3) 0.026(3) 0.015(3)
C62 0.068 0.04 0.083 0.003 0.034 0.017
C63 0.116(5) 0.068(4) 0.068(4) 0.007(3) 0.048(4) 0.037(3)
C64 0.164(6) 0.125(6) 0.107(5) -0.081(5) 0.035(5) -0.102(5)
C65 0.225(8) 0.132(7) 0.083(6) 0.042(5) 0.055(6) -0.056(6)
C66 0.470(12) 0.199(7) 0.118(6) -0.027(5) 0.098(7) -0.242(7)
C67 0.549(13) 0.262(8) 0.143(6) -0.007(6) 0.112(9) -0.250(8)
C68 0.476(8) 0.260(7) 0.194(6) -0.094(6) 0.082(6) -0.211(7)
C69 0.453(10) 0.200(7) 0.145(5) -0.072(5) 0.093(6) -0.221(7)
N1 0.134(4) 0.087(4) 0.079(4) -0.010(3) 0.031(3) -0.033(3)
N2 0.068(3) 0.056(3) 0.049(3) 0.005(2) 0.016(2) 0.006(2)
N3 0.078(3) 0.049(3) 0.072(3) 0.010(2) 0.034(3) 0.004(2)
N4 0.118(4) 0.075(3) 0.041(3) -0.010(2) 0.027(3) -0.024(3)
N5 0.063(3) 0.048(3) 0.052(3) -0.002(2) 0.024(2) 0.005(2)
N6 0.073(3) 0.054(3) 0.055(3) 0.000(2) 0.035(2) 0.013(2)
N7 0.073(4) 0.061(3) 0.060(3) -0.007(2) 0.033(3) 0.013(3)
N8 0.069(4) 0.061(3) 0.046(2) 0.004(2) 0.021(3) 0.010(3)
N9 0.055(3) 0.079(4) 0.069(3) 0.006(2) 0.019(3) 0.018(3)
N10 0.055(4) 0.093(4) 0.072(3) 0.024(3) 0.011(3) 0.027(3)
N11 0.075(4) 0.060(3) 0.066(3) 0.018(2) 0.027(3) 0.020(3)
N12 0.099(4) 0.064(4) 0.068(3) 0.023(2) 0.014(3) 0.014(3)
N13 0.110(4) 0.097(4) 0.082(3) 0.010(3) 0.066(3) -0.009(3)
N14 0.072(3) 0.066(3) 0.062(3) 0.008(3) 0.031(2) 0.009(3)
N15 0.105(4) 0.083(4) 0.094(3) 0.008(3) 0.075(3) 0.009(3)
N16 0.070(4) 0.074(3) 0.045(3) 0.005(2) 0.024(3) 0.017(3)
N17 0.058(3) 0.056(3) 0.058(3) -0.002(2) 0.021(3) 0.007(2)
N18 0.058(4) 0.088(3) 0.079(3) 0.001(2) 0.043(3) -0.001(3)
O1 0.169 0.079 0.131 -0.028 0.087 0.013
O2 0.205 0.107 0.111 -0.04 0.074 0.015
O3 0.287(5) 0.104(3) 0.170(3) -0.002(3) 0.109(3) 0.017(3)
O4 0.180(5) 0.112(4) 0.049(3) 0.003(2) 0.018(3) 0.039(3)
O5 0.139(3) 0.100(3) 0.057(2) -0.012(2) 0.041(2) 0.010(3)
O6 0.339 0.121 0.113 0 0.112 -0.09
O7 0.16 0.141 0.165 0.062 0.086 -0.012
O8 0.075(4) 0.193(5) 0.125(4) 0.028(3) 0.014(3) 0.003(3)
O9 0.085(4) 0.132(5) 0.257(5) 0.036(4) 0.054(4) -0.022(3)
O10 0.048(2) 0.083(3) 0.093(2) 0.0299(19) 0.025(2) -0.004(2)
O11 0.098(3) 0.070(2) 0.048(2) -0.0012(17) 0.029(2) 0.0265(19)
O12 0.110(3) 0.086(3) 0.053(2) 0.0016(19) 0.036(2) -0.027(2)
O13 0.058 0.062 0.064 -0.0126 0.0228 0.0105
Zn3G 0.0605 0.0993 0.0828 0.0103 0.0214 -0.008
Zn4E 0.0832 0.0716 0.0632 0.0003 0.0379 -0.0131
Zn5E 0.1164 0.0796 0.0836 -0.026 0.0366 0.0123
O1E 0.169 0.079 0.131 0.028 0.087 -0.013
O2E 0.205 0.107 0.111 0.04 0.074 -0.015
O6E 0.339 0.121 0.113 0 0.112 0.09
O7E 0.16 0.141 0.165 -0.062 0.086 0.012
O8G 0.075 0.193 0.125 -0.028 0.014 -0.003
O9G 0.085 0.132 0.257 -0.036 0.054 0.022
loop_
_geom_bond_atom_site_label_1
_geom_bond_atom_site_label_2
_geom_bond_site_symmetry_1
_geom_bond_site_symmetry_2
Zn1 N3 1_555 1_555
Zn2 N2 1_555 1_555
Zn3 N9 1_555 1_555
Zn4 N6 1_555 1_555
Zn5 N1 1_555 1_555
C1 C17 1_555 1_555
C2 H1 1_555 1_555
C3 C5 1_555 1_555
C4 C2 1_555 1_555
H2 C4 1_555 1_555
C5 C6 1_555 1_555
C6 H3 1_555 1_555
C7 H4 1_555 1_555
C8 C4 1_555 1_555
H5 C8 1_555 1_555
C9 C6 1_555 1_555
H6 C9 1_555 1_555
C10 C8 1_555 1_555
H7 C10 1_555 1_555
C11 C2 1_555 1_555
C12 C9 1_555 1_555
H8 C12 1_555 1_555
C13 H9 1_555 1_555
C14 C3 1_555 1_555
H10 C14 1_555 1_555
C15 H11 1_555 1_555
C16 C13 1_555 1_555
H12 C16 1_555 1_555
C17 H13 1_555 1_555
H14 C17 1_555 1_555
C18 H15 1_555 1_555
C19 C18 1_555 1_555
H16 C19 1_555 1_555
C20 C38 1_555 1_555
C21 C1 1_555 1_555
H17 C21 1_555 1_555
H18 C21 1_555 1_555
C22 C7 1_555 1_555
H19 C22 1_555 1_555
C23 C36 1_555 1_555
C24 C31 1_555 1_555
C25 C44 1_555 1_555
C26 C1 1_555 1_555
H20 C26 1_555 1_555
H21 C26 1_555 1_555
C27 H22 1_555 1_555
C28 C7 1_555 1_555
C29 C1 1_555 1_555
H23 C29 1_555 1_555
H24 C29 1_555 1_555
C30 C35 1_555 1_555
C31 H25 1_555 1_555
C32 C27 1_555 1_555
C33 C32 1_555 1_555
C34 C24 1_555 1_555
C35 H26 1_555 1_555
C36 C52 1_555 1_555
C37 C40 1_555 1_555
C38 O8 1_555 1_555
C39 H27 1_555 1_555
C40 C39 1_555 1_555
C41 C39 1_555 1_555
H28 C41 1_555 1_555
C42 H29 1_555 1_555
C43 C56 1_555 1_555
C44 C27 1_555 1_555
H30 C44 1_555 1_555
C45 C20 1_555 1_555
H31 C45 1_555 1_555
C46 C51 1_555 1_555
C47 C32 1_555 1_555
H32 C47 1_555 1_555
C48 H33 1_555 1_555
C49 C31 1_555 1_555
H34 C49 1_555 1_555
C50 C30 1_555 1_555
H35 C50 1_555 1_555
C51 C19 1_555 1_555
H36 C51 1_555 1_555
C52 H37 1_555 1_555
C53 C40 1_555 1_555
H38 C53 1_555 1_555
C54 C15 1_555 1_555
H39 C54 1_555 1_555
C55 C15 1_555 1_555
H40 C55 1_555 1_555
C56 C13 1_555 1_555
C57 C20 1_555 1_555
H41 C57 1_555 1_555
C58 C18 1_555 1_555
H42 C58 1_555 1_555
C59 C10 1_555 1_555
C60 C46 1_555 1_555
C61 C34 1_555 1_555
H43 C61 1_555 1_555
C62 C41 1_555 1_555
C63 C25 1_555 1_555
H44 C63 1_555 1_555
C64 C65 1_555 1_555
C65 C66 1_555 1_555
C66 H45 1_555 1_555
C67 C66 1_555 1_555
H46 C67 1_555 1_555
C68 C67 1_555 1_555
H47 C68 1_555 1_555
C69 C64 1_555 1_555
H48 C69 1_555 1_555
N1 C65 1_555 1_555
N2 C24 1_555 1_555
N3 N1 1_555 1_555
N4 Zn2 1_555 1_555
N5 Zn1 1_555 1_555
N6 C34 1_555 1_555
N7 Zn4 1_555 1_555
N8 Zn1 1_555 1_555
N9 C36 1_555 1_555
N10 Zn3 1_555 1_555
N11 Zn1 1_555 1_555
N12 Zn5 1_555 1_555
N13 Zn5 1_555 1_555
N14 Zn1 1_555 1_555
N15 Zn4 1_555 1_555
N16 Zn2 1_555 1_555
N17 Zn1 1_555 1_555
N18 Zn3 1_555 1_555
O1 C37 1_555 1_555
O2 C37 1_555 1_555
O3 Zn5 1_555 1_555
O4 Zn2 1_555 1_555
O5 Zn2 1_555 1_555
O6 C43 1_555 1_555
O7 C43 1_555 1_555
O8 Zn3G 1_555 1_555
O9 C38 1_555 1_555
O10 C17 1_555 1_555
O11 C21 1_555 1_555
O12 C28 1_555 1_555
O13 C26 1_555 1_555
Zn3G O9 1_555 1_555
Zn4E O6 1_555 1_555
Zn5E O1 1_555 1_555
O1E Zn5 1_555 1_555
O2E Zn5 1_555 1_555
O6E Zn4 1_555 1_555
O7E Zn4 1_555 1_555
O8G Zn3 1_555 1_555
O9G Zn3 1_555 1_555
C3 N15 1_555 1_555
C5 N13 1_555 1_555
C11 C59 1_555 1_555
C11 N12 1_555 1_555
C12 C14 1_555 1_555
C16 C28 1_555 1_555
C22 C56 1_555 1_555
C23 C55 1_555 1_555
C23 N7 1_555 1_555
C25 O11 1_555 1_555
C29 O12 1_555 1_555
C30 O10 1_555 1_555
C33 O4 1_555 1_555
C33 O5 1_555 1_555
C35 C45 1_555 1_555
C42 C53 1_555 1_555
C42 C62 1_555 1_555
C46 N16 1_555 1_555
C47 C63 1_555 1_555
C48 C49 1_555 1_555
C48 C61 1_555 1_555
C50 C57 1_555 1_555
C52 C54 1_555 1_555
C58 C60 1_555 1_555
C59 N10 1_555 1_555
C60 N18 1_555 1_555
C62 O13 1_555 1_555
C64 N4 1_555 1_555
C68 C69 1_555 1_555
N2 N5 1_555 1_555
N3 N4 1_555 1_555
N5 N6 1_555 1_555
N7 N8 1_555 1_555
N8 N9 1_555 1_555
N10 N11 1_555 1_555
N11 N12 1_555 1_555
N13 N14 1_555 1_555
N14 N15 1_555 1_555
N16 N17 1_555 1_555
N17 N18 1_555 1_555
O2 Zn5E 1_555 1_555
O7 Zn4E 1_555 1_555

#END
