
#######################################################################
#
#                 Cambridge Crystallographic Data Centre
#                                CCDC 
#
#######################################################################
#
# If this CIF has been generated from an entry in the Cambridge 
# Structural Database, then it will include bibliographic, chemical, 
# crystal, experimental, refinement or atomic coordinate data resulting 
# from the CCDC's data processing and validation procedures.
#
#######################################################################

data_FAYPUS
_chemical_name_common            DMOF-5
_chemical_formula_moiety         '(C85 H80 N18 O16 Zn5)n'
_chemical_name_systematic        
'catena-[(\m~4~-tetrakis((4-Carboxylato-2-methoxyphenoxy)methyl)methane)-hexakis(\m~3~-5,6-dimethylbenzotriazolyl)-penta-zinc(ii) unknown solvate]'
_symmetry_cell_setting           monoclinic
_symmetry_space_group_name_H-M   'C 2/c'
_symmetry_Int_Tables_number      15
_space_group_name_Hall           '-C 2yc'
loop_
_symmetry_equiv_pos_site_id
_symmetry_equiv_pos_as_xyz
1 x,y,z
2 -x,y,1/2-z
3 1/2+x,1/2+y,z
4 1/2-x,1/2+y,1/2-z
5 -x,-y,-z
6 x,-y,1/2+z
7 1/2-x,1/2-y,-z
8 1/2+x,1/2-y,1/2+z
_cell_length_a                   41.9317(12)
_cell_length_b                   20.780(6)
_cell_length_c                   40.522(5)
_cell_angle_alpha                90
_cell_angle_beta                 120.090(5)
_cell_angle_gamma                90
_cell_volume                     30550.3
_exptl_crystal_colour            colorless
_exptl_crystal_description       block
_cell_formula_units_Z            8
loop_
_atom_site_label
_atom_site_type_symbol
_atom_site_fract_x
_atom_site_fract_y
_atom_site_fract_z
_atom_site_U_iso_or_equiv
_atom_site_thermal_displace_type
Zn1 Zn 0.20069(3) 0.21584(5) -0.33969(3) 0.0925 Uani
Zn2 Zn 0.23122(3) 0.07903(5) -0.36678(3) 0.1023 Uani
Zn3 Zn 0.21517(4) 0.35574(5) -0.37989(3) 0.1144 Uani
Zn4 Zn 0.10500(3) 0.19510(5) -0.37376(3) 0.1114 Uani
Zn5 Zn 0.24725(4) 0.23117(6) -0.23937(3) 0.1163 Uani
C1 C -0.1669(3) 0.2122(4) -0.4576(2) 0.0900 Uiso
C2 C 0.2716(3) 0.4571(5) -0.2962(3) 0.1500 Uiso
H1 H 0.2670 0.4783 -0.3183 0.1800 Uiso
C3 C 0.2923(3) 0.4796(6) -0.2581(4) 0.1600 Uiso
C4 C 0.1766(4) 0.2051(5) -0.2173(3) 0.1640 Uiso
H2 H 0.1986 0.2186 -0.1963 0.1970 Uiso
C5 C 0.3070(3) 0.5476(6) -0.2582(3) 0.2140 Uiso
H3 H 0.2965 0.5625 -0.2840 0.3200 Uiso
H4 H 0.3334 0.5463 -0.2465 0.3200 Uiso
H5 H 0.3002 0.5765 -0.2443 0.3200 Uiso
C6 C 0.0882(6) 0.4457(8) -0.4427(4) 0.2380 Uiso
C7 C 0.3243(3) 0.4862(5) -0.1868(3) 0.2030 Uiso
H6 H 0.3298 0.4582 -0.1657 0.3050 Uiso
H7 H 0.3100 0.5221 -0.1865 0.3050 Uiso
H8 H 0.3469 0.5016 -0.1846 0.3050 Uiso
C8 C 0.0406(3) 0.1794(9) -0.3952(3) 0.1950 Uiso
C9 C 0.0702(4) 0.5022(7) -0.4703(4) 0.2610 Uiso
H9 H 0.0890 0.5311 -0.4682 0.3910 Uiso
H10 H 0.0540 0.5247 -0.4640 0.3910 Uiso
H11 H 0.0564 0.4862 -0.4959 0.3910 Uiso
C10 C -0.1447(3) 0.3394(5) -0.3150(3) 0.1870 Uiso
H12 H -0.1257 0.3100 -0.2986 0.2800 Uiso
H13 H -0.1658 0.3338 -0.3120 0.2800 Uiso
H14 H -0.1358 0.3828 -0.3084 0.2800 Uiso
C11 C 0.2837(2) -0.0005(4) -0.2752(2) 0.1050 Uiso
H15 H 0.2790 -0.0258 -0.2961 0.1260 Uiso
C12 C 0.1319(3) 0.3615(5) -0.4109(2) 0.1090 Uiso
C13 C 0.3061(3) -0.0228(5) -0.2362(3) 0.1170 Uiso
C14 C 0.2831(4) 0.1877(9) -0.4392(4) 0.2000 Uiso
C15 C 0.1038(4) 0.1721(5) -0.2843(3) 0.1750 Uiso
H16 H 0.0813 0.1610 -0.3054 0.2100 Uiso
C16 C 0.3104(3) 0.0182(5) -0.2060(2) 0.1090 Uiso
C17 C 0.3341(3) -0.0095(4) -0.1640(2) 0.1500 Uiso
H17 H 0.3414 -0.0528 -0.1651 0.2250 Uiso
H18 H 0.3195 -0.0090 -0.1518 0.2250 Uiso
H19 H 0.3556 0.0167 -0.1498 0.2250 Uiso
C18 C 0.2632(3) 0.2936(6) -0.4255(3) 0.1630 Uiso
H20 H 0.2602 0.3380 -0.4274 0.1950 Uiso
C19 C 0.1193(3) 0.0748(5) -0.4066(3) 0.1190 Uiso
C20 C 0.2757(2) 0.0995(4) -0.2499(2) 0.0930 Uiso
C21 C 0.1371(4) 0.1940(5) -0.2846(3) 0.1280 Uiso
C22 C 0.1469(5) 0.1812(7) -0.2156(4) 0.1940 Uiso
C23 C 0.3007(4) 0.1522(7) -0.4598(4) 0.2580 Uiso
H21 H 0.3216 0.1760 -0.4566 0.3860 Uiso
H22 H 0.2829 0.1486 -0.4865 0.3860 Uiso
H23 H 0.3084 0.1100 -0.4491 0.3860 Uiso
C24 C -0.1940(3) 0.3482(4) -0.4192(2) 0.0950 Uiso
C25 C 0.0604(5) 0.4054(9) -0.4482(4) 0.2340 Uiso
C26 C -0.1798(2) 0.1889(4) -0.49575(19) 0.0900 Uiso
H24 H -0.2064 0.1843 -0.5094 0.1080 Uiso
H25 H -0.1689 0.1473 -0.4949 0.1080 Uiso
C27 C -0.1890(2) 0.2744(4) -0.46054(19) 0.0940 Uiso
H26 H -0.1858 0.3064 -0.4761 0.1130 Uiso
H27 H -0.2151 0.2648 -0.4720 0.1130 Uiso
C28 C 0.0857(4) 0.0411(7) -0.4241(4) 0.2000 Uiso
H28 H 0.0656 0.0547 -0.4222 0.2390 Uiso
C29 C 0.2974(3) 0.0778(5) -0.2108(2) 0.1190 Uiso
H29 H 0.3020 0.1041 -0.1903 0.1420 Uiso
C30 C -0.2274(3) 0.1082(5) -0.4398(2) 0.1020 Uiso
C31 C -0.1429(4) 0.3679(8) -0.5540(4) 0.2860 Uiso
H30 H -0.1243 0.3926 -0.5332 0.4290 Uiso
H31 H -0.1341 0.3561 -0.5709 0.4290 Uiso
H32 H -0.1649 0.3932 -0.5675 0.4290 Uiso
C32 C 0.0204(4) 0.4250(7) -0.4649(4) 0.2640 Uiso
H33 H 0.0065 0.3893 -0.4637 0.3950 Uiso
H34 H 0.0105 0.4377 -0.4910 0.3950 Uiso
H35 H 0.0188 0.4604 -0.4506 0.3950 Uiso
C33 C -0.1286(3) 0.2241(4) -0.4374(2) 0.1080 Uiso
H36 H -0.1229 0.2591 -0.4495 0.1290 Uiso
H37 H -0.1210 0.2368 -0.4115 0.1290 Uiso
C34 C 0.0845(6) -0.0118(11) -0.4436(5) 0.2580 Uiso
C35 C -0.2077(3) 0.1886(4) -0.5738(2) 0.1160 Uiso
H38 H -0.2142 0.1561 -0.5625 0.1390 Uiso
C36 C -0.2598(3) 0.0801(6) -0.4069(2) 0.1470 Uiso
H39 H -0.2715 0.0915 -0.3935 0.1760 Uiso
C37 C 0.2947(4) 0.2920(7) -0.4628(4) 0.2610 Uiso
H40 H 0.3063 0.2611 -0.4710 0.3920 Uiso
H41 H 0.3124 0.3238 -0.4470 0.3920 Uiso
H42 H 0.2748 0.3124 -0.4847 0.3920 Uiso
C38 C -0.0575(8) -0.0033(15) -0.4202(7) 0.5900 Uiso
H43 H -0.0754 -0.0370 -0.4322 0.8910 Uiso
H44 H -0.0487 -0.0033 -0.3933 0.8910 Uiso
H45 H -0.0372 -0.0103 -0.4245 0.8910 Uiso
C39 C 0.3013(3) 0.4475(6) -0.2259(3) 0.1330 Uiso
N1 N 0.23381(19) 0.2982(3) -0.30690(19) 0.1010 Uiso
C40 C 0.1517(3) 0.1736(6) -0.1722(3) 0.2200 Uiso
H46 H 0.1768 0.1825 -0.1531 0.3300 Uiso
H47 H 0.1455 0.1304 -0.1690 0.3300 Uiso
H48 H 0.1356 0.2033 -0.1696 0.3300 Uiso
C41 C -0.2379(3) -0.0013(5) -0.4321(2) 0.1220 Uiso
H49 H -0.2353 -0.0445 -0.4365 0.1460 Uiso
C42 C -0.2134(3) 0.2384(5) -0.6300(3) 0.1070 Uiso
C43 C 0.0454(5) -0.0524(7) -0.4688(4) 0.2970 Uiso
H50 H 0.0496 -0.0883 -0.4811 0.4460 Uiso
H51 H 0.0271 -0.0247 -0.4877 0.4460 Uiso
H52 H 0.0370 -0.0678 -0.4521 0.4460 Uiso
C44 C -0.2228(3) 0.0473(6) -0.4448(3) 0.1320 Uiso
C45 C 0.1101(4) -0.1088(7) -0.4640(4) 0.2630 Uiso
H53 H 0.1339 -0.1248 -0.4580 0.3950 Uiso
H54 H 0.0959 -0.0996 -0.4908 0.3950 Uiso
H55 H 0.0975 -0.1407 -0.4575 0.3950 Uiso
C46 C -0.2199(2) 0.3820(4) -0.4473(2) 0.0880 Uiso
H56 H -0.2267 0.3728 -0.4724 0.1060 Uiso
C47 C -0.2566(3) 0.0158(6) -0.4131(2) 0.1190 Uiso
C48 C -0.1812(3) 0.3663(5) -0.3806(3) 0.1150 Uiso
C49 C -0.1830(2) 0.2323(4) -0.5511(2) 0.0890 Uiso
N2 N 0.2385(2) 0.3515(4) -0.32201(18) 0.1040 Uiso
C50 C -0.1757(2) 0.1636(4) -0.4345(2) 0.1040 Uiso
H57 H -0.1637 0.1228 -0.4327 0.1250 Uiso
H58 H -0.1670 0.1796 -0.4089 0.1250 Uiso
C51 C -0.2249(3) 0.1890(4) -0.6151(2) 0.1120 Uiso
H59 H -0.2423 0.1585 -0.6304 0.1340 Uiso
C52 C 0.2553(3) 0.1879(7) -0.4015(3) 0.1360 Uiso
C53 C -0.1901(3) 0.2847(5) -0.6064(3) 0.1270 Uiso
H60 H -0.1840 0.3195 -0.6165 0.1530 Uiso
C54 C -0.2737(4) -0.0413(7) -0.3992(3) 0.1500 Uiso
C55 C 0.2700(2) 0.0601(4) -0.2791(2) 0.0870 Uiso
C56 C -0.2503(3) 0.4959(5) -0.3953(3) 0.1160 Uiso
C57 C -0.2005(3) -0.0317(6) -0.4742(3) 0.2120 Uiso
H61 H -0.1880 -0.0304 -0.4886 0.3180 Uiso
H62 H -0.2239 -0.0525 -0.4890 0.3180 Uiso
H63 H -0.1858 -0.0552 -0.4510 0.3180 Uiso
C58 C -0.2280(2) 0.4461(4) -0.4046(2) 0.0900 Uiso
C59 C 0.2796(4) 0.2575(9) -0.4398(4) 0.2070 Uiso
C60 C -0.2459(3) 0.1292(5) -0.4202(3) 0.1370 Uiso
H64 H -0.2486 0.1725 -0.4165 0.1650 Uiso
C61 C 0.2678(3) 0.3605(5) -0.2609(3) 0.1080 Uiso
C62 C 0.1055(3) 0.3258(5) -0.4089(2) 0.1080 Uiso
C63 C 0.2717(3) 0.1499(6) -0.4190(3) 0.1570 Uiso
H65 H 0.2742 0.1054 -0.4169 0.1890 Uiso
C64 C 0.2888(3) 0.3840(5) -0.2224(3) 0.1350 Uiso
H66 H 0.2932 0.3632 -0.2001 0.1620 Uiso
C65 C 0.1483(4) -0.0112(6) -0.4227(3) 0.1600 Uiso
H67 H 0.1689 -0.0259 -0.4234 0.1920 Uiso
C66 C 0.1686(3) 0.2062(4) -0.2569(3) 0.1140 Uiso
C67 C -0.2368(2) 0.4306(4) -0.4393(2) 0.0970 Uiso
H68 H -0.2555 0.4536 -0.4594 0.1170 Uiso
C68 C -0.1755(3) 0.2797(5) -0.5669(3) 0.1100 Uiso
C69 C 0.1490(3) 0.0433(5) -0.4047(2) 0.0950 Uiso
C70 C 0.1243(4) 0.4244(6) -0.4301(3) 0.1650 Uiso
H69 H 0.1415 0.4475 -0.4335 0.1980 Uiso
C71 C -0.2008(3) 0.4139(4) -0.3749(2) 0.1090 Uiso
H70 H -0.1953 0.4239 -0.3502 0.1310 Uiso
C72 C 0.1149(6) -0.0445(9) -0.4403(4) 0.2360 Uiso
C73 C 0.2515(3) 0.2514(6) -0.4070(3) 0.1240 Uiso
C74 C -0.2318(3) 0.2455(6) -0.6739(3) 0.1420 Uiso
C75 C 0.0675(4) 0.3451(6) -0.4260(3) 0.1810 Uiso
H71 H 0.0497 0.3227 -0.4234 0.2180 Uiso
C76 C 0.2586(3) 0.3913(5) -0.2927(3) 0.1150 Uiso
C77 C 0.3193(3) -0.0950(5) -0.2309(2) 0.1540 Uiso
H72 H 0.3134 -0.1129 -0.2551 0.2310 Uiso
H73 H 0.3072 -0.1194 -0.2202 0.2310 Uiso
H74 H 0.3455 -0.0968 -0.2139 0.2310 Uiso
C78 C 0.1129(6) 0.1710(7) -0.2437(5) 0.2230 Uiso
C79 C 0.0771(4) 0.1513(7) -0.2446(4) 0.2710 Uiso
H75 H 0.0574 0.1486 -0.2706 0.4060 Uiso
H76 H 0.0711 0.1828 -0.2313 0.4060 Uiso
H77 H 0.0804 0.1102 -0.2325 0.4060 Uiso
N3 N 0.1781(2) 0.0825(4) -0.38483(18) 0.1050 Uiso
N4 N 0.1666(2) 0.1343(4) -0.37359(18) 0.1050 Uiso
N5 N 0.1309(2) 0.1267(4) -0.38609(19) 0.1080 Uiso
N6 N 0.1240(2) 0.2732(4) -0.38723(18) 0.1060 Uiso
N7 N 0.1588(2) 0.2810(3) -0.37778(17) 0.0930 Uiso
N8 N 0.1656(2) 0.3342(4) -0.39126(18) 0.1040 Uiso
N9 N 0.2325(2) 0.2705(4) -0.38884(18) 0.0990 Uiso
N10 N 0.2269(2) 0.2168(4) -0.37372(17) 0.1040 Uiso
N11 N 0.2396(2) 0.1627(4) -0.38281(19) 0.1090 Uiso
N12 N 0.24959(19) 0.0945(3) -0.31035(17) 0.0910 Uiso
N13 N 0.24154(19) 0.1486(3) -0.30049(18) 0.0960 Uiso
N14 N 0.25814(19) 0.1536(3) -0.26165(18) 0.0970 Uiso
N15 N 0.1949(2) 0.2188(3) -0.2674(2) 0.1100 Uiso
N16 N 0.1726(3) 0.2150(4) -0.3055(2) 0.1200 Uiso
N17 N 0.1395(2) 0.1999(3) -0.31762(19) 0.1030 Uiso
N18 N 0.2510(2) 0.3023(4) -0.2683(2) 0.1070 Uiso
O1 O 0.0574(3) 0.1255(5) -0.3805(2) 0.2270 Uiso
O2 O 0.0566(3) 0.2209(5) -0.3859(3) 0.2390 Uiso
O3 O -0.10927(19) 0.1692(3) -0.43688(15) 0.1220 Uiso
O4 O -0.0767(5) 0.0665(9) -0.4384(4) 0.3950 Uiso
O5 O -0.2520(2) 0.2007(4) -0.6929(2) 0.1680 Uiso
O6 O -0.21877(19) 0.2891(4) -0.68506(17) 0.1440 Uiso
O7 O -0.1495(2) 0.3201(4) -0.5418(2) 0.1730 Uiso
O8 O -0.16903(16) 0.2345(3) -0.51412(16) 0.1056 Uiso
O9 O -0.23591(17) 0.5085(3) -0.36096(17) 0.1240 Uiso
O10 O -0.2727(2) 0.5232(3) -0.42223(18) 0.1510 Uiso
O11 O -0.17467(17) 0.2979(3) -0.42228(15) 0.1120 Uiso
O12 O -0.2907(2) -0.0217(4) -0.3866(2) 0.1740 Uiso
O13 O -0.2632(2) -0.0892(4) -0.40244(19) 0.1660 Uiso
O14 O -0.2062(2) 0.0348(4) -0.46506(19) 0.1570 Uiso
O15 O -0.21468(18) 0.1554(3) -0.45393(14) 0.1100 Uiso
O16 O -0.15498(19) 0.3270(3) -0.35415(19) 0.1420 Uiso
C80 C 0.0005(2) 0.1706(8) -0.40323(17) 0.1800 Uiso
C81 C -0.0187(4) 0.1128(5) -0.4113(2) 0.2530 Uiso
H78 H -0.0067 0.0742 -0.4093 0.3040 Uiso
C82 C -0.0559(4) 0.1129(4) -0.4224(2) 0.3420 Uiso
C83 C -0.0739(2) 0.1706(6) -0.42538(19) 0.1350 Uiso
C84 C -0.0547(4) 0.2284(4) -0.4173(2) 0.2930 Uiso
H79 H -0.0667 0.2670 -0.4193 0.3520 Uiso
C85 C -0.0175(3) 0.2284(5) -0.4062(2) 0.3040 Uiso
H80 H -0.0046 0.2670 -0.4008 0.3650 Uiso
Zn2B Zn -0.26878(3) 0.57903(5) -0.36678(3) 0.1023 Uani
Zn3B Zn -0.28483(4) -0.14426(5) -0.37989(3) 0.1144 Uani
Zn5G Zn -0.25275(4) 0.26883(6) -0.73937(3) 0.1163 Uani
O5G O 0.2480(2) 0.2993(4) -0.1929(2) 0.1680 Uiso
O6G O 0.28123(19) 0.2109(4) -0.18506(17) 0.1440 Uiso
O9B O 0.26409(17) 0.0085(3) -0.36096(17) 0.1240 Uiso
O13B O 0.2368(2) 0.4108(4) -0.40244(19) 0.1660 Uiso
loop_
_atom_site_aniso_label
_atom_site_aniso_U_11
_atom_site_aniso_U_22
_atom_site_aniso_U_33
_atom_site_aniso_U_23
_atom_site_aniso_U_13
_atom_site_aniso_U_12
Zn1 0.1077 0.0783 0.1018 0.0063 0.0603 0.0106
Zn2 0.1194 0.0865 0.111 -0.004 0.0653 0.0136
Zn3 0.1316 0.0851 0.1509 0.0056 0.089 0.0014
Zn4 0.105 0.096 0.1523 0.0139 0.0788 0.0115
Zn5 0.1459 0.1052 0.0973 -0.0063 0.0606 0.0208
Zn2B 0.1194 0.0865 0.111 -0.004 0.0653 0.0136
Zn3B 0.1316 0.0851 0.1509 0.0056 0.089 0.0014
Zn5G 0.1459 0.1052 0.0973 0.0063 0.0606 -0.0208
loop_
_geom_bond_atom_site_label_1
_geom_bond_atom_site_label_2
_geom_bond_site_symmetry_1
_geom_bond_site_symmetry_2
Zn1 N1 1_555 1_555
Zn2 N3 1_555 1_555
Zn3 N2 1_555 1_555
Zn4 N5 1_555 1_555
Zn5 N14 1_555 1_555
C1 C26 1_555 1_555
C2 H1 1_555 1_555
C3 C2 1_555 1_555
C4 H2 1_555 1_555
C5 C3 1_555 1_555
H3 C5 1_555 1_555
H4 C5 1_555 1_555
H5 C5 1_555 1_555
C6 C9 1_555 1_555
C7 H6 1_555 1_555
H7 C7 1_555 1_555
H8 C7 1_555 1_555
C8 O1 1_555 1_555
C9 H9 1_555 1_555
H10 C9 1_555 1_555
H11 C9 1_555 1_555
C10 H12 1_555 1_555
H13 C10 1_555 1_555
H14 C10 1_555 1_555
C11 H15 1_555 1_555
C12 C62 1_555 1_555
C13 C11 1_555 1_555
C14 C23 1_555 1_555
C15 H16 1_555 1_555
C16 C13 1_555 1_555
C17 C16 1_555 1_555
H17 C17 1_555 1_555
H18 C17 1_555 1_555
H19 C17 1_555 1_555
C18 H20 1_555 1_555
C19 C28 1_555 1_555
C20 C29 1_555 1_555
C21 C15 1_555 1_555
C22 C4 1_555 1_555
C23 H21 1_555 1_555
H22 C23 1_555 1_555
H23 C23 1_555 1_555
C24 C46 1_555 1_555
C25 C6 1_555 1_555
C26 H24 1_555 1_555
H25 C26 1_555 1_555
C27 C1 1_555 1_555
H26 C27 1_555 1_555
H27 C27 1_555 1_555
C28 H28 1_555 1_555
C29 C16 1_555 1_555
H29 C29 1_555 1_555
C30 C44 1_555 1_555
C31 H30 1_555 1_555
H31 C31 1_555 1_555
H32 C31 1_555 1_555
C32 C25 1_555 1_555
H33 C32 1_555 1_555
H34 C32 1_555 1_555
H35 C32 1_555 1_555
C33 C1 1_555 1_555
H36 C33 1_555 1_555
H37 C33 1_555 1_555
C34 C28 1_555 1_555
C35 H38 1_555 1_555
C36 H39 1_555 1_555
C37 H40 1_555 1_555
H41 C37 1_555 1_555
H42 C37 1_555 1_555
C38 H43 1_555 1_555
H44 C38 1_555 1_555
H45 C38 1_555 1_555
C39 C3 1_555 1_555
N1 N2 1_555 1_555
C40 C22 1_555 1_555
H46 C40 1_555 1_555
H47 C40 1_555 1_555
H48 C40 1_555 1_555
C41 H49 1_555 1_555
C42 C51 1_555 1_555
C43 C34 1_555 1_555
H50 C43 1_555 1_555
H51 C43 1_555 1_555
H52 C43 1_555 1_555
C44 C41 1_555 1_555
C45 H53 1_555 1_555
H54 C45 1_555 1_555
H55 C45 1_555 1_555
C46 H56 1_555 1_555
C47 C36 1_555 1_555
C48 C24 1_555 1_555
C49 C35 1_555 1_555
N2 C76 1_555 1_555
C50 C1 1_555 1_555
H57 C50 1_555 1_555
H58 C50 1_555 1_555
C51 C35 1_555 1_555
H59 C51 1_555 1_555
C52 C63 1_555 1_555
C53 C42 1_555 1_555
H60 C53 1_555 1_555
C54 C47 1_555 1_555
C55 C11 1_555 1_555
C56 C58 1_555 1_555
C57 H61 1_555 1_555
H62 C57 1_555 1_555
H63 C57 1_555 1_555
C58 C67 1_555 1_555
C59 C14 1_555 1_555
C60 C30 1_555 1_555
H64 C60 1_555 1_555
C61 C64 1_555 1_555
C62 C75 1_555 1_555
C63 C14 1_555 1_555
H65 C63 1_555 1_555
C64 C39 1_555 1_555
H66 C64 1_555 1_555
C65 H67 1_555 1_555
C66 C4 1_555 1_555
C67 C46 1_555 1_555
H68 C67 1_555 1_555
C68 C49 1_555 1_555
C69 C19 1_555 1_555
C70 C6 1_555 1_555
H69 C70 1_555 1_555
C71 C48 1_555 1_555
H70 C71 1_555 1_555
C72 C34 1_555 1_555
C73 C18 1_555 1_555
C74 C42 1_555 1_555
C75 C25 1_555 1_555
H71 C75 1_555 1_555
C76 C2 1_555 1_555
C77 C13 1_555 1_555
H72 C77 1_555 1_555
H73 C77 1_555 1_555
H74 C77 1_555 1_555
C78 C15 1_555 1_555
C79 C78 1_555 1_555
H75 C79 1_555 1_555
H76 C79 1_555 1_555
H77 C79 1_555 1_555
N3 C69 1_555 1_555
N4 Zn1 1_555 1_555
N5 C19 1_555 1_555
N6 Zn4 1_555 1_555
N7 Zn1 1_555 1_555
N8 Zn3 1_555 1_555
N9 Zn3 1_555 1_555
N10 Zn1 1_555 1_555
N11 Zn2 1_555 1_555
N12 Zn2 1_555 1_555
N13 Zn1 1_555 1_555
N14 C20 1_555 1_555
N15 Zn5 1_555 1_555
N16 Zn1 1_555 1_555
N17 Zn4 1_555 1_555
N18 Zn5 1_555 1_555
O1 Zn4 1_555 1_555
O2 Zn4 1_555 1_555
O3 C33 1_555 1_555
O4 C38 1_555 1_555
O5 C74 1_555 1_555
O6 C74 1_555 1_555
O7 C31 1_555 1_555
O8 C26 1_555 1_555
O9 C56 1_555 1_555
O10 C56 1_555 1_555
O11 C24 1_555 1_555
O12 C54 1_555 1_555
O13 C54 1_555 1_555
O14 C44 1_555 1_555
O15 C30 1_555 1_555
O16 C10 1_555 1_555
C80 C8 1_555 1_555
C81 C80 1_555 1_555
H78 C81 1_555 1_555
C82 O4 1_555 1_555
C83 O3 1_555 1_555
C84 C83 1_555 1_555
H79 C84 1_555 1_555
C85 C80 1_555 1_555
H80 C85 1_555 1_555
Zn2B O9 1_555 1_555
Zn3B O13 1_555 1_555
Zn5G O5 1_555 1_555
O5G Zn5 1_555 1_555
O6G Zn5 1_555 1_555
O9B Zn2 1_555 1_555
O13B Zn3 1_555 1_555
C7 C39 1_555 1_555
C8 O2 1_555 1_555
C12 C70 1_555 1_555
C12 N8 1_555 1_555
C18 C59 1_555 1_555
C20 C55 1_555 1_555
C21 C66 1_555 1_555
C21 N17 1_555 1_555
C22 C78 1_555 1_555
C27 O11 1_555 1_555
C36 C60 1_555 1_555
C37 C59 1_555 1_555
N1 N18 1_555 1_555
C41 C47 1_555 1_555
C45 C72 1_555 1_555
C48 O16 1_555 1_555
C49 O8 1_555 1_555
C50 O15 1_555 1_555
C52 C73 1_555 1_555
C52 N11 1_555 1_555
C53 C68 1_555 1_555
C55 N12 1_555 1_555
C57 O14 1_555 1_555
C58 C71 1_555 1_555
C61 C76 1_555 1_555
C61 N18 1_555 1_555
C62 N6 1_555 1_555
C65 C69 1_555 1_555
C65 C72 1_555 1_555
C66 N15 1_555 1_555
C68 O7 1_555 1_555
C73 N9 1_555 1_555
N3 N4 1_555 1_555
N4 N5 1_555 1_555
N6 N7 1_555 1_555
N7 N8 1_555 1_555
N9 N10 1_555 1_555
N10 N11 1_555 1_555
N12 N13 1_555 1_555
N13 N14 1_555 1_555
N15 N16 1_555 1_555
N16 N17 1_555 1_555
O6 Zn5G 1_555 1_555
C81 C82 1_555 1_555
C82 C83 1_555 1_555
C84 C85 1_555 1_555

#END
