
#######################################################################
#
#                 Cambridge Crystallographic Data Centre
#                                CCDC 
#
#######################################################################
#
# If this CIF has been generated from an entry in the Cambridge 
# Structural Database, then it will include bibliographic, chemical, 
# crystal, experimental, refinement or atomic coordinate data resulting 
# from the CCDC's data processing and validation procedures.
#
#######################################################################

data_FAYQAZ
_chemical_name_common            DMOF-6
_chemical_formula_moiety         '(C79 H68 N18 O16 Zn5)n'
_chemical_name_systematic        
'catena-[(\m~4~-tetrakis((4-Carboxylato-2-methoxyphenoxy)methyl)methane)-hexakis(\m~3~-5-methylbenzotriazolyl)-penta-zinc(ii) unknown solvate]'
_symmetry_cell_setting           monoclinic
_symmetry_space_group_name_H-M   'C 2/c'
_symmetry_Int_Tables_number      15
_space_group_name_Hall           '-C 2yc'
loop_
_symmetry_equiv_pos_site_id
_symmetry_equiv_pos_as_xyz
1 x,y,z
2 -x,y,1/2-z
3 1/2+x,1/2+y,z
4 1/2-x,1/2+y,1/2-z
5 -x,-y,-z
6 x,-y,1/2+z
7 1/2-x,1/2-y,-z
8 1/2+x,1/2-y,1/2+z
_cell_length_a                   42.5614(4)
_cell_length_b                   19.89766(18)
_cell_length_c                   41.130(2)
_cell_angle_alpha                90
_cell_angle_beta                 120.0768(2)
_cell_angle_gamma                90
_cell_volume                     30141.9
_exptl_crystal_colour            colorless
_exptl_crystal_description       block
_cell_formula_units_Z            8
loop_
_atom_site_label
_atom_site_type_symbol
_atom_site_fract_x
_atom_site_fract_y
_atom_site_fract_z
_atom_site_U_iso_or_equiv
_atom_site_thermal_displace_type
Zn1 Zn 0.284610(18) -0.03755(4) 0.329773(19) 0.1020 Uani
Zn2 Zn 0.22933(2) -0.04975(4) 0.37239(2) 0.1226 Uani
Zn3 Zn 0.34264(2) -0.17812(4) 0.35679(2) 0.1207 Uani
Zn4 Zn 0.33618(2) 0.11093(5) 0.35888(3) 0.1551 Uani
Zn5 Zn 0.22719(3) -0.03495(6) 0.23100(2) 0.1473 Uani
C1 C 0.2935(2) -0.2059(5) 0.2711(3) 0.1125 Uani
C2 C 0.2695(3) -0.1687(6) 0.2436(3) 0.1204 Uani
C3 C 0.2506(3) -0.1900(6) 0.2061(4) 0.1732 Uani
H1 H 0.2327 -0.1640 0.1869 0.2080 Uiso
C4 C 0.2601(3) -0.2499(8) 0.2000(3) 0.1806 Uani
H2 H 0.2486 -0.2666 0.1756 0.2170 Uiso
C5 C 0.2872(3) -0.2897(5) 0.2293(4) 0.1419 Uani
C6 C 0.3061(2) -0.2685(5) 0.2675(3) 0.1304 Uani
H3 H 0.3243 -0.2930 0.2873 0.1560 Uiso
C7 C 0.3001(2) -0.3621(5) 0.2230(3) 0.2090 Uani
H4 H 0.2866 -0.3737 0.1968 0.3140 Uiso
H5 H 0.2960 -0.3952 0.2374 0.3140 Uiso
H6 H 0.3255 -0.3606 0.2310 0.3140 Uiso
C8 C 0.3019(3) -0.2098(5) 0.3987(2) 0.1337 Uani
C9 C 0.2748(3) -0.1805(5) 0.4023(3) 0.1344 Uani
C10 C 0.2614(3) -0.2101(7) 0.4235(4) 0.2132 Uani
H7 H 0.2424 -0.1906 0.4252 0.2570 Uiso
C11 C 0.2764(4) -0.2663(8) 0.4412(4) 0.2629 Uani
H8 H 0.2696 -0.2854 0.4574 0.3150 Uiso
C12 C 0.3026(5) -0.2969(7) 0.4352(4) 0.2535 Uani
C13 C 0.3179(3) -0.2689(7) 0.4159(3) 0.1950 Uani
H9 H 0.3372 -0.2882 0.4146 0.2340 Uiso
C14 C 0.3183(5) -0.3665(8) 0.4548(5) 0.4467 Uani
H10 H 0.3056 -0.3812 0.4674 0.6710 Uiso
H11 H 0.3436 -0.3618 0.4728 0.6710 Uiso
H12 H 0.3151 -0.3991 0.4362 0.6710 Uiso
C15 C 0.1705(3) -0.0618(5) 0.2870(4) 0.1586 Uani
C16 C 0.1691(3) -0.0579(5) 0.2547(4) 0.1636 Uani
C17 C 0.1383(4) -0.0716(6) 0.2186(3) 0.2197 Uani
H13 H 0.1390 -0.0727 0.1964 0.2640 Uiso
C18 C 0.1080(4) -0.0825(8) 0.2204(5) 0.2535 Uani
C19 C 0.1085(5) -0.0899(8) 0.2545(6) 0.2895 Uani
H14 H 0.0871 -0.1025 0.2537 0.3470 Uiso
C20 C 0.1401(4) -0.0790(6) 0.2905(4) 0.2072 Uani
H15 H 0.1406 -0.0828 0.3133 0.2490 Uiso
C21 C 0.0733(4) -0.1044(9) 0.1843(4) 0.3927 Uani
H16 H 0.0538 -0.1097 0.1896 0.5870 Uiso
H17 H 0.0776 -0.1464 0.1757 0.5870 Uiso
H18 H 0.0668 -0.0708 0.1653 0.5870 Uiso
C22 C 0.3969(2) -0.0644(5) 0.3863(2) 0.1788 Uani
C23 C 0.39771(19) 0.0054(5) 0.3878(2) 0.1929 Uani
C24 C 0.4308(3) 0.0389(3) 0.4058(3) 0.2704 Uani
H19 H 0.4314 0.0856 0.4068 0.3240 Uiso
C25 C 0.46306(19) 0.0026(5) 0.4223(3) 0.3732 Uani
C26 C 0.4622(2) -0.0672(5) 0.4208(3) 0.3752 Uani
H20 H 0.4838 -0.0915 0.4318 0.4510 Uiso
C27 C 0.4291(3) -0.1007(3) 0.4028(3) 0.2397 Uani
H21 H 0.4285 -0.1474 0.4018 0.2880 Uiso
C28 C 0.4985(8) 0.025(2) 0.4559(9) 1.0400 Uiso
H22 H 0.5162 -0.0102 0.4627 1.5670 Uiso
H23 H 0.4947 0.0336 0.4767 1.5670 Uiso
H24 H 0.5069 0.0648 0.4497 1.5670 Uiso
C29 C 0.2903(4) 0.1338(6) 0.2707(5) 0.1326 Uani
C30 C 0.2664(4) 0.0954(11) 0.2442(4) 0.1812 Uani
C31 C 0.2505(3) 0.1199(8) 0.2066(4) 0.1974 Uani
H25 H 0.2329 0.0957 0.1862 0.2360 Uiso
C32 C 0.2624(5) 0.1799(11) 0.2024(5) 0.2348 Uani
H26 H 0.2527 0.1946 0.1778 0.2810 Uiso
C33 C 0.2867(5) 0.2223(6) 0.2292(6) 0.1931 Uani
C34 C 0.3031(3) 0.2013(7) 0.2676(4) 0.1972 Uani
H27 H 0.3196 0.2268 0.2879 0.2370 Uiso
C35 C 0.2934(3) 0.2863(6) 0.2179(4) 0.3395 Uani
H28 H 0.3110 0.3105 0.2396 0.5090 Uiso
H29 H 0.2712 0.3116 0.2055 0.5090 Uiso
H30 H 0.3024 0.2798 0.2009 0.5090 Uiso
C36 C -0.1085(3) 0.2388(6) 0.3880(4) 0.1714 Uani
C37 C -0.0785(2) 0.1853(5) 0.3949(3) 0.1218 Uani
C38 C -0.0799(3) 0.1513(6) 0.3675(3) 0.1464 Uani
H31 H -0.0978 0.1585 0.3426 0.1750 Uiso
C39 C -0.0528(3) 0.1031(6) 0.3779(3) 0.1484 Uani
C40 C -0.0275(2) 0.0878(5) 0.4132(3) 0.1156 Uani
C41 C -0.02809(18) 0.1251(5) 0.4391(2) 0.1184 Uani
H32 H -0.0105 0.1169 0.4640 0.1420 Uiso
C42 C -0.0536(2) 0.1772(4) 0.4322(3) 0.1224 Uani
H33 H -0.0533 0.2031 0.4511 0.1470 Uiso
C43 C -0.0791(3) 0.0724(6) 0.3122(3) 0.2734 Uani
H34 H -0.0746 0.0411 0.2973 0.4100 Uiso
H35 H -0.0783 0.1174 0.3043 0.4100 Uiso
H36 H -0.1027 0.0639 0.3091 0.4100 Uiso
C44 C 0.02025(17) 0.0182(4) 0.45617(17) 0.1078 Uani
H37 H 0.0071 0.0084 0.4693 0.1290 Uiso
H38 H 0.0375 0.0539 0.4695 0.1290 Uiso
C45 C 0.03955(16) -0.0418(3) 0.45514(17) 0.0918 Uani
C46 C 0.01287(16) -0.0972(3) 0.43610(16) 0.1045 Uani
H39 H -0.0036 -0.0856 0.4100 0.1250 Uiso
H40 H 0.0255 -0.1383 0.4368 0.1250 Uiso
C47 C 0.06535(17) -0.0621(3) 0.49440(17) 0.1057 Uani
H41 H 0.0526 -0.0686 0.5082 0.1270 Uiso
H42 H 0.0774 -0.1037 0.4948 0.1270 Uiso
C48 C 0.05919(17) -0.0251(3) 0.43388(17) 0.1120 Uani
H43 H 0.0418 -0.0148 0.4079 0.1350 Uiso
H44 H 0.0747 0.0138 0.4450 0.1350 Uiso
C49 C -0.0343(3) -0.1490(7) 0.4373(3) 0.1394 Uani
C50 C -0.0679(4) -0.1263(6) 0.4115(3) 0.2120 Uani
H45 H -0.0728 -0.0810 0.4057 0.2550 Uiso
C51 C -0.0963(3) -0.1799(10) 0.3932(3) 0.2789 Uani
H46 H -0.1180 -0.1679 0.3720 0.3340 Uiso
C52 C -0.0931(4) -0.2370(6) 0.4037(5) 0.1933 Uani
C53 C -0.0623(5) -0.2534(7) 0.4312(4) 0.2175 Uani
H47 H -0.0575 -0.2970 0.4407 0.2610 Uiso
C54 C -0.0363(4) -0.2026(9) 0.4466(5) 0.2632 Uani
C55 C 0.0014(5) -0.2946(10) 0.4936(7) 0.6371 Uani
H48 H 0.0265 -0.3058 0.5102 0.9560 Uiso
H49 H -0.0101 -0.3303 0.4757 0.9560 Uiso
H50 H -0.0106 -0.2886 0.5078 0.9560 Uiso
C56 C 0.1830(3) -0.0562(8) 0.3905(3) 0.1683 Uani
C57 C -0.1273(5) -0.2943(10) 0.3742(8) 0.3679 Uani
C58 C 0.1133(2) -0.0091(5) 0.5475(3) 0.1153 Uani
C59 C 0.11688(19) -0.0580(4) 0.5725(3) 0.1365 Uani
H51 H 0.1036 -0.0975 0.5633 0.1640 Uiso
C60 C 0.1395(2) -0.0511(5) 0.6112(3) 0.1528 Uani
H52 H 0.1405 -0.0841 0.6277 0.1830 Uiso
C61 C 0.1595(3) 0.0037(7) 0.6236(3) 0.1544 Uani
C62 C 0.1576(3) 0.0551(5) 0.6007(4) 0.1660 Uani
H53 H 0.1715 0.0939 0.6101 0.1990 Uiso
C63 C 0.1336(3) 0.0461(5) 0.5629(3) 0.1464 Uani
C64 C 0.1466(4) 0.1525(7) 0.5495(3) 0.2746 Uani
H54 H 0.1413 0.1800 0.5281 0.4110 Uiso
H55 H 0.1723 0.1459 0.5645 0.4110 Uiso
H56 H 0.1379 0.1745 0.5643 0.4110 Uiso
C65 C 0.1835(4) 0.0105(7) 0.6657(4) 0.1875 Uani
C66 C 0.1031(2) -0.0738(6) 0.4233(2) 0.1263 Uani
C67 C 0.1068(2) -0.0173(6) 0.4094(3) 0.1548 Uani
H57 H 0.0922 0.0193 0.4070 0.1860 Uiso
C68 C 0.1336(3) -0.0117(5) 0.3975(2) 0.1638 Uani
H58 H 0.1362 0.0279 0.3871 0.1960 Uiso
C69 C 0.1549(2) -0.0665(7) 0.4022(3) 0.1416 Uani
C70 C 0.1500(3) -0.1201(7) 0.4158(3) 0.1967 Uani
H59 H 0.1645 -0.1575 0.4192 0.2360 Uiso
C71 C 0.1235(3) -0.1233(7) 0.4255(3) 0.1694 Uani
C72 C 0.1329(6) -0.2247(11) 0.4440(7) 0.5211 Uani
H60 H 0.1276 -0.2575 0.4577 0.7850 Uiso
H61 H 0.1587 -0.2175 0.4565 0.7850 Uiso
H62 H 0.1245 -0.2408 0.4190 0.7850 Uiso
C73 C 0.2908(3) 0.1254(6) 0.3981(3) 0.1562 Uani
C74 C 0.2654(3) 0.0888(6) 0.3990(3) 0.1459 Uani
C75 C 0.2485(3) 0.1086(6) 0.4184(3) 0.1966 Uani
H63 H 0.2310 0.0823 0.4195 0.2360 Uiso
C76 C 0.2591(5) 0.1705(9) 0.4363(5) 0.3023 Uani
C77 C 0.2847(5) 0.2117(7) 0.4329(4) 0.2932 Uani
H64 H 0.2901 0.2544 0.4436 0.3560 Uiso
C78 C 0.3016(3) 0.1880(7) 0.4139(4) 0.2500 Uani
H65 H 0.3191 0.2128 0.4119 0.3000 Uiso
C79 C 0.2418(4) 0.2031(8) 0.4578(4) 0.3796 Uani
H66 H 0.2250 0.1721 0.4588 0.5680 Uiso
H67 H 0.2292 0.2433 0.4450 0.5680 Uiso
H68 H 0.2605 0.2140 0.4828 0.5680 Uiso
N1 N 0.26220(16) -0.1105(3) 0.2547(2) 0.1182 Uani
N2 N 0.28421(19) -0.1109(3) 0.2906(2) 0.1086 Uani
N3 N 0.30441(14) -0.1673(4) 0.30154(19) 0.1129 Uani
N4 N 0.31007(14) -0.1713(4) 0.37711(16) 0.1105 Uani
N5 N 0.28787(16) -0.1183(3) 0.36740(13) 0.1035 Uani
N6 N 0.26660(14) -0.1231(3) 0.38285(17) 0.1101 Uani
N7 N 0.2054(2) -0.0500(3) 0.31538(16) 0.1232 Uani
N8 N 0.22578(16) -0.0419(3) 0.2999(2) 0.1185 Uani
N9 N 0.2052(2) -0.0434(3) 0.2632(2) 0.1366 Uani
N10 N 0.36170(19) 0.0206(3) 0.36915(18) 0.1357 Uani
N11 N 0.34311(15) -0.0361(4) 0.35902(14) 0.1117 Uani
N12 N 0.36430(17) -0.0872(4) 0.36855(17) 0.1322 Uani
N13 N 0.30035(16) 0.0979(5) 0.30234(18) 0.1248 Uani
N14 N 0.2817(2) 0.0408(3) 0.2913(2) 0.1176 Uani
N15 N 0.2601(2) 0.0378(4) 0.2551(3) 0.1735 Uani
N16 N 0.30100(16) 0.0928(4) 0.37725(19) 0.1273 Uani
N17 N 0.28278(17) 0.0352(3) 0.36788(14) 0.1092 Uani
N18 N 0.26009(16) 0.0311(3) 0.38125(17) 0.1154 Uani
O1 O -0.1085(3) 0.2703(5) 0.4126(3) 0.2218 Uani
O2 O -0.12910(15) 0.2483(3) 0.3534(2) 0.1781 Uani
O3 O 0.1972(2) -0.1093(5) 0.3886(2) 0.2429 Uani
O4 O 0.1892(2) -0.0064(5) 0.3809(3) 0.2252 Uani
O5 O -0.1221(3) -0.3327(5) 0.3948(3) 0.2947 Uani
O6 O 0.1824(2) -0.0320(5) 0.6869(2) 0.2339 Uani
O7 O 0.2047(2) 0.0596(4) 0.67707(16) 0.1955 Uani
O8 O -0.1526(3) -0.2606(6) 0.3674(3) 0.2963 Uani
O9 O -0.00413(13) 0.0386(3) 0.41921(13) 0.1257 Uani
O10 O -0.0009(4) -0.2271(6) 0.4719(3) 0.3206 Uani
O11 O 0.1187(3) -0.1755(6) 0.4427(4) 0.3034 Uani
O12 O 0.12964(18) 0.0915(4) 0.5375(2) 0.1937 Uani
O13 O 0.09138(13) -0.0085(2) 0.51080(16) 0.1259 Uani
O14 O 0.08021(14) -0.0814(3) 0.43588(13) 0.1286 Uani
O15 O -0.00664(14) -0.1066(3) 0.45483(13) 0.1396 Uani
O16 O -0.05148(17) 0.0645(4) 0.3518(2) 0.1964 Uani
Zn3B Zn -0.15736(2) 0.32188(4) 0.35679(2) 0.1207 Uani
Zn4B Zn -0.16382(2) -0.38907(5) 0.35888(3) 0.1551 Uani
Zn5E Zn 0.22719(3) 0.03495(6) 0.73100(2) 0.1473 Uani
O1B O 0.3915(3) -0.2297(5) 0.4126(3) 0.2218 Uani
O2B O 0.37090(15) -0.2517(3) 0.3534(2) 0.1781 Uani
O5B O 0.3779(3) 0.1673(5) 0.3948(3) 0.2947 Uani
O6E O 0.1824(2) 0.0320(5) 0.1869(2) 0.2339 Uani
O7E O 0.2047(2) -0.0596(4) 0.17707(16) 0.1955 Uani
loop_
_atom_site_aniso_label
_atom_site_aniso_U_11
_atom_site_aniso_U_22
_atom_site_aniso_U_33
_atom_site_aniso_U_23
_atom_site_aniso_U_13
_atom_site_aniso_U_12
Zn1 0.1007(5) 0.0840(6) 0.1293(6) -0.0042(4) 0.0636(4) 0.0006(4)
Zn2 0.1216(6) 0.0997(7) 0.1824(8) -0.0082(5) 0.1030(6) -0.0024(5)
Zn3 0.1054(5) 0.1122(7) 0.1512(7) 0.0137(5) 0.0693(5) 0.0230(5)
Zn4 0.1544(7) 0.1022(8) 0.2470(11) -0.0328(7) 0.1293(8) -0.0422(6)
Zn5 0.1529(8) 0.1480(10) 0.1322(7) 0.0128(6) 0.0648(6) 0.0433(7)
C1 0.110(6) 0.104(8) 0.112(7) 0.011(7) 0.047(6) 0.005(5)
C2 0.125(6) 0.149(10) 0.102(7) -0.026(7) 0.068(6) -0.015(7)
C3 0.169(9) 0.118(9) 0.254(15) 0.018(9) 0.122(10) 0.041(7)
C4 0.134(8) 0.243(15) 0.151(8) 0.047(10) 0.061(7) 0.009(9)
C5 0.160(8) 0.103(8) 0.229(11) -0.060(8) 0.147(8) -0.043(7)
C6 0.135(6) 0.087(7) 0.192(9) -0.014(6) 0.099(6) -0.006(5)
C7 0.251(10) 0.152(9) 0.275(11) -0.026(8) 0.170(9) -0.010(8)
C8 0.147(7) 0.117(8) 0.155(7) 0.030(6) 0.089(6) 0.032(6)
C9 0.148(7) 0.107(8) 0.190(8) 0.021(6) 0.116(6) 0.014(6)
C10 0.225(10) 0.173(11) 0.342(14) 0.101(10) 0.217(11) 0.078(9)
C11 0.277(14) 0.222(16) 0.398(18) 0.122(13) 0.250(14) 0.102(12)
C12 0.323(17) 0.159(12) 0.347(16) 0.122(11) 0.219(14) 0.091(11)
C13 0.223(10) 0.169(11) 0.254(11) 0.086(9) 0.165(9) 0.068(9)
C14 0.55(3) 0.30(2) 0.68(3) 0.27(2) 0.45(3) 0.17(2)
C15 0.117(9) 0.197(10) 0.174(11) 0.001(7) 0.082(9) 0.022(6)
C16 0.115(9) 0.212(10) 0.159(10) 0.005(8) 0.065(9) 0.026(7)
C17 0.123(8) 0.316(15) 0.179(11) -0.046(8) 0.045(9) 0.011(9)
C18 0.114(9) 0.40(2) 0.175(13) -0.054(12) 0.019(10) -0.006(10)
C19 0.222(17) 0.38(2) 0.244(16) -0.041(16) 0.100(16) 0.000(13)
C20 0.159(9) 0.284(13) 0.198(12) -0.018(9) 0.104(9) -0.005(9)
C21 0.303(18) 0.52(3) 0.317(19) -0.032(18) 0.127(16) 0.017(19)
C22 0.099(7) 0.216(12) 0.213(9) 0.028(8) 0.072(7) 0.066(8)
C23 0.128(9) 0.149(10) 0.306(12) -0.040(9) 0.112(9) 0.007(8)
C24 0.153(8) 0.216(13) 0.424(17) -0.069(11) 0.131(11) -0.095(10)
C25 0.069(6) 0.40(2) 0.53(2) -0.145(19) 0.060(10) -0.006(9)
C26 0.46(3) 0.165(15) 0.59(3) -0.094(17) 0.33(2) -0.083(16)
C27 0.204(11) 0.180(12) 0.352(15) -0.024(10) 0.152(11) -0.079(11)
C29 0.167(9) 0.131(11) 0.151(11) 0.024(9) 0.118(9) 0.024(8)
C30 0.217(12) 0.242(19) 0.100(9) 0.075(11) 0.091(9) 0.145(13)
C31 0.205(10) 0.160(12) 0.261(16) 0.003(11) 0.142(11) 0.024(10)
C32 0.268(18) 0.167(17) 0.36(2) 0.029(17) 0.225(18) 0.057(13)
C33 0.262(15) 0.094(10) 0.326(18) 0.075(11) 0.224(15) 0.053(9)
C34 0.228(11) 0.141(12) 0.332(18) 0.041(11) 0.222(13) 0.042(9)
C35 0.348(15) 0.185(12) 0.65(3) 0.221(15) 0.373(18) 0.102(11)
C36 0.135 0.111 0.23 0.053 0.063 -0.001
C37 0.096 0.105 0.141 0.021 0.042 0.016
C38 0.158 0.139 0.113 0.011 0.046 0.028
C39 0.151 0.153 0.117 -0.012 0.049 0.021
C40 0.118 0.136 0.099 -0.011 0.059 0.018
C41 0.094 0.127 0.12 0.019 0.043 0.015
C42 0.126 0.115 0.162 -0.011 0.099 -0.007
C43 0.329 0.237 0.226 -0.016 0.118 0.099
C44 0.094 0.134 0.1 0.012 0.052 0.009
C45 0.074 0.09 0.112 -0.002 0.047 0.009
C46 0.081 0.104 0.109 -0.006 0.033 -0.01
C47 0.094 0.117 0.11 0.001 0.054 -0.019
C48 0.1 0.108 0.151 0.008 0.08 0.003
C49 0.132 0.142 0.163 0.037 0.088 0.003
C50 0.171 0.185 0.253 0.029 0.086 -0.014
C51 0.16 0.36 0.22 0.037 0.023 -0.159
C52 0.186 0.113 0.326 0.04 0.162 -0.037
C53 0.223 0.144 0.25 0.027 0.092 0.015
C54 0.141 0.162 0.345 0.048 0.016 -0.043
C55 0.44 0.215 0.75 0 -0.08 -0.03
C56 0.151 0.206 0.168 -0.004 0.095 -0.003
C57 0.29 0.197 0.8 0.18 0.41 0.073
C58 0.091 0.087 0.154 0.003 0.051 -0.03
C59 0.101 0.12 0.17 0.002 0.054 -0.034
C60 0.124 0.198 0.103 -0.003 0.032 -0.045
C61 0.124 0.199 0.115 -0.037 0.041 -0.034
C62 0.173 0.171 0.135 0.008 0.063 -0.053
C63 0.16 0.139 0.144 0.038 0.079 -0.031
C64 0.359 0.242 0.249 0.042 0.172 -0.016
C65 0.185 0.209 0.192 -0.024 0.112 -0.049
C66 0.138 0.088 0.189 0.04 0.109 0.027
C67 0.124 0.167 0.217 0.011 0.118 0.021
C68 0.178 0.134 0.2 0.01 0.11 -0.009
C69 0.103 0.162 0.172 0.009 0.078 0.011
C70 0.225 0.19 0.261 0.066 0.186 0.067
C71 0.194 0.12 0.248 0.06 0.151 0.023
C72 0.64 0.35 0.91 0.32 0.64 0.28
C73 0.181(8) 0.111(9) 0.213(9) -0.074(7) 0.126(7) -0.062(7)
C74 0.166(8) 0.139(10) 0.180(8) -0.024(7) 0.122(7) -0.002(8)
C75 0.223(9) 0.131(10) 0.293(12) -0.074(8) 0.172(10) -0.070(7)
C76 0.45(2) 0.211(16) 0.46(2) -0.123(15) 0.388(19) -0.074(15)
C77 0.41(2) 0.193(14) 0.44(2) -0.118(13) 0.335(18) -0.096(14)
C78 0.254(12) 0.195(14) 0.380(17) -0.112(12) 0.218(12) -0.079(10)
C79 0.50(2) 0.312(19) 0.50(2) -0.133(17) 0.38(2) -0.091(17)
N1 0.131(5) 0.121(6) 0.112(5) -0.015(4) 0.068(4) 0.023(4)
N2 0.121(4) 0.095(5) 0.122(5) -0.007(4) 0.070(4) 0.005(4)
N3 0.095(4) 0.112(6) 0.132(5) 0.004(5) 0.057(4) 0.007(4)
N4 0.117(4) 0.090(5) 0.137(4) 0.022(4) 0.073(4) 0.030(4)
N5 0.109(4) 0.097(5) 0.122(4) -0.001(3) 0.071(3) 0.000(4)
N6 0.122(4) 0.085(5) 0.149(5) 0.008(4) 0.087(4) 0.011(4)
N7 0.109(5) 0.128(5) 0.123(5) -0.021(4) 0.051(5) 0.013(4)
N8 0.135(5) 0.122(5) 0.121(5) -0.007(4) 0.081(5) 0.024(4)
N9 0.127(5) 0.155(6) 0.133(6) -0.002(4) 0.069(5) 0.031(4)
N10 0.124(5) 0.103(6) 0.193(6) -0.023(4) 0.089(4) -0.014(4)
N11 0.095(4) 0.095(5) 0.146(4) -0.019(4) 0.061(3) -0.013(4)
N12 0.077(4) 0.135(6) 0.175(5) 0.002(4) 0.056(4) 0.016(4)
N13 0.132(5) 0.141(7) 0.116(5) -0.016(5) 0.073(4) 0.001(5)
N14 0.130(5) 0.082(5) 0.149(6) 0.021(5) 0.076(4) 0.002(4)
N15 0.218(9) 0.191(9) 0.161(8) 0.154(9) 0.132(8) 0.142(8)
N16 0.149(5) 0.095(5) 0.169(5) -0.030(4) 0.103(4) -0.029(4)
N17 0.117(4) 0.086(5) 0.138(4) -0.019(3) 0.074(4) -0.014(4)
N18 0.131(4) 0.098(5) 0.151(5) -0.029(4) 0.096(4) -0.016(4)
O1 0.236 0.189 0.264 0.022 0.143 0.088
O2 0.138 0.126 0.233 0.02 0.065 0.05
O3 0.239 0.29 0.296 0.069 0.206 0.076
O4 0.213 0.261 0.301 -0.08 0.203 -0.067
O5 0.28 0.178 0.354 -0.057 0.105 -0.116
O6 0.223 0.3 0.14 -0.013 0.062 -0.092
O7 0.22 0.21 0.126 -0.008 0.064 -0.068
O8 0.263 0.231 0.403 -0.107 0.173 -0.122
O9 0.125 0.129 0.139 0.023 0.078 0.048
O10 0.303 0.202 0.328 -0.012 0.062 -0.051
O11 0.37 0.19 0.499 0.119 0.329 0.164
O12 0.216 0.154 0.183 -0.014 0.079 -0.093
O13 0.099 0.136 0.116 0.021 0.034 -0.014
O14 0.122 0.123 0.176 0.016 0.101 0.011
O15 0.107 0.18 0.145 -0.016 0.073 -0.048
O16 0.201 0.21 0.111 0.015 0.028 0.079
Zn3B 0.1054 0.1122 0.1512 0.0137 0.0693 0.023
Zn4B 0.1544 0.1022 0.247 -0.0328 0.1293 -0.0422
Zn5E 0.1529 0.148 0.1322 -0.0128 0.0648 -0.0433
O1B 0.236(8) 0.189(8) 0.264(10) 0.022(6) 0.143(8) 0.088(6)
O2B 0.138(4) 0.126(5) 0.233(6) 0.020(5) 0.065(4) 0.050(4)
O5B 0.28 0.178 0.354 -0.057 0.105 -0.116
O6E 0.223 0.3 0.14 0.013 0.062 0.092
O7E 0.22 0.21 0.126 0.008 0.064 0.068
loop_
_geom_bond_atom_site_label_1
_geom_bond_atom_site_label_2
_geom_bond_site_symmetry_1
_geom_bond_site_symmetry_2
Zn1 N2 1_555 1_555
Zn2 N6 1_555 1_555
Zn3 N3 1_555 1_555
Zn4 N10 1_555 1_555
Zn5 N1 1_555 1_555
C1 C2 1_555 1_555
C2 C3 1_555 1_555
C3 H1 1_555 1_555
C4 C3 1_555 1_555
H2 C4 1_555 1_555
C5 C4 1_555 1_555
C6 C1 1_555 1_555
H3 C6 1_555 1_555
C7 C5 1_555 1_555
H4 C7 1_555 1_555
H5 C7 1_555 1_555
H6 C7 1_555 1_555
C8 C9 1_555 1_555
C9 C10 1_555 1_555
C10 H7 1_555 1_555
C11 C10 1_555 1_555
H8 C11 1_555 1_555
C12 C11 1_555 1_555
C13 C8 1_555 1_555
H9 C13 1_555 1_555
C14 C12 1_555 1_555
H10 C14 1_555 1_555
H11 C14 1_555 1_555
H12 C14 1_555 1_555
C15 C16 1_555 1_555
C16 C17 1_555 1_555
C17 H13 1_555 1_555
C18 C17 1_555 1_555
C19 C18 1_555 1_555
H14 C19 1_555 1_555
C20 C15 1_555 1_555
H15 C20 1_555 1_555
C21 C18 1_555 1_555
H16 C21 1_555 1_555
H17 C21 1_555 1_555
H18 C21 1_555 1_555
C22 C23 1_555 1_555
C23 C24 1_555 1_555
C24 H19 1_555 1_555
C25 C24 1_555 1_555
C26 C25 1_555 1_555
H20 C26 1_555 1_555
C27 C22 1_555 1_555
H21 C27 1_555 1_555
C28 C25 1_555 1_555
H22 C28 1_555 1_555
H23 C28 1_555 1_555
H24 C28 1_555 1_555
C29 C30 1_555 1_555
C30 C31 1_555 1_555
C31 H25 1_555 1_555
C32 C31 1_555 1_555
H26 C32 1_555 1_555
C33 C32 1_555 1_555
C34 C29 1_555 1_555
H27 C34 1_555 1_555
C35 C33 1_555 1_555
H28 C35 1_555 1_555
H29 C35 1_555 1_555
H30 C35 1_555 1_555
C36 C37 1_555 1_555
C37 C38 1_555 1_555
C38 H31 1_555 1_555
C39 C38 1_555 1_555
C40 C39 1_555 1_555
C41 C40 1_555 1_555
H32 C41 1_555 1_555
C42 C37 1_555 1_555
H33 C42 1_555 1_555
C43 H34 1_555 1_555
H35 C43 1_555 1_555
H36 C43 1_555 1_555
C44 H37 1_555 1_555
H38 C44 1_555 1_555
C45 C44 1_555 1_555
C46 C45 1_555 1_555
H39 C46 1_555 1_555
H40 C46 1_555 1_555
C47 C45 1_555 1_555
H41 C47 1_555 1_555
H42 C47 1_555 1_555
C48 C45 1_555 1_555
H43 C48 1_555 1_555
H44 C48 1_555 1_555
C49 C50 1_555 1_555
C50 H45 1_555 1_555
C51 C50 1_555 1_555
H46 C51 1_555 1_555
C52 C51 1_555 1_555
C53 C52 1_555 1_555
H47 C53 1_555 1_555
C54 C49 1_555 1_555
C55 H48 1_555 1_555
H49 C55 1_555 1_555
H50 C55 1_555 1_555
C56 C69 1_555 1_555
C57 C52 1_555 1_555
C58 C59 1_555 1_555
C59 H51 1_555 1_555
C60 C59 1_555 1_555
H52 C60 1_555 1_555
C61 C60 1_555 1_555
C62 C61 1_555 1_555
H53 C62 1_555 1_555
C63 C58 1_555 1_555
C64 H54 1_555 1_555
H55 C64 1_555 1_555
H56 C64 1_555 1_555
C65 C61 1_555 1_555
C66 C67 1_555 1_555
C67 H57 1_555 1_555
C68 C67 1_555 1_555
H58 C68 1_555 1_555
C69 C68 1_555 1_555
C70 C69 1_555 1_555
H59 C70 1_555 1_555
C71 C66 1_555 1_555
C72 H60 1_555 1_555
H61 C72 1_555 1_555
H62 C72 1_555 1_555
C73 C74 1_555 1_555
C74 C75 1_555 1_555
C75 H63 1_555 1_555
C76 C75 1_555 1_555
C77 C76 1_555 1_555
H64 C77 1_555 1_555
C78 C73 1_555 1_555
H65 C78 1_555 1_555
C79 C76 1_555 1_555
H66 C79 1_555 1_555
H67 C79 1_555 1_555
H68 C79 1_555 1_555
N1 C2 1_555 1_555
N2 N1 1_555 1_555
N3 C1 1_555 1_555
N4 Zn3 1_555 1_555
N5 Zn1 1_555 1_555
N6 C9 1_555 1_555
N7 Zn2 1_555 1_555
N8 Zn1 1_555 1_555
N9 Zn5 1_555 1_555
N10 C23 1_555 1_555
N11 Zn1 1_555 1_555
N12 Zn3 1_555 1_555
N13 Zn4 1_555 1_555
N14 Zn1 1_555 1_555
N15 Zn5 1_555 1_555
N16 Zn4 1_555 1_555
N17 Zn1 1_555 1_555
N18 Zn2 1_555 1_555
O1 C36 1_555 1_555
O2 C36 1_555 1_555
O3 Zn2 1_555 1_555
O4 Zn2 1_555 1_555
O5 C57 1_555 1_555
O6 C65 1_555 1_555
O7 C65 1_555 1_555
O8 C57 1_555 1_555
O9 C40 1_555 1_555
O10 C54 1_555 1_555
O11 C71 1_555 1_555
O12 C63 1_555 1_555
O13 C47 1_555 1_555
O14 C48 1_555 1_555
O15 C46 1_555 1_555
O16 C39 1_555 1_555
Zn3B O1 1_555 1_555
Zn4B O5 1_555 1_555
Zn5E O6 1_555 1_555
O1B Zn3 1_555 1_555
O2B Zn3 1_555 1_555
O5B Zn4 1_555 1_555
O6E Zn5 1_555 1_555
O7E Zn5 1_555 1_555
C5 C6 1_555 1_555
C8 N4 1_555 1_555
C12 C13 1_555 1_555
C15 N7 1_555 1_555
C16 N9 1_555 1_555
C19 C20 1_555 1_555
C22 N12 1_555 1_555
C26 C27 1_555 1_555
C29 N13 1_555 1_555
C30 N15 1_555 1_555
C33 C34 1_555 1_555
C41 C42 1_555 1_555
C43 O16 1_555 1_555
C44 O9 1_555 1_555
C49 O15 1_555 1_555
C53 C54 1_555 1_555
C55 O10 1_555 1_555
C56 O3 1_555 1_555
C56 O4 1_555 1_555
C58 O13 1_555 1_555
C62 C63 1_555 1_555
C64 O12 1_555 1_555
C66 O14 1_555 1_555
C70 C71 1_555 1_555
C72 O11 1_555 1_555
C73 N16 1_555 1_555
C74 N18 1_555 1_555
C77 C78 1_555 1_555
N2 N3 1_555 1_555
N4 N5 1_555 1_555
N5 N6 1_555 1_555
N7 N8 1_555 1_555
N8 N9 1_555 1_555
N10 N11 1_555 1_555
N11 N12 1_555 1_555
N13 N14 1_555 1_555
N14 N15 1_555 1_555
N16 N17 1_555 1_555
N17 N18 1_555 1_555
O2 Zn3B 1_555 1_555
O7 Zn5E 1_555 1_555

#END
